data_PCOD9036689
_publ_section_title
;
Structure prediction by ZEFSAII (Michael W. Deem and Ramdas Pophale) SiO2 
 PCOD9036689
Probable space group: P -1
;
_chemical_formula_sum "Si O2"
_cell_formula_units_Z 16
_cell_length_a 11.817213
_cell_length_b 7.695771
_cell_length_c 11.907990
_cell_angle_alpha 127.819507
_cell_angle_beta 85.116749
_cell_angle_gamma 114.963263
_cell_volume 752.401314
_symmetry_space_group_name_H-M "P -1"
_symmetry_group_IT_number 2
_symmetry_cell_setting 'triclinic'
loop_
_space_group_symop_operation_xyz
x,y,z
-x,-y,-z
loop_
_atom_site_type_symbol
_atom_site_label
_atom_site_fract_x
_atom_site_fract_y
_atom_site_fract_z
Si Si1 0.206004 0.690895 0.120059
Si Si2 0.134950 0.099065 0.624670
Si Si3 0.413021 0.586838 0.383321
Si Si4 0.690179 0.796304 0.559682
Si Si5 0.926475 0.456774 0.137172
Si Si6 0.444622 0.630138 0.139384
Si Si7 0.075634 0.467618 0.585434
Si Si8 0.686670 0.112612 0.373678
O O1 0.311560 0.600860 0.091066
O O2 0.062011 0.499644 0.093806
O O3 0.247218 0.923596 0.290425
O O4 0.186531 0.737511 0.009447
O O5 0.217659 0.214483 0.549874
O O6 0.096035 0.296102 0.762141
O O7 0.231900 0.031522 0.661664
O O8 0.009230 0.832113 0.510545
O O9 0.553943 0.712177 0.477348
O O10 0.332613 0.360539 0.385643
O O11 0.423535 0.531288 0.230494
O O12 0.351762 0.775367 0.470833
O O13 0.932561 0.408648 0.248457
O O14 0.553240 0.919680 0.252466
O O15 0.500000 0.500000 0.000000
O O16 0.223987 0.643271 0.609064
O O17 0.000000 0.500000 0.500000
#
# Coordination Sequence:
#
# PCOD9036689 Si02
#       8
#     2   2   2   2   2   2   2   2
#     4  11  25  43  66  93 134 180 213 267 336 384
#     4  11  21  41  70  96 134 172 217 269 327 385
#     4  11  24  40  68 104 130 165 226 274 323 397
#     4  11  22  42  70 101 130 173 215 277 329 383
#     4  11  24  43  64  97 135 173 221 265 319 406
#     4  12  25  45  68  94 134 179 214 273 334 388
#     4  10  23  38  68 101 129 170 218 270 323 381
#     4  11  22  41  67 101 133 168 221 275 321 389
#
# _framework density 21.265246000000001
#
# number of rings (size 3 to 8) (size 9 to 14) (size 15 to 20)
#    0.000    1.000    3.750    3.000    3.500    1.000 
#    0.000    1.250    0.000    5.250    0.000    0.000 
#    0.000    0.000    0.000    0.000    0.000    0.000 
#
# Total GULP energy -89258.676938 kJ/mol
# GULP energy per Si atom -5578.667309 kJ/mol
# Density = 2.121685 g / cm^3
# Si number density = 21.265246 Si / 1000 Ang^3
#
#
#
# Elastic Constant Matrix: (Units=GPa)
#
#
# Indices 1 2 3 4 5 6 
#
# 1 136.4161 30.6511 38.7614 -9.0689 -0.5364 6.7163
# 2 30.6511 118.1093 18.7307 -11.5018 5.7246 10.0642
# 3 38.7614 18.7307 96.6484 -26.5984 3.3651 2.1560
# 4 -9.0689 -11.5018 -26.5984 24.0173 -4.8300 1.8350
# 5 -0.5364 5.7246 3.3651 -4.8300 39.9034 -6.8363
# 6 6.7163 10.0642 2.1560 1.8350 -6.8363 29.2479
#
#
#
# Elastic Compliance Matrix: (Units=1/GPa)
#
#
# Indices 1 2 3 4 5 6 
#
# 1 0.008679 -0.001758 -0.003482 -0.001278 0.000341 -0.000971
# 2 -0.001758 0.009679 0.000064 0.004003 -0.001540 -0.003543
# 3 -0.003482 0.000064 0.016465 0.017137 0.000386 -0.001421
# 4 -0.001278 0.004003 0.017137 0.063402 0.004744 -0.005216
# 5 0.000341 -0.001540 0.000386 0.004744 0.026927 0.006419
# 6 -0.000971 -0.003543 -0.001421 -0.005216 0.006419 0.037565
#
#
# Mechanical properties :
#
#
# Convention : Reuss Voigt Hill
#
# Bulk Modulus (GPa) = 40.86612 58.60667 49.73640
# Shear Modulus (GPa) = 27.58941 36.16909 31.87925
#
# Velocity S-wave (km/s) = 3.60584 4.12862 3.87605
# Velocity P-wave (km/s) = 6.04940 7.09556 6.59326
#
# Compressibility (1/GPa) = 0.02447015
#
# Stress axis : x y z
#
# Youngs Moduli (GPa) = 115.21810 103.31317 60.73340
#
# Poissons Ratio (x) = 0.18167 0.21148
# Poissons Ratio (y) = 0.20260 -0.00386
# Poissons Ratio (z) = 0.40120 -0.00657
#
# Static dielectric constant tensor:
#      x y z
#    x 1.847680 -0.068470 -0.044020 
#    y -0.068470 1.872690 0.056810 
#    z -0.044020 0.056810 1.882980 
# 
# From -- ./inp_files/420011.got.cif
#   From: 2010.05.17/outbox.cif.g08.bks.cpg/sg2_211_cif.got.tgz:420011.got - 2010.06.03 11:33:40.
