data_PCOD9036791
_publ_section_title
;
Structure prediction by ZEFSAII (Michael W. Deem and Ramdas Pophale) SiO2 
 PCOD9036791
Probable space group: P -1
;
_chemical_formula_sum "Si O2"
_cell_formula_units_Z 16
_cell_length_a 15.224753
_cell_length_b 9.077991
_cell_length_c 9.624496
_cell_angle_alpha 111.063735
_cell_angle_beta 98.934965
_cell_angle_gamma 134.540111
_cell_volume 699.369669
_symmetry_space_group_name_H-M "P -1"
_symmetry_group_IT_number 2
_symmetry_cell_setting 'triclinic'
loop_
_space_group_symop_operation_xyz
x,y,z
-x,-y,-z
loop_
_atom_site_type_symbol
_atom_site_label
_atom_site_fract_x
_atom_site_fract_y
_atom_site_fract_z
Si Si1 0.360157 0.964825 0.256071
Si Si2 0.845604 0.142476 0.034520
Si Si3 0.646263 0.663628 0.190374
Si Si4 0.234765 0.847069 0.690154
Si Si5 0.805277 0.394360 0.667234
Si Si6 0.568949 0.209174 0.962128
Si Si7 0.173727 0.216811 0.169001
Si Si8 0.621078 0.567170 0.470623
O O1 0.324357 0.899941 0.387552
O O2 0.338276 0.764147 0.111818
O O3 0.531739 0.269688 0.356372
O O4 0.240738 0.907915 0.133578
O O5 0.815311 0.212259 0.182026
O O6 0.029528 0.391530 0.143182
O O7 0.777488 0.863472 0.940906
O O8 0.619502 0.629235 0.336772
O O9 0.775251 0.985198 0.303451
O O10 0.500000 0.500000 0.000000
O O11 0.671076 0.512436 0.124732
O O12 0.161370 0.618150 0.485186
O O13 0.413684 0.052855 0.802177
O O14 0.756580 0.505298 0.713053
O O15 0.500000 0.000000 0.000000
O O16 0.216321 0.213650 0.332986
O O17 0.000000 0.000000 0.000000
O O18 0.500000 0.500000 0.500000
#
# Coordination Sequence:
#
# PCOD9036791 Si02
#       8
#     2   2   2   2   2   2   2   2
#     4  12  23  40  68 101 133 173 229 283 338 409
#     4  11  23  46  68  91 138 186 222 278 350 406
#     4  10  23  39  62 101 138 170 218 284 345 405
#     4  11  23  42  67  96 132 176 228 278 343 411
#     4  11  26  43  66  98 134 179 232 283 335 408
#     4  11  21  39  64  97 135 169 213 283 352 396
#     4  10  25  44  67  97 142 181 225 279 349 404
#     4  12  22  38  71  98 132 177 228 280 339 405
#
# _framework density 22.877744
#
# number of rings (size 3 to 8) (size 9 to 14) (size 15 to 20)
#    0.000    1.000    3.750    3.000    1.750    3.000 
#    0.000    0.000    0.000    2.250    0.000    0.000 
#    0.000    0.000    0.000    0.000    0.000    0.000 
#
# Total GULP energy -89191.781565 kJ/mol
# GULP energy per Si atom -5574.486348 kJ/mol
# Density = 2.282567 g / cm^3
# Si number density = 22.877744 Si / 1000 Ang^3
#
#
#
# Elastic Constant Matrix: (Units=GPa)
#
#
# Indices 1 2 3 4 5 6 
#
# 1 101.4179 5.6535 27.3676 -2.1242 -11.3589 -23.9326
# 2 5.6535 61.1892 19.8681 -15.3867 -3.0478 -18.3601
# 3 27.3676 19.8681 101.6160 -18.3240 5.8693 -9.0482
# 4 -2.1242 -15.3867 -18.3240 35.2189 -3.3799 -5.4371
# 5 -11.3589 -3.0478 5.8693 -3.3799 51.4855 8.2774
# 6 -23.9326 -18.3601 -9.0482 -5.4371 8.2774 26.6812
#
#
#
# Elastic Compliance Matrix: (Units=1/GPa)
#
#
# Indices 1 2 3 4 5 6 
#
# 1 0.014435 0.005730 -0.002806 0.004592 0.001507 0.016408
# 2 0.005730 0.028786 -0.001755 0.016270 -0.000223 0.027738
# 3 -0.002806 -0.001755 0.012268 0.005589 -0.002113 0.002230
# 4 0.004592 0.016270 0.005589 0.042685 -0.000025 0.025916
# 5 0.001507 -0.000223 -0.002113 -0.000025 0.020950 -0.006023
# 6 0.016408 0.027738 0.002230 0.025916 -0.006023 0.079190
#
#
# Mechanical properties :
#
#
# Convention : Reuss Voigt Hill
#
# Bulk Modulus (GPa) = 17.29273 41.11126 29.20199
# Shear Modulus (GPa) = 23.22861 36.76604 29.99733
#
# Velocity S-wave (km/s) = 3.18989 4.01317 3.62498
# Velocity P-wave (km/s) = 4.59808 6.28355 5.50570
#
# Compressibility (1/GPa) = 0.05782778
#
# Stress axis : x y z
#
# Youngs Moduli (GPa) = 69.27676 34.73887 81.51112
#
# Poissons Ratio (x) = -0.19907 0.22873
# Poissons Ratio (y) = -0.39698 0.14305
# Poissons Ratio (z) = 0.19440 0.06097
#
# Static dielectric constant tensor:
#      x y z
#    x 1.865020 -0.057550 -0.057050 
#    y -0.057550 1.971190 0.099330 
#    z -0.057050 0.099330 1.990240 
# 
# From -- ./inp_files/299157.got.cif
#   From: 2010.05.17/outbox.cif.g08.bks.cpg/sg2_150_cif.got.tgz:299157.got - 2010.06.03 11:33:40.
