data_PCOD9036329
_publ_section_title
;
Structure prediction by ZEFSAII (Michael W. Deem and Ramdas Pophale) SiO2 
 PCOD9036329
Probable space group: P -1
;
_chemical_formula_sum "Si O2"
_cell_formula_units_Z 16
_cell_length_a 13.707719
_cell_length_b 11.475171
_cell_length_c 15.143539
_cell_angle_alpha 55.843178
_cell_angle_beta 28.896212
_cell_angle_gamma 44.354860
_cell_volume 789.888909
_symmetry_space_group_name_H-M "P -1"
_symmetry_group_IT_number 2
_symmetry_cell_setting 'triclinic'
loop_
_space_group_symop_operation_xyz
x,y,z
-x,-y,-z
loop_
_atom_site_type_symbol
_atom_site_label
_atom_site_fract_x
_atom_site_fract_y
_atom_site_fract_z
Si Si1 0.366312 0.637344 0.294180
Si Si2 0.854984 0.273485 0.382670
Si Si3 0.976359 0.072386 0.866734
Si Si4 0.573435 0.023226 0.148687
Si Si5 0.236208 0.721119 0.891725
Si Si6 0.369833 0.190526 0.058992
Si Si7 0.087837 0.070458 0.574256
Si Si8 0.026160 0.654939 0.917715
O O1 0.333020 0.647673 0.421742
O O2 0.494226 0.444798 0.241776
O O3 0.108930 0.765144 0.395814
O O4 0.531102 0.707679 0.108075
O O5 0.086382 0.272668 0.233992
O O6 0.802288 0.356469 0.292431
O O7 0.921187 0.084400 0.392237
O O8 0.022889 0.092287 0.720030
O O9 0.739789 0.061844 0.058087
O O10 0.908532 0.220325 0.926282
O O11 0.195186 0.891872 0.809248
O O12 0.449876 0.160582 0.110203
O O13 0.357599 0.026124 0.366821
O O14 0.766796 0.835692 0.035403
O O15 0.119425 0.665023 0.934882
O O16 0.500000 0.000000 0.000000
O O17 0.000000 0.500000 0.000000
#
# Coordination Sequence:
#
# PCOD9036329 Si02
#       8
#     2   2   2   2   2   2   2   2
#     4  12  24  37  65 101 127 165 214 264 323 378
#     4  12  23  36  62  98 134 165 206 261 326 386
#     4  10  22  50  66  85 128 174 220 261 318 374
#     4  11  22  39  64  92 125 170 213 257 320 382
#     4  10  24  44  68  88 128 175 214 267 313 377
#     4  12  19  37  59  92 135 168 200 258 324 382
#     4  12  22  39  68  97 124 171 215 259 324 383
#     4  11  23  41  62  96 131 172 211 261 321 380
#
# _framework density 20.256012999999999
#
# number of rings (size 3 to 8) (size 9 to 14) (size 15 to 20)
#    0.000    0.750    7.500    1.875    1.750    2.000 
#    0.000    8.750    0.000    0.000    0.000    0.000 
#    0.000    0.000    0.000    0.000    0.000    0.000 
#
# Total GULP energy -89392.240423 kJ/mol
# GULP energy per Si atom -5587.015026 kJ/mol
# Density = 2.020991 g / cm^3
# Si number density = 20.256013 Si / 1000 Ang^3
#
#
#
# Elastic Constant Matrix: (Units=GPa)
#
#
# Indices 1 2 3 4 5 6 
#
# 1 69.8359 27.5386 42.8780 -3.8199 21.4319 -2.0042
# 2 27.5386 85.2751 39.7493 9.6086 19.5095 -0.1220
# 3 42.8780 39.7493 132.2605 -4.6648 12.7040 2.2104
# 4 -3.8199 9.6086 -4.6648 17.4490 9.1376 2.8664
# 5 21.4319 19.5095 12.7040 9.1376 35.8432 9.2119
# 6 -2.0042 -0.1220 2.2104 2.8664 9.2119 22.4873
#
#
#
# Elastic Compliance Matrix: (Units=1/GPa)
#
#
# Indices 1 2 3 4 5 6 
#
# 1 0.024823 -0.003318 -0.005114 0.013318 -0.016626 0.007810
# 2 -0.003318 0.016599 -0.003898 -0.009267 -0.004086 0.003033
# 3 -0.005114 -0.003898 0.010444 0.003598 0.001190 -0.002450
# 4 0.013318 -0.009267 0.003598 0.079012 -0.024533 0.000761
# 5 -0.016626 -0.004086 0.001190 -0.024533 0.050865 -0.019331
# 6 0.007810 0.003033 -0.002450 0.000761 -0.019331 0.053245
#
#
# Mechanical properties :
#
#
# Convention : Reuss Voigt Hill
#
# Bulk Modulus (GPa) = 36.75780 56.41148 46.58464
# Shear Modulus (GPa) = 18.60707 26.96962 22.78835
#
# Velocity S-wave (km/s) = 3.03412 3.65285 3.35777
# Velocity P-wave (km/s) = 5.51911 6.76023 6.17095
#
# Compressibility (1/GPa) = 0.02720511
#
# Stress axis : x y z
#
# Youngs Moduli (GPa) = 40.28594 60.24627 95.75125
#
# Poissons Ratio (x) = 0.19990 0.48967
# Poissons Ratio (y) = 0.13367 0.37322
# Poissons Ratio (z) = 0.20602 0.23483
#
# Static dielectric constant tensor:
#      x y z
#    x 1.742510 -0.033610 0.004380 
#    y -0.033610 1.726790 0.024370 
#    z 0.004380 0.024370 1.720030 
# 
# From -- ./inp_files/472197.got.cif
#   From: 2010.05.17/outbox.cif.g08.bks.cpg/sg2_237_cif.got.tgz:472197.got - 2010.06.03 11:33:40.
