data_PCOD9036139
_publ_section_title
;
Structure prediction by ZEFSAII (Michael W. Deem and Ramdas Pophale) SiO2 
 PCOD9036139
Probable space group: P -1
;
_chemical_formula_sum "Si O2"
_cell_formula_units_Z 11
_cell_length_a 9.758310
_cell_length_b 8.554272
_cell_length_c 8.222634
_cell_angle_alpha 73.978776
_cell_angle_beta 84.085878
_cell_angle_gamma 135.876382
_cell_volume 410.163968
_symmetry_space_group_name_H-M "P -1"
_symmetry_group_IT_number 2
_symmetry_cell_setting 'triclinic'
loop_
_space_group_symop_operation_xyz
x,y,z
-x,-y,-z
loop_
_atom_site_type_symbol
_atom_site_label
_atom_site_fract_x
_atom_site_fract_y
_atom_site_fract_z
Si Si1 0.129426 0.767787 0.257078
Si Si2 0.208259 0.488705 0.389650
Si Si3 0.500000 0.500000 0.500000
Si Si4 0.170126 0.971747 0.879552
Si Si5 0.678924 0.522238 0.979044
Si Si6 0.309828 0.777155 0.715335
O O1 0.261538 0.726758 0.291913
O O2 0.038919 0.758430 0.438590
O O3 0.908897 0.491775 0.273992
O O4 0.233156 0.982202 0.052683
O O5 0.361342 0.540105 0.482947
O O6 0.250735 0.447656 0.223747
O O7 0.694428 0.758139 0.290177
O O8 0.221204 0.852637 0.805056
O O9 0.913949 0.781369 0.956230
O O10 0.500000 0.500000 0.000000
O O11 0.613215 0.298470 0.151788
O O12 0.500000 0.000000 0.500000
#
# Coordination Sequence:
#
# PCOD9036139 Si02
#       6
#     2   2   1   2   2   2
#     4  10  22  47  76 100 144 197 245 303 372 441
#     4  11  24  46  69 111 143 192 247 299 376 436
#     4  12  30  42  70 108 156 190 242 310 366 424
#     4  11  24  50  71 105 151 197 251 297 368 448
#     4  11  25  47  78 110 147 191 249 308 371 436
#     4  11  22  44  75 108 142 197 245 306 366 447
#
# _framework density 26.818542000000001
#
# number of rings (size 3 to 8) (size 9 to 14) (size 15 to 20)
#    0.000    1.091    3.636    2.182    7.636    3.636 
#    6.545    0.000    0.000    0.000    0.000    0.000 
#    0.000    0.000    0.000    0.000    0.000    0.000 
#
# Total GULP energy -61496.527062 kJ/mol
# GULP energy per Si atom -5590.593369 kJ/mol
# Density = 2.675750 g / cm^3
# Si number density = 26.818542 Si / 1000 Ang^3
#
#
#
# Elastic Constant Matrix: (Units=GPa)
#
#
# Indices 1 2 3 4 5 6 
#
# 1 268.3069 50.4451 90.8628 -3.3445 24.4810 -19.0363
# 2 50.4451 74.3346 82.6963 -4.0139 19.3682 -9.9180
# 3 90.8628 82.6963 221.7837 -23.4605 10.1794 -34.2441
# 4 -3.3445 -4.0139 -23.4605 52.2248 -21.4367 -9.2604
# 5 24.4810 19.3682 10.1794 -21.4367 49.7868 1.0402
# 6 -19.0363 -9.9180 -34.2441 -9.2604 1.0402 24.4753
#
#
#
# Elastic Compliance Matrix: (Units=1/GPa)
#
#
# Indices 1 2 3 4 5 6 
#
# 1 0.004631 -0.000935 -0.001437 -0.001140 -0.002129 0.000872
# 2 -0.000935 0.029744 -0.012780 -0.010557 -0.012835 -0.010003
# 3 -0.001437 -0.012780 0.013064 0.010533 0.007215 0.015660
# 4 -0.001140 -0.010557 0.010533 0.033609 0.016534 0.021585
# 5 -0.002129 -0.012835 0.007215 0.016534 0.031599 0.008151
# 6 0.000872 -0.010003 0.015660 0.021585 0.008151 0.067212
#
#
# Mechanical properties :
#
#
# Convention : Reuss Voigt Hill
#
# Bulk Modulus (GPa) = 58.35767 112.49262 85.42514
# Shear Modulus (GPa) = 23.16151 47.99213 35.57682
#
# Velocity S-wave (km/s) = 2.94196 4.23485 3.64617
# Velocity P-wave (km/s) = 5.77474 8.12089 7.04615
#
# Compressibility (1/GPa) = 0.01713571
#
# Stress axis : x y z
#
# Youngs Moduli (GPa) = 215.91653 33.62053 76.54686
#
# Poissons Ratio (x) = 0.03142 0.11002
# Poissons Ratio (y) = 0.20178 0.97826
# Poissons Ratio (z) = 0.31034 0.42966
#
# Static dielectric constant tensor:
#      x y z
#    x 2.042470 0.052120 -0.022950 
#    y 0.052120 2.206130 0.060330 
#    z -0.022950 0.060330 2.049620 
# 
# From -- ./inp_files/152640.got.cif
#   From: 2010.05.17/outbox.cif.g08.bks.cpg/sg2_77_cif.got.tgz:152640.got - 2010.06.03 11:33:40.
