data_PCOD9036080
_publ_section_title
;
Structure prediction by ZEFSAII (Michael W. Deem and Ramdas Pophale) SiO2 
 PCOD9036080
Probable space group: P -1
;
_chemical_formula_sum "Si O2"
_cell_formula_units_Z 10
_cell_length_a 9.740066
_cell_length_b 7.897354
_cell_length_c 7.473128
_cell_angle_alpha 51.489545
_cell_angle_beta 89.245868
_cell_angle_gamma 60.457491
_cell_volume 352.994402
_symmetry_space_group_name_H-M "P -1"
_symmetry_group_IT_number 2
_symmetry_cell_setting 'triclinic'
loop_
_space_group_symop_operation_xyz
x,y,z
-x,-y,-z
loop_
_atom_site_type_symbol
_atom_site_label
_atom_site_fract_x
_atom_site_fract_y
_atom_site_fract_z
Si Si1 0.386406 0.799722 0.541818
Si Si2 0.848665 0.357996 0.251077
Si Si3 0.028422 0.153779 0.746761
Si Si4 0.774542 0.591883 0.725354
Si Si5 0.675705 0.959258 0.988179
O O1 0.278676 0.112114 0.414128
O O2 0.354710 0.841307 0.301529
O O3 0.589359 0.650392 0.670582
O O4 0.315408 0.644182 0.721403
O O5 0.877822 0.378123 0.028265
O O6 0.802019 0.647094 0.122451
O O7 0.980698 0.154564 0.541078
O O8 0.886367 0.462570 0.628031
O O9 0.000000 0.000000 0.000000
O O10 0.770069 0.978991 0.139142
O O11 0.500000 0.000000 0.000000
#
# Coordination Sequence:
#
# PCOD9036080 Si02
#       5
#     2   2   2   2   2
#     4  10  22  47  72 107 144 190 231 298 351 424
#     4  11  24  46  74 104 140 192 237 287 362 413
#     4  12  26  48  71 108 145 187 238 295 349 422
#     4  10  25  46  72 105 148 183 239 291 352 423
#     4  11  25  45  72 106 144 187 238 293 354 422
#
# _framework density 28.329059999999998
#
# number of rings (size 3 to 8) (size 9 to 14) (size 15 to 20)
#    0.000    1.200    2.000    2.400    2.800    5.600 
#    7.200    0.000    0.000    0.000    0.000    0.000 
#    0.000    0.000    0.000    0.000    0.000    0.000 
#
# Total GULP energy -56130.352813 kJ/mol
# GULP energy per Si atom -5613.035281 kJ/mol
# Density = 2.826458 g / cm^3
# Si number density = 28.329060 Si / 1000 Ang^3
#
#
#
# Elastic Constant Matrix: (Units=GPa)
#
#
# Indices 1 2 3 4 5 6 
#
# 1 174.3947 36.4320 60.3865 26.9275 -7.2286 35.2743
# 2 36.4320 104.4408 72.2933 32.9635 10.1898 8.3590
# 3 60.3865 72.2933 216.7006 35.0292 -1.5627 2.9688
# 4 26.9275 32.9635 35.0292 73.9564 2.8565 1.1589
# 5 -7.2286 10.1898 -1.5627 2.8565 49.5235 -0.3760
# 6 35.2743 8.3590 2.9688 1.1589 -0.3760 50.1037
#
#
#
# Elastic Compliance Matrix: (Units=1/GPa)
#
#
# Indices 1 2 3 4 5 6 
#
# 1 0.007818 -0.000828 -0.001544 -0.001716 0.001322 -0.005225
# 2 -0.000828 0.014227 -0.003858 -0.004075 -0.002946 -0.001490
# 3 -0.001544 -0.003858 0.006453 -0.000828 0.000830 0.001374
# 4 -0.001716 -0.004075 -0.000828 0.016345 -0.000369 0.001556
# 5 0.001322 -0.002946 0.000830 -0.000369 0.021037 -0.000322
# 6 -0.005225 -0.001490 0.001374 0.001556 -0.000322 0.023766
#
#
# Mechanical properties :
#
#
# Convention : Reuss Voigt Hill
#
# Bulk Modulus (GPa) = 62.34773 92.63997 77.49385
# Shear Modulus (GPa) = 46.53310 56.47834 51.50572
#
# Velocity S-wave (km/s) = 4.05729 4.46988 4.26857
# Velocity P-wave (km/s) = 6.63362 7.70793 7.19087
#
# Compressibility (1/GPa) = 0.01603908
#
# Stress axis : x y z
#
# Youngs Moduli (GPa) = 127.90605 70.29044 154.96835
#
# Poissons Ratio (x) = 0.05819 0.23928
# Poissons Ratio (y) = 0.10588 0.59780
# Poissons Ratio (z) = 0.19750 0.27115
#
# Static dielectric constant tensor:
#      x y z
#    x 2.196340 0.009810 0.042140 
#    y 0.009810 2.301860 -0.085730 
#    z 0.042140 -0.085730 2.148410 
# 
# From -- ./inp_files/152461.got.cif
#   From: 2010.05.17/outbox.cif.g08.bks.cpg/sg2_77_cif.got.tgz:152461.got - 2010.06.03 11:33:40.
