data_PCOD9036088
_publ_section_title
;
Structure prediction by ZEFSAII (Michael W. Deem and Ramdas Pophale) SiO2 
 PCOD9036088
Probable space group: P -1
;
_chemical_formula_sum "Si O2"
_cell_formula_units_Z 16
_cell_length_a 8.944778
_cell_length_b 9.184530
_cell_length_c 17.583516
_cell_angle_alpha 59.531411
_cell_angle_beta 75.141632
_cell_angle_gamma 36.424767
_cell_volume 706.110953
_symmetry_space_group_name_H-M "P -1"
_symmetry_group_IT_number 2
_symmetry_cell_setting 'triclinic'
loop_
_space_group_symop_operation_xyz
x,y,z
-x,-y,-z
loop_
_atom_site_type_symbol
_atom_site_label
_atom_site_fract_x
_atom_site_fract_y
_atom_site_fract_z
Si Si1 0.698434 0.638590 0.930917
Si Si2 0.864780 0.485991 0.111384
Si Si3 0.050456 0.979090 0.189070
Si Si4 0.732561 0.704615 0.230170
Si Si5 0.305475 0.322718 0.591863
Si Si6 0.308168 0.279228 0.317105
Si Si7 0.110679 0.615446 0.390999
Si Si8 0.568934 0.522160 0.852416
O O1 0.693035 0.470093 0.929858
O O2 0.982252 0.472431 0.924975
O O3 0.481403 0.958893 0.841351
O O4 0.666379 0.656170 0.021149
O O5 0.083508 0.145617 0.162940
O O6 0.741110 0.587524 0.183788
O O7 0.731964 0.258937 0.147453
O O8 0.091096 0.808391 0.297190
O O9 0.235938 0.763557 0.150388
O O10 0.702012 0.625792 0.332408
O O11 0.013116 0.547211 0.250846
O O12 0.199193 0.546572 0.484745
O O13 0.134779 0.299643 0.605744
O O14 0.597558 0.995296 0.626996
O O15 0.322757 0.325820 0.389460
O O16 0.455976 0.285113 0.245531
#
# Coordination Sequence:
#
# PCOD9036088 Si02
#       8
#     2   2   2   2   2   2   2   2
#     4  11  23  43  67  89 122 167 228 260 316 391
#     4  11  26  41  63  93 124 172 211 269 325 390
#     4  11  25  43  64  98 138 167 207 272 334 372
#     4  11  20  38  62  90 123 165 217 266 315 377
#     4  10  17  32  60  92 120 164 217 258 310 379
#     4  10  17  33  60  90 122 163 211 264 309 370
#     4   9  19  32  56  92 128 162 208 262 318 374
#     4  11  21  42  67  93 129 173 212 266 323 380
#
# _framework density 22.659327999999999
#
# number of rings (size 3 to 8) (size 9 to 14) (size 15 to 20)
#    0.000    1.500    3.750    2.250    1.750    1.000 
#    0.000    0.625    0.000    3.000    0.000    0.000 
#    0.000    0.000    0.000    0.000    0.000    0.000 
#
# Total GULP energy -89243.190921 kJ/mol
# GULP energy per Si atom -5577.699433 kJ/mol
# Density = 2.260775 g / cm^3
# Si number density = 22.659328 Si / 1000 Ang^3
#
#
#
# Elastic Constant Matrix: (Units=GPa)
#
#
# Indices 1 2 3 4 5 6 
#
# 1 28.4866 17.3762 25.7332 2.6107 -1.9383 -1.8504
# 2 17.3762 122.9106 51.8685 21.9163 16.2763 18.2735
# 3 25.7332 51.8685 128.1618 38.3270 21.1521 11.9148
# 4 2.6107 21.9163 38.3270 32.9684 11.9208 11.4876
# 5 -1.9383 16.2763 21.1521 11.9208 19.5749 -0.0481
# 6 -1.8504 18.2735 11.9148 11.4876 -0.0481 29.8946
#
#
#
# Elastic Compliance Matrix: (Units=1/GPa)
#
#
# Indices 1 2 3 4 5 6 
#
# 1 0.054806 -0.007482 -0.014463 0.004298 0.024689 0.012119
# 2 -0.007482 0.012022 -0.001061 -0.000173 -0.009503 -0.007338
# 3 -0.014463 -0.001061 0.017137 -0.013475 -0.010867 -0.001916
# 4 0.004298 -0.000173 -0.013475 0.059339 -0.021048 -0.017093
# 5 0.024689 -0.009503 -0.010867 -0.021048 0.086042 0.019895
# 6 0.012119 -0.007338 -0.001916 -0.017093 0.019895 0.046050
#
#
# Mechanical properties :
#
#
# Convention : Reuss Voigt Hill
#
# Bulk Modulus (GPa) = 26.34775 52.16832 39.25804
# Shear Modulus (GPa) = 14.96742 28.79299 21.88020
#
# Velocity S-wave (km/s) = 2.57289 3.56854 3.11081
# Velocity P-wave (km/s) = 4.52541 6.32868 5.50143
#
# Compressibility (1/GPa) = 0.03795390
#
# Stress axis : x y z
#
# Youngs Moduli (GPa) = 18.24605 83.18385 58.35224
#
# Poissons Ratio (x) = 0.62240 0.84394
# Poissons Ratio (y) = 0.13652 0.06189
# Poissons Ratio (z) = 0.26389 0.08822
#
# Static dielectric constant tensor:
#      x y z
#    x 1.936410 -0.035150 0.006830 
#    y -0.035150 1.924250 0.028800 
#    z 0.006830 0.028800 1.841760 
# 
# From -- ./inp_files/331485.got.cif
#   From: 2010.05.17/outbox.cif.g08.bks.cpg/sg2_166_cif.got.tgz:331485.got - 2010.06.03 11:33:40.
