data_PCOD9036057
_publ_section_title
;
Structure prediction by ZEFSAII (Michael W. Deem and Ramdas Pophale) SiO2 
 PCOD9036057
Probable space group: P -1
;
_chemical_formula_sum "Si O2"
_cell_formula_units_Z 16
_cell_length_a 12.297705
_cell_length_b 18.338065
_cell_length_c 9.076720
_cell_angle_alpha 128.548608
_cell_angle_beta 95.744172
_cell_angle_gamma 42.622489
_cell_volume 797.978642
_symmetry_space_group_name_H-M "P -1"
_symmetry_group_IT_number 2
_symmetry_cell_setting 'triclinic'
loop_
_space_group_symop_operation_xyz
x,y,z
-x,-y,-z
loop_
_atom_site_type_symbol
_atom_site_label
_atom_site_fract_x
_atom_site_fract_y
_atom_site_fract_z
Si Si1 0.203685 0.284677 0.717035
Si Si2 0.979306 0.256081 0.113363
Si Si3 0.418624 0.449937 0.092496
Si Si4 0.542609 0.574663 0.283746
Si Si5 0.922070 0.029339 0.189486
Si Si6 0.215990 0.958418 0.281234
Si Si7 0.047698 0.244039 0.442359
Si Si8 0.304447 0.038346 0.635611
O O1 0.244704 0.176028 0.711127
O O2 0.147017 0.266838 0.542068
O O3 0.434804 0.165755 0.582269
O O4 0.000000 0.500000 0.000000
O O5 0.763844 0.440579 0.225516
O O6 0.988951 0.287115 0.318334
O O7 0.192644 0.126950 0.889086
O O8 0.982823 0.141637 0.980555
O O9 0.495799 0.498180 0.199488
O O10 0.171597 0.616356 0.319547
O O11 0.441077 0.419971 0.882143
O O12 0.571137 0.262827 0.959930
O O13 0.336754 0.778503 0.583767
O O14 0.016855 0.035459 0.323645
O O15 0.000000 0.000000 0.000000
O O16 0.203072 0.027051 0.516016
O O17 0.209629 0.039777 0.252639
#
# Coordination Sequence:
#
# PCOD9036057 Si02
#       8
#     2   2   2   2   2   2   2   2
#     4  10  22  47  71  90 118 160 214 270 327 378
#     4  12  25  40  62  97 137 168 206 262 311 380
#     4  11  22  37  60  88 123 174 216 258 299 368
#     4  11  24  36  57  89 129 174 216 254 300 367
#     4  12  24  39  60  94 137 181 209 250 311 374
#     4  11  21  40  63  88 127 172 215 249 306 373
#     4  11  24  41  66  93 125 167 211 262 323 375
#     4  10  24  41  66  97 123 160 216 268 314 376
#
# _framework density 20.050663
#
# number of rings (size 3 to 8) (size 9 to 14) (size 15 to 20)
#    0.000    1.000    3.750    3.000    3.500    3.500 
#    0.000    0.625    0.000    0.000    0.000    0.000 
#    0.000    0.000    0.000    0.000    0.000    0.000 
#
# Total GULP energy -89492.131920 kJ/mol
# GULP energy per Si atom -5593.258245 kJ/mol
# Density = 2.000503 g / cm^3
# Si number density = 20.050663 Si / 1000 Ang^3
#
#
#
# Elastic Constant Matrix: (Units=GPa)
#
#
# Indices 1 2 3 4 5 6 
#
# 1 52.3617 23.0951 28.6904 -3.5083 -5.2246 -14.9140
# 2 23.0951 87.9250 42.5816 13.3673 -9.5098 -20.2550
# 3 28.6904 42.5816 87.0078 9.1828 -20.3996 -13.7137
# 4 -3.5083 13.3673 9.1828 40.5961 5.5631 -0.2826
# 5 -5.2246 -9.5098 -20.3996 5.5631 34.7115 -2.0045
# 6 -14.9140 -20.2550 -13.7137 -0.2826 -2.0045 13.9875
#
#
#
# Elastic Compliance Matrix: (Units=1/GPa)
#
#
# Indices 1 2 3 4 5 6 
#
# 1 0.030515 0.001303 -0.005836 0.003366 0.002664 0.029151
# 2 0.001303 0.021473 -0.004118 -0.006703 0.006421 0.029230
# 3 -0.005836 -0.004118 0.019964 -0.005118 0.011058 0.008868
# 4 0.003366 -0.006703 -0.005118 0.029543 -0.009761 -0.011937
# 5 0.002664 0.006421 0.011058 -0.009761 0.040684 0.028613
# 6 0.029151 0.029230 0.008868 -0.011937 0.028613 0.157456
#
#
# Mechanical properties :
#
#
# Convention : Reuss Voigt Hill
#
# Bulk Modulus (GPa) = 18.29871 46.22541 32.26206
# Shear Modulus (GPa) = 14.91851 26.72085 20.81968
#
# Velocity S-wave (km/s) = 2.73067 3.65453 3.22585
# Velocity P-wave (km/s) = 4.36900 6.39623 5.47722
#
# Compressibility (1/GPa) = 0.05464868
#
# Stress axis : x y z
#
# Youngs Moduli (GPa) = 32.77043 46.57039 50.09134
#
# Poissons Ratio (x) = -0.06067 0.29232
# Poissons Ratio (y) = -0.04269 0.20630
# Poissons Ratio (z) = 0.19124 0.19180
#
# Static dielectric constant tensor:
#      x y z
#    x 1.711640 0.007190 0.010910 
#    y 0.007190 1.715790 0.012830 
#    z 0.010910 0.012830 1.690860 
# 
# From -- ./inp_files/279896.got.cif
#   From: 2010.05.17/outbox.cif.g08.bks.cpg/sg2_140_cif.got.tgz:279896.got - 2010.06.03 11:33:40.
