data_PCOD9036571
_publ_section_title
;
Structure prediction by ZEFSAII (Michael W. Deem and Ramdas Pophale) SiO2 
 PCOD9036571
Probable space group: P -1
;
_chemical_formula_sum "Si O2"
_cell_formula_units_Z 14
_cell_length_a 6.321892
_cell_length_b 7.864838
_cell_length_c 23.276240
_cell_angle_alpha 138.178066
_cell_angle_beta 134.583538
_cell_angle_gamma 62.899846
_cell_volume 544.047192
_symmetry_space_group_name_H-M "P -1"
_symmetry_group_IT_number 2
_symmetry_cell_setting 'triclinic'
loop_
_space_group_symop_operation_xyz
x,y,z
-x,-y,-z
loop_
_atom_site_type_symbol
_atom_site_label
_atom_site_fract_x
_atom_site_fract_y
_atom_site_fract_z
Si Si1 0.058031 0.200292 0.730691
Si Si2 0.277571 0.683719 0.128356
Si Si3 0.042078 0.076933 0.240441
Si Si4 0.178653 0.594731 0.446211
Si Si5 0.445367 0.942332 0.043422
Si Si6 0.799080 0.934616 0.508960
Si Si7 0.191026 0.400398 0.159699
O O1 0.399226 0.331115 0.840896
O O2 0.833286 0.414660 0.744884
O O3 0.050512 0.070167 0.634998
O O4 0.949208 0.998765 0.709809
O O5 0.270865 0.580283 0.165702
O O6 0.267711 0.988079 0.213693
O O7 0.000000 0.500000 0.000000
O O8 0.753332 0.886808 0.114156
O O9 0.054444 0.382813 0.321578
O O10 0.500000 0.500000 0.500000
O O11 0.235282 0.888369 0.508747
O O12 0.894749 0.648587 0.446201
O O13 0.399262 0.185592 0.136090
O O14 0.500000 0.000000 0.000000
O O15 0.144723 0.751411 0.947437
O O16 0.500000 0.000000 0.500000
#
# Coordination Sequence:
#
# PCOD9036571 Si02
#       7
#     2   2   2   2   2   2   2
#     4  11  24  43  67  99 135 182 229 285 356 414
#     4  11  22  41  65  95 140 183 228 283 346 415
#     4  11  25  40  69  98 134 178 235 281 345 425
#     4  11  26  49  72 106 143 181 244 299 360 438
#     4  11  23  40  61  97 137 181 223 281 338 407
#     4  11  27  47  75 102 143 187 235 307 368 425
#     4  10  23  38  61  92 137 171 229 271 332 414
#
# _framework density 25.733063999999999
#
# number of rings (size 3 to 8) (size 9 to 14) (size 15 to 20)
#    0.000    1.143    0.000    5.143    6.000    9.143 
#    0.000    0.000    0.000    0.000    0.000    0.000 
#    0.000    0.000    0.000    0.000    0.000    0.000 
#
# Total GULP energy -77985.083022 kJ/mol
# GULP energy per Si atom -5570.363073 kJ/mol
# Density = 2.567449 g / cm^3
# Si number density = 25.733064 Si / 1000 Ang^3
#
#
#
# Elastic Constant Matrix: (Units=GPa)
#
#
# Indices 1 2 3 4 5 6 
#
# 1 100.0597 35.8855 28.2213 9.9146 -8.6336 -28.2756
# 2 35.8855 83.3431 21.6789 16.0024 -19.0763 -36.3978
# 3 28.2213 21.6789 94.8517 9.5704 -15.3442 -24.3956
# 4 9.9146 16.0024 9.5704 45.3284 -22.6307 -14.1673
# 5 -8.6336 -19.0763 -15.3442 -22.6307 54.8319 8.2929
# 6 -28.2756 -36.3978 -24.3956 -14.1673 8.2929 54.0165
#
#
#
# Elastic Compliance Matrix: (Units=1/GPa)
#
#
# Indices 1 2 3 4 5 6 
#
# 1 0.012811 -0.003543 -0.002191 -0.000270 -0.000443 0.003326
# 2 -0.003543 0.019063 0.000079 -0.000643 0.004288 0.010199
# 3 -0.002191 0.000079 0.012694 0.000525 0.002794 0.004348
# 4 -0.000270 -0.000643 0.000525 0.029637 0.011249 0.005708
# 5 -0.000443 0.004288 0.002794 0.011249 0.024617 0.003091
# 6 0.003326 0.010199 0.004348 0.005708 0.003091 0.030113
#
#
# Mechanical properties :
#
#
# Convention : Reuss Voigt Hill
#
# Bulk Modulus (GPa) = 30.06790 49.98065 40.02428
# Shear Modulus (GPa) = 33.04022 43.66660 38.35341
#
# Velocity S-wave (km/s) = 3.58713 4.12382 3.86480
# Velocity P-wave (km/s) = 5.37276 6.49149 5.95844
#
# Compressibility (1/GPa) = 0.03325805
#
# Stress axis : x y z
#
# Youngs Moduli (GPa) = 78.05665 52.45835 78.77819
#
# Poissons Ratio (x) = 0.18587 0.17259
# Poissons Ratio (y) = 0.27656 -0.00623
# Poissons Ratio (z) = 0.17101 -0.00415
#
# Static dielectric constant tensor:
#      x y z
#    x 2.578000 -0.264470 -0.218640 
#    y -0.264470 2.390600 0.157570 
#    z -0.218640 0.157570 2.175230 
# 
# From -- ./inp_files/56774.got.cif
#   From: 2010.05.17/outbox.cif.g08.bks.cpg/sg2_29_cif.got.tgz:56774.got - 2010.06.03 11:33:40.
