data_PCOD9036839
_publ_section_title
;
Structure prediction by ZEFSAII (Michael W. Deem and Ramdas Pophale) SiO2 
 PCOD9036839
Probable space group: P -1
;
_chemical_formula_sum "Si O2"
_cell_formula_units_Z 16
_cell_length_a 8.448768
_cell_length_b 6.452948
_cell_length_c 18.199921
_cell_angle_alpha 84.478016
_cell_angle_beta 51.698458
_cell_angle_gamma 64.665785
_cell_volume 683.524685
_symmetry_space_group_name_H-M "P -1"
_symmetry_group_IT_number 2
_symmetry_cell_setting 'triclinic'
loop_
_space_group_symop_operation_xyz
x,y,z
-x,-y,-z
loop_
_atom_site_type_symbol
_atom_site_label
_atom_site_fract_x
_atom_site_fract_y
_atom_site_fract_z
Si Si1 0.733089 0.469941 0.897444
Si Si2 0.478691 0.866625 0.273036
Si Si3 0.940180 0.300745 0.999802
Si Si4 0.440064 0.497453 0.634264
Si Si5 0.217014 0.355458 0.391225
Si Si6 0.392666 0.863468 0.892028
Si Si7 0.845834 0.288816 0.712752
Si Si8 0.321429 0.892232 0.545598
O O1 0.905748 0.350771 0.919749
O O2 0.614697 0.736481 0.884873
O O3 0.834796 0.300825 0.803284
O O4 0.500000 0.500000 0.000000
O O5 0.306177 0.077548 0.369298
O O6 0.580412 0.996785 0.188927
O O7 0.645615 0.639811 0.281216
O O8 0.338119 0.781581 0.263986
O O9 0.697309 0.324146 0.096999
O O10 0.147559 0.066679 0.985782
O O11 0.000000 0.500000 0.000000
O O12 0.595145 0.582157 0.631685
O O13 0.290090 0.731618 0.623948
O O14 0.590546 0.292903 0.539859
O O15 0.184176 0.459384 0.315233
O O16 0.000000 0.500000 0.500000
O O17 0.076665 0.115359 0.610034
O O18 0.500000 0.000000 0.500000
#
# Coordination Sequence:
#
# PCOD9036839 Si02
#       8
#     2   2   2   2   2   2   2   2
#     4  10  23  47  70 101 143 183 240 300 361 429
#     4  11  23  41  66  96 138 179 231 288 354 431
#     4  10  24  45  74 102 136 184 238 294 367 431
#     4  10  23  39  63  96 132 188 219 290 352 417
#     4  11  21  39  65  95 131 175 226 280 342 421
#     4  10  23  46  66 103 139 180 234 294 353 430
#     4  11  24  42  65 101 133 182 241 285 361 431
#     4  11  23  43  65  96 144 182 238 292 357 426
#
# _framework density 23.408078
#
# number of rings (size 3 to 8) (size 9 to 14) (size 15 to 20)
#    0.000    1.500    1.250    3.000    3.500    5.500 
#    6.750    0.000    0.000    0.000    0.000    0.000 
#    0.000    0.000    0.000    0.000    0.000    0.000 
#
# Total GULP energy -89080.890991 kJ/mol
# GULP energy per Si atom -5567.555687 kJ/mol
# Density = 2.335480 g / cm^3
# Si number density = 23.408078 Si / 1000 Ang^3
#
#
#
# Elastic Constant Matrix: (Units=GPa)
#
#
# Indices 1 2 3 4 5 6 
#
# 1 51.5286 33.4183 20.7508 -4.7009 16.3894 2.3531
# 2 33.4183 133.0226 9.9314 -26.7410 6.2012 -6.1204
# 3 20.7508 9.9314 63.0498 -25.3300 7.9406 9.5496
# 4 -4.7009 -26.7410 -25.3300 53.1056 0.6614 4.4802
# 5 16.3894 6.2012 7.9406 0.6614 34.5633 -1.0200
# 6 2.3531 -6.1204 9.5496 4.4802 -1.0200 32.2959
#
#
#
# Elastic Compliance Matrix: (Units=1/GPa)
#
#
# Indices 1 2 3 4 5 6 
#
# 1 0.031557 -0.007834 -0.009998 -0.005749 -0.011163 -0.000383
# 2 -0.007834 0.010441 0.003057 0.005937 0.001051 0.000855
# 3 -0.009998 0.003057 0.025667 0.013620 -0.002208 -0.008241
# 4 -0.005749 0.005937 0.013620 0.028382 -0.002203 -0.006490
# 5 -0.011163 0.001051 -0.002208 -0.002203 0.034677 0.003066
# 6 -0.000383 0.000855 -0.008241 -0.006490 0.003066 0.034588
#
#
# Mechanical properties :
#
#
# Convention : Reuss Voigt Hill
#
# Bulk Modulus (GPa) = 26.23581 41.75577 33.99579
# Shear Modulus (GPa) = 24.08845 36.22632 30.15738
#
# Velocity S-wave (km/s) = 3.21139 3.93822 3.59323
# Velocity P-wave (km/s) = 4.99830 6.20938 5.63646
#
# Compressibility (1/GPa) = 0.03811585
#
# Stress axis : x y z
#
# Youngs Moduli (GPa) = 31.68847 95.77346 38.95991
#
# Poissons Ratio (x) = 0.75032 0.38951
# Poissons Ratio (y) = 0.24826 -0.11910
# Poissons Ratio (z) = 0.31681 -0.29278
#
# Static dielectric constant tensor:
#      x y z
#    x 2.048400 -0.251440 0.117640 
#    y -0.251440 2.341930 -0.217190 
#    z 0.117640 -0.217190 2.035580 
# 
# From -- ./inp_files/340280.got.cif
#   From: 2010.05.17/outbox.cif.g08.bks.cpg/sg2_171_cif.got.tgz:340280.got - 2010.06.03 11:33:40.
