data_PCOD9036692
_publ_section_title
;
Structure prediction by ZEFSAII (Michael W. Deem and Ramdas Pophale) SiO2 
 PCOD9036692
Probable space group: P -1
;
_chemical_formula_sum "Si O2"
_cell_formula_units_Z 14
_cell_length_a 15.875323
_cell_length_b 9.256643
_cell_length_c 8.690527
_cell_angle_alpha 60.279315
_cell_angle_beta 75.149553
_cell_angle_gamma 34.604445
_cell_volume 599.299311
_symmetry_space_group_name_H-M "P -1"
_symmetry_group_IT_number 2
_symmetry_cell_setting 'triclinic'
loop_
_space_group_symop_operation_xyz
x,y,z
-x,-y,-z
loop_
_atom_site_type_symbol
_atom_site_label
_atom_site_fract_x
_atom_site_fract_y
_atom_site_fract_z
Si Si1 0.107059 0.854055 0.674675
Si Si2 0.141407 0.098298 0.749454
Si Si3 0.728792 0.677498 0.978634
Si Si4 0.667380 0.324683 0.539690
Si Si5 0.466236 0.819500 0.967665
Si Si6 0.834480 0.757358 0.643507
Si Si7 0.607785 0.433228 0.841018
O O1 0.119035 0.666789 0.865095
O O2 0.276165 0.633806 0.636103
O O3 0.067569 0.066319 0.697533
O O4 0.000000 0.000000 0.500000
O O5 0.210738 0.108382 0.577290
O O6 0.010301 0.413983 0.728653
O O7 0.256894 0.831588 0.960000
O O8 0.683294 0.867371 0.043162
O O9 0.598704 0.742921 0.982002
O O10 0.741307 0.760466 0.772181
O O11 0.500000 0.500000 0.500000
O O12 0.667350 0.403315 0.666827
O O13 0.798806 0.973800 0.650761
O O14 0.491923 0.743083 0.815719
O O15 0.473474 0.616616 0.128868
#
# Coordination Sequence:
#
# PCOD9036692 Si02
#       7
#     2   2   2   2   2   2   2
#     4  11  26  45  67  99 142 180 226 283 348 405
#     4  10  24  46  67  97 133 181 236 276 332 420
#     4  11  22  44  67 100 142 171 219 293 340 395
#     4  11  25  45  70 101 135 189 225 274 345 420
#     4  10  23  38  68 105 131 177 224 275 350 398
#     4  10  24  42  70  94 134 179 229 277 341 398
#     4  11  22  44  71  96 136 184 225 279 333 414
#
# _framework density 23.360614000000002
#
# number of rings (size 3 to 8) (size 9 to 14) (size 15 to 20)
#    0.000    1.429    2.857    0.857   10.000    5.714 
#    0.000    1.429    0.000    0.000    0.000    0.000 
#    0.000    0.000    0.000    0.000    0.000    0.000 
#
# Total GULP energy -78113.330656 kJ/mol
# GULP energy per Si atom -5579.523618 kJ/mol
# Density = 2.330744 g / cm^3
# Si number density = 23.360614 Si / 1000 Ang^3
#
#
#
# Elastic Constant Matrix: (Units=GPa)
#
#
# Indices 1 2 3 4 5 6 
#
# 1 88.2970 27.0253 35.5768 -2.1353 6.2273 12.7616
# 2 27.0253 115.2525 27.5957 19.0414 8.0689 31.7618
# 3 35.5768 27.5957 85.2602 0.9220 0.9156 10.7564
# 4 -2.1353 19.0414 0.9220 28.6529 -2.4945 3.3907
# 5 6.2273 8.0689 0.9156 -2.4945 39.5475 -1.9316
# 6 12.7616 31.7618 10.7564 3.3907 -1.9316 30.1959
#
#
#
# Elastic Compliance Matrix: (Units=1/GPa)
#
#
# Indices 1 2 3 4 5 6 
#
# 1 0.014528 -0.001642 -0.005163 0.002534 -0.001819 -0.002974
# 2 -0.001642 0.015121 -0.002350 -0.008830 -0.003995 -0.013639
# 3 -0.005163 -0.002350 0.014702 0.000862 0.000976 -0.000617
# 4 0.002534 -0.008830 0.000862 0.040865 0.004135 0.003585
# 5 -0.001819 -0.003995 0.000976 0.004135 0.026913 0.005881
# 6 -0.002974 -0.013639 -0.000617 0.003585 0.005881 0.048914
#
#
# Mechanical properties :
#
#
# Convention : Reuss Voigt Hill
#
# Bulk Modulus (GPa) = 38.40147 52.13393 45.26770
# Shear Modulus (GPa) = 26.59102 32.92005 29.75553
#
# Velocity S-wave (km/s) = 3.37751 3.75802 3.57283
# Velocity P-wave (km/s) = 5.62888 6.41839 6.03656
#
# Compressibility (1/GPa) = 0.02604067
#
# Stress axis : x y z
#
# Youngs Moduli (GPa) = 68.83381 66.13152 68.01787
#
# Poissons Ratio (x) = 0.10858 0.35119
# Poissons Ratio (y) = 0.11302 0.15985
# Poissons Ratio (z) = 0.35541 0.15542
#
# Static dielectric constant tensor:
#      x y z
#    x 1.915790 -0.048730 0.009850 
#    y -0.048730 1.926290 0.010740 
#    z 0.009850 0.010740 1.911680 
# 
# From -- ./inp_files/294824.got.cif
#   From: 2010.05.17/outbox.cif.g08.bks.cpg/sg2_148_cif.got.tgz:294824.got - 2010.06.03 11:33:40.
