data_PCOD9036008
_publ_section_title
;
Structure prediction by ZEFSAII (Michael W. Deem and Ramdas Pophale) SiO2 
 PCOD9036008
Probable space group: P -1
;
_chemical_formula_sum "Si O2"
_cell_formula_units_Z 16
_cell_length_a 11.118419
_cell_length_b 20.363860
_cell_length_c 18.252450
_cell_angle_alpha 158.110217
_cell_angle_beta 40.019005
_cell_angle_gamma 150.107390
_cell_volume 751.088534
_symmetry_space_group_name_H-M "P -1"
_symmetry_group_IT_number 2
_symmetry_cell_setting 'triclinic'
loop_
_space_group_symop_operation_xyz
x,y,z
-x,-y,-z
loop_
_atom_site_type_symbol
_atom_site_label
_atom_site_fract_x
_atom_site_fract_y
_atom_site_fract_z
Si Si1 0.747334 0.375979 0.944858
Si Si2 0.186954 0.194168 0.172611
Si Si3 0.459879 0.895963 0.100469
Si Si4 0.153474 0.206739 0.869768
Si Si5 0.985711 0.505806 0.826629
Si Si6 0.799570 0.701774 0.566995
Si Si7 0.515642 0.564922 0.185145
Si Si8 0.720501 0.401933 0.536359
O O1 0.551944 0.167024 0.873591
O O2 0.780392 0.322542 0.792242
O O3 0.684113 0.542387 0.134265
O O4 0.000000 0.500000 0.000000
O O5 0.096352 0.212975 0.311165
O O6 0.309282 0.433841 0.322925
O O7 0.362835 0.139949 0.054987
O O8 0.000000 0.000000 0.000000
O O9 0.555088 0.150791 0.317278
O O10 0.202762 0.717941 0.995511
O O11 0.312389 0.251775 0.770120
O O12 0.326382 0.317184 0.975272
O O13 0.913717 0.938824 0.715426
O O14 0.097926 0.380239 0.064225
O O15 0.088848 0.405319 0.630792
O O16 0.500000 0.500000 0.500000
O O17 0.368767 0.610154 0.351857
O O18 0.000000 0.500000 0.500000
#
# Coordination Sequence:
#
# PCOD9036008 Si02
#       8
#     2   2   2   2   2   2   2   2
#     4   9  20  43  69  97 136 176 225 288 341 400
#     4  12  25  45  64  97 142 177 232 288 339 413
#     4  11  23  41  66  96 138 180 221 289 337 405
#     4  10  25  45  69  97 140 178 230 290 344 408
#     4  10  24  44  65  99 133 178 229 279 345 410
#     4  12  27  43  70 100 139 189 229 285 351 418
#     4  10  22  47  69 102 139 178 229 294 341 413
#     4  12  26  39  69 103 132 182 229 272 356 408
#
# _framework density 21.302415
#
# number of rings (size 3 to 8) (size 9 to 14) (size 15 to 20)
#    0.000    1.250    3.750    0.750    5.250    0.500 
#    0.000    3.750    0.000    0.000    0.000    0.000 
#    0.000    0.000    0.000    0.000    0.000    0.000 
#
# Total GULP energy -89314.388708 kJ/mol
# GULP energy per Si atom -5582.149294 kJ/mol
# Density = 2.125393 g / cm^3
# Si number density = 21.302415 Si / 1000 Ang^3
#
#
#
# Elastic Constant Matrix: (Units=GPa)
#
#
# Indices 1 2 3 4 5 6 
#
# 1 67.5029 5.6619 26.6063 -6.0638 6.2166 2.5098
# 2 5.6619 92.6239 56.1653 -23.3993 4.7988 -10.4605
# 3 26.6063 56.1653 124.7299 -11.5542 -5.6621 -18.2715
# 4 -6.0638 -23.3993 -11.5542 46.5637 1.9728 -5.7566
# 5 6.2166 4.7988 -5.6621 1.9728 22.0619 -2.1264
# 6 2.5098 -10.4605 -18.2715 -5.7566 -2.1264 31.1438
#
#
#
# Elastic Compliance Matrix: (Units=1/GPa)
#
#
# Indices 1 2 3 4 5 6 
#
# 1 0.017968 0.003003 -0.005928 0.002210 -0.007825 -0.004043
# 2 0.003003 0.018200 -0.008114 0.008097 -0.007409 0.002101
# 3 -0.005928 -0.008114 0.014148 -0.000874 0.007763 0.006421
# 4 0.002210 0.008097 -0.000874 0.026623 -0.004348 0.006653
# 5 -0.007825 -0.007409 0.007763 -0.004348 0.052050 0.005447
# 6 -0.004043 0.002101 0.006421 0.006653 0.005447 0.038509
#
#
# Mechanical properties :
#
#
# Convention : Reuss Voigt Hill
#
# Bulk Modulus (GPa) = 35.41351 51.30263 43.35807
# Shear Modulus (GPa) = 25.12711 33.04875 29.08793
#
# Velocity S-wave (km/s) = 3.43817 3.94307 3.69924
# Velocity P-wave (km/s) = 5.69400 6.69818 6.21640
#
# Compressibility (1/GPa) = 0.02823781
#
# Stress axis : x y z
#
# Youngs Moduli (GPa) = 55.65366 54.94528 70.68251
#
# Poissons Ratio (x) = -0.16502 0.41900
# Poissons Ratio (y) = -0.16715 0.57355
# Poissons Ratio (z) = 0.32991 0.44585
#
# Static dielectric constant tensor:
#      x y z
#    x 1.764630 0.044560 0.005340 
#    y 0.044560 1.909600 -0.020440 
#    z 0.005340 -0.020440 1.728630 
# 
# From -- ./inp_files/428888.got.cif
#   From: 2010.05.17/outbox.cif.g08.bks.cpg/sg2_215_cif.got.tgz:428888.got - 2010.06.03 11:33:40.
