data_PCOD9036503
_publ_section_title
;
Structure prediction by ZEFSAII (Michael W. Deem and Ramdas Pophale) SiO2 
 PCOD9036503
Probable space group: P -1
;
_chemical_formula_sum "Si O2"
_cell_formula_units_Z 16
_cell_length_a 5.353640
_cell_length_b 12.477942
_cell_length_c 10.149285
_cell_angle_alpha 90.261763
_cell_angle_beta 108.327841
_cell_angle_gamma 79.107144
_cell_volume 630.912308
_symmetry_space_group_name_H-M "P -1"
_symmetry_group_IT_number 2
_symmetry_cell_setting 'triclinic'
loop_
_space_group_symop_operation_xyz
x,y,z
-x,-y,-z
loop_
_atom_site_type_symbol
_atom_site_label
_atom_site_fract_x
_atom_site_fract_y
_atom_site_fract_z
Si Si1 0.003309 0.374503 0.981187
Si Si2 0.955075 0.186389 0.452104
Si Si3 0.602525 0.815065 0.274773
Si Si4 0.432680 0.746720 0.965018
Si Si5 0.782723 0.427772 0.415300
Si Si6 0.797385 0.036788 0.631798
Si Si7 0.792310 0.019413 0.089059
Si Si8 0.659126 0.382147 0.687559
O O1 0.767066 0.329917 0.017667
O O2 0.931962 0.370429 0.813991
O O3 0.300022 0.309823 0.066198
O O4 0.000000 0.500000 0.000000
O O5 0.120331 0.218034 0.604574
O O6 0.869261 0.305219 0.367935
O O7 0.765084 0.115434 0.498021
O O8 0.145684 0.089375 0.403179
O O9 0.559248 0.796176 0.114826
O O10 0.446332 0.930367 0.307287
O O11 0.437648 0.728474 0.305090
O O12 0.259151 0.854536 0.872693
O O13 0.663266 0.398326 0.533576
O O14 0.558595 0.511827 0.297898
O O15 0.000000 0.500000 0.500000
O O16 0.057358 0.049492 0.764654
O O17 0.500000 0.000000 0.000000
O O18 0.000000 0.000000 0.000000
#
# Coordination Sequence:
#
# PCOD9036503 Si02
#       8
#     2   2   2   2   2   2   2   2
#     4  11  25  46  68 101 138 178 226 283 344 404
#     4  11  23  41  65  97 136 175 224 274 362 392
#     4  11  20  40  67  93 132 171 229 269 337 415
#     4  11  24  42  74  98 134 182 230 279 339 409
#     4  11  21  40  63  94 125 169 223 274 324 405
#     4  11  25  41  64  98 136 179 219 287 339 415
#     4  12  25  45  69 102 136 179 237 282 335 407
#     4  10  23  37  65  95 125 174 222 272 333 399
#
# _framework density 25.360099999999999
#
# number of rings (size 3 to 8) (size 9 to 14) (size 15 to 20)
#    0.000    1.000    3.750    3.000    5.250    1.000 
#    2.250    0.000    0.000    0.000    0.000    0.000 
#    0.000    0.000    0.000    0.000    0.000    0.000 
#
# Total GULP energy -89375.103224 kJ/mol
# GULP energy per Si atom -5585.943951 kJ/mol
# Density = 2.530238 g / cm^3
# Si number density = 25.360100 Si / 1000 Ang^3
#
#
#
# Elastic Constant Matrix: (Units=GPa)
#
#
# Indices 1 2 3 4 5 6 
#
# 1 89.8277 32.7097 8.0664 4.5872 23.8346 -15.1698
# 2 32.7097 169.0753 0.9488 -1.0909 7.1400 -8.8106
# 3 8.0664 0.9488 41.7478 -10.3476 12.2472 5.1646
# 4 4.5872 -1.0909 -10.3476 34.9485 -2.4144 15.7174
# 5 23.8346 7.1400 12.2472 -2.4144 26.7774 -1.4402
# 6 -15.1698 -8.8106 5.1646 15.7174 -1.4402 32.8045
#
#
#
# Elastic Compliance Matrix: (Units=1/GPa)
#
#
# Indices 1 2 3 4 5 6 
#
# 1 0.019041 -0.002418 -0.003458 -0.010516 -0.014966 0.013081
# 2 -0.002418 0.006386 0.000286 0.000474 0.000380 0.000341
# 3 -0.003458 0.000286 0.034164 0.016688 -0.011949 -0.015421
# 4 -0.010516 0.000474 0.016688 0.049045 0.004373 -0.030669
# 5 -0.014966 0.000380 -0.011949 0.004373 0.056179 -0.004567
# 6 0.013081 0.000341 -0.015421 -0.030669 -0.004567 0.053546
#
#
# Mechanical properties :
#
#
# Convention : Reuss Voigt Hill
#
# Bulk Modulus (GPa) = 20.65706 42.67784 31.66745
# Shear Modulus (GPa) = 20.35183 36.16780 28.25981
#
# Velocity S-wave (km/s) = 2.83594 3.78056 3.34180
# Velocity P-wave (km/s) = 4.34587 5.99351 5.23492
#
# Compressibility (1/GPa) = 0.04840960
#
# Stress axis : x y z
#
# Youngs Moduli (GPa) = 52.51869 156.60311 29.27021
#
# Poissons Ratio (x) = 0.37873 0.10122
# Poissons Ratio (y) = 0.12701 -0.00837
# Poissons Ratio (z) = 0.18162 -0.04478
#
# Static dielectric constant tensor:
#      x y z
#    x 2.073660 -0.039070 -0.087250 
#    y -0.039070 2.125420 0.026120 
#    z -0.087250 0.026120 1.874390 
# 
# From -- ./inp_files/70689.got.cif
#   From: 2010.05.17/outbox.cif.g08.bks.cpg/sg2_36_cif.got.tgz:70689.got - 2010.06.03 11:33:40.
