data_PCOD9036735
_publ_section_title
;
Structure prediction by ZEFSAII (Michael W. Deem and Ramdas Pophale) SiO2 
 PCOD9036735
Probable space group: P -1
;
_chemical_formula_sum "Si O2"
_cell_formula_units_Z 16
_cell_length_a 13.974334
_cell_length_b 11.640638
_cell_length_c 14.758353
_cell_angle_alpha 74.021974
_cell_angle_beta 52.104650
_cell_angle_gamma 31.010599
_cell_volume 767.515325
_symmetry_space_group_name_H-M "P -1"
_symmetry_group_IT_number 2
_symmetry_cell_setting 'triclinic'
loop_
_space_group_symop_operation_xyz
x,y,z
-x,-y,-z
loop_
_atom_site_type_symbol
_atom_site_label
_atom_site_fract_x
_atom_site_fract_y
_atom_site_fract_z
Si Si1 0.059890 0.463420 0.142998
Si Si2 0.141036 0.534751 0.428617
Si Si3 0.753206 0.205435 0.860636
Si Si4 0.207564 0.744484 0.367719
Si Si5 0.719080 0.936221 0.120098
Si Si6 0.176647 0.280420 0.588134
Si Si7 0.125662 0.797544 0.896595
Si Si8 0.654169 0.019029 0.928854
O O1 0.074357 0.307747 0.183812
O O2 0.836575 0.709782 0.145367
O O3 0.996435 0.585747 0.248161
O O4 0.383460 0.215335 0.986298
O O5 0.177960 0.631000 0.428732
O O6 0.085473 0.485895 0.548449
O O7 0.901762 0.740842 0.442768
O O8 0.445399 0.227395 0.271956
O O9 0.853854 0.187283 0.718565
O O10 0.665483 0.151401 0.889042
O O11 0.500000 0.500000 0.000000
O O12 0.007065 0.952131 0.837366
O O13 0.532667 0.502388 0.238582
O O14 0.000000 0.000000 0.500000
O O15 0.627560 0.011501 0.052809
O O16 0.977569 0.802277 0.001221
O O17 0.500000 0.000000 0.500000
O O18 0.000000 0.000000 0.000000
#
# Coordination Sequence:
#
# PCOD9036735 Si02
#       8
#     2   2   2   2   2   2   2   2
#     4  11  22  37  65  89 127 168 206 267 338 373
#     4  11  24  43  65  93 130 170 227 270 316 408
#     4  11  23  42  71  96 131 177 229 271 330 408
#     4  12  27  45  66 102 141 178 218 287 346 385
#     4  11  20  40  67  94 125 166 221 269 318 394
#     4  11  24  43  64  92 124 176 216 263 325 396
#     4  11  22  41  70 101 129 174 232 273 326 413
#     4  10  23  39  58  98 128 155 214 273 321 385
#
# _framework density 20.846487
#
# number of rings (size 3 to 8) (size 9 to 14) (size 15 to 20)
#    0.000    1.000    5.000    1.875    1.750    1.500 
#    4.500    0.000    0.000    0.000    0.000    0.000 
#    0.000    0.000    0.000    0.000    0.000    0.000 
#
# Total GULP energy -89326.044320 kJ/mol
# GULP energy per Si atom -5582.877770 kJ/mol
# Density = 2.079904 g / cm^3
# Si number density = 20.846487 Si / 1000 Ang^3
#
#
#
# Elastic Constant Matrix: (Units=GPa)
#
#
# Indices 1 2 3 4 5 6 
#
# 1 71.6460 18.5720 11.6134 14.6222 -12.7242 13.3442
# 2 18.5720 79.1841 11.8521 9.6653 -5.5661 -3.2678
# 3 11.6134 11.8521 61.1822 11.5681 1.7149 -4.7478
# 4 14.6222 9.6653 11.5681 37.4650 -2.5802 2.6907
# 5 -12.7242 -5.5661 1.7149 -2.5802 31.0230 3.5061
# 6 13.3442 -3.2678 -4.7478 2.6907 3.5061 30.5411
#
#
#
# Elastic Compliance Matrix: (Units=1/GPa)
#
#
# Indices 1 2 3 4 5 6 
#
# 1 0.019630 -0.003396 -0.003230 -0.004492 0.008378 -0.010009
# 2 -0.003396 0.014062 -0.001502 -0.001993 0.000725 0.002847
# 3 -0.003230 -0.001502 0.018625 -0.004706 -0.003577 0.004971
# 4 -0.004492 -0.001993 -0.004706 0.030594 0.000805 -0.001770
# 5 0.008378 0.000725 -0.003577 0.000805 0.037021 -0.008460
# 6 -0.010009 0.002847 0.004971 -0.001770 -0.008460 0.039320
#
#
# Mechanical properties :
#
#
# Convention : Reuss Voigt Hill
#
# Bulk Modulus (GPa) = 27.73200 32.89859 30.31529
# Shear Modulus (GPa) = 26.66229 31.13747 28.89988
#
# Velocity S-wave (km/s) = 3.58017 3.86898 3.72737
# Velocity P-wave (km/s) = 5.51561 5.98116 5.75310
#
# Compressibility (1/GPa) = 0.03605943
#
# Stress axis : x y z
#
# Youngs Moduli (GPa) = 50.94128 71.11381 53.69248
#
# Poissons Ratio (x) = 0.24153 0.17345
# Poissons Ratio (y) = 0.17302 0.08064
# Poissons Ratio (z) = 0.16456 0.10681
#
# Static dielectric constant tensor:
#      x y z
#    x 1.778750 0.021150 -0.004540 
#    y 0.021150 1.753450 0.025950 
#    z -0.004540 0.025950 1.772340 
# 
# From -- ./inp_files/531793.got.cif
#   From: 2010.05.17/outbox.cif.g08.bks.cpg/sg2_266_cif.got.tgz:531793.got - 2010.06.03 11:33:40.
