data_PCOD9036251
_publ_section_title
;
Structure prediction by ZEFSAII (Michael W. Deem and Ramdas Pophale) SiO2 
 PCOD9036251
Probable space group: P -1
;
_chemical_formula_sum "Si O2"
_cell_formula_units_Z 16
_cell_length_a 25.367817
_cell_length_b 8.186761
_cell_length_c 6.592637
_cell_angle_alpha 72.929530
_cell_angle_beta 51.108486
_cell_angle_gamma 42.394907
_cell_volume 679.707400
_symmetry_space_group_name_H-M "P -1"
_symmetry_group_IT_number 2
_symmetry_cell_setting 'triclinic'
loop_
_space_group_symop_operation_xyz
x,y,z
-x,-y,-z
loop_
_atom_site_type_symbol
_atom_site_label
_atom_site_fract_x
_atom_site_fract_y
_atom_site_fract_z
Si Si1 0.521391 0.641922 0.304197
Si Si2 0.611745 0.850103 0.710048
Si Si3 0.916605 0.859647 0.504527
Si Si4 0.659424 0.525131 0.340186
Si Si5 0.197813 0.224195 0.440934
Si Si6 0.924398 0.602768 0.958274
Si Si7 0.617410 0.317633 0.824037
Si Si8 0.797997 0.408457 0.714645
O O1 0.500000 0.500000 0.500000
O O2 0.564695 0.681303 0.360002
O O3 0.417016 0.902745 0.364923
O O4 0.609911 0.449567 0.994105
O O5 0.638638 0.706489 0.489974
O O6 0.701043 0.642229 0.725172
O O7 0.500000 0.000000 0.000000
O O8 0.851528 0.843371 0.536141
O O9 0.918481 0.772089 0.756060
O O10 0.025795 0.640700 0.209322
O O11 0.869651 0.136505 0.528711
O O12 0.665754 0.337716 0.520049
O O13 0.755432 0.394838 0.021535
O O14 0.157327 0.487553 0.381233
O O15 0.315921 0.974458 0.194209
O O16 0.175863 0.251823 0.725381
O O17 0.000000 0.500000 0.000000
O O18 0.500000 0.500000 0.000000
#
# Coordination Sequence:
#
# PCOD9036251 Si02
#       8
#     2   2   2   2   2   2   2   2
#     4  12  25  39  62  87 122 185 243 293 343 391
#     4  12  25  43  60  92 134 186 244 285 340 400
#     4  10  22  48  74 106 139 177 226 286 365 416
#     4  12  24  41  63  87 133 186 231 304 341 396
#     4  11  25  42  69 105 140 183 235 283 347 416
#     4   9  21  47  81 102 138 179 221 290 354 433
#     4  12  24  41  64  97 138 188 242 285 336 408
#     4  12  27  43  68 105 144 182 233 293 348 419
#
# _framework density 23.539542000000001
#
# number of rings (size 3 to 8) (size 9 to 14) (size 15 to 20)
#    0.000    0.750    3.750    3.375    1.750    2.500 
#    0.000    5.625    0.000    0.000    0.000    0.000 
#    0.000    0.000    0.000    0.000    0.000    0.000 
#
# Total GULP energy -89444.520433 kJ/mol
# GULP energy per Si atom -5590.282527 kJ/mol
# Density = 2.348596 g / cm^3
# Si number density = 23.539542 Si / 1000 Ang^3
#
#
#
# Elastic Constant Matrix: (Units=GPa)
#
#
# Indices 1 2 3 4 5 6 
#
# 1 64.0533 20.1382 19.9560 8.0156 18.6980 13.1748
# 2 20.1382 160.4637 44.4105 18.4004 12.2919 30.7299
# 3 19.9560 44.4105 119.2809 4.2099 19.2300 7.9846
# 4 8.0156 18.4004 4.2099 44.4335 1.4003 7.6372
# 5 18.6980 12.2919 19.2300 1.4003 32.5339 -2.0712
# 6 13.1748 30.7299 7.9846 7.6372 -2.0712 38.6454
#
#
#
# Elastic Compliance Matrix: (Units=1/GPa)
#
#
# Indices 1 2 3 4 5 6 
#
# 1 0.021173 0.000234 -0.001130 -0.002163 -0.011967 -0.007385
# 2 0.000234 0.008416 -0.002337 -0.002210 -0.002218 -0.005972
# 3 -0.001130 -0.002337 0.010167 0.000380 -0.004505 -0.000173
# 4 -0.002163 -0.002210 0.000380 0.024153 0.000666 -0.002321
# 5 -0.011967 -0.002218 -0.004505 0.000666 0.041652 0.008875
# 6 -0.007385 -0.005972 -0.000173 -0.002321 0.008875 0.034113
#
#
# Mechanical properties :
#
#
# Convention : Reuss Voigt Hill
#
# Bulk Modulus (GPa) = 30.03781 56.97859 43.50820
# Shear Modulus (GPa) = 31.79921 40.40877 36.10399
#
# Velocity S-wave (km/s) = 3.67943 4.14772 3.92057
# Velocity P-wave (km/s) = 5.55330 6.86995 6.24641
#
# Compressibility (1/GPa) = 0.03329138
#
# Stress axis : x y z
#
# Youngs Moduli (GPa) = 47.22957 118.81623 98.35487
#
# Poissons Ratio (x) = -0.02786 0.11111
# Poissons Ratio (y) = -0.01107 0.22990
# Poissons Ratio (z) = 0.05335 0.27773
#
# Static dielectric constant tensor:
#      x y z
#    x 2.029850 -0.012050 -0.050390 
#    y -0.012050 1.940460 -0.021780 
#    z -0.050390 -0.021780 1.927170 
# 
# From -- ./inp_files/126416.got.cif
#   From: 2010.05.17/outbox.cif.g08.bks.cpg/sg2_64_cif.got.tgz:126416.got - 2010.06.03 11:33:40.
