data_PCOD9036040
_publ_section_title
;
Structure prediction by ZEFSAII (Michael W. Deem and Ramdas Pophale) SiO2 
 PCOD9036040
Probable space group: P -1
;
_chemical_formula_sum "Si O2"
_cell_formula_units_Z 16
_cell_length_a 14.300710
_cell_length_b 13.953138
_cell_length_c 9.613004
_cell_angle_alpha 87.357725
_cell_angle_beta 125.062601
_cell_angle_gamma 46.084025
_cell_volume 742.994477
_symmetry_space_group_name_H-M "P -1"
_symmetry_group_IT_number 2
_symmetry_cell_setting 'triclinic'
loop_
_space_group_symop_operation_xyz
x,y,z
-x,-y,-z
loop_
_atom_site_type_symbol
_atom_site_label
_atom_site_fract_x
_atom_site_fract_y
_atom_site_fract_z
Si Si1 0.668434 0.459882 0.279585
Si Si2 0.146030 0.825874 0.741769
Si Si3 0.670264 0.664736 0.337998
Si Si4 0.812872 0.949830 0.927633
Si Si5 0.873492 0.734553 0.206440
Si Si6 0.691729 0.309930 0.573801
Si Si7 0.427950 0.935847 0.842939
Si Si8 0.749499 0.055705 0.571810
O O1 0.798964 0.316317 0.271870
O O2 0.775042 0.478403 0.425965
O O3 0.659899 0.383757 0.392063
O O4 0.399654 0.687110 0.993704
O O5 0.000000 0.000000 0.500000
O O6 0.008550 0.906487 0.758942
O O7 0.939519 0.496982 0.621658
O O8 0.572297 0.775530 0.101649
O O9 0.445616 0.830854 0.239429
O O10 0.892200 0.797831 0.091223
O O11 0.031149 0.866477 0.137186
O O12 0.771398 0.969581 0.726744
O O13 0.789128 0.850281 0.273564
O O14 0.610103 0.878753 0.940521
O O15 0.500000 0.500000 0.500000
O O16 0.629128 0.243832 0.509412
O O17 0.348925 0.921154 0.654120
#
# Coordination Sequence:
#
# PCOD9036040 Si02
#       8
#     2   2   2   2   2   2   2   2
#     4  11  22  35  63  91 125 174 210 256 331 384
#     4  11  22  38  56  93 134 164 212 276 314 382
#     4  11  21  41  68  96 128 170 221 265 333 386
#     4  11  25  43  66  93 134 178 215 269 328 396
#     4  10  22  47  70  96 130 173 216 271 336 387
#     4  12  24  42  63  92 135 178 218 259 326 397
#     4  10  24  42  71 101 129 166 221 278 324 387
#     4  12  24  41  64  97 134 170 216 272 324 385
#
# _framework density 21.534479000000001
#
# number of rings (size 3 to 8) (size 9 to 14) (size 15 to 20)
#    0.000    1.000    2.500    4.500    3.500    0.500 
#    2.250    0.625    0.000    0.000    0.000    0.000 
#    0.000    0.000    0.000    0.000    0.000    0.000 
#
# Total GULP energy -89210.190854 kJ/mol
# GULP energy per Si atom -5575.636928 kJ/mol
# Density = 2.148547 g / cm^3
# Si number density = 21.534479 Si / 1000 Ang^3
#
#
#
# Elastic Constant Matrix: (Units=GPa)
#
#
# Indices 1 2 3 4 5 6 
#
# 1 70.9132 25.0572 17.4079 11.3363 -15.5130 -15.7216
# 2 25.0572 108.7930 39.9273 -8.6600 1.5827 -22.0475
# 3 17.4079 39.9273 95.7135 -14.6944 -16.4737 -23.4686
# 4 11.3363 -8.6600 -14.6944 28.1601 -0.1670 9.9777
# 5 -15.5130 1.5827 -16.4737 -0.1670 30.5536 0.4988
# 6 -15.7216 -22.0475 -23.4686 9.9777 0.4988 28.5859
#
#
#
# Elastic Compliance Matrix: (Units=1/GPa)
#
#
# Indices 1 2 3 4 5 6 
#
# 1 0.024389 -0.004130 0.001043 -0.016337 0.012800 0.016563
# 2 -0.004130 0.012618 -0.004247 0.002119 -0.005083 0.003322
# 3 0.001043 -0.004247 0.016543 0.003614 0.009535 0.009452
# 4 -0.016337 0.002119 0.003614 0.052615 -0.005798 -0.022647
# 5 0.012800 -0.005083 0.009535 -0.005798 0.044402 0.012196
# 6 0.016563 0.003322 0.009452 -0.022647 0.012196 0.062106
#
#
# Mechanical properties :
#
#
# Convention : Reuss Voigt Hill
#
# Bulk Modulus (GPa) = 25.71895 48.91161 37.31528
# Shear Modulus (GPa) = 20.80719 30.32840 25.56779
#
# Velocity S-wave (km/s) = 3.11179 3.75689 3.44945
# Velocity P-wave (km/s) = 4.98799 6.44837 5.76461
#
# Compressibility (1/GPa) = 0.03888183
#
# Stress axis : x y z
#
# Youngs Moduli (GPa) = 41.00248 79.25370 60.44695
#
# Poissons Ratio (x) = 0.32733 -0.06307
# Poissons Ratio (y) = 0.16934 0.25674
# Poissons Ratio (z) = -0.04278 0.33661
#
# Static dielectric constant tensor:
#      x y z
#    x 1.945480 -0.034960 0.297730 
#    y -0.034960 1.900960 -0.159690 
#    z 0.297730 -0.159690 2.295230 
# 
# From -- ./inp_files/313414.got.cif
#   From: 2010.05.17/outbox.cif.g08.bks.cpg/sg2_157_cif.got.tgz:313414.got - 2010.06.03 11:33:40.
