data_PCOD9036580
_publ_section_title
;
Structure prediction by ZEFSAII (Michael W. Deem and Ramdas Pophale) SiO2 
 PCOD9036580
Probable space group: P -1
;
_chemical_formula_sum "Si O2"
_cell_formula_units_Z 16
_cell_length_a 17.072333
_cell_length_b 7.808451
_cell_length_c 11.943161
_cell_angle_alpha 77.762669
_cell_angle_beta 131.329057
_cell_angle_gamma 65.579393
_cell_volume 767.364881
_symmetry_space_group_name_H-M "P -1"
_symmetry_group_IT_number 2
_symmetry_cell_setting 'triclinic'
loop_
_space_group_symop_operation_xyz
x,y,z
-x,-y,-z
loop_
_atom_site_type_symbol
_atom_site_label
_atom_site_fract_x
_atom_site_fract_y
_atom_site_fract_z
Si Si1 0.760447 0.857294 0.425774
Si Si2 0.098791 0.196778 0.648127
Si Si3 0.684704 0.347913 0.529408
Si Si4 0.149493 0.760196 0.096508
Si Si5 0.316764 0.767766 0.068249
Si Si6 0.572822 0.572099 0.990314
Si Si7 0.206455 0.569048 0.589753
Si Si8 0.935589 0.735267 0.828354
O O1 0.816924 0.924016 0.374945
O O2 0.766125 0.655237 0.409382
O O3 0.877683 0.729448 0.657754
O O4 0.578654 0.132662 0.241779
O O5 0.000000 0.500000 0.500000
O O6 0.972865 0.208995 0.563516
O O7 0.230398 0.042239 0.891077
O O8 0.716957 0.431653 0.655285
O O9 0.497738 0.565326 0.304253
O O10 0.760796 0.331576 0.490338
O O11 0.781022 0.043572 0.681794
O O12 0.212290 0.827223 0.062358
O O13 0.082845 0.684138 0.972074
O O14 0.000000 0.000000 0.000000
O O15 0.325521 0.623308 0.991470
O O16 0.500000 0.500000 0.000000
O O17 0.674367 0.551679 0.178404
O O18 0.000000 0.500000 0.000000
#
# Coordination Sequence:
#
# PCOD9036580 Si02
#       8
#     2   2   2   2   2   2   2   2
#     4  11  22  42  63  94 137 174 216 270 326 389
#     4  10  23  38  61  99 132 172 217 264 321 387
#     4  11  22  44  68  95 128 173 220 270 331 386
#     4  10  24  43  69  96 125 174 223 270 328 387
#     4  12  23  41  70  97 133 172 221 270 326 397
#     4  12  22  40  66  99 135 173 213 267 333 389
#     4  11  23  40  67  96 133 175 217 266 328 395
#     4  11  23  42  67  93 127 170 218 271 327 389
#
# _framework density 20.850574999999999
#
# number of rings (size 3 to 8) (size 9 to 14) (size 15 to 20)
#    0.000    1.000    3.750    3.000    1.750    4.500 
#    0.000    0.625    5.500    0.000    0.000    0.000 
#    0.000    0.000    0.000    0.000    0.000    0.000 
#
# Total GULP energy -89332.587310 kJ/mol
# GULP energy per Si atom -5583.286707 kJ/mol
# Density = 2.080312 g / cm^3
# Si number density = 20.850575 Si / 1000 Ang^3
#
#
#
# Elastic Constant Matrix: (Units=GPa)
#
#
# Indices 1 2 3 4 5 6 
#
# 1 107.8386 21.3466 58.0335 -6.9250 -4.2722 -15.0299
# 2 21.3466 73.0144 52.9844 15.4974 6.4351 -3.4374
# 3 58.0335 52.9844 195.8913 20.2753 -10.3633 8.5038
# 4 -6.9250 15.4974 20.2753 52.4163 -0.2852 0.3937
# 5 -4.2722 6.4351 -10.3633 -0.2852 28.4783 4.9817
# 6 -15.0299 -3.4374 8.5038 0.3937 4.9817 27.3037
#
#
#
# Elastic Compliance Matrix: (Units=1/GPa)
#
#
# Indices 1 2 3 4 5 6 
#
# 1 0.013292 -0.000912 -0.004501 0.003696 -0.000926 0.008720
# 2 -0.000912 0.019437 -0.005182 -0.003940 -0.007320 0.004951
# 3 -0.004501 -0.005182 0.008621 -0.002322 0.004773 -0.006653
# 4 0.003696 -0.003940 -0.002322 0.021618 0.000491 0.001860
# 5 -0.000926 -0.007320 0.004773 0.000491 0.040165 -0.010254
# 6 0.008720 0.004951 -0.006653 0.001860 -0.010254 0.045964
#
#
# Mechanical properties :
#
#
# Convention : Reuss Voigt Hill
#
# Bulk Modulus (GPa) = 49.60064 71.27482 60.43773
# Shear Modulus (GPa) = 28.24730 37.93163 33.08947
#
# Velocity S-wave (km/s) = 3.68468 4.26985 3.98801
# Velocity P-wave (km/s) = 6.47633 7.65289 7.08906
#
# Compressibility (1/GPa) = 0.02016103
#
# Stress axis : x y z
#
# Youngs Moduli (GPa) = 75.23365 51.44777 115.98918
#
# Poissons Ratio (x) = 0.04692 0.52209
# Poissons Ratio (y) = 0.06862 0.60100
# Poissons Ratio (z) = 0.33864 0.26658
#
# Static dielectric constant tensor:
#      x y z
#    x 1.757390 0.007540 0.002970 
#    y 0.007540 1.824610 -0.028800 
#    z 0.002970 -0.028800 1.798850 
# 
# From -- ./inp_files/462140.got.cif
#   From: 2010.05.17/outbox.cif.g08.bks.cpg/sg2_232_cif.got.tgz:462140.got - 2010.06.03 11:33:40.
