data_PCOD9036279
_publ_section_title
;
Structure prediction by ZEFSAII (Michael W. Deem and Ramdas Pophale) SiO2 
 PCOD9036279
Probable space group: P -1
;
_chemical_formula_sum "Si O2"
_cell_formula_units_Z 16
_cell_length_a 6.173600
_cell_length_b 11.946337
_cell_length_c 9.065008
_cell_angle_alpha 84.471160
_cell_angle_beta 72.704847
_cell_angle_gamma 98.284427
_cell_volume 624.780797
_symmetry_space_group_name_H-M "P -1"
_symmetry_group_IT_number 2
_symmetry_cell_setting 'triclinic'
loop_
_space_group_symop_operation_xyz
x,y,z
-x,-y,-z
loop_
_atom_site_type_symbol
_atom_site_label
_atom_site_fract_x
_atom_site_fract_y
_atom_site_fract_z
Si Si1 0.531400 0.790240 0.509606
Si Si2 0.283094 0.338651 0.738452
Si Si3 0.519930 0.949184 0.222273
Si Si4 0.020460 0.508051 0.321800
Si Si5 0.790812 0.250157 0.859796
Si Si6 0.854822 0.902456 0.647168
Si Si7 0.226968 0.443722 0.030488
Si Si8 0.823354 0.166318 0.176220
O O1 0.522677 0.689552 0.405860
O O2 0.548722 0.899168 0.384840
O O3 0.751339 0.801902 0.568827
O O4 0.329326 0.797081 0.663539
O O5 0.220316 0.459993 0.688086
O O6 0.055457 0.239633 0.764519
O O7 0.272195 0.348875 0.915361
O O8 0.409585 0.844062 0.155203
O O9 0.339864 0.033336 0.259733
O O10 0.747834 0.039798 0.131798
O O11 0.201446 0.622826 0.221196
O O12 0.113164 0.413531 0.218211
O O13 0.000000 0.500000 0.500000
O O14 0.790840 0.247423 0.036466
O O15 0.956629 0.851387 0.774718
O O16 0.000000 0.000000 0.500000
O O17 0.500000 0.500000 0.000000
O O18 0.000000 0.500000 0.000000
#
# Coordination Sequence:
#
# PCOD9036279 Si02
#       8
#     2   2   2   2   2   2   2   2
#     4  11  22  40  65 102 136 186 241 285 347 429
#     4   9  23  44  68 103 140 180 237 294 369 443
#     4  11  22  39  67 100 146 185 240 285 354 437
#     4   9  22  49  74 102 137 186 243 308 381 447
#     4  10  24  44  67 105 140 183 239 299 367 438
#     4  11  19  39  62  95 139 192 236 285 341 412
#     4  10  22  48  77 108 148 187 237 315 386 456
#     4  11  23  41  67  99 148 191 234 295 351 433
#
# _framework density 25.608982999999998
#
# number of rings (size 3 to 8) (size 9 to 14) (size 15 to 20)
#    0.750    1.000    2.500    1.875    1.750    0.500 
#   11.250    2.500    0.000    0.000    0.000    0.000 
#    0.000    0.000    0.000    0.000    0.000    0.000 
#
# Total GULP energy -89070.295115 kJ/mol
# GULP energy per Si atom -5566.893445 kJ/mol
# Density = 2.555070 g / cm^3
# Si number density = 25.608983 Si / 1000 Ang^3
#
#
#
# Elastic Constant Matrix: (Units=GPa)
#
#
# Indices 1 2 3 4 5 6 
#
# 1 97.8862 38.6013 31.7377 11.1231 24.1090 8.9730
# 2 38.6013 97.9884 40.5262 12.1035 10.4235 4.9455
# 3 31.7377 40.5262 119.8486 -1.7620 34.2118 -29.3946
# 4 11.1231 12.1035 -1.7620 42.9722 -5.8190 -1.6423
# 5 24.1090 10.4235 34.2118 -5.8190 41.7365 11.8988
# 6 8.9730 4.9455 -29.3946 -1.6423 11.8988 31.2499
#
#
#
# Elastic Compliance Matrix: (Units=1/GPa)
#
#
# Indices 1 2 3 4 5 6 
#
# 1 0.014325 -0.003588 -0.002124 -0.003614 -0.005055 -0.003808
# 2 -0.003588 0.017654 -0.014944 -0.003369 0.015710 -0.021979
# 3 -0.002124 -0.014944 0.041953 0.002518 -0.046234 0.060173
# 4 -0.003614 -0.003369 0.002518 0.025862 0.003321 0.004035
# 5 -0.005055 0.015710 -0.046234 0.003321 0.082968 -0.075940
# 6 -0.003808 -0.021979 0.060173 0.004035 -0.075940 0.122300
#
#
# Mechanical properties :
#
#
# Convention : Reuss Voigt Hill
#
# Bulk Modulus (GPa) = 30.65742 59.71709 45.18725
# Shear Modulus (GPa) = 13.99594 36.84893 25.42244
#
# Velocity S-wave (km/s) = 2.34032 3.79741 3.15416
# Velocity P-wave (km/s) = 4.39319 6.52660 5.56312
#
# Compressibility (1/GPa) = 0.03261853
#
# Stress axis : x y z
#
# Youngs Moduli (GPa) = 69.81015 56.64560 23.83628
#
# Poissons Ratio (x) = 0.20325 0.05063
# Poissons Ratio (y) = 0.25048 0.35621
# Poissons Ratio (z) = 0.14829 0.84651
#
# Static dielectric constant tensor:
#      x y z
#    x 2.241920 0.127050 -0.012630 
#    y 0.127050 2.198730 -0.066940 
#    z -0.012630 -0.066940 2.042590 
# 
# From -- ./inp_files/135278.got.cif
#   From: 2010.05.17/outbox.cif.g08.bks.cpg/sg2_68_cif.got.tgz:135278.got - 2010.06.03 11:33:40.
