data_PCOD9036717
_publ_section_title
;
Structure prediction by ZEFSAII (Michael W. Deem and Ramdas Pophale) SiO2 
 PCOD9036717
Probable space group: P -1
;
_chemical_formula_sum "Si O2"
_cell_formula_units_Z 16
_cell_length_a 10.151504
_cell_length_b 15.010841
_cell_length_c 12.247863
_cell_angle_alpha 150.033631
_cell_angle_beta 47.249316
_cell_angle_gamma 119.175031
_cell_volume 658.306738
_symmetry_space_group_name_H-M "P -1"
_symmetry_group_IT_number 2
_symmetry_cell_setting 'triclinic'
loop_
_space_group_symop_operation_xyz
x,y,z
-x,-y,-z
loop_
_atom_site_type_symbol
_atom_site_label
_atom_site_fract_x
_atom_site_fract_y
_atom_site_fract_z
Si Si1 0.523193 0.773422 0.127058
Si Si2 0.863450 0.890495 0.565829
Si Si3 0.606975 0.665920 0.562316
Si Si4 0.814818 0.609677 0.611949
Si Si5 0.274367 0.754360 0.696927
Si Si6 0.226099 0.708861 0.063512
Si Si7 0.021724 0.879623 0.701701
Si Si8 0.555369 0.175707 0.539131
O O1 0.366460 0.697872 0.074792
O O2 0.543296 0.718699 0.185331
O O3 0.475410 0.997829 0.382494
O O4 0.711596 0.703117 0.877457
O O5 0.694412 0.814392 0.614972
O O6 0.977708 0.904749 0.625665
O O7 0.010852 0.738184 0.249539
O O8 0.789647 0.090006 0.765731
O O9 0.664189 0.661204 0.651587
O O10 0.392813 0.729030 0.714505
O O11 0.698844 0.466403 0.243167
O O12 0.845660 0.392749 0.385119
O O13 0.983263 0.689012 0.562930
O O14 0.422833 0.725884 0.483138
O O15 0.136344 0.957097 0.979826
O O16 0.227968 0.890989 0.617674
#
# Coordination Sequence:
#
# PCOD9036717 Si02
#       8
#     2   2   2   2   2   2   2   2
#     4  11  23  44  71  93 131 176 216 275 321 383
#     4  10  23  38  70  97 130 178 209 264 343 382
#     4  11  24  41  67 101 136 161 219 277 323 395
#     4  11  25  42  69 100 130 170 218 273 332 383
#     4  12  24  40  70  96 129 181 217 265 332 386
#     4  11  21  43  67  98 135 168 218 269 328 393
#     4  11  24  45  65  97 135 174 215 280 317 389
#     4  11  25  46  67  94 135 175 227 267 318 390
#
# _framework density 24.304779
#
# number of rings (size 3 to 8) (size 9 to 14) (size 15 to 20)
#    0.000    1.000    3.750    2.625    1.750    2.000 
#    0.000    0.000    0.000    0.000    0.000    0.000 
#    0.000    0.000    0.000    0.000    0.000    0.000 
#
# Total GULP energy -89583.632028 kJ/mol
# GULP energy per Si atom -5598.977002 kJ/mol
# Density = 2.424946 g / cm^3
# Si number density = 24.304779 Si / 1000 Ang^3
#
#
#
# Elastic Constant Matrix: (Units=GPa)
#
#
# Indices 1 2 3 4 5 6 
#
# 1 59.1994 -3.1875 36.9637 -2.2695 4.3694 -25.1757
# 2 -3.1875 89.9724 9.3310 1.6098 12.2787 -5.9661
# 3 36.9637 9.3310 56.7313 -12.1023 15.9059 5.2925
# 4 -2.2695 1.6098 -12.1023 39.9207 -2.8110 4.8451
# 5 4.3694 12.2787 15.9059 -2.8110 23.1735 -5.9966
# 6 -25.1757 -5.9661 5.2925 4.8451 -5.9966 20.7521
#
#
#
# Elastic Compliance Matrix: (Units=1/GPa)
#
#
# Indices 1 2 3 4 5 6 
#
# 1 -0.030330 -0.005016 0.038470 0.015277 -0.031919 -0.060838
# 2 -0.005016 0.011308 0.005246 0.001015 -0.010446 -0.007427
# 3 0.038470 0.005246 -0.021929 -0.010807 0.019752 0.062002
# 4 0.015277 0.001015 -0.010807 0.020992 0.011740 0.020073
# 5 -0.031919 -0.010446 0.019752 0.011740 0.032168 -0.040209
# 6 -0.060838 -0.007427 0.062002 0.020073 -0.040209 -0.059872
#
#
# Mechanical properties :
#
#
# Convention : Reuss Voigt Hill
#
# Bulk Modulus (GPa) = 27.43424 32.45750 29.94587
# Shear Modulus (GPa) = -44.28106 27.62230 -8.32938
#
# Velocity S-wave (km/s) = -4.27301 3.37485 -1.85324
# Velocity P-wave (km/s) = 3.61009 5.34505 2.78719
#
# Compressibility (1/GPa) = 0.03645080
#
# Stress axis : x y z
#
# Youngs Moduli (GPa) = -32.97119 88.43632 -45.60202
#
# Poissons Ratio (x) = 0.44357 1.75432
# Poissons Ratio (y) = -0.16537 0.23924
# Poissons Ratio (z) = 1.26841 -0.46397
#
# Static dielectric constant tensor:
#      x y z
#    x 1.915580 -0.021530 0.031080 
#    y -0.021530 1.943290 -0.043060 
#    z 0.031080 -0.043060 1.951000 
# 
# From -- ./inp_files/433436.got.cif
#   From: 2010.05.17/outbox.cif.g08.bks.cpg/sg2_217_cif.got.tgz:433436.got - 2010.06.03 11:33:40.
