data_PCOD9036401
_publ_section_title
;
Structure prediction by ZEFSAII (Michael W. Deem and Ramdas Pophale) SiO2 
 PCOD9036401
Probable space group: P -1
;
_chemical_formula_sum "Si O2"
_cell_formula_units_Z 14
_cell_length_a 9.827431
_cell_length_b 9.114604
_cell_length_c 9.217420
_cell_angle_alpha 45.770943
_cell_angle_beta 68.746669
_cell_angle_gamma 60.122506
_cell_volume 512.833495
_symmetry_space_group_name_H-M "P -1"
_symmetry_group_IT_number 2
_symmetry_cell_setting 'triclinic'
loop_
_space_group_symop_operation_xyz
x,y,z
-x,-y,-z
loop_
_atom_site_type_symbol
_atom_site_label
_atom_site_fract_x
_atom_site_fract_y
_atom_site_fract_z
Si Si1 0.832083 0.599857 0.856045
Si Si2 0.316470 0.448616 0.329781
Si Si3 0.837230 0.136455 0.281082
Si Si4 0.690362 0.083158 0.095208
Si Si5 0.152255 0.392167 0.708732
Si Si6 0.821135 0.030985 0.695605
Si Si7 0.484622 0.212491 0.691011
O O1 0.705943 0.669393 0.726645
O O2 0.823578 0.785094 0.846198
O O3 0.999471 0.534187 0.754076
O O4 0.822659 0.383047 0.080614
O O5 0.174915 0.468120 0.483945
O O6 0.463659 0.315067 0.466220
O O7 0.313142 0.683409 0.116358
O O8 0.721690 0.078407 0.258328
O O9 0.820508 0.105481 0.478154
O O10 0.018871 0.980354 0.286078
O O11 0.830192 0.864157 0.131723
O O12 0.541792 0.018207 0.156912
O O13 0.324301 0.368182 0.722947
O O14 0.650379 0.177256 0.719116
#
# Coordination Sequence:
#
# PCOD9036401 Si02
#       7
#     2   2   2   2   2   2   2
#     4  11  20  35  58  88 110 145 187 232 274 329
#     4   8  17  31  56  84 113 138 179 233 279 324
#     4  10  23  36  57  84 110 151 191 224 271 330
#     4   8  17  36  57  87 107 142 186 235 269 326
#     4   8  19  34  57  90 110 138 183 233 286 321
#     4  11  22  40  55  80 119 149 184 228 273 330
#     4   8  20  36  56  84 113 147 178 227 286 327
#
# _framework density 27.299312
#
# number of rings (size 3 to 8) (size 9 to 14) (size 15 to 20)
#    1.714    0.857    0.000    2.571    0.000    6.857 
#    0.000    3.571    0.000    3.429    3.714    0.000 
#    0.000    0.000    0.000    0.000    0.000    0.000 
#
# Total GULP energy -78355.447366 kJ/mol
# GULP energy per Si atom -5596.817669 kJ/mol
# Density = 2.723718 g / cm^3
# Si number density = 27.299312 Si / 1000 Ang^3
#
#
#
# Elastic Constant Matrix: (Units=GPa)
#
#
# Indices 1 2 3 4 5 6 
#
# 1 78.2735 6.3005 0.5664 6.3918 2.1273 -9.3194
# 2 6.3005 65.2246 -4.1695 3.2852 -3.9004 -0.2979
# 3 0.5664 -4.1695 134.6361 -6.9215 -6.5701 3.6628
# 4 6.3918 3.2852 -6.9215 32.3755 12.5221 0.4831
# 5 2.1273 -3.9004 -6.5701 12.5221 30.7563 -4.3126
# 6 -9.3194 -0.2979 3.6628 0.4831 -4.3126 30.1260
#
#
#
# Elastic Compliance Matrix: (Units=1/GPa)
#
#
# Indices 1 2 3 4 5 6 
#
# 1 0.013615 -0.001127 -0.000331 -0.002968 0.000668 0.004384
# 2 -0.001127 0.015797 0.000516 -0.002534 0.003259 0.000252
# 3 -0.000331 0.000516 0.007585 0.001228 0.001085 -0.000884
# 4 -0.002968 -0.002534 0.001228 0.038234 -0.015980 -0.003993
# 5 0.000668 0.003259 0.001085 -0.015980 0.040482 0.006158
# 6 0.004384 0.000252 -0.000884 -0.003993 0.006158 0.035606
#
#
# Mechanical properties :
#
#
# Convention : Reuss Voigt Hill
#
# Bulk Modulus (GPa) = 28.48025 31.50323 29.99174
# Shear Modulus (GPa) = 30.32001 37.01402 33.66702
#
# Velocity S-wave (km/s) = 3.33626 3.68619 3.51558
# Velocity P-wave (km/s) = 5.02952 5.44815 5.24302
#
# Compressibility (1/GPa) = 0.03511205
#
# Stress axis : x y z
#
# Youngs Moduli (GPa) = 73.44824 63.30265 131.84052
#
# Poissons Ratio (x) = 0.07134 0.04370
# Poissons Ratio (y) = 0.08277 -0.06801
# Poissons Ratio (z) = 0.02434 -0.03265
#
# Static dielectric constant tensor:
#      x y z
#    x 2.111590 -0.025880 0.021130 
#    y -0.025880 2.112670 0.011800 
#    z 0.021130 0.011800 2.193530 
# 
# From -- ./inp_files/420345.got.cif
#   From: 2010.05.17/outbox.cif.g08.bks.cpg/sg2_211_cif.got.tgz:420345.got - 2010.06.03 11:33:40.
