data_PCOD9036467
_publ_section_title
;
Structure prediction by ZEFSAII (Michael W. Deem and Ramdas Pophale) SiO2 
 PCOD9036467
Probable space group: P -1
;
_chemical_formula_sum "Si O2"
_cell_formula_units_Z 16
_cell_length_a 13.074595
_cell_length_b 6.915333
_cell_length_c 7.962438
_cell_angle_alpha 73.698360
_cell_angle_beta 104.067819
_cell_angle_gamma 86.229246
_cell_volume 663.280788
_symmetry_space_group_name_H-M "P -1"
_symmetry_group_IT_number 2
_symmetry_cell_setting 'triclinic'
loop_
_space_group_symop_operation_xyz
x,y,z
-x,-y,-z
loop_
_atom_site_type_symbol
_atom_site_label
_atom_site_fract_x
_atom_site_fract_y
_atom_site_fract_z
Si Si1 0.793003 0.691725 0.172863
Si Si2 0.485009 0.786912 0.770904
Si Si3 0.280641 0.957760 0.516255
Si Si4 0.397201 0.659914 0.355744
Si Si5 0.293155 0.319807 0.237226
Si Si6 0.036815 0.026982 0.810958
Si Si7 0.433480 0.322261 0.818259
Si Si8 0.088640 0.740590 0.601560
O O1 0.848430 0.893947 0.150679
O O2 0.691088 0.685348 0.255165
O O3 0.877137 0.498257 0.306282
O O4 0.755818 0.662549 0.972132
O O5 0.383326 0.953193 0.674899
O O6 0.583784 0.794895 0.684865
O O7 0.445920 0.563430 0.789679
O O8 0.540134 0.781658 0.970352
O O9 0.332165 0.809852 0.423124
O O10 0.193480 0.850045 0.599388
O O11 0.235365 0.176385 0.368753
O O12 0.500000 0.500000 0.500000
O O13 0.312201 0.536624 0.263898
O O14 0.465770 0.772218 0.228725
O O15 0.970661 0.192717 0.615223
O O16 0.038057 0.829918 0.737371
O O17 0.000000 0.000000 0.000000
#
# Coordination Sequence:
#
# PCOD9036467 Si02
#       8
#     2   2   2   2   2   2   2   2
#     4  11  22  46  72  99 136 180 223 274 348 408
#     4   9  17  35  56  84 139 178 215 265 312 378
#     4  12  22  40  66  97 136 181 224 274 332 392
#     4  11  21  36  61  94 141 185 223 267 327 392
#     4  10  23  37  61 100 141 182 229 271 319 400
#     4  11  27  52  74 103 133 166 230 295 355 410
#     4   9  18  36  58  94 134 179 220 262 313 402
#     4  11  26  47  76 103 134 175 225 290 344 410
#
# _framework density 24.122515
#
# number of rings (size 3 to 8) (size 9 to 14) (size 15 to 20)
#    0.000    1.500    3.750    2.250    0.000    4.500 
#    0.000    1.250    0.000    0.000    0.000    0.000 
#    0.000    0.000    0.000    0.000    0.000    0.000 
#
# Total GULP energy -89274.796383 kJ/mol
# GULP energy per Si atom -5579.674774 kJ/mol
# Density = 2.406761 g / cm^3
# Si number density = 24.122515 Si / 1000 Ang^3
#
#
#
# Elastic Constant Matrix: (Units=GPa)
#
#
# Indices 1 2 3 4 5 6 
#
# 1 66.5200 32.3420 6.5926 5.5666 -10.0736 1.2110
# 2 32.3420 108.3357 35.4785 7.5997 -3.5049 1.1188
# 3 6.5926 35.4785 103.2773 4.8370 2.5355 -10.8570
# 4 5.5666 7.5997 4.8370 26.9963 6.9732 -6.9383
# 5 -10.0736 -3.5049 2.5355 6.9732 37.7542 1.1255
# 6 1.2110 1.1188 -10.8570 -6.9383 1.1255 32.5007
#
#
#
# Elastic Compliance Matrix: (Units=1/GPa)
#
#
# Indices 1 2 3 4 5 6 
#
# 1 0.018728 -0.005287 0.000539 -0.004200 0.005288 -0.001415
# 2 -0.005287 0.012326 -0.004019 -0.002322 0.000494 -0.002083
# 3 0.000539 -0.004019 0.011470 0.000312 -0.001178 0.004057
# 4 -0.004200 -0.002322 0.000312 0.043577 -0.009703 0.009980
# 5 0.005288 0.000494 -0.001178 -0.009703 0.029926 -0.003716
# 6 -0.001415 -0.002083 0.004057 0.009980 -0.003716 0.034508
#
#
# Mechanical properties :
#
#
# Convention : Reuss Voigt Hill
#
# Bulk Modulus (GPa) = 40.01775 47.43990 43.72882
# Shear Modulus (GPa) = 28.34490 33.03158 30.68824
#
# Velocity S-wave (km/s) = 3.43160 3.70445 3.57064
# Velocity P-wave (km/s) = 5.68565 6.16492 5.93013
#
# Compressibility (1/GPa) = 0.02498891
#
# Stress axis : x y z
#
# Youngs Moduli (GPa) = 53.39513 81.13208 87.18613
#
# Poissons Ratio (x) = 0.42896 -0.04698
# Poissons Ratio (y) = 0.28231 0.35040
# Poissons Ratio (z) = -0.02877 0.32607
#
# Static dielectric constant tensor:
#      x y z
#    x 2.138320 -0.023350 -0.147410 
#    y -0.023350 1.983970 0.047170 
#    z -0.147410 0.047170 2.095020 
# 
# From -- ./inp_files/291907.got.cif
#   From: 2010.05.17/outbox.cif.g08.bks.cpg/sg2_146_cif.got.tgz:291907.got - 2010.06.03 11:33:40.
