data_PCOD9036495
_publ_section_title
;
Structure prediction by ZEFSAII (Michael W. Deem and Ramdas Pophale) SiO2 
 PCOD9036495
Probable space group: P -1
;
_chemical_formula_sum "Si O2"
_cell_formula_units_Z 10
_cell_length_a 9.898908
_cell_length_b 8.559684
_cell_length_c 10.168245
_cell_angle_alpha 115.587037
_cell_angle_beta 41.655628
_cell_angle_gamma 91.282656
_cell_volume 447.009669
_symmetry_space_group_name_H-M "P -1"
_symmetry_group_IT_number 2
_symmetry_cell_setting 'triclinic'
loop_
_space_group_symop_operation_xyz
x,y,z
-x,-y,-z
loop_
_atom_site_type_symbol
_atom_site_label
_atom_site_fract_x
_atom_site_fract_y
_atom_site_fract_z
Si Si1 0.778630 0.406958 0.762833
Si Si2 0.468361 0.199445 0.264835
Si Si3 0.831431 0.766999 0.765321
Si Si4 0.709614 0.785314 0.312052
Si Si5 0.796001 0.363917 0.022065
O O1 0.839819 0.585495 0.774406
O O2 0.916876 0.276983 0.487745
O O3 0.500000 0.500000 0.000000
O O4 0.856996 0.289517 0.800037
O O5 0.311277 0.219502 0.259806
O O6 0.330277 0.242826 0.515861
O O7 0.582995 0.337635 0.214656
O O8 0.684673 0.972315 0.022887
O O9 0.718433 0.597562 0.164092
O O10 0.500000 0.000000 0.500000
O O11 0.970614 0.754009 0.103012
#
# Coordination Sequence:
#
# PCOD9036495 Si02
#       5
#     2   2   2   2   2
#     4  11  21  41  64  95 127 166 206 261 320 373
#     4  11  22  42  62  94 128 164 211 261 315 375
#     4  10  23  37  64  96 130 161 205 262 317 381
#     4  11  25  45  64  90 130 171 215 262 308 376
#     4  11  24  42  67  94 126 169 215 258 315 380
#
# _framework density 22.37088
#
# number of rings (size 3 to 8) (size 9 to 14) (size 15 to 20)
#    0.000    1.200    4.000    1.800    0.000    4.800 
#    0.000    0.000    0.000    0.000    0.000    0.000 
#    0.000    0.000    0.000    0.000    0.000    0.000 
#
# Total GULP energy -55920.033085 kJ/mol
# GULP energy per Si atom -5592.003308 kJ/mol
# Density = 2.231996 g / cm^3
# Si number density = 22.370880 Si / 1000 Ang^3
#
#
#
# Elastic Constant Matrix: (Units=GPa)
#
#
# Indices 1 2 3 4 5 6 
#
# 1 40.8835 5.7198 11.9226 -14.0169 -14.5058 5.5339
# 2 5.7198 34.0895 -2.4516 -0.7364 -10.5353 -10.4762
# 3 11.9226 -2.4516 99.3743 -6.0652 -16.4667 9.8234
# 4 -14.0169 -0.7364 -6.0652 46.0038 -2.3311 -5.2463
# 5 -14.5058 -10.5353 -16.4667 -2.3311 41.8573 -3.0833
# 6 5.5339 -10.4762 9.8234 -5.2463 -3.0833 20.8314
#
#
#
# Elastic Compliance Matrix: (Units=1/GPa)
#
#
# Indices 1 2 3 4 5 6 
#
# 1 0.033144 -0.004366 -0.001198 0.009631 0.009971 -0.006534
# 2 -0.004366 0.040868 0.001223 0.002726 0.011135 0.023470
# 3 -0.001198 0.001223 0.011333 0.000953 0.004142 -0.003558
# 4 0.009631 0.002726 0.000953 0.025819 0.006263 0.005793
# 5 0.009971 0.011135 0.004142 0.006263 0.032673 0.007411
# 6 -0.006534 0.023470 -0.003558 0.005793 0.007411 0.065777
#
#
# Mechanical properties :
#
#
# Convention : Reuss Voigt Hill
#
# Bulk Modulus (GPa) = 13.04393 22.74765 17.89579
# Shear Modulus (GPa) = 20.50441 32.34893 26.42667
#
# Velocity S-wave (km/s) = 3.03077 3.80679 3.44073
# Velocity P-wave (km/s) = 4.25333 5.43256 4.87871
#
# Compressibility (1/GPa) = 0.07666401
#
# Stress axis : x y z
#
# Youngs Moduli (GPa) = 30.17124 24.46906 88.23693
#
# Poissons Ratio (x) = 0.10683 0.10573
# Poissons Ratio (y) = 0.13172 -0.10796
# Poissons Ratio (z) = 0.03615 -0.02994
#
# Static dielectric constant tensor:
#      x y z
#    x 1.842310 -0.021430 -0.018010 
#    y -0.021430 1.802150 0.023030 
#    z -0.018010 0.023030 1.816620 
# 
# From -- ./inp_files/18064.got.cif
#   From: 2010.05.17/outbox.cif.g08.bks.cpg/sg2_10_cif.got.tgz:18064.got - 2010.06.03 11:33:40.
