data_PCOD9036628
_publ_section_title
;
Structure prediction by ZEFSAII (Michael W. Deem and Ramdas Pophale) SiO2 
 PCOD9036628
Probable space group: P -1
;
_chemical_formula_sum "Si O2"
_cell_formula_units_Z 16
_cell_length_a 16.321007
_cell_length_b 8.018298
_cell_length_c 9.158954
_cell_angle_alpha 50.391188
_cell_angle_beta 61.314643
_cell_angle_gamma 52.497979
_cell_volume 724.256334
_symmetry_space_group_name_H-M "P -1"
_symmetry_group_IT_number 2
_symmetry_cell_setting 'triclinic'
loop_
_space_group_symop_operation_xyz
x,y,z
-x,-y,-z
loop_
_atom_site_type_symbol
_atom_site_label
_atom_site_fract_x
_atom_site_fract_y
_atom_site_fract_z
Si Si1 0.023068 0.771026 0.418311
Si Si2 0.199032 0.504671 0.926590
Si Si3 0.992429 0.677343 0.185758
Si Si4 0.385481 0.130788 0.592885
Si Si5 0.162716 0.822315 0.514158
Si Si6 0.596493 0.972722 0.028632
Si Si7 0.674498 0.334690 0.756132
Si Si8 0.768438 0.115235 0.108514
O O1 0.039573 0.756810 0.240248
O O2 0.092732 0.852324 0.413377
O O3 0.039899 0.517605 0.609875
O O4 0.902733 0.954568 0.449959
O O5 0.182933 0.589153 0.724236
O O6 0.231053 0.688769 0.885284
O O7 0.291049 0.232835 0.011765
O O8 0.084929 0.556883 0.056971
O O9 0.884464 0.898040 0.109942
O O10 0.340714 0.396754 0.411636
O O11 0.500000 0.000000 0.500000
O O12 0.403992 0.124775 0.754087
O O13 0.309468 0.000559 0.712052
O O14 0.267200 0.800276 0.366861
O O15 0.585880 0.244876 0.896577
O O16 0.500000 0.000000 0.000000
O O17 0.732884 0.241475 0.911369
#
# Coordination Sequence:
#
# PCOD9036628 Si02
#       8
#     2   2   2   2   2   2   2   2
#     4  10  23  38  64  93 144 186 237 271 341 407
#     4  12  25  43  69 104 146 181 233 287 347 411
#     4  11  23  43  64 103 142 191 228 280 341 424
#     4  11  27  50  74 102 136 186 236 291 350 412
#     4  11  22  41  63  99 138 186 230 286 339 407
#     4  11  28  49  73 106 137 178 235 296 350 411
#     4  11  25  47  71  99 141 182 232 285 353 410
#     4  11  26  44  72 104 145 184 235 281 344 423
#
# _framework density 22.091626999999999
#
# number of rings (size 3 to 8) (size 9 to 14) (size 15 to 20)
#    0.000    1.000    2.500    2.625    8.750    4.000 
#    0.000    0.000    0.000    0.000    0.000    0.000 
#    0.000    0.000    0.000    0.000    0.000    0.000 
#
# Total GULP energy -89364.099011 kJ/mol
# GULP energy per Si atom -5585.256188 kJ/mol
# Density = 2.204135 g / cm^3
# Si number density = 22.091627 Si / 1000 Ang^3
#
#
#
# Elastic Constant Matrix: (Units=GPa)
#
#
# Indices 1 2 3 4 5 6 
#
# 1 63.1859 2.3543 33.7037 3.0265 0.1702 -6.0964
# 2 2.3543 76.2078 38.9571 0.9633 -17.0019 -14.8059
# 3 33.7037 38.9571 141.1687 -8.2206 -7.0533 -15.2145
# 4 3.0265 0.9633 -8.2206 39.1720 5.9831 -2.4357
# 5 0.1702 -17.0019 -7.0533 5.9831 25.4769 4.8400
# 6 -6.0964 -14.8059 -15.2145 -2.4357 4.8400 21.4382
#
#
#
# Elastic Compliance Matrix: (Units=1/GPa)
#
#
# Indices 1 2 3 4 5 6 
#
# 1 0.018837 0.002711 -0.005013 -0.002400 0.000223 0.003348
# 2 0.002711 0.019499 -0.004783 -0.002840 0.010802 0.008082
# 3 -0.005013 -0.004783 0.010031 0.003063 -0.001693 0.003120
# 4 -0.002400 -0.002840 0.003063 0.028011 -0.008489 0.004628
# 5 0.000223 0.010802 -0.001693 -0.008489 0.049070 -0.005721
# 6 0.003348 0.008082 0.003120 0.004628 -0.005721 0.057211
#
#
# Mechanical properties :
#
#
# Convention : Reuss Voigt Hill
#
# Bulk Modulus (GPa) = 29.24227 47.84363 38.54295
# Shear Modulus (GPa) = 24.01221 30.92057 27.46639
#
# Velocity S-wave (km/s) = 3.30045 3.74525 3.52986
# Velocity P-wave (km/s) = 5.27158 6.35661 5.83935
#
# Compressibility (1/GPa) = 0.03419707
#
# Stress axis : x y z
#
# Youngs Moduli (GPa) = 53.08764 51.28363 99.69544
#
# Poissons Ratio (x) = -0.13906 0.49980
# Poissons Ratio (y) = -0.14395 0.47685
# Poissons Ratio (z) = 0.26614 0.24529
#
# Static dielectric constant tensor:
#      x y z
#    x 1.834960 0.001030 -0.026850 
#    y 0.001030 1.890250 -0.010800 
#    z -0.026850 -0.010800 1.819020 
# 
# From -- ./inp_files/328374.got.cif
#   From: 2010.05.17/outbox.cif.g08.bks.cpg/sg2_165_cif.got.tgz:328374.got - 2010.06.03 11:33:40.
