data_PCOD9036202
_publ_section_title
;
Structure prediction by ZEFSAII (Michael W. Deem and Ramdas Pophale) SiO2 
 PCOD9036202
Probable space group: P -1
;
_chemical_formula_sum "Si O2"
_cell_formula_units_Z 16
_cell_length_a 9.393144
_cell_length_b 14.816079
_cell_length_c 5.034211
_cell_angle_alpha 101.384303
_cell_angle_beta 101.701639
_cell_angle_gamma 88.972461
_cell_volume 672.372137
_symmetry_space_group_name_H-M "P -1"
_symmetry_group_IT_number 2
_symmetry_cell_setting 'triclinic'
loop_
_space_group_symop_operation_xyz
x,y,z
-x,-y,-z
loop_
_atom_site_type_symbol
_atom_site_label
_atom_site_fract_x
_atom_site_fract_y
_atom_site_fract_z
Si Si1 0.767905 0.609142 0.629925
Si Si2 0.334541 0.475143 0.945483
Si Si3 0.932660 0.416362 0.111639
Si Si4 0.315371 0.204435 0.209739
Si Si5 0.421222 0.862996 0.493596
Si Si6 0.691883 0.952485 0.314961
Si Si7 0.115575 0.798857 0.139523
Si Si8 0.937654 0.867351 0.611093
O O1 0.690959 0.608531 0.318870
O O2 0.737644 0.698466 0.851601
O O3 0.938323 0.597387 0.638095
O O4 0.705210 0.533132 0.764658
O O5 0.222111 0.549245 0.832992
O O6 0.500000 0.500000 0.000000
O O7 0.908070 0.312068 0.937884
O O8 0.000000 0.500000 0.000000
O O9 0.485835 0.207901 0.342049
O O10 0.206487 0.194228 0.412933
O O11 0.286604 0.114535 0.965770
O O12 0.552408 0.909057 0.395021
O O13 0.286817 0.822553 0.252820
O O14 0.355921 0.943889 0.698178
O O15 0.844560 0.956778 0.540597
O O16 0.028526 0.833711 0.380372
O O17 0.042239 0.852211 0.894185
#
# Coordination Sequence:
#
# PCOD9036202 Si02
#       8
#     2   2   2   2   2   2   2   2
#     4  11  24  42  71  94 133 182 226 273 345 413
#     4  11  26  44  66 102 135 172 226 290 343 402
#     4  10  24  44  71  96 138 180 230 275 343 411
#     4  11  23  43  73  96 142 184 236 274 350 418
#     4  10  26  42  71 103 146 179 235 285 349 412
#     4  10  22  48  70 105 135 195 226 282 347 424
#     4  12  26  45  67 109 136 184 230 298 341 402
#     4  11  24  44  71  98 142 179 236 282 343 410
#
# _framework density 23.796347000000001
#
# number of rings (size 3 to 8) (size 9 to 14) (size 15 to 20)
#    0.000    1.250    2.500    1.125   10.500    3.000 
#    0.000    0.000    0.000    0.000    0.000    0.000 
#    0.000    0.000    0.000    0.000    0.000    0.000 
#
# Total GULP energy -89215.938331 kJ/mol
# GULP energy per Si atom -5575.996146 kJ/mol
# Density = 2.374219 g / cm^3
# Si number density = 23.796347 Si / 1000 Ang^3
#
#
#
# Elastic Constant Matrix: (Units=GPa)
#
#
# Indices 1 2 3 4 5 6 
#
# 1 173.4067 47.2417 56.5153 4.9490 26.6070 -17.9953
# 2 47.2417 48.2269 25.0058 12.0105 5.7063 -18.4009
# 3 56.5153 25.0058 116.2852 -2.2388 0.8228 -1.3496
# 4 4.9490 12.0105 -2.2388 24.5007 0.9401 1.4103
# 5 26.6070 5.7063 0.8228 0.9401 48.6409 -3.9182
# 6 -17.9953 -18.4009 -1.3496 1.4103 -3.9182 28.7724
#
#
#
# Elastic Compliance Matrix: (Units=1/GPa)
#
#
# Indices 1 2 3 4 5 6 
#
# 1 0.009376 -0.007505 -0.002878 0.001668 -0.004210 0.000275
# 2 -0.007505 0.047678 -0.006766 -0.024067 0.001253 0.026830
# 3 -0.002878 -0.006766 0.011477 0.005208 0.001620 -0.005623
# 4 0.001668 -0.024067 0.005208 0.053742 -0.000570 -0.016816
# 5 -0.004210 0.001253 0.001620 -0.000570 0.022809 0.001378
# 6 0.000275 0.026830 -0.005623 -0.016816 0.001378 0.052834
#
#
# Mechanical properties :
#
#
# Convention : Reuss Voigt Hill
#
# Bulk Modulus (GPa) = 29.21161 66.16049 47.68605
# Shear Modulus (GPa) = 20.52339 34.32653 27.42496
#
# Velocity S-wave (km/s) = 2.93995 3.80216 3.39851
# Velocity P-wave (km/s) = 4.88126 6.86574 5.95673
#
# Compressibility (1/GPa) = 0.03423296
#
# Stress axis : x y z
#
# Youngs Moduli (GPa) = 106.65349 20.97422 87.13290
#
# Poissons Ratio (x) = 0.15741 0.25076
# Poissons Ratio (y) = 0.80042 0.58953
# Poissons Ratio (z) = 0.30694 0.14191
#
# Static dielectric constant tensor:
#      x y z
#    x 1.861050 -0.017110 0.013290 
#    y -0.017110 2.142600 -0.036300 
#    z 0.013290 -0.036300 1.967760 
# 
# From -- ./inp_files/39992.got.cif
#   From: 2010.05.17/outbox.cif.g08.bks.cpg/sg2_20_cif.got.tgz:39992.got - 2010.06.03 11:33:40.
