data_PCOD9036938
_publ_section_title
;
Structure prediction by ZEFSAII (Michael W. Deem and Ramdas Pophale) SiO2 
 PCOD9036938
Probable space group: P -1
;
_chemical_formula_sum "Si O2"
_cell_formula_units_Z 16
_cell_length_a 9.594939
_cell_length_b 5.029146
_cell_length_c 15.418138
_cell_angle_alpha 98.381382
_cell_angle_beta 93.801239
_cell_angle_gamma 79.915406
_cell_volume 724.039333
_symmetry_space_group_name_H-M "P -1"
_symmetry_group_IT_number 2
_symmetry_cell_setting 'triclinic'
loop_
_space_group_symop_operation_xyz
x,y,z
-x,-y,-z
loop_
_atom_site_type_symbol
_atom_site_label
_atom_site_fract_x
_atom_site_fract_y
_atom_site_fract_z
Si Si1 0.692879 0.787154 0.843944
Si Si2 0.399554 0.703584 0.882185
Si Si3 0.232002 0.265219 0.897736
Si Si4 0.061650 0.994043 0.750395
Si Si5 0.674807 0.307195 0.324966
Si Si6 0.519043 0.882418 0.399139
Si Si7 0.263073 0.773229 0.269396
Si Si8 0.993528 0.751573 0.923263
O O1 0.556110 0.768384 0.894154
O O2 0.833147 0.712487 0.902217
O O3 0.694558 0.072133 0.808542
O O4 0.638069 0.569179 0.091945
O O5 0.369450 0.669143 0.776868
O O6 0.704774 0.549189 0.761028
O O7 0.291715 0.967530 0.923158
O O8 0.101104 0.479291 0.937780
O O9 0.166322 0.199563 0.797457
O O10 0.156189 0.798203 0.677123
O O11 0.034855 0.840101 0.831661
O O12 0.905678 0.132365 0.720066
O O13 0.620842 0.590744 0.383360
O O14 0.592369 0.085734 0.353322
O O15 0.366913 0.848937 0.351174
O O16 0.500000 0.000000 0.500000
O O17 0.000000 0.000000 0.000000
#
# Coordination Sequence:
#
# PCOD9036938 Si02
#       8
#     2   2   2   2   2   2   2   2
#     4  11  22  38  62  93 118 165 211 250 305 364
#     4  11  20  36  65  88 117 153 219 253 288 358
#     4  11  20  38  60  89 119 158 206 259 297 370
#     4  10  23  39  66  91 119 168 220 240 305 368
#     4  11  21  38  65  89 124 164 209 247 297 377
#     4  12  24  40  63  97 127 158 198 258 320 359
#     4  11  21  39  61  91 125 159 208 254 292 378
#     4  11  24  42  63  93 131 162 204 268 315 355
#
# _framework density 22.098246
#
# number of rings (size 3 to 8) (size 9 to 14) (size 15 to 20)
#    0.000    1.000    6.250    2.625    0.000    0.500 
#    0.000    2.500    0.000    0.000    0.000    0.000 
#    0.000    0.000    0.000    0.000    0.000    0.000 
#
# Total GULP energy -89521.423493 kJ/mol
# GULP energy per Si atom -5595.088968 kJ/mol
# Density = 2.204795 g / cm^3
# Si number density = 22.098246 Si / 1000 Ang^3
#
#
#
# Elastic Constant Matrix: (Units=GPa)
#
#
# Indices 1 2 3 4 5 6 
#
# 1 124.4328 24.6570 13.9031 14.2797 -0.5818 -18.1969
# 2 24.6570 103.0771 4.5072 33.3560 -2.9616 -2.1363
# 3 13.9031 4.5072 63.6948 25.4744 3.4902 -13.2906
# 4 14.2797 33.3560 25.4744 30.1986 -5.3924 -7.5855
# 5 -0.5818 -2.9616 3.4902 -5.3924 22.1394 3.3428
# 6 -18.1969 -2.1363 -13.2906 -7.5855 3.3428 34.7529
#
#
#
# Elastic Compliance Matrix: (Units=1/GPa)
#
#
# Indices 1 2 3 4 5 6 
#
# 1 0.009198 -0.001805 -0.000550 -0.000937 -0.000801 0.004367
# 2 -0.001805 0.020314 0.012593 -0.033913 -0.007337 -0.001577
# 3 -0.000550 0.012593 0.034607 -0.044195 -0.015389 0.005555
# 4 -0.000937 -0.033913 -0.044195 0.114280 0.029849 0.002596
# 5 -0.000801 -0.007337 -0.015389 0.029849 0.054693 -0.005501
# 6 0.004367 -0.001577 0.005555 0.002596 -0.005501 0.034184
#
#
# Mechanical properties :
#
#
# Convention : Reuss Voigt Hill
#
# Bulk Modulus (GPa) = 11.82122 41.92656 26.87389
# Shear Modulus (GPa) = 18.18199 33.96066 26.07132
#
# Velocity S-wave (km/s) = 2.87153 3.92446 3.43854
# Velocity P-wave (km/s) = 4.04416 6.28881 5.28698
#
# Compressibility (1/GPa) = 0.08459363
#
# Stress axis : x y z
#
# Youngs Moduli (GPa) = 108.71727 49.22829 28.89618
#
# Poissons Ratio (x) = 0.08888 0.01589
# Poissons Ratio (y) = 0.19628 -0.36389
# Poissons Ratio (z) = 0.05978 -0.61993
#
# Static dielectric constant tensor:
#      x y z
#    x 1.874170 0.005630 -0.016600 
#    y 0.005630 1.827930 -0.009790 
#    z -0.016600 -0.009790 1.806810 
# 
# From -- ./inp_files/488576.got.cif
#   From: 2010.05.17/outbox.cif.g08.bks.cpg/sg2_245_cif.got.tgz:488576.got - 2010.06.03 11:33:40.
