data_PCOD9036320
_publ_section_title
;
Structure prediction by ZEFSAII (Michael W. Deem and Ramdas Pophale) SiO2 
 PCOD9036320
Probable space group: P -1
;
_chemical_formula_sum "Si O2"
_cell_formula_units_Z 16
_cell_length_a 9.373155
_cell_length_b 11.755696
_cell_length_c 11.455396
_cell_angle_alpha 59.218275
_cell_angle_beta 72.716704
_cell_angle_gamma 119.979175
_cell_volume 628.837052
_symmetry_space_group_name_H-M "P -1"
_symmetry_group_IT_number 2
_symmetry_cell_setting 'triclinic'
loop_
_space_group_symop_operation_xyz
x,y,z
-x,-y,-z
loop_
_atom_site_type_symbol
_atom_site_label
_atom_site_fract_x
_atom_site_fract_y
_atom_site_fract_z
Si Si1 0.220739 0.974133 0.209945
Si Si2 0.633541 0.770952 0.172157
Si Si3 0.720331 0.246331 0.761512
Si Si4 0.344409 0.134278 0.622121
Si Si5 0.876862 0.428733 0.314507
Si Si6 0.293205 0.530035 0.078552
Si Si7 0.813030 0.793933 0.568854
Si Si8 0.183094 0.358970 0.942660
O O1 0.218356 0.816355 0.319720
O O2 0.201207 0.010656 0.060484
O O3 0.471840 0.215654 0.073764
O O4 0.984555 0.862240 0.388597
O O5 0.660673 0.786482 0.296754
O O6 0.288680 0.400494 0.231789
O O7 0.694153 0.674000 0.146781
O O8 0.621829 0.324960 0.726727
O O9 0.956725 0.417963 0.695167
O O10 0.500000 0.000000 0.000000
O O11 0.585130 0.209749 0.525767
O O12 0.359974 0.228387 0.449335
O O13 0.081326 0.879586 0.821384
O O14 0.035489 0.425753 0.215067
O O15 0.881857 0.561970 0.162270
O O16 0.314136 0.496901 0.958232
O O17 0.000000 0.000000 0.500000
#
# Coordination Sequence:
#
# PCOD9036320 Si02
#       8
#     2   2   2   2   2   2   2   2
#     4  11  25  49  83 107 157 209 262 321 381 471
#     4  11  24  48  81 109 150 206 261 316 394 445
#     4  10  22  49  77 109 150 203 255 315 385 453
#     4  12  29  47  78 118 158 200 255 333 384 456
#     4  12  29  48  78 119 157 205 260 322 394 466
#     4  12  28  51  80 115 152 216 262 311 396 473
#     4  12  28  51  77 117 159 207 262 318 389 466
#     4  12  27  51  77 114 161 199 262 328 388 458
#
# _framework density 25.443794
#
# number of rings (size 3 to 8) (size 9 to 14) (size 15 to 20)
#    0.000    0.500    5.000    2.250    7.000    3.500 
#    0.000    0.000    0.000    0.000    0.000    0.000 
#    0.000    0.000    0.000    0.000    0.000    0.000 
#
# Total GULP energy -89494.548967 kJ/mol
# GULP energy per Si atom -5593.409310 kJ/mol
# Density = 2.538588 g / cm^3
# Si number density = 25.443794 Si / 1000 Ang^3
#
#
#
# Elastic Constant Matrix: (Units=GPa)
#
#
# Indices 1 2 3 4 5 6 
#
# 1 203.2833 75.4448 47.4114 8.4024 -13.2217 13.6899
# 2 75.4448 132.4968 47.4210 6.5442 5.3463 10.3211
# 3 47.4114 47.4210 101.1792 7.6046 -3.6296 6.7628
# 4 8.4024 6.5442 7.6046 42.5905 -2.5931 0.4836
# 5 -13.2217 5.3463 -3.6296 -2.5931 57.8583 11.5223
# 6 13.6899 10.3211 6.7628 0.4836 11.5223 43.5402
#
#
#
# Elastic Compliance Matrix: (Units=1/GPa)
#
#
# Indices 1 2 3 4 5 6 
#
# 1 0.006719 -0.003255 -0.001405 -0.000430 0.002060 -0.001663
# 2 -0.003255 0.010805 -0.003537 -0.000496 -0.001890 -0.000483
# 3 -0.001405 -0.003537 0.012390 -0.001327 0.000896 -0.000866
# 4 -0.000430 -0.000496 -0.001327 0.023936 0.000949 -0.000058
# 5 0.002060 -0.001890 0.000896 0.000949 0.019104 -0.005405
# 6 -0.001663 -0.000483 -0.000866 -0.000058 -0.005405 0.025170
#
#
# Mechanical properties :
#
#
# Convention : Reuss Voigt Hill
#
# Bulk Modulus (GPa) = 73.97365 86.39040 80.18202
# Shear Modulus (GPa) = 42.00795 46.57660 44.29227
#
# Velocity S-wave (km/s) = 4.06767 4.28316 4.17680
# Velocity P-wave (km/s) = 7.15526 7.64773 7.40559
#
# Compressibility (1/GPa) = 0.01351833
#
# Stress axis : x y z
#
# Youngs Moduli (GPa) = 148.83542 92.54825 80.71283
#
# Poissons Ratio (x) = 0.30125 0.11343
# Poissons Ratio (y) = 0.48447 0.28549
# Poissons Ratio (z) = 0.20917 0.32736
#
# Static dielectric constant tensor:
#      x y z
#    x 2.025790 0.038940 -0.027710 
#    y 0.038940 1.956760 0.048040 
#    z -0.027710 0.048040 2.156760 
# 
# From -- ./inp_files/428122.got.cif
#   From: 2010.05.17/outbox.cif.g08.bks.cpg/sg2_215_cif.got.tgz:428122.got - 2010.06.03 11:33:40.
