data_PCOD9036711
_publ_section_title
;
Structure prediction by ZEFSAII (Michael W. Deem and Ramdas Pophale) SiO2 
 PCOD9036711
Probable space group: P -1
;
_chemical_formula_sum "Si O2"
_cell_formula_units_Z 16
_cell_length_a 19.184839
_cell_length_b 9.031386
_cell_length_c 9.137655
_cell_angle_alpha 120.632105
_cell_angle_beta 141.513786
_cell_angle_gamma 44.479594
_cell_volume 685.982573
_symmetry_space_group_name_H-M "P -1"
_symmetry_group_IT_number 2
_symmetry_cell_setting 'triclinic'
loop_
_space_group_symop_operation_xyz
x,y,z
-x,-y,-z
loop_
_atom_site_type_symbol
_atom_site_label
_atom_site_fract_x
_atom_site_fract_y
_atom_site_fract_z
Si Si1 0.028672 0.627838 0.496075
Si Si2 0.623721 0.131187 0.248775
Si Si3 0.354175 0.579782 0.366663
Si Si4 0.157788 0.837948 0.911284
Si Si5 0.109305 0.271638 0.990942
Si Si6 0.668290 0.320813 0.180092
Si Si7 0.330448 0.348436 0.468853
Si Si8 0.654178 0.735370 0.234229
O O1 0.033000 0.818103 0.662905
O O2 0.186746 0.460484 0.615507
O O3 0.000000 0.500000 0.500000
O O4 0.932776 0.705553 0.235721
O O5 0.682555 0.223130 0.495791
O O6 0.685219 0.124655 0.190189
O O7 0.653798 0.919023 0.251230
O O8 0.455865 0.284702 0.040623
O O9 0.500000 0.500000 0.500000
O O10 0.378801 0.395005 0.421520
O O11 0.238524 0.680815 0.101954
O O12 0.113714 0.078089 0.974469
O O13 0.261678 0.750014 0.897648
O O14 0.247472 0.256713 0.233765
O O15 0.000000 0.500000 0.000000
O O16 0.728388 0.424870 0.429278
O O17 0.500000 0.500000 0.000000
O O18 0.403047 0.207742 0.664254
#
# Coordination Sequence:
#
# PCOD9036711 Si02
#       8
#     2   2   2   2   2   2   2   2
#     4  12  26  46  72 100 139 182 239 296 349 412
#     4  10  23  38  70 101 134 182 227 279 358 433
#     4  11  24  41  66 104 142 175 227 286 355 423
#     4  12  25  46  70 104 143 181 238 293 355 424
#     4  12  26  47  69  98 138 191 240 295 345 407
#     4  11  20  42  73 101 137 186 225 288 357 425
#     4  11  22  44  71  94 139 188 224 288 350 415
#     4  11  21  43  68  97 138 175 236 278 356 419
#
# _framework density 23.324207000000001
#
# number of rings (size 3 to 8) (size 9 to 14) (size 15 to 20)
#    0.000    0.750    3.750    4.125    1.750    0.000 
#    4.500    3.125    0.000    0.000    0.000    0.000 
#    0.000    0.000    0.000    0.000    0.000    0.000 
#
# Total GULP energy -89228.719472 kJ/mol
# GULP energy per Si atom -5576.794967 kJ/mol
# Density = 2.327112 g / cm^3
# Si number density = 23.324207 Si / 1000 Ang^3
#
#
#
# Elastic Constant Matrix: (Units=GPa)
#
#
# Indices 1 2 3 4 5 6 
#
# 1 105.8138 48.0903 18.1367 0.6183 -13.8028 39.4039
# 2 48.0903 123.7640 20.3798 14.9231 4.4647 38.1586
# 3 18.1367 20.3798 135.6248 20.3151 -13.8239 9.0575
# 4 0.6183 14.9231 20.3151 35.6219 12.9257 6.0107
# 5 -13.8028 4.4647 -13.8239 12.9257 24.2574 -3.8946
# 6 39.4039 38.1586 9.0575 6.0107 -3.8946 57.1744
#
#
#
# Elastic Compliance Matrix: (Units=1/GPa)
#
#
# Indices 1 2 3 4 5 6 
#
# 1 0.014937 -0.003853 -0.000036 -0.000427 0.008274 -0.007108
# 2 -0.003853 0.011730 -0.001208 -0.001430 -0.005109 -0.005179
# 3 -0.000036 -0.001208 0.010033 -0.009405 0.011089 0.000986
# 4 -0.000427 -0.001430 -0.009405 0.045771 -0.030394 -0.004143
# 5 0.008274 -0.005109 0.011089 -0.030394 0.070017 0.003916
# 6 -0.007108 -0.005179 0.000986 -0.004143 0.003916 0.026392
#
#
# Mechanical properties :
#
#
# Convention : Reuss Voigt Hill
#
# Bulk Modulus (GPa) = 37.72987 59.82401 48.77694
# Shear Modulus (GPa) = 25.26411 41.98380 33.62395
#
# Velocity S-wave (km/s) = 3.29473 4.24725 3.80095
# Velocity P-wave (km/s) = 5.53941 7.05385 6.34200
#
# Compressibility (1/GPa) = 0.02650420
#
# Stress axis : x y z
#
# Youngs Moduli (GPa) = 66.94811 85.25408 99.67210
#
# Poissons Ratio (x) = 0.32851 0.00363
# Poissons Ratio (y) = 0.25797 0.12040
# Poissons Ratio (z) = 0.00244 0.10298
#
# Static dielectric constant tensor:
#      x y z
#    x 1.938450 -0.034030 -0.027380 
#    y -0.034030 1.944650 -0.066000 
#    z -0.027380 -0.066000 1.892550 
# 
# From -- ./inp_files/329233.got.cif
#   From: 2010.05.17/outbox.cif.g08.bks.cpg/sg2_165_cif.got.tgz:329233.got - 2010.06.03 11:33:40.
