data_PCOD9036131
_publ_section_title
;
Structure prediction by ZEFSAII (Michael W. Deem and Ramdas Pophale) SiO2 
 PCOD9036131
Probable space group: P -1
;
_chemical_formula_sum "Si O2"
_cell_formula_units_Z 12
_cell_length_a 8.242112
_cell_length_b 7.502402
_cell_length_c 7.970532
_cell_angle_alpha 96.045393
_cell_angle_beta 76.297475
_cell_angle_gamma 98.924211
_cell_volume 471.830043
_symmetry_space_group_name_H-M "P -1"
_symmetry_group_IT_number 2
_symmetry_cell_setting 'triclinic'
loop_
_space_group_symop_operation_xyz
x,y,z
-x,-y,-z
loop_
_atom_site_type_symbol
_atom_site_label
_atom_site_fract_x
_atom_site_fract_y
_atom_site_fract_z
Si Si1 0.906971 0.471831 0.264483
Si Si2 0.948677 0.881501 0.332423
Si Si3 0.838709 0.815677 0.874670
Si Si4 0.640932 0.896330 0.609644
Si Si5 0.386285 0.417285 0.864676
Si Si6 0.358173 0.716688 0.452439
O O1 0.190712 0.601578 0.550284
O O2 0.988473 0.678632 0.289663
O O3 0.957046 0.658451 0.822860
O O4 0.761930 0.476033 0.158859
O O5 0.036399 0.999190 0.171289
O O6 0.748954 0.859596 0.414260
O O7 0.000000 0.000000 0.500000
O O8 0.715417 0.808870 0.742970
O O9 0.716935 0.770919 0.058068
O O10 0.453103 0.814386 0.600764
O O11 0.662563 0.113126 0.644690
O O12 0.500000 0.500000 0.000000
O O13 0.518265 0.400246 0.682473
#
# Coordination Sequence:
#
# PCOD9036131 Si02
#       6
#     2   2   2   2   2   2
#     4  12  25  48  78 103 143 194 243 298 350 429
#     4  10  23  42  71 108 133 183 239 292 353 410
#     4  11  26  48  71 109 148 179 244 298 363 431
#     4  10  22  47  75 108 136 191 246 296 353 425
#     4  12  28  46  70 108 147 193 235 292 372 428
#     4  11  24  46  77 104 143 190 246 295 353 431
#
# _framework density 25.432884000000001
#
# number of rings (size 3 to 8) (size 9 to 14) (size 15 to 20)
#    0.000    1.000    3.333    2.000    4.667    6.667 
#    0.000    3.333    0.000    0.000    0.000    0.000 
#    0.000    0.000    0.000    0.000    0.000    0.000 
#
# Total GULP energy -67191.717119 kJ/mol
# GULP energy per Si atom -5599.309760 kJ/mol
# Density = 2.537500 g / cm^3
# Si number density = 25.432884 Si / 1000 Ang^3
#
#
#
# Elastic Constant Matrix: (Units=GPa)
#
#
# Indices 1 2 3 4 5 6 
#
# 1 100.3001 21.7681 40.1728 -5.0950 22.2587 -28.4532
# 2 21.7681 177.0853 33.7181 -14.0267 -6.4971 -3.7573
# 3 40.1728 33.7181 100.6862 -20.0532 17.5116 -1.6444
# 4 -5.0950 -14.0267 -20.0532 46.5573 11.5370 -3.4459
# 5 22.2587 -6.4971 17.5116 11.5370 44.1240 -12.1694
# 6 -28.4532 -3.7573 -1.6444 -3.4459 -12.1694 43.2209
#
#
#
# Elastic Compliance Matrix: (Units=1/GPa)
#
#
# Indices 1 2 3 4 5 6 
#
# 1 0.015571 -0.000848 -0.004941 0.000923 -0.003778 0.008999
# 2 -0.000848 0.006268 -0.002057 0.000402 0.002218 0.000565
# 3 -0.004941 -0.002057 0.015005 0.006642 -0.006663 -0.004207
# 4 0.000923 0.000402 0.006642 0.027071 -0.010060 0.000221
# 5 -0.003778 0.002218 -0.006663 -0.010060 0.031709 0.005578
# 6 0.008999 0.000565 -0.004207 0.000221 0.005578 0.030538
#
#
# Mechanical properties :
#
#
# Convention : Reuss Voigt Hill
#
# Bulk Modulus (GPa) = 47.27637 63.26552 55.27095
# Shear Modulus (GPa) = 33.57829 45.60792 39.59311
#
# Velocity S-wave (km/s) = 3.63749 4.23929 3.94987
# Velocity P-wave (km/s) = 6.02253 6.99225 6.52543
#
# Compressibility (1/GPa) = 0.02115222
#
# Stress axis : x y z
#
# Youngs Moduli (GPa) = 64.22094 159.53720 66.64397
#
# Poissons Ratio (x) = 0.13527 0.32928
# Poissons Ratio (y) = 0.05445 0.13711
# Poissons Ratio (z) = 0.31731 0.32822
#
# Static dielectric constant tensor:
#      x y z
#    x 2.053540 0.036100 0.078700 
#    y 0.036100 2.057650 0.044110 
#    z 0.078700 0.044110 2.023940 
# 
# From -- ./inp_files/165578.got.cif
#   From: 2010.05.17/outbox.cif.g08.bks.cpg/sg2_83_cif.got.tgz:165578.got - 2010.06.03 11:33:40.
