data_PCOD9036758
_publ_section_title
;
Structure prediction by ZEFSAII (Michael W. Deem and Ramdas Pophale) SiO2 
 PCOD9036758
Probable space group: P -1
;
_chemical_formula_sum "Si O2"
_cell_formula_units_Z 16
_cell_length_a 5.096176
_cell_length_b 20.136515
_cell_length_c 8.846358
_cell_angle_alpha 121.054013
_cell_angle_beta 122.714476
_cell_angle_gamma 61.391043
_cell_volume 628.633662
_symmetry_space_group_name_H-M "P -1"
_symmetry_group_IT_number 2
_symmetry_cell_setting 'triclinic'
loop_
_space_group_symop_operation_xyz
x,y,z
-x,-y,-z
loop_
_atom_site_type_symbol
_atom_site_label
_atom_site_fract_x
_atom_site_fract_y
_atom_site_fract_z
Si Si1 0.930842 0.345712 0.616733
Si Si2 0.413686 0.219727 0.794350
Si Si3 0.498298 0.505138 0.684866
Si Si4 0.312585 0.902514 0.493803
Si Si5 0.952212 0.237689 0.206236
Si Si6 0.384935 0.058310 0.773924
Si Si7 0.848080 0.499904 0.170352
Si Si8 0.352940 0.864686 0.800599
O O1 0.079642 0.284960 0.727149
O O2 0.140512 0.408127 0.725119
O O3 0.603551 0.409772 0.644822
O O4 0.901196 0.306408 0.398660
O O5 0.521911 0.185673 0.621190
O O6 0.396001 0.138185 0.778918
O O7 0.676232 0.252003 0.006700
O O8 0.500000 0.500000 0.500000
O O9 0.174151 0.540091 0.719058
O O10 0.806599 0.541191 0.852151
O O11 0.224733 0.892532 0.628177
O O12 0.998706 0.932543 0.324742
O O13 0.508306 0.970023 0.634996
O O14 0.892141 0.165423 0.205648
O O15 0.309238 0.206899 0.206435
O O16 0.548523 0.066928 0.992679
O O17 0.500000 0.500000 0.000000
#
# Coordination Sequence:
#
# PCOD9036758 Si02
#       8
#     2   2   2   2   2   2   2   2
#     4  10  25  40  71  97 135 178 220 264 342 384
#     4  11  22  43  61  94 133 174 225 277 329 401
#     4  10  23  44  70 101 135 173 217 269 328 399
#     4  11  21  38  66  88 127 176 224 285 333 388
#     4  11  24  42  63  94 132 174 223 275 329 395
#     4  10  23  39  60  95 126 175 226 279 337 387
#     4  10  23  44  71 102 136 169 220 266 332 396
#     4  11  23  42  63  91 133 172 225 280 329 394
#
# _framework density 25.452027999999999
#
# number of rings (size 3 to 8) (size 9 to 14) (size 15 to 20)
#    0.750    0.750    2.500    2.250    1.750    2.000 
#    0.000    1.875    0.000    0.000    0.000    0.000 
#    0.000    0.000    0.000    0.000    0.000    0.000 
#
# Total GULP energy -89295.605262 kJ/mol
# GULP energy per Si atom -5580.975329 kJ/mol
# Density = 2.539410 g / cm^3
# Si number density = 25.452028 Si / 1000 Ang^3
#
#
#
# Elastic Constant Matrix: (Units=GPa)
#
#
# Indices 1 2 3 4 5 6 
#
# 1 83.5282 5.6258 2.4163 4.2727 -7.5207 11.0574
# 2 5.6258 63.4949 11.8820 -10.5504 -1.1399 0.2714
# 3 2.4163 11.8820 143.7339 13.2681 5.7636 8.2790
# 4 4.2727 -10.5504 13.2681 39.5167 11.5023 -0.9062
# 5 -7.5207 -1.1399 5.7636 11.5023 27.5811 -4.2327
# 6 11.0574 0.2714 8.2790 -0.9062 -4.2327 33.4555
#
#
#
# Elastic Compliance Matrix: (Units=1/GPa)
#
#
# Indices 1 2 3 4 5 6 
#
# 1 0.013148 -0.001669 0.000278 -0.003279 0.004218 -0.003956
# 2 -0.001669 0.017209 -0.001922 0.005931 -0.001687 0.000835
# 3 0.000278 -0.001922 0.007530 -0.002921 -0.000682 -0.002105
# 4 -0.003279 0.005931 -0.002921 0.032113 -0.013286 0.000948
# 5 0.004218 -0.001687 -0.000682 -0.013286 0.043626 0.003948
# 6 -0.003956 0.000835 -0.002105 0.000948 0.003948 0.032237
#
#
# Mechanical properties :
#
#
# Convention : Reuss Voigt Hill
#
# Bulk Modulus (GPa) = 31.99035 36.73390 34.36213
# Shear Modulus (GPa) = 30.69196 38.16620 34.42908
#
# Velocity S-wave (km/s) = 3.47634 3.87658 3.68190
# Velocity P-wave (km/s) = 5.35812 5.87377 5.62186
#
# Compressibility (1/GPa) = 0.03125942
#
# Stress axis : x y z
#
# Youngs Moduli (GPa) = 76.05933 58.11073 132.80549
#
# Poissons Ratio (x) = 0.09700 -0.03697
# Poissons Ratio (y) = 0.12696 0.25531
# Poissons Ratio (z) = -0.02117 0.11171
#
# Static dielectric constant tensor:
#      x y z
#    x 2.064090 -0.039350 -0.024940 
#    y -0.039350 2.095990 -0.074280 
#    z -0.024940 -0.074280 2.110590 
# 
# From -- ./inp_files/141543.got.cif
#   From: 2010.05.17/outbox.cif.g08.bks.cpg/sg2_71_cif.got.tgz:141543.got - 2010.06.03 11:33:40.
