data_PCOD9036646
_publ_section_title
;
Structure prediction by ZEFSAII (Michael W. Deem and Ramdas Pophale) SiO2 
 PCOD9036646
Probable space group: P -1
;
_chemical_formula_sum "Si O2"
_cell_formula_units_Z 15
_cell_length_a 4.922061
_cell_length_b 11.896649
_cell_length_c 18.294315
_cell_angle_alpha 139.146229
_cell_angle_beta 122.884391
_cell_angle_gamma 53.342896
_cell_volume 553.557386
_symmetry_space_group_name_H-M "P -1"
_symmetry_group_IT_number 2
_symmetry_cell_setting 'triclinic'
loop_
_space_group_symop_operation_xyz
x,y,z
-x,-y,-z
loop_
_atom_site_type_symbol
_atom_site_label
_atom_site_fract_x
_atom_site_fract_y
_atom_site_fract_z
Si Si1 0.092019 0.399391 0.109997
Si Si2 0.500000 0.000000 0.000000
Si Si3 0.464354 0.204364 0.606967
Si Si4 0.315345 0.626252 0.150189
Si Si5 0.973215 0.999840 0.780373
Si Si6 0.243280 0.142708 0.187465
Si Si7 0.699295 0.685396 0.528284
Si Si8 0.210725 0.532465 0.340312
O O1 0.088122 0.511530 0.090677
O O2 0.320970 0.444037 0.232031
O O3 0.694092 0.474316 0.116101
O O4 0.312890 0.192353 0.021910
O O5 0.747769 0.906350 0.919367
O O6 0.728643 0.242377 0.718797
O O7 0.400160 0.292600 0.561180
O O8 0.119009 0.300347 0.647818
O O9 0.500000 0.000000 0.500000
O O10 0.224134 0.786058 0.154720
O O11 0.004294 0.933846 0.838118
O O12 0.779135 0.863498 0.653653
O O13 0.353137 0.941270 0.772282
O O14 0.147394 0.360539 0.286237
O O15 0.371890 0.628008 0.473184
O O16 0.000000 0.500000 0.500000
#
# Coordination Sequence:
#
# PCOD9036646 Si02
#       8
#     2   1   2   2   2   2   2   2
#     4  10  23  43  72  99 130 174 234 285 341 410
#     4  10  26  50  80  98 128 174 232 292 356 416
#     4  11  23  39  61  96 139 194 237 264 335 413
#     4  11  23  44  66 101 143 183 221 285 336 419
#     4  12  26  42  68 101 145 178 227 279 350 404
#     4  11  26  47  69 102 132 178 228 294 347 411
#     4  12  23  38  64  98 140 188 230 280 331 400
#     4  10  23  38  65  96 137 178 236 282 333 402
#
# _framework density 27.097463000000001
#
# number of rings (size 3 to 8) (size 9 to 14) (size 15 to 20)
#    0.000    1.067    4.000    1.600    1.867    8.000 
#    0.000    4.000    0.000    0.000    0.000    0.000 
#    0.000    0.000    0.000    0.000    0.000    0.000 
#
# Total GULP energy -83540.245760 kJ/mol
# GULP energy per Si atom -5569.349717 kJ/mol
# Density = 2.703579 g / cm^3
# Si number density = 27.097463 Si / 1000 Ang^3
#
#
#
# Elastic Constant Matrix: (Units=GPa)
#
#
# Indices 1 2 3 4 5 6 
#
# 1 75.6494 -13.8354 -8.5119 17.4740 -4.1705 5.6986
# 2 -13.8354 108.9642 7.5029 28.4721 -10.4793 14.6847
# 3 -8.5119 7.5029 107.3673 30.7619 -6.1549 5.9060
# 4 17.4740 28.4721 30.7619 57.3510 6.7704 -18.0767
# 5 -4.1705 -10.4793 -6.1549 6.7704 33.9753 0.1813
# 6 5.6986 14.6847 5.9060 -18.0767 0.1813 38.2006
#
#
#
# Elastic Compliance Matrix: (Units=1/GPa)
#
#
# Indices 1 2 3 4 5 6 
#
# 1 0.034412 0.022829 0.017975 -0.046529 0.024001 -0.038820
# 2 0.022829 0.031035 0.016755 -0.046998 0.024991 -0.040285
# 3 0.017975 0.016755 0.023392 -0.038409 0.019431 -0.031006
# 4 -0.046529 -0.046998 -0.038409 0.107132 -0.048951 0.081874
# 5 0.024001 0.024991 0.019431 -0.048951 0.053573 -0.039609
# 6 -0.038820 -0.040285 -0.031006 0.081874 -0.039609 0.091179
#
#
# Mechanical properties :
#
#
# Convention : Reuss Voigt Hill
#
# Bulk Modulus (GPa) = 4.90295 29.14357 17.02326
# Shear Modulus (GPa) = 17.03053 46.36039 31.69546
#
# Velocity S-wave (km/s) = 2.50969 4.14076 3.42377
# Velocity P-wave (km/s) = 3.19553 5.79997 4.68247
#
# Compressibility (1/GPa) = 0.20395864
#
# Stress axis : x y z
#
# Youngs Moduli (GPa) = 29.05982 32.22148 42.74957
#
# Poissons Ratio (x) = -0.73560 -0.76843
# Poissons Ratio (y) = -0.66342 -0.71627
# Poissons Ratio (z) = -0.52236 -0.53988
#
# Static dielectric constant tensor:
#      x y z
#    x 2.562920 -0.331320 0.854410 
#    y -0.331320 2.043860 0.000720 
#    z 0.854410 0.000720 2.021150 
# 
# From -- ./inp_files/88751.got.cif
#   From: 2010.05.17/outbox.cif.g08.bks.cpg/sg2_45_cif.got.tgz:88751.got - 2010.06.03 11:33:40.
