data_PCOD9036734
_publ_section_title
;
Structure prediction by ZEFSAII (Michael W. Deem and Ramdas Pophale) SiO2 
 PCOD9036734
Probable space group: P -1
;
_chemical_formula_sum "Si O2"
_cell_formula_units_Z 10
_cell_length_a 6.658608
_cell_length_b 10.709861
_cell_length_c 9.132417
_cell_angle_alpha 126.981779
_cell_angle_beta 70.516332
_cell_angle_gamma 80.802444
_cell_volume 430.612385
_symmetry_space_group_name_H-M "P -1"
_symmetry_group_IT_number 2
_symmetry_cell_setting 'triclinic'
loop_
_space_group_symop_operation_xyz
x,y,z
-x,-y,-z
loop_
_atom_site_type_symbol
_atom_site_label
_atom_site_fract_x
_atom_site_fract_y
_atom_site_fract_z
Si Si1 0.353284 0.234310 0.694374
Si Si2 0.261891 0.870087 0.921112
Si Si3 0.114214 0.629546 0.950214
Si Si4 0.850270 0.209197 0.641783
Si Si5 0.695620 0.885272 0.669097
O O1 0.597457 0.238888 0.667153
O O2 0.376333 0.087295 0.466713
O O3 0.179865 0.256485 0.890072
O O4 0.197034 0.423141 0.779425
O O5 0.498721 0.833784 0.744458
O O6 0.234439 0.699730 0.852574
O O7 0.306617 0.959160 0.119894
O O8 0.000000 0.000000 0.000000
O O9 0.184763 0.675479 0.124190
O O10 0.013604 0.242233 0.505696
O O11 0.000000 0.000000 0.500000
#
# Coordination Sequence:
#
# PCOD9036734 Si02
#       5
#     2   2   2   2   2
#     4  10  23  41  64  90 126 153 206 254 301 361
#     4  11  23  40  61  88 126 160 205 249 297 364
#     4  10  23  41  62  93 120 164 199 248 310 355
#     4  11  21  38  65  92 119 158 203 252 301 354
#     4  10  23  39  58  94 117 162 206 241 308 356
#
# _framework density 23.222740999999999
#
# number of rings (size 3 to 8) (size 9 to 14) (size 15 to 20)
#    0.000    1.600    2.000    1.800    2.800    2.400 
#    0.000    2.000    0.000    0.000    0.000    0.000 
#    0.000    0.000    0.000    0.000    0.000    0.000 
#
# Total GULP energy -55786.931537 kJ/mol
# GULP energy per Si atom -5578.693154 kJ/mol
# Density = 2.316988 g / cm^3
# Si number density = 23.222741 Si / 1000 Ang^3
#
#
#
# Elastic Constant Matrix: (Units=GPa)
#
#
# Indices 1 2 3 4 5 6 
#
# 1 201.2011 24.0560 42.2292 -12.5257 -29.7097 33.2614
# 2 24.0560 69.9499 4.7181 -13.5837 -18.0545 40.4586
# 3 42.2292 4.7181 70.8870 -16.2716 -8.0828 8.9288
# 4 -12.5257 -13.5837 -16.2716 33.3822 14.8984 -12.4463
# 5 -29.7097 -18.0545 -8.0828 14.8984 51.2509 -13.7186
# 6 33.2614 40.4586 8.9288 -12.4463 -13.7186 43.7917
#
#
#
# Elastic Compliance Matrix: (Units=1/GPa)
#
#
# Indices 1 2 3 4 5 6 
#
# 1 0.006744 0.001365 -0.003550 -0.001943 0.002983 -0.005278
# 2 0.001365 0.031917 0.001558 0.001606 0.004017 -0.029128
# 3 -0.003550 0.001558 0.017969 0.008470 -0.001241 -0.000389
# 4 -0.001943 0.001606 0.008470 0.040706 -0.009197 0.006953
# 5 0.002983 0.004017 -0.001241 -0.009197 0.024998 -0.000506
# 6 -0.005278 -0.029128 -0.000389 0.006953 -0.000506 0.055652
#
#
# Mechanical properties :
#
#
# Convention : Reuss Voigt Hill
#
# Bulk Modulus (GPa) = 18.05762 53.78275 35.92018
# Shear Modulus (GPa) = 25.29105 43.75395 34.52250
#
# Velocity S-wave (km/s) = 3.30368 4.34533 3.85980
# Velocity P-wave (km/s) = 4.72706 6.95598 5.94688
#
# Compressibility (1/GPa) = 0.05537828
#
# Stress axis : x y z
#
# Youngs Moduli (GPa) = 148.28334 31.33080 55.64994
#
# Poissons Ratio (x) = -0.04278 0.19753
# Poissons Ratio (y) = -0.20245 -0.08670
# Poissons Ratio (z) = 0.52633 -0.04881
#
# Static dielectric constant tensor:
#      x y z
#    x 1.889780 -0.044840 -0.062100 
#    y -0.044840 1.969610 0.023100 
#    z -0.062100 0.023100 1.933370 
# 
# From -- ./inp_files/15360.got.cif
#   From: 2010.05.17/outbox.cif.g08.bks.cpg/sg2_8_cif.got.tgz:15360.got - 2010.06.03 11:33:40.
