data_PCOD9036816
_publ_section_title
;
Structure prediction by ZEFSAII (Michael W. Deem and Ramdas Pophale) SiO2 
 PCOD9036816
Probable space group: P -1
;
_chemical_formula_sum "Si O2"
_cell_formula_units_Z 13
_cell_length_a 12.509555
_cell_length_b 8.293709
_cell_length_c 6.461730
_cell_angle_alpha 102.074946
_cell_angle_beta 63.625899
_cell_angle_gamma 126.982341
_cell_volume 478.213129
_symmetry_space_group_name_H-M "P -1"
_symmetry_group_IT_number 2
_symmetry_cell_setting 'triclinic'
loop_
_space_group_symop_operation_xyz
x,y,z
-x,-y,-z
loop_
_atom_site_type_symbol
_atom_site_label
_atom_site_fract_x
_atom_site_fract_y
_atom_site_fract_z
Si Si1 0.920409 0.772409 0.434779
Si Si2 0.597979 0.533500 0.727762
Si Si3 0.162294 0.454049 0.958301
Si Si4 0.000000 0.500000 0.500000
Si Si5 0.498451 0.780606 0.788883
Si Si6 0.158998 0.746639 0.718848
Si Si7 0.434778 0.081478 0.767594
O O1 0.768190 0.655377 0.656432
O O2 0.879547 0.726020 0.212710
O O3 0.005058 0.673277 0.387596
O O4 0.000000 0.000000 0.500000
O O5 0.578744 0.674942 0.631524
O O6 0.540912 0.308801 0.652026
O O7 0.500000 0.500000 0.000000
O O8 0.328970 0.588702 0.923386
O O9 0.160435 0.615859 0.863254
O O10 0.018603 0.360985 0.205463
O O11 0.178409 0.676321 0.464151
O O12 0.492283 0.937939 0.690881
O O13 0.575973 0.893352 0.968701
O O14 0.276772 0.968709 0.758386
#
# Coordination Sequence:
#
# PCOD9036816 Si02
#       7
#     2   2   2   1   2   2   2
#     4  11  26  44  65 100 137 176 221 272 328 395
#     4  10  23  39  62  97 135 164 222 274 318 393
#     4   9  20  39  65  96 132 173 220 269 325 399
#     4  10  24  44  68  98 136 170 224 278 324 388
#     4   9  19  37  63  93 126 174 207 270 332 381
#     4   9  19  39  68  97 128 172 224 270 324 392
#     4   9  19  37  65  94 123 172 218 264 326 389
#
# _framework density 27.184532000000001
#
# number of rings (size 3 to 8) (size 9 to 14) (size 15 to 20)
#    0.000    2.462    0.000    0.000    8.615    3.077 
#    0.000    8.462    0.000    0.000    0.000    0.000 
#    0.000    0.000    0.000    0.000    0.000    0.000 
#
# Total GULP energy -72468.249017 kJ/mol
# GULP energy per Si atom -5574.480694 kJ/mol
# Density = 2.712266 g / cm^3
# Si number density = 27.184532 Si / 1000 Ang^3
#
#
#
# Elastic Constant Matrix: (Units=GPa)
#
#
# Indices 1 2 3 4 5 6 
#
# 1 162.2242 75.6864 25.7921 -1.7699 -7.4134 7.9814
# 2 75.6864 245.8363 40.1890 26.1626 -7.5871 20.5570
# 3 25.7921 40.1890 89.1683 12.1579 -12.6946 5.7487
# 4 -1.7699 26.1626 12.1579 46.0764 -0.0482 -1.3652
# 5 -7.4134 -7.5871 -12.6946 -0.0482 41.5921 5.4716
# 6 7.9814 20.5570 5.7487 -1.3652 5.4716 73.3877
#
#
#
# Elastic Compliance Matrix: (Units=1/GPa)
#
#
# Indices 1 2 3 4 5 6 
#
# 1 0.007482 -0.002269 -0.001324 0.001923 0.000528 -0.000078
# 2 -0.002269 0.005390 -0.001253 -0.002854 0.000357 -0.001245
# 3 -0.001324 -0.001253 0.013122 -0.002824 0.003650 -0.000858
# 4 0.001923 -0.002854 -0.002824 0.024181 -0.001189 0.001350
# 5 0.000528 0.000357 0.003650 -0.001189 0.025628 -0.002376
# 6 -0.000078 -0.001245 -0.000858 0.001350 -0.002376 0.014253
#
#
# Mechanical properties :
#
#
# Convention : Reuss Voigt Hill
#
# Bulk Modulus (GPa) = 61.33675 86.72934 74.03305
# Shear Modulus (GPa) = 47.53693 55.91535 51.72614
#
# Velocity S-wave (km/s) = 4.18625 4.54021 4.36682
# Velocity P-wave (km/s) = 6.78074 7.71089 7.26072
#
# Compressibility (1/GPa) = 0.01630344
#
# Stress axis : x y z
#
# Youngs Moduli (GPa) = 133.64757 185.53166 76.20671
#
# Poissons Ratio (x) = 0.42099 0.10087
# Poissons Ratio (y) = 0.30326 0.09548
# Poissons Ratio (z) = 0.17689 0.23244
#
# Static dielectric constant tensor:
#      x y z
#    x 2.144930 0.069230 0.121440 
#    y 0.069230 2.494230 0.776580 
#    z 0.121440 0.776580 3.988590 
# 
# From -- ./inp_files/185205.got.cif
#   From: 2010.05.17/outbox.cif.g08.bks.cpg/sg2_93_cif.got.tgz:185205.got - 2010.06.03 11:33:40.
