data_PCOD9036521
_publ_section_title
;
Structure prediction by ZEFSAII (Michael W. Deem and Ramdas Pophale) SiO2 
 PCOD9036521
Probable space group: P -1
;
_chemical_formula_sum "Si O2"
_cell_formula_units_Z 16
_cell_length_a 5.373654
_cell_length_b 17.530516
_cell_length_c 9.090388
_cell_angle_alpha 106.853428
_cell_angle_beta 90.832175
_cell_angle_gamma 121.965882
_cell_volume 680.236296
_symmetry_space_group_name_H-M "P -1"
_symmetry_group_IT_number 2
_symmetry_cell_setting 'triclinic'
loop_
_space_group_symop_operation_xyz
x,y,z
-x,-y,-z
loop_
_atom_site_type_symbol
_atom_site_label
_atom_site_fract_x
_atom_site_fract_y
_atom_site_fract_z
Si Si1 0.803591 0.266074 0.846698
Si Si2 0.346333 0.058672 0.855698
Si Si3 0.336326 0.589288 0.070288
Si Si4 0.663377 0.411110 0.428854
Si Si5 0.187674 0.730434 0.646046
Si Si6 0.754543 0.649637 0.839113
Si Si7 0.250402 0.351589 0.662453
Si Si8 0.651078 0.942807 0.790663
O O1 0.545019 0.161394 0.837487
O O2 0.681034 0.325998 0.811223
O O3 0.033674 0.268269 0.732487
O O4 0.994280 0.328460 0.026363
O O5 0.497678 0.000432 0.792156
O O6 0.356345 0.071692 0.040243
O O7 0.996660 0.000566 0.777892
O O8 0.533163 0.567855 0.168269
O O9 0.505189 0.633080 0.943464
O O10 0.000000 0.500000 0.000000
O O11 0.683736 0.326503 0.311584
O O12 0.462817 0.431197 0.330350
O O13 0.496534 0.367512 0.556153
O O14 0.000000 0.500000 0.500000
O O15 0.446384 0.836774 0.663190
O O16 0.966272 0.732173 0.765536
O O17 0.997022 0.666304 0.469122
#
# Coordination Sequence:
#
# PCOD9036521 Si02
#       8
#     2   2   2   2   2   2   2   2
#     4  11  23  42  64  94 132 173 216 280 335 399
#     4  10  23  40  70 102 132 169 224 284 346 405
#     4  11  24  40  64  95 130 175 223 274 331 401
#     4  11  24  40  64  95 130 175 223 274 331 401
#     4  11  23  42  64  94 132 173 216 280 335 399
#     4  10  23  37  67  92 128 163 229 270 340 389
#     4  10  25  41  63  88 138 173 221 262 344 393
#     4  10  23  40  70 102 132 169 224 284 346 405
#
# _framework density 23.521238
#
# number of rings (size 3 to 8) (size 9 to 14) (size 15 to 20)
#    0.000    1.500    1.250    2.250    7.000    6.000 
#    0.000    1.250    0.000    0.000    0.000    0.000 
#    0.000    0.000    0.000    0.000    0.000    0.000 
#
# Total GULP energy -89089.153582 kJ/mol
# GULP energy per Si atom -5568.072099 kJ/mol
# Density = 2.346770 g / cm^3
# Si number density = 23.521238 Si / 1000 Ang^3
#
#
#
# Elastic Constant Matrix: (Units=GPa)
#
#
# Indices 1 2 3 4 5 6 
#
# 1 133.5937 97.6392 49.6949 -4.2312 5.7165 43.7843
# 2 97.6392 161.4344 33.4463 -2.6388 -1.5152 23.4338
# 3 49.6949 33.4463 115.6995 -23.6408 14.8274 11.9629
# 4 -4.2312 -2.6388 -23.6408 35.4390 5.8402 -5.1054
# 5 5.7165 -1.5152 14.8274 5.8402 37.8444 -7.7802
# 6 43.7843 23.4338 11.9629 -5.1054 -7.7802 43.6918
#
#
#
# Elastic Compliance Matrix: (Units=1/GPa)
#
#
# Indices 1 2 3 4 5 6 
#
# 1 0.022378 -0.010165 -0.004921 -0.002993 -0.004860 -0.016841
# 2 -0.010165 0.011703 0.000148 -0.000085 0.002857 0.004368
# 3 -0.004921 0.000148 0.013202 0.009344 -0.005591 0.001333
# 4 -0.002993 -0.000085 0.009344 0.035886 -0.008084 0.003240
# 5 -0.004860 0.002857 -0.005591 -0.008084 0.032715 0.009749
# 6 -0.016841 0.004368 0.001333 0.003240 0.009749 0.039171
#
#
# Mechanical properties :
#
#
# Convention : Reuss Voigt Hill
#
# Bulk Modulus (GPa) = 57.44878 85.80981 71.62929
# Shear Modulus (GPa) = 26.21476 38.72485 32.46981
#
# Velocity S-wave (km/s) = 3.34206 4.06196 3.71947
# Velocity P-wave (km/s) = 6.27453 7.65248 6.99750
#
# Compressibility (1/GPa) = 0.01740681
#
# Stress axis : x y z
#
# Youngs Moduli (GPa) = 44.68753 85.44640 75.74783
#
# Poissons Ratio (x) = 0.86856 0.37272
# Poissons Ratio (y) = 0.45425 -0.01118
# Poissons Ratio (z) = 0.21989 -0.01261
#
# Static dielectric constant tensor:
#      x y z
#    x 1.925670 -0.010450 0.016670 
#    y -0.010450 1.851750 0.008380 
#    z 0.016670 0.008380 1.932370 
# 
# From -- ./inp_files/139158.got.cif
#   From: 2010.05.17/outbox.cif.g08.bks.cpg/sg2_70_cif.got.tgz:139158.got - 2010.06.03 11:33:40.
