data_PCOD9036518
_publ_section_title
;
Structure prediction by ZEFSAII (Michael W. Deem and Ramdas Pophale) SiO2 
 PCOD9036518
Probable space group: P -1
;
_chemical_formula_sum "Si O2"
_cell_formula_units_Z 14
_cell_length_a 15.081360
_cell_length_b 8.956231
_cell_length_c 8.404116
_cell_angle_alpha 121.499837
_cell_angle_beta 71.281576
_cell_angle_gamma 145.007314
_cell_volume 541.571121
_symmetry_space_group_name_H-M "P -1"
_symmetry_group_IT_number 2
_symmetry_cell_setting 'triclinic'
loop_
_space_group_symop_operation_xyz
x,y,z
-x,-y,-z
loop_
_atom_site_type_symbol
_atom_site_label
_atom_site_fract_x
_atom_site_fract_y
_atom_site_fract_z
Si Si1 0.977425 0.250417 0.566697
Si Si2 0.854192 0.132238 0.125526
Si Si3 0.649281 0.782481 0.350501
Si Si4 0.627187 0.375648 0.587099
Si Si5 0.568934 0.118312 0.791961
Si Si6 0.398825 0.118910 0.119992
Si Si7 0.952242 0.014364 0.764993
O O1 0.063850 0.569399 0.681962
O O2 0.002583 0.123668 0.358532
O O3 0.791563 0.009018 0.518587
O O4 0.022987 0.233095 0.700497
O O5 0.734025 0.874213 0.182988
O O6 0.747768 0.039529 0.987984
O O7 0.964566 0.145645 0.993180
O O8 0.544611 0.796665 0.389781
O O9 0.516630 0.446019 0.294659
O O10 0.662727 0.327942 0.702633
O O11 0.764766 0.718361 0.672917
O O12 0.598817 0.207713 0.361439
O O13 0.648691 0.088137 0.831702
O O14 0.520027 0.198922 0.979509
#
# Coordination Sequence:
#
# PCOD9036518 Si02
#       7
#     2   2   2   2   2   2   2
#     4  11  28  48  69 104 150 190 237 294 361 432
#     4  12  24  47  74 104 145 191 236 299 356 431
#     4  12  25  45  73 107 143 184 238 300 357 423
#     4  11  22  44  71 109 138 183 237 302 350 423
#     4  10  23  37  67 108 141 175 232 300 356 410
#     4  11  22  43  69 107 138 182 238 299 346 424
#     4  11  25  47  74  99 146 193 238 291 361 426
#
# _framework density 25.850715999999998
#
# number of rings (size 3 to 8) (size 9 to 14) (size 15 to 20)
#    0.000    0.857    2.857    3.857    4.000    5.143 
#    2.571    0.000    0.000    0.000    0.000    0.000 
#    0.000    0.000    0.000    0.000    0.000    0.000 
#
# Total GULP energy -78335.902932 kJ/mol
# GULP energy per Si atom -5595.421638 kJ/mol
# Density = 2.579188 g / cm^3
# Si number density = 25.850716 Si / 1000 Ang^3
#
#
#
# Elastic Constant Matrix: (Units=GPa)
#
#
# Indices 1 2 3 4 5 6 
#
# 1 99.2385 29.1862 53.3409 6.8913 -20.2075 10.4876
# 2 29.1862 68.0615 31.5918 12.1398 -10.3657 -2.8027
# 3 53.3409 31.5918 108.1703 2.0630 -22.5901 -4.3053
# 4 6.8913 12.1398 2.0630 42.0226 0.7076 1.1193
# 5 -20.2075 -10.3657 -22.5901 0.7076 55.1911 0.2327
# 6 10.4876 -2.8027 -4.3053 1.1193 0.2327 28.9691
#
#
#
# Elastic Compliance Matrix: (Units=1/GPa)
#
#
# Indices 1 2 3 4 5 6 
#
# 1 0.015997 -0.003499 -0.006595 -0.001143 0.002545 -0.007087
# 2 -0.003499 0.018880 -0.003393 -0.004803 0.000926 0.002767
# 3 -0.006595 -0.003393 0.014198 0.001210 0.002726 0.004101
# 4 -0.001143 -0.004803 0.001210 0.025354 -0.001147 -0.000842
# 5 0.002545 0.000926 0.002726 -0.001147 0.020357 -0.000546
# 6 -0.007087 0.002767 0.004101 -0.000842 -0.000546 0.037999
#
#
# Mechanical properties :
#
#
# Convention : Reuss Voigt Hill
#
# Bulk Modulus (GPa) = 45.25113 55.96757 50.60935
# Shear Modulus (GPa) = 29.91727 35.99332 32.95529
#
# Velocity S-wave (km/s) = 3.40562 3.73547 3.57435
# Velocity P-wave (km/s) = 5.74518 6.34841 6.05431
#
# Compressibility (1/GPa) = 0.02209889
#
# Stress axis : x y z
#
# Youngs Moduli (GPa) = 62.51025 52.96666 70.43439
#
# Poissons Ratio (x) = 0.18533 0.46455
# Poissons Ratio (y) = 0.21872 0.23902
# Poissons Ratio (z) = 0.41228 0.17974
#
# Static dielectric constant tensor:
#      x y z
#    x 2.054900 -0.011140 -0.071740 
#    y -0.011140 1.949710 -0.025370 
#    z -0.071740 -0.025370 2.054240 
# 
# From -- ./inp_files/245719.got.cif
#   From: 2010.05.17/outbox.cif.g08.bks.cpg/sg2_123_cif.got.tgz:245719.got - 2010.06.03 11:33:40.
