data_PCOD9036954
_publ_section_title
;
Structure prediction by ZEFSAII (Michael W. Deem and Ramdas Pophale) SiO2 
 PCOD9036954
Probable space group: P -1
;
_chemical_formula_sum "Si O2"
_cell_formula_units_Z 16
_cell_length_a 14.420335
_cell_length_b 5.185007
_cell_length_c 9.102475
_cell_angle_alpha 74.133818
_cell_angle_beta 86.381896
_cell_angle_gamma 109.472332
_cell_volume 608.222080
_symmetry_space_group_name_H-M "P -1"
_symmetry_group_IT_number 2
_symmetry_cell_setting 'triclinic'
loop_
_space_group_symop_operation_xyz
x,y,z
-x,-y,-z
loop_
_atom_site_type_symbol
_atom_site_label
_atom_site_fract_x
_atom_site_fract_y
_atom_site_fract_z
Si Si1 0.432418 0.667994 0.037761
Si Si2 0.252383 0.218487 0.610085
Si Si3 0.883534 0.511082 0.918610
Si Si4 0.046236 0.826665 0.235364
Si Si5 0.611219 0.006175 0.504810
Si Si6 0.269781 0.532969 0.822021
Si Si7 0.285502 0.647650 0.294926
Si Si8 0.926196 0.192255 0.468063
O O1 0.371574 0.575693 0.209304
O O2 0.500000 0.500000 0.000000
O O3 0.351756 0.617664 0.925633
O O4 0.500000 0.000000 0.000000
O O5 0.251330 0.238381 0.782564
O O6 0.230309 0.434724 0.464348
O O7 0.361763 0.244270 0.537867
O O8 0.158706 0.939859 0.621184
O O9 0.938828 0.296245 0.903828
O O10 0.795364 0.398221 0.819892
O O11 0.950065 0.848926 0.832893
O O12 0.830171 0.485636 0.083220
O O13 0.125658 0.872852 0.355159
O O14 0.968867 0.533499 0.366283
O O15 0.681333 0.260198 0.351430
O O16 0.651490 0.069397 0.658064
O O17 0.500000 0.000000 0.500000
O O18 0.000000 0.000000 0.500000
#
# Coordination Sequence:
#
# PCOD9036954 Si02
#       8
#     2   2   2   2   2   2   2   2
#     4  11  26  43  70  96 134 181 243 294 348 414
#     4  11  24  44  69 103 142 188 231 303 361 422
#     4  11  23  44  68 106 138 190 229 298 351 432
#     4  11  22  39  74 100 143 174 240 284 356 418
#     4  11  25  43  69  98 146 188 243 290 361 428
#     4  10  27  42  68 101 146 187 236 297 362 427
#     4  10  23  39  66  96 130 181 238 285 351 411
#     4  11  22  43  74 111 140 181 245 298 356 422
#
# _framework density 26.306182
#
# number of rings (size 3 to 8) (size 9 to 14) (size 15 to 20)
#    0.000    1.250    2.500    1.500    8.750    6.000 
#    0.000    1.250    0.000    0.000    0.000    0.000 
#    0.000    0.000    0.000    0.000    0.000    0.000 
#
# Total GULP energy -89194.071960 kJ/mol
# GULP energy per Si atom -5574.629497 kJ/mol
# Density = 2.624631 g / cm^3
# Si number density = 26.306182 Si / 1000 Ang^3
#
#
#
# Elastic Constant Matrix: (Units=GPa)
#
#
# Indices 1 2 3 4 5 6 
#
# 1 127.2809 41.3669 46.2904 13.4040 -11.7308 1.5281
# 2 41.3669 130.3378 54.8151 30.6863 1.5417 2.5533
# 3 46.2904 54.8151 181.1852 30.7353 -16.1513 -0.5239
# 4 13.4040 30.6863 30.7353 49.3761 -4.2800 -9.3435
# 5 -11.7308 1.5417 -16.1513 -4.2800 41.2190 10.3772
# 6 1.5281 2.5533 -0.5239 -9.3435 10.3772 31.7746
#
#
#
# Elastic Compliance Matrix: (Units=1/GPa)
#
#
# Indices 1 2 3 4 5 6 
#
# 1 0.009404 -0.002335 -0.001444 -0.000207 0.002467 -0.001155
# 2 -0.002335 0.010477 -0.001867 -0.005196 -0.001908 -0.001665
# 3 -0.001444 -0.001867 0.007173 -0.002951 0.002502 -0.001347
# 4 -0.000207 -0.005196 -0.002951 0.026937 -0.000341 0.008411
# 5 0.002467 -0.001908 0.002502 -0.000341 0.028313 -0.009271
# 6 -0.001155 -0.001665 -0.001347 0.008411 -0.009271 0.037140
#
#
# Mechanical properties :
#
#
# Convention : Reuss Voigt Hill
#
# Bulk Modulus (GPa) = 63.44534 80.41654 71.93094
# Shear Modulus (GPa) = 36.76757 44.22937 40.49847
#
# Velocity S-wave (km/s) = 3.74261 4.10485 3.92791
# Velocity P-wave (km/s) = 6.54573 7.28713 6.92635
#
# Compressibility (1/GPa) = 0.01576160
#
# Stress axis : x y z
#
# Youngs Moduli (GPa) = 106.33909 95.44760 139.41873
#
# Poissons Ratio (x) = 0.22286 0.20138
# Poissons Ratio (y) = 0.24829 0.26024
# Poissons Ratio (z) = 0.15360 0.17817
#
# Static dielectric constant tensor:
#      x y z
#    x 2.378820 -0.258280 -0.058680 
#    y -0.258280 2.767900 0.092830 
#    z -0.058680 0.092830 2.046170 
# 
# From -- ./inp_files/322623.got.cif
#   From: 2010.05.17/outbox.cif.g08.bks.cpg/sg2_162_cif.got.tgz:322623.got - 2010.06.03 11:33:40.
