data_PCOD9036631
_publ_section_title
;
Structure prediction by ZEFSAII (Michael W. Deem and Ramdas Pophale) SiO2 
 PCOD9036631
Probable space group: P -1
;
_chemical_formula_sum "Si O2"
_cell_formula_units_Z 16
_cell_length_a 17.309540
_cell_length_b 5.922126
_cell_length_c 7.815500
_cell_angle_alpha 65.873867
_cell_angle_beta 61.362213
_cell_angle_gamma 83.509277
_cell_volume 638.288290
_symmetry_space_group_name_H-M "P -1"
_symmetry_group_IT_number 2
_symmetry_cell_setting 'triclinic'
loop_
_space_group_symop_operation_xyz
x,y,z
-x,-y,-z
loop_
_atom_site_type_symbol
_atom_site_label
_atom_site_fract_x
_atom_site_fract_y
_atom_site_fract_z
Si Si1 0.270894 0.589674 0.724867
Si Si2 0.017301 0.624766 0.755598
Si Si3 0.985054 0.876342 0.240243
Si Si4 0.348660 0.190792 0.923729
Si Si5 0.852689 0.391347 0.835241
Si Si6 0.727901 0.338845 0.676203
Si Si7 0.405330 0.351176 0.159655
Si Si8 0.462029 0.871044 0.408699
O O1 0.279107 0.295413 0.835885
O O2 0.210673 0.679108 0.912943
O O3 0.237256 0.674302 0.550260
O O4 0.374480 0.692297 0.598904
O O5 0.051531 0.912360 0.667759
O O6 0.058394 0.405041 0.671828
O O7 0.000000 0.500000 0.000000
O O8 0.922604 0.615290 0.760930
O O9 0.082675 0.818257 0.216033
O O10 0.000000 0.000000 0.000000
O O11 0.450078 0.213428 0.744092
O O12 0.354043 0.360169 0.034357
O O13 0.316517 0.916250 0.111812
O O14 0.795577 0.440948 0.717453
O O15 0.651846 0.524382 0.678590
O O16 0.423621 0.073939 0.266562
O O17 0.500000 0.500000 0.000000
O O18 0.500000 0.000000 0.500000
#
# Coordination Sequence:
#
# PCOD9036631 Si02
#       8
#     2   2   2   2   2   2   2   2
#     4  12  25  42  62  97 128 170 220 275 351 396
#     4   8  16  34  62  97 125 172 220 260 333 409
#     4   8  16  33  64  97 124 173 220 259 334 407
#     4  12  24  44  63  83 129 168 225 283 327 398
#     4  10  23  38  64  94 135 167 216 278 334 407
#     4  12  25  43  63  93 130 174 220 276 345 397
#     4  12  22  41  63  85 120 168 226 276 328 385
#     4  12  23  41  63  87 121 172 228 282 333 402
#
# _framework density 25.067043999999999
#
# number of rings (size 3 to 8) (size 9 to 14) (size 15 to 20)
#    0.750    0.500    3.750    3.750    1.750    0.000 
#    0.000    0.000    0.000    1.500    0.000    0.000 
#    0.000    0.000    0.000    0.000    0.000    0.000 
#
# Total GULP energy -89346.994711 kJ/mol
# GULP energy per Si atom -5584.187169 kJ/mol
# Density = 2.500999 g / cm^3
# Si number density = 25.067044 Si / 1000 Ang^3
#
#
#
# Elastic Constant Matrix: (Units=GPa)
#
#
# Indices 1 2 3 4 5 6 
#
# 1 80.0822 35.6396 29.5803 8.1264 6.3936 -0.7325
# 2 35.6396 146.5251 26.1753 3.3400 -13.4096 -2.0001
# 3 29.5803 26.1753 74.8134 11.4955 -5.4634 0.7744
# 4 8.1264 3.3400 11.4955 37.5069 -2.2957 14.6890
# 5 6.3936 -13.4096 -5.4634 -2.2957 40.5439 7.8775
# 6 -0.7325 -2.0001 0.7744 14.6890 7.8775 45.5079
#
#
#
# Elastic Compliance Matrix: (Units=1/GPa)
#
#
# Indices 1 2 3 4 5 6 
#
# 1 0.016715 -0.003481 -0.005358 -0.002749 -0.005047 0.001968
# 2 -0.003481 0.008186 -0.001377 0.000840 0.003216 -0.000501
# 3 -0.005358 -0.001377 0.016727 -0.003860 0.002346 0.000408
# 4 -0.002749 0.000840 -0.003860 0.033075 0.004271 -0.011357
# 5 -0.005047 0.003216 0.002346 0.004271 0.028298 -0.006257
# 6 0.001968 -0.000501 0.000408 -0.011357 -0.006257 0.026726
#
#
# Mechanical properties :
#
#
# Convention : Reuss Voigt Hill
#
# Bulk Modulus (GPa) = 47.17638 53.80125 50.48881
# Shear Modulus (GPa) = 31.80219 38.71345 35.25782
#
# Velocity S-wave (km/s) = 3.56573 3.93414 3.75446
# Velocity P-wave (km/s) = 5.98444 6.49201 6.24338
#
# Compressibility (1/GPa) = 0.02119705
#
# Stress axis : x y z
#
# Youngs Moduli (GPa) = 59.82558 122.16447 59.78464
#
# Poissons Ratio (x) = 0.42525 0.32030
# Poissons Ratio (y) = 0.20825 0.08231
# Poissons Ratio (z) = 0.32052 0.16818
#
# Static dielectric constant tensor:
#      x y z
#    x 51.487300 -60.583200 2.413020 
#    y -60.583200 76.629700 -2.956260 
#    z 2.413020 -2.956260 2.277380 
# 
# From -- ./inp_files/339233.got.cif
#   From: 2010.05.17/outbox.cif.g08.bks.cpg/sg2_170_cif.got.tgz:339233.got - 2010.06.03 11:33:40.
