data_PCOD9036067
_publ_section_title
;
Structure prediction by ZEFSAII (Michael W. Deem and Ramdas Pophale) SiO2 
 PCOD9036067
Probable space group: P -1
;
_chemical_formula_sum "Si O2"
_cell_formula_units_Z 12
_cell_length_a 7.389851
_cell_length_b 7.805403
_cell_length_c 15.676226
_cell_angle_alpha 46.952142
_cell_angle_beta 53.193832
_cell_angle_gamma 78.161291
_cell_volume 495.939763
_symmetry_space_group_name_H-M "P -1"
_symmetry_group_IT_number 2
_symmetry_cell_setting 'triclinic'
loop_
_space_group_symop_operation_xyz
x,y,z
-x,-y,-z
loop_
_atom_site_type_symbol
_atom_site_label
_atom_site_fract_x
_atom_site_fract_y
_atom_site_fract_z
Si Si1 0.711993 0.760630 0.827514
Si Si2 0.996774 0.591707 0.668732
Si Si3 0.866212 0.238252 0.168938
Si Si4 0.511197 0.776211 0.424299
Si Si5 0.396500 0.836726 0.170426
Si Si6 0.619983 0.436107 0.301782
O O1 0.818727 0.714698 0.721526
O O2 0.938657 0.804867 0.810804
O O3 0.625076 0.984442 0.807613
O O4 0.500000 0.500000 0.000000
O O5 0.852675 0.373406 0.719379
O O6 0.123955 0.490611 0.744733
O O7 0.759835 0.222997 0.507154
O O8 0.648188 0.284725 0.263657
O O9 0.725549 0.985018 0.245599
O O10 0.000000 0.500000 0.000000
O O11 0.500000 0.500000 0.500000
O O12 0.563705 0.764082 0.515192
O O13 0.552842 0.671938 0.213962
O O14 0.500000 0.000000 0.000000
#
# Coordination Sequence:
#
# PCOD9036067 Si02
#       6
#     2   2   2   2   2   2
#     4  11  23  41  64 102 147 179 234 302 351 423
#     4   9  23  45  67 100 142 187 241 290 356 433
#     4  11  23  44  74  99 139 190 240 298 362 423
#     4  10  22  47  72 101 143 191 243 294 361 433
#     4  12  22  42  69 104 151 184 240 300 356 428
#     4   9  24  43  69 100 139 188 237 287 365 419
#
# _framework density 24.196487999999999
#
# number of rings (size 3 to 8) (size 9 to 14) (size 15 to 20)
#    1.000    0.667    1.667    2.500    0.000    2.000 
#    0.000    5.833    0.000    0.000    0.000    0.000 
#    0.000    0.000    0.000    0.000    0.000    0.000 
#
# Total GULP energy -66940.387748 kJ/mol
# GULP energy per Si atom -5578.365646 kJ/mol
# Density = 2.414142 g / cm^3
# Si number density = 24.196488 Si / 1000 Ang^3
#
#
#
# Elastic Constant Matrix: (Units=GPa)
#
#
# Indices 1 2 3 4 5 6 
#
# 1 112.0222 24.8753 38.9428 -21.4723 -15.8412 -11.7227
# 2 24.8753 111.1409 38.2668 -27.9471 -1.4116 -19.9325
# 3 38.9428 38.2668 139.7608 -14.2800 -23.2706 -2.8708
# 4 -21.4723 -27.9471 -14.2800 42.4670 -4.4789 2.4481
# 5 -15.8412 -1.4116 -23.2706 -4.4789 46.6330 -12.0046
# 6 -11.7227 -19.9325 -2.8708 2.4481 -12.0046 33.8553
#
#
#
# Elastic Compliance Matrix: (Units=1/GPa)
#
#
# Indices 1 2 3 4 5 6 
#
# 1 0.011935 0.000578 -0.001892 0.005995 0.005174 0.005714
# 2 0.000578 0.013140 -0.002425 0.007897 0.002185 0.007934
# 3 -0.001892 -0.002425 0.009091 0.000916 0.003911 0.000008
# 4 0.005995 0.007897 0.000916 0.032482 0.007702 0.007185
# 5 0.005174 0.002185 0.003911 0.007702 0.029375 0.013269
# 6 0.005714 0.007934 0.000008 0.007185 0.013269 0.040373
#
#
# Mechanical properties :
#
#
# Convention : Reuss Voigt Hill
#
# Bulk Modulus (GPa) = 37.47097 63.01039 50.24068
# Shear Modulus (GPa) = 32.72884 41.98032 37.35458
#
# Velocity S-wave (km/s) = 3.68180 4.16982 3.93339
# Velocity P-wave (km/s) = 5.79603 7.02004 6.43719
#
# Compressibility (1/GPa) = 0.02668733
#
# Stress axis : x y z
#
# Youngs Moduli (GPa) = 83.78703 76.10556 109.99528
#
# Poissons Ratio (x) = -0.04401 0.20816
# Poissons Ratio (y) = -0.04845 0.26675
# Poissons Ratio (z) = 0.15856 0.18457
#
# Static dielectric constant tensor:
#      x y z
#    x 2.000270 0.104930 -0.049400 
#    y 0.104930 2.094870 -0.081790 
#    z -0.049400 -0.081790 2.075470 
# 
# From -- ./inp_files/586430.got.cif
#   From: 2010.05.17/outbox.cif.g08.bks.cpg/sg2_294_cif.got.tgz:586430.got - 2010.06.03 11:33:40.
