data_PCOD9036135
_publ_section_title
;
Structure prediction by ZEFSAII (Michael W. Deem and Ramdas Pophale) SiO2 
 PCOD9036135
Probable space group: P -1
;
_chemical_formula_sum "Si O2"
_cell_formula_units_Z 16
_cell_length_a 7.861243
_cell_length_b 14.066031
_cell_length_c 13.689265
_cell_angle_alpha 148.714228
_cell_angle_beta 115.086715
_cell_angle_gamma 61.274118
_cell_volume 689.044721
_symmetry_space_group_name_H-M "P -1"
_symmetry_group_IT_number 2
_symmetry_cell_setting 'triclinic'
loop_
_space_group_symop_operation_xyz
x,y,z
-x,-y,-z
loop_
_atom_site_type_symbol
_atom_site_label
_atom_site_fract_x
_atom_site_fract_y
_atom_site_fract_z
Si Si1 0.889948 0.791106 0.721405
Si Si2 0.170484 0.939105 0.776447
Si Si3 0.192387 0.881525 0.501071
Si Si4 0.238607 0.523850 0.675228
Si Si5 0.398073 0.858733 0.940628
Si Si6 0.467218 0.132464 0.814409
Si Si7 0.180238 0.732179 0.033384
Si Si8 0.790603 0.459101 0.921612
O O1 0.738976 0.686104 0.543199
O O2 0.021075 0.641844 0.696650
O O3 0.785853 0.978766 0.919902
O O4 0.039410 0.827247 0.708180
O O5 0.170867 0.883451 0.614566
O O6 0.042321 0.155846 0.938984
O O7 0.372022 0.893909 0.848463
O O8 0.242444 0.669261 0.288450
O O9 0.363929 0.983872 0.613075
O O10 0.000000 0.000000 0.500000
O O11 0.247510 0.557119 0.821864
O O12 0.371336 0.647150 0.766457
O O13 0.551187 0.871173 0.074594
O O14 0.688457 0.121636 0.830466
O O15 0.358608 0.339993 0.935008
O O16 0.212954 0.661287 0.088232
O O17 0.000000 0.500000 0.000000
#
# Coordination Sequence:
#
# PCOD9036135 Si02
#       8
#     2   2   2   2   2   2   2   2
#     4  10  17  32  60  95 132 161 205 262 313 389
#     4  11  20  41  68  98 129 176 207 262 332 392
#     4  12  26  46  65  92 131 178 227 262 330 394
#     4   9  18  30  56  98 125 162 206 252 321 376
#     4  10  20  40  65  96 139 158 211 271 326 388
#     4  11  25  44  66  99 129 169 220 280 321 383
#     4  11  21  41  70  98 130 169 219 272 325 377
#     4  12  26  47  67  90 134 178 221 269 321 393
#
# _framework density 23.220555000000001
#
# number of rings (size 3 to 8) (size 9 to 14) (size 15 to 20)
#    0.000    1.250    6.250    1.125    1.750    3.000 
#    0.000    0.625    0.000    0.000    0.000    0.000 
#    0.000    0.000    0.000    0.000    0.000    0.000 
#
# Total GULP energy -89381.743953 kJ/mol
# GULP energy per Si atom -5586.358997 kJ/mol
# Density = 2.316770 g / cm^3
# Si number density = 23.220555 Si / 1000 Ang^3
#
#
#
# Elastic Constant Matrix: (Units=GPa)
#
#
# Indices 1 2 3 4 5 6 
#
# 1 49.9048 19.0541 21.6682 -11.5047 7.7930 7.2772
# 2 19.0541 105.9332 13.9775 -22.7012 -2.8933 17.4444
# 3 21.6682 13.9775 133.3782 -16.3362 22.3637 13.4025
# 4 -11.5047 -22.7012 -16.3362 39.4249 -2.2395 -6.3592
# 5 7.7930 -2.8933 22.3637 -2.2395 30.0683 -13.8197
# 6 7.2772 17.4444 13.4025 -6.3592 -13.8197 45.8186
#
#
#
# Elastic Compliance Matrix: (Units=1/GPa)
#
#
# Indices 1 2 3 4 5 6 
#
# 1 0.024359 -0.002920 -0.001666 0.003734 -0.006829 -0.003811
# 2 -0.002920 0.011636 0.000077 0.005449 0.000858 -0.002974
# 3 -0.001666 0.000077 0.010138 0.002390 -0.009318 -0.005209
# 4 0.003734 0.005449 0.002390 0.030788 0.000567 0.001078
# 5 -0.006829 0.000858 -0.009318 0.000567 0.050756 0.018871
# 6 -0.003811 -0.002974 -0.005209 0.001078 0.018871 0.030928
#
#
# Mechanical properties :
#
#
# Convention : Reuss Voigt Hill
#
# Bulk Modulus (GPa) = 26.94284 44.29064 35.61674
# Shear Modulus (GPa) = 27.77849 38.69678 33.23763
#
# Velocity S-wave (km/s) = 3.46249 4.08669 3.78747
# Velocity P-wave (km/s) = 5.25484 6.43299 5.87353
#
# Compressibility (1/GPa) = 0.03711561
#
# Stress axis : x y z
#
# Youngs Moduli (GPa) = 41.05183 85.94143 98.63425
#
# Poissons Ratio (x) = 0.25099 0.16433
# Poissons Ratio (y) = 0.11989 -0.00763
# Poissons Ratio (z) = 0.06839 -0.00665
#
# Static dielectric constant tensor:
#      x y z
#    x 1.981730 -0.054700 0.041980 
#    y -0.054700 1.942470 -0.003320 
#    z 0.041980 -0.003320 1.873730 
# 
# From -- ./inp_files/505944.got.cif
#   From: 2010.05.17/outbox.cif.g08.bks.cpg/sg2_253_cif.got.tgz:505944.got - 2010.06.03 11:33:40.
