data_PCOD9036846
_publ_section_title
;
Structure prediction by ZEFSAII (Michael W. Deem and Ramdas Pophale) SiO2 
 PCOD9036846
Probable space group: P -1
;
_chemical_formula_sum "Si O2"
_cell_formula_units_Z 16
_cell_length_a 9.228791
_cell_length_b 15.914420
_cell_length_c 9.310890
_cell_angle_alpha 115.494115
_cell_angle_beta 97.795069
_cell_angle_gamma 129.922435
_cell_volume 760.866963
_symmetry_space_group_name_H-M "P -1"
_symmetry_group_IT_number 2
_symmetry_cell_setting 'triclinic'
loop_
_space_group_symop_operation_xyz
x,y,z
-x,-y,-z
loop_
_atom_site_type_symbol
_atom_site_label
_atom_site_fract_x
_atom_site_fract_y
_atom_site_fract_z
Si Si1 0.469721 0.596831 0.156420
Si Si2 0.816671 0.710630 0.060422
Si Si3 0.393324 0.191130 0.445996
Si Si4 0.641828 0.046890 0.697175
Si Si5 0.108467 0.054204 0.896168
Si Si6 0.207777 0.656618 0.561275
Si Si7 0.896839 0.486820 0.126555
Si Si8 0.581260 0.173132 0.011737
O O1 0.712588 0.689287 0.184445
O O2 0.495420 0.703704 0.325848
O O3 0.356944 0.458879 0.134796
O O4 0.287837 0.525934 0.951057
O O5 0.819024 0.804768 0.034296
O O6 0.078551 0.801892 0.173774
O O7 0.566254 0.295650 0.411338
O O8 0.391234 0.078705 0.369428
O O9 0.123416 0.088316 0.330132
O O10 0.500000 0.000000 0.500000
O O11 0.569151 0.075532 0.841390
O O12 0.326705 0.094382 0.935669
O O13 0.000000 0.000000 0.000000
O O14 0.304248 0.779826 0.779385
O O15 0.000000 0.500000 0.500000
O O16 0.090734 0.620542 0.364252
O O17 0.750409 0.330475 0.066322
O O18 0.000000 0.500000 0.000000
#
# Coordination Sequence:
#
# PCOD9036846 Si02
#       8
#     2   2   2   2   2   2   2   2
#     4  11  22  42  71  98 137 174 225 294 346 399
#     4  10  25  43  67  99 137 173 230 286 343 408
#     4  11  24  42  69  99 133 180 231 275 346 400
#     4  11  26  41  66 104 135 176 230 281 340 408
#     4  11  23  45  69  93 138 189 225 270 338 423
#     4  10  23  39  64 103 132 177 222 280 342 408
#     4  11  20  37  72 100 130 175 224 284 345 400
#     4  11  23  44  68  96 142 183 223 283 344 403
#
# _framework density 21.028642999999999
#
# number of rings (size 3 to 8) (size 9 to 14) (size 15 to 20)
#    0.000    1.250    3.750    1.500    5.250    1.500 
#    0.000    0.625    0.000    0.000    0.000    0.000 
#    0.000    0.000    0.000    0.000    0.000    0.000 
#
# Total GULP energy -89315.849409 kJ/mol
# GULP energy per Si atom -5582.240588 kJ/mol
# Density = 2.098078 g / cm^3
# Si number density = 21.028643 Si / 1000 Ang^3
#
#
#
# Elastic Constant Matrix: (Units=GPa)
#
#
# Indices 1 2 3 4 5 6 
#
# 1 133.5247 42.5031 76.1600 2.8513 -7.7678 26.1805
# 2 42.5031 114.1625 37.5998 10.4341 0.7151 19.2437
# 3 76.1600 37.5998 158.9464 -7.8518 -11.6371 8.8949
# 4 2.8513 10.4341 -7.8518 25.4944 3.7806 -2.1516
# 5 -7.7678 0.7151 -11.6371 3.7806 29.7983 6.2456
# 6 26.1805 19.2437 8.8949 -2.1516 6.2456 29.5739
#
#
#
# Elastic Compliance Matrix: (Units=1/GPa)
#
#
# Indices 1 2 3 4 5 6 
#
# 1 0.013368 -0.000998 -0.005476 -0.004296 0.004164 -0.010730
# 2 -0.000998 0.011457 -0.002102 -0.005888 0.000759 -0.006528
# 3 -0.005476 -0.002102 0.009519 0.004543 0.001038 0.003464
# 4 -0.004296 -0.005888 0.004543 0.045538 -0.007314 0.011126
# 5 0.004164 0.000759 0.001038 -0.007314 0.038727 -0.013203
# 6 -0.010730 -0.006528 0.003464 0.011126 -0.013203 0.050116
#
#
# Mechanical properties :
#
#
# Convention : Reuss Voigt Hill
#
# Bulk Modulus (GPa) = 58.16699 79.90661 69.03680
# Shear Modulus (GPa) = 26.09483 33.66469 29.87976
#
# Velocity S-wave (km/s) = 3.52649 4.00546 3.77358
# Velocity P-wave (km/s) = 6.65600 7.71188 7.20331
#
# Compressibility (1/GPa) = 0.01719188
#
# Stress axis : x y z
#
# Youngs Moduli (GPa) = 74.80328 87.28153 105.05061
#
# Poissons Ratio (x) = 0.08713 0.57529
# Poissons Ratio (y) = 0.07467 0.22081
# Poissons Ratio (z) = 0.40965 0.18346
#
# Static dielectric constant tensor:
#      x y z
#    x 1.767800 0.013130 0.042340 
#    y 0.013130 1.808980 0.000720 
#    z 0.042340 0.000720 1.828680 
# 
# From -- ./inp_files/208431.got.cif
#   From: 2010.05.17/outbox.cif.g08.bks.cpg/sg2_105_cif.got.tgz:208431.got - 2010.06.03 11:33:40.
