data_PCOD9036753
_publ_section_title
;
Structure prediction by ZEFSAII (Michael W. Deem and Ramdas Pophale) SiO2 
 PCOD9036753
Probable space group: P -1
;
_chemical_formula_sum "Si O2"
_cell_formula_units_Z 14
_cell_length_a 8.371773
_cell_length_b 8.940226
_cell_length_c 12.807733
_cell_angle_alpha 43.245523
_cell_angle_beta 84.153964
_cell_angle_gamma 95.556821
_cell_volume 632.443042
_symmetry_space_group_name_H-M "P -1"
_symmetry_group_IT_number 2
_symmetry_cell_setting 'triclinic'
loop_
_space_group_symop_operation_xyz
x,y,z
-x,-y,-z
loop_
_atom_site_type_symbol
_atom_site_label
_atom_site_fract_x
_atom_site_fract_y
_atom_site_fract_z
Si Si1 0.298438 0.829237 0.381015
Si Si2 0.660249 0.021824 0.053919
Si Si3 0.920297 0.209714 0.380603
Si Si4 0.082980 0.960443 0.154420
Si Si5 0.279083 0.318158 0.615591
Si Si6 0.922443 0.373159 0.963329
Si Si7 0.390667 0.006803 0.608579
O O1 0.178639 0.770849 0.518274
O O2 0.211712 0.945331 0.242779
O O3 0.323680 0.586301 0.471114
O O4 0.469677 0.002834 0.311971
O O5 0.819131 0.061582 0.946096
O O6 0.733322 0.220842 0.034122
O O7 0.500000 0.000000 0.000000
O O8 0.640768 0.791473 0.238010
O O9 0.782875 0.162620 0.321346
O O10 0.050562 0.435566 0.224353
O O11 0.000000 0.000000 0.500000
O O12 0.915947 0.775856 0.293987
O O13 0.034396 0.195867 0.034047
O O14 0.327265 0.217635 0.553893
O O15 0.000000 0.500000 0.000000
O O16 0.500000 0.000000 0.500000
#
# Coordination Sequence:
#
# PCOD9036753 Si02
#       7
#     2   2   2   2   2   2   2
#     4  11  22  38  62  92 125 164 212 266 316 371
#     4  11  24  42  65  96 130 165 209 265 322 376
#     4  11  22  40  62  89 125 170 213 258 315 384
#     4  11  23  41  64  93 126 168 213 259 317 384
#     4  11  21  40  64  91 125 167 213 262 310 382
#     4  11  23  42  65  91 126 170 214 259 315 384
#     4  10  23  39  60  94 129 160 208 269 323 369
#
# _framework density 22.136382000000001
#
# number of rings (size 3 to 8) (size 9 to 14) (size 15 to 20)
#    0.000    1.143    0.000    8.571    0.000    2.286 
#    0.000    5.714    0.000    0.000    0.000    0.000 
#    0.000    0.000    0.000    0.000    0.000    0.000 
#
# Total GULP energy -78030.691961 kJ/mol
# GULP energy per Si atom -5573.620854 kJ/mol
# Density = 2.208600 g / cm^3
# Si number density = 22.136382 Si / 1000 Ang^3
#
#
#
# Elastic Constant Matrix: (Units=GPa)
#
#
# Indices 1 2 3 4 5 6 
#
# 1 137.1141 64.3948 68.1576 4.6378 0.1369 7.8590
# 2 64.3948 117.9798 37.0423 15.7271 0.3791 3.9180
# 3 68.1576 37.0423 113.6340 -9.2738 6.8860 10.0641
# 4 4.6378 15.7271 -9.2738 31.3642 -0.1646 -1.7192
# 5 0.1369 0.3791 6.8860 -0.1646 48.2007 18.9425
# 6 7.8590 3.9180 10.0641 -1.7192 18.9425 26.9654
#
#
#
# Elastic Compliance Matrix: (Units=1/GPa)
#
#
# Indices 1 2 3 4 5 6 
#
# 1 0.012743 -0.004787 -0.006121 -0.001394 0.001650 -0.001982
# 2 -0.004787 0.012424 -0.001654 -0.006030 0.000278 -0.000372
# 3 -0.006121 -0.001654 0.013714 0.005678 -0.001154 -0.001921
# 4 -0.001394 -0.006030 0.005678 0.036932 -0.001699 0.002711
# 5 0.001650 0.000278 -0.001154 -0.001699 0.028976 -0.020554
# 6 -0.001982 -0.000372 -0.001921 0.002711 -0.020554 0.053045
#
#
# Mechanical properties :
#
#
# Convention : Reuss Voigt Hill
#
# Bulk Modulus (GPa) = 72.69651 78.65750 75.67700
# Shear Modulus (GPa) = 26.66022 34.58160 30.62091
#
# Velocity S-wave (km/s) = 3.47416 3.95676 3.72329
# Velocity P-wave (km/s) = 7.00033 7.51564 7.26256
#
# Compressibility (1/GPa) = 0.01375582
#
# Stress axis : x y z
#
# Youngs Moduli (GPa) = 78.47239 80.49123 72.91586
#
# Poissons Ratio (x) = 0.38534 0.44632
# Poissons Ratio (y) = 0.37567 0.12063
# Poissons Ratio (z) = 0.48034 0.13317
#
# Static dielectric constant tensor:
#      x y z
#    x 1.864750 -0.005140 -0.027350 
#    y -0.005140 1.891190 0.052150 
#    z -0.027350 0.052150 1.754090 
# 
# From -- ./inp_files/238145.got.cif
#   From: 2010.05.17/outbox.cif.g08.bks.cpg/sg2_120_cif.got.tgz:238145.got - 2010.06.03 11:33:40.
