data_PCOD9036499
_publ_section_title
;
Structure prediction by ZEFSAII (Michael W. Deem and Ramdas Pophale) SiO2 
 PCOD9036499
Probable space group: P -1
;
_chemical_formula_sum "Si O2"
_cell_formula_units_Z 14
_cell_length_a 12.758714
_cell_length_b 8.715175
_cell_length_c 15.283626
_cell_angle_alpha 140.672456
_cell_angle_beta 43.595308
_cell_angle_gamma 128.064231
_cell_volume 736.484499
_symmetry_space_group_name_H-M "P -1"
_symmetry_group_IT_number 2
_symmetry_cell_setting 'triclinic'
loop_
_space_group_symop_operation_xyz
x,y,z
-x,-y,-z
loop_
_atom_site_type_symbol
_atom_site_label
_atom_site_fract_x
_atom_site_fract_y
_atom_site_fract_z
Si Si1 0.618350 0.529769 0.022882
Si Si2 0.744989 0.040272 0.697980
Si Si3 0.007172 0.808346 0.534605
Si Si4 0.176915 0.971724 0.868736
Si Si5 0.876875 0.254385 0.387059
Si Si6 0.467877 0.775214 0.656557
Si Si7 0.556091 0.167419 0.621800
O O1 0.534193 0.611339 0.196469
O O2 0.740531 0.764853 0.037461
O O3 0.500000 0.500000 0.000000
O O4 0.702405 0.293040 0.872701
O O5 0.845339 0.096299 0.572383
O O6 0.581876 0.874525 0.709482
O O7 0.860075 0.915675 0.633883
O O8 0.029516 0.872919 0.652167
O O9 0.970728 0.513901 0.419837
O O10 0.179239 0.894941 0.731242
O O11 0.284420 0.794580 0.775740
O O12 0.000000 0.000000 0.000000
O O13 0.726017 0.287290 0.548769
O O14 0.500000 0.500000 0.500000
O O15 0.530561 0.970674 0.629299
O O16 0.500000 0.000000 0.500000
#
# Coordination Sequence:
#
# PCOD9036499 Si02
#       7
#     2   2   2   2   2   2   2
#     4  11  20  38  63  92 126 166 206 259 319 379
#     4  11  21  40  60  97 126 167 215 264 314 381
#     4  10  23  37  65  91 132 167 211 261 324 380
#     4  11  23  39  65  94 125 165 218 264 321 384
#     4  11  20  42  62  91 123 174 211 255 321 390
#     4  11  22  39  67  92 124 166 217 261 314 383
#     4  11  21  39  64  90 121 165 211 258 317 379
#
# _framework density 19.009226000000002
#
# number of rings (size 3 to 8) (size 9 to 14) (size 15 to 20)
#    0.000    1.143    7.143    1.714    0.000    2.286 
#    0.000    2.857    0.000    0.000    0.000    0.000 
#    0.000    0.000    0.000    0.000    0.000    0.000 
#
# Total GULP energy -77942.516557 kJ/mol
# GULP energy per Si atom -5567.322611 kJ/mol
# Density = 1.896596 g / cm^3
# Si number density = 19.009226 Si / 1000 Ang^3
#
#
#
# Elastic Constant Matrix: (Units=GPa)
#
#
# Indices 1 2 3 4 5 6 
#
# 1 145.6931 26.4037 56.7796 6.0413 -13.6205 11.3218
# 2 26.4037 39.3537 16.2859 9.6658 -16.4867 10.9925
# 3 56.7796 16.2859 117.5726 16.5608 -21.3340 -1.1686
# 4 6.0413 9.6658 16.5608 32.6928 12.3475 -3.5466
# 5 -13.6205 -16.4867 -21.3340 12.3475 34.8500 2.9077
# 6 11.3218 10.9925 -1.1686 -3.5466 2.9077 33.3950
#
#
#
# Elastic Compliance Matrix: (Units=1/GPa)
#
#
# Indices 1 2 3 4 5 6 
#
# 1 0.009559 -0.007236 -0.005056 0.004574 -0.004389 -0.000168
# 2 -0.007236 0.071067 0.010977 -0.050494 0.057986 -0.030967
# 3 -0.005056 0.010977 0.015453 -0.018036 0.019481 -0.004970
# 4 0.004574 -0.050494 -0.018036 0.081203 -0.064303 0.028662
# 5 -0.004389 0.057986 0.019481 -0.064303 0.091767 -0.031736
# 6 -0.000168 -0.030967 -0.004970 0.028662 -0.031736 0.045828
#
#
# Mechanical properties :
#
#
# Convention : Reuss Voigt Hill
#
# Bulk Modulus (GPa) = 10.70117 55.72865 33.21491
# Shear Modulus (GPa) = 14.34073 33.73089 24.03581
#
# Velocity S-wave (km/s) = 2.74963 4.21699 3.55974
# Velocity P-wave (km/s) = 3.96514 7.28635 5.86572
#
# Compressibility (1/GPa) = 0.09344776
#
# Stress axis : x y z
#
# Youngs Moduli (GPa) = 104.61677 14.07119 64.71372
#
# Poissons Ratio (x) = 0.10182 0.32721
# Poissons Ratio (y) = 0.75702 -0.71036
# Poissons Ratio (z) = 0.52897 -0.15446
#
# Static dielectric constant tensor:
#      x y z
#    x 1.751170 0.009790 -0.003390 
#    y 0.009790 1.683840 -0.034040 
#    z -0.003390 -0.034040 1.687380 
# 
# From -- ./inp_files/269193.got.cif
#   From: 2010.05.17/outbox.cif.g08.bks.cpg/sg2_135_cif.got.tgz:269193.got - 2010.06.03 11:33:40.
