data_PCOD9036363
_publ_section_title
;
Structure prediction by ZEFSAII (Michael W. Deem and Ramdas Pophale) SiO2 
 PCOD9036363
Probable space group: P -1
;
_chemical_formula_sum "Si O2"
_cell_formula_units_Z 16
_cell_length_a 17.809786
_cell_length_b 23.779195
_cell_length_c 6.068027
_cell_angle_alpha 88.147400
_cell_angle_beta 88.763362
_cell_angle_gamma 19.201336
_cell_volume 844.431123
_symmetry_space_group_name_H-M "P -1"
_symmetry_group_IT_number 2
_symmetry_cell_setting 'triclinic'
loop_
_space_group_symop_operation_xyz
x,y,z
-x,-y,-z
loop_
_atom_site_type_symbol
_atom_site_label
_atom_site_fract_x
_atom_site_fract_y
_atom_site_fract_z
Si Si1 0.759289 0.245356 0.500000
Si Si2 0.373182 0.555896 0.804952
Si Si3 0.760803 0.664176 0.117044
Si Si4 0.897393 0.850130 0.896261
Si Si5 0.560886 0.014135 0.117044
Si Si6 0.407299 0.845178 0.896261
Si Si7 0.156869 0.914053 0.804952
Si Si8 0.528713 0.110644 0.500000
O O1 0.558708 0.390488 0.673869
O O2 0.745387 0.314116 0.364145
O O3 0.738080 0.211117 0.326132
O O4 0.992626 0.066877 0.635855
O O5 0.166729 0.663034 0.882808
O O6 0.500000 0.500000 0.000000
O O7 0.706137 0.713205 0.371335
O O8 0.609259 0.820371 1.000000
O O9 0.629374 0.700420 0.049384
O O10 0.000000 0.500000 0.000000
O O11 0.747263 0.953755 0.668692
O O12 0.810198 0.860008 0.049383
O O13 0.807364 0.971318 1.000000
O O14 0.528768 0.051890 0.371335
O O15 0.500000 0.000000 0.000000
O O16 0.347676 0.822560 0.882808
O O17 0.443192 0.855790 0.668692
O O18 0.000000 0.000000 0.000000
#
# Coordination Sequence:
#
# PCOD9036363 Si02
#       8
#     2   2   2   2   2   2   2   2
#     4  10  23  34  55  82 108 148 187 222 283 330
#     4  11  21  38  56  80 114 145 185 234 274 328
#     4   9  19  34  53  79 104 137 179 219 271 323
#     4   9  18  32  54  77 102 144 183 216 270 325
#     4   9  19  34  53  79 104 137 179 219 271 323
#     4   9  18  32  54  77 102 144 183 216 270 325
#     4  11  21  38  56  80 114 145 185 234 274 328
#     4   8  17  34  55  76 108 142 181 222 261 328
#
# _framework density 18.947666999999999
#
# number of rings (size 3 to 8) (size 9 to 14) (size 15 to 20)
#    0.000    3.000    0.000    3.000    0.000   10.000 
#    0.000    6.250    0.000    0.000    0.000    0.000 
#    0.000    0.000    0.000    0.000    0.000    0.000 
#
# Total GULP energy -89100.082549 kJ/mol
# GULP energy per Si atom -5568.755159 kJ/mol
# Density = 1.890454 g / cm^3
# Si number density = 18.947667 Si / 1000 Ang^3
#
#
#
# Elastic Constant Matrix: (Units=GPa)
#
#
# Indices 1 2 3 4 5 6 
#
# 1 101.1756 40.8565 36.4129 25.7719 32.1755 -20.4020
# 2 40.8565 72.6729 26.0599 32.4921 6.9429 -18.3770
# 3 36.4129 26.0599 106.8959 33.4885 17.8930 -10.5820
# 4 25.7719 32.4921 33.4885 32.4570 7.9358 -10.0429
# 5 32.1755 6.9429 17.8930 7.9358 26.6269 0.9362
# 6 -20.4020 -18.3770 -10.5820 -10.0429 0.9362 27.8442
#
#
#
# Elastic Compliance Matrix: (Units=1/GPa)
#
#
# Indices 1 2 3 4 5 6 
#
# 1 0.025010 -0.007238 -0.000302 -0.001044 -0.028313 0.014009
# 2 -0.007238 0.029491 0.003128 -0.027004 0.006814 0.005380
# 3 -0.000302 0.003128 0.014955 -0.016371 -0.005685 0.001813
# 4 -0.001044 -0.027004 -0.016371 0.077541 -0.003921 0.003290
# 5 -0.028313 0.006814 -0.005685 -0.003921 0.075768 -0.022371
# 6 0.014009 0.005380 0.001813 0.003290 -0.022371 0.052357
#
#
# Mechanical properties :
#
#
# Convention : Reuss Voigt Hill
#
# Bulk Modulus (GPa) = 16.49270 54.15590 35.32430
# Shear Modulus (GPa) = 16.43886 29.21328 22.82607
#
# Velocity S-wave (km/s) = 2.94869 3.93082 3.47463
# Velocity P-wave (km/s) = 4.50736 7.01753 5.89754
#
# Compressibility (1/GPa) = 0.06063288
#
# Stress axis : x y z
#
# Youngs Moduli (GPa) = 39.98363 33.90856 66.86740
#
# Poissons Ratio (x) = 0.24544 0.02017
# Poissons Ratio (y) = 0.28941 -0.20917
# Poissons Ratio (z) = 0.01206 -0.10607
#
# Static dielectric constant tensor:
#      x y z
#    x 1.683260 -0.025430 0.001640 
#    y -0.025430 1.656340 0.011200 
#    z 0.001640 0.011200 1.761880 
# 
# From -- ./inp_files/112921.got.cif
#   From: 2010.05.17/outbox.cif.g08.bks.cpg/sg2_57_cif.got.tgz:112921.got - 2010.06.03 11:33:40.
