data_PCOD9036686
_publ_section_title
;
Structure prediction by ZEFSAII (Michael W. Deem and Ramdas Pophale) SiO2 
 PCOD9036686
Probable space group: P -1
;
_chemical_formula_sum "Si O2"
_cell_formula_units_Z 16
_cell_length_a 14.138477
_cell_length_b 7.691418
_cell_length_c 12.910551
_cell_angle_alpha 107.133301
_cell_angle_beta 137.579979
_cell_angle_gamma 102.423563
_cell_volume 670.948544
_symmetry_space_group_name_H-M "P -1"
_symmetry_group_IT_number 2
_symmetry_cell_setting 'triclinic'
loop_
_space_group_symop_operation_xyz
x,y,z
-x,-y,-z
loop_
_atom_site_type_symbol
_atom_site_label
_atom_site_fract_x
_atom_site_fract_y
_atom_site_fract_z
Si Si1 0.006481 0.392499 0.275373
Si Si2 0.922230 0.950196 0.812677
Si Si3 0.336390 0.941624 0.622574
Si Si4 0.115262 0.487820 0.006640
Si Si5 0.216582 0.200435 0.684566
Si Si6 0.483917 0.406922 0.135403
Si Si7 0.637158 0.084183 0.026838
Si Si8 0.538669 0.769118 0.410200
O O1 0.915713 0.427808 0.110996
O O2 0.862536 0.293925 0.238431
O O3 0.041706 0.212019 0.242883
O O4 0.208399 0.662191 0.502642
O O5 0.700702 0.816894 0.618568
O O6 0.031125 0.208905 0.886901
O O7 0.000000 0.000000 0.000000
O O8 0.248361 0.042044 0.620472
O O9 0.355862 0.978271 0.522582
O O10 0.545220 0.122985 0.870090
O O11 0.331785 0.659233 0.252270
O O12 0.000000 0.500000 0.000000
O O13 0.310762 0.432554 0.726297
O O14 0.337705 0.314762 0.907513
O O15 0.000000 0.000000 0.500000
O O16 0.494690 0.577098 0.254857
O O17 0.409214 0.162301 0.085112
O O18 0.500000 0.000000 0.000000
#
# Coordination Sequence:
#
# PCOD9036686 Si02
#       8
#     2   2   2   2   2   2   2   2
#     4  12  27  47  77 108 153 198 254 310 371 462
#     4  12  27  51  77 117 147 192 254 316 392 455
#     4  11  24  43  70 104 144 199 246 296 378 436
#     4  12  26  51  80 111 149 193 248 318 386 460
#     4  10  23  38  67  99 142 196 248 308 365 429
#     4  10  23  42  65 101 143 192 253 298 367 441
#     4  12  25  44  67 104 149 196 249 314 362 433
#     4  11  25  47  78 105 151 198 243 312 384 454
#
# _framework density 23.846838000000002
#
# number of rings (size 3 to 8) (size 9 to 14) (size 15 to 20)
#    0.000    0.750    5.000    1.500    3.500    4.500 
#    2.250    0.000    0.000    0.000    0.000    0.000 
#    0.000    0.000    0.000    0.000    0.000    0.000 
#
# Total GULP energy -89424.938447 kJ/mol
# GULP energy per Si atom -5589.058653 kJ/mol
# Density = 2.379256 g / cm^3
# Si number density = 23.846838 Si / 1000 Ang^3
#
#
#
# Elastic Constant Matrix: (Units=GPa)
#
#
# Indices 1 2 3 4 5 6 
#
# 1 82.8995 12.1178 47.0207 -2.6838 13.1644 -1.0760
# 2 12.1178 96.6610 21.1160 8.7993 9.2545 -15.4039
# 3 47.0207 21.1160 146.3943 -5.4699 32.6838 4.0724
# 4 -2.6838 8.7993 -5.4699 45.0800 -2.1424 -2.7071
# 5 13.1644 9.2545 32.6838 -2.1424 39.6112 5.0673
# 6 -1.0760 -15.4039 4.0724 -2.7071 5.0673 21.8332
#
#
#
# Elastic Compliance Matrix: (Units=1/GPa)
#
#
# Indices 1 2 3 4 5 6 
#
# 1 0.014908 -0.000575 -0.004432 0.000490 -0.001332 0.001526
# 2 -0.000575 0.012738 -0.001325 -0.002248 -0.003046 0.009634
# 3 -0.004432 -0.001325 0.009889 0.000814 -0.006145 -0.001470
# 4 0.000490 -0.002248 0.000814 0.022844 0.000807 0.000932
# 5 -0.001332 -0.003046 -0.006145 0.000807 0.032605 -0.008536
# 6 0.001526 0.009634 -0.001470 0.000932 -0.008536 0.055045
#
#
# Mechanical properties :
#
#
# Convention : Reuss Voigt Hill
#
# Bulk Modulus (GPa) = 40.20591 54.05154 47.12872
# Shear Modulus (GPa) = 29.58869 37.68489 33.63679
#
# Velocity S-wave (km/s) = 3.52629 3.97960 3.75978
# Velocity P-wave (km/s) = 5.78587 6.62054 6.21723
#
# Compressibility (1/GPa) = 0.02487197
#
# Stress axis : x y z
#
# Youngs Moduli (GPa) = 67.07838 78.50239 101.12533
#
# Poissons Ratio (x) = 0.04511 0.44821
# Poissons Ratio (y) = 0.03854 0.13397
# Poissons Ratio (z) = 0.29731 0.10400
#
# Static dielectric constant tensor:
#      x y z
#    x 1.918600 0.023240 0.000740 
#    y 0.023240 1.973490 -0.006810 
#    z 0.000740 -0.006810 1.913320 
# 
# From -- ./inp_files/530001.got.cif
#   From: 2010.05.17/outbox.cif.g08.bks.cpg/sg2_266_cif.got.tgz:530001.got - 2010.06.03 11:33:40.
