data_PCOD9036939
_publ_section_title
;
Structure prediction by ZEFSAII (Michael W. Deem and Ramdas Pophale) SiO2 
 PCOD9036939
Probable space group: P -1
;
_chemical_formula_sum "Si O2"
_cell_formula_units_Z 16
_cell_length_a 11.764601
_cell_length_b 9.708734
_cell_length_c 15.203328
_cell_angle_alpha 122.230346
_cell_angle_beta 47.593432
_cell_angle_gamma 143.164039
_cell_volume 768.633934
_symmetry_space_group_name_H-M "P -1"
_symmetry_group_IT_number 2
_symmetry_cell_setting 'triclinic'
loop_
_space_group_symop_operation_xyz
x,y,z
-x,-y,-z
loop_
_atom_site_type_symbol
_atom_site_label
_atom_site_fract_x
_atom_site_fract_y
_atom_site_fract_z
Si Si1 0.660536 0.497383 0.842649
Si Si2 0.077940 0.242333 0.042124
Si Si3 0.170277 0.672093 0.397015
Si Si4 0.800883 0.895026 0.777474
Si Si5 0.506770 0.249606 0.278023
Si Si6 0.863833 0.983313 0.489984
Si Si7 0.055018 0.353302 0.899657
Si Si8 0.386704 0.004245 0.777322
O O1 0.720514 0.584995 0.939938
O O2 0.828225 0.477599 0.720976
O O3 0.699166 0.675949 0.816669
O O4 0.443476 0.228121 0.856919
O O5 0.869368 0.190674 0.168263
O O6 0.123323 0.328214 0.948498
O O7 0.000000 0.000000 0.000000
O O8 0.000000 0.500000 0.500000
O O9 0.105041 0.800074 0.441483
O O10 0.430321 0.879569 0.355263
O O11 0.025579 0.992602 0.649953
O O12 0.863849 0.100215 0.872178
O O13 0.641987 0.825711 0.755927
O O14 0.385678 0.227248 0.420879
O O15 0.742126 0.498515 0.221812
O O16 0.544986 0.085110 0.219694
O O17 0.000000 0.000000 0.500000
O O18 0.000000 0.500000 0.000000
#
# Coordination Sequence:
#
# PCOD9036939 Si02
#       8
#     2   2   2   2   2   2   2   2
#     4  10  23  39  66  92 124 163 207 253 318 366
#     4  12  25  43  59  90 130 165 213 261 303 365
#     4   9  17  37  66  90 122 158 201 259 314 375
#     4  11  23  41  67  95 123 164 212 257 317 373
#     4  10  23  42  65  93 126 164 206 260 317 374
#     4   9  18  37  66  94 123 158 203 259 316 375
#     4  12  27  42  61  91 129 168 215 259 302 373
#     4   9  22  40  64  89 125 160 206 254 314 371
#
# _framework density 20.816151000000001
#
# number of rings (size 3 to 8) (size 9 to 14) (size 15 to 20)
#    0.750    1.000    3.750    0.000    3.500    2.500 
#    0.000    0.625    2.750    0.000    0.000    0.000 
#    0.000    0.000    0.000    0.000    0.000    0.000 
#
# Total GULP energy -89083.014374 kJ/mol
# GULP energy per Si atom -5567.688398 kJ/mol
# Density = 2.076877 g / cm^3
# Si number density = 20.816151 Si / 1000 Ang^3
#
#
#
# Elastic Constant Matrix: (Units=GPa)
#
#
# Indices 1 2 3 4 5 6 
#
# 1 69.8068 33.8797 13.5665 -0.8337 -8.7199 -14.9753
# 2 33.8797 98.4716 16.0219 -5.9145 -4.6312 -19.0085
# 3 13.5665 16.0219 62.7976 -7.5952 -17.1478 -11.5708
# 4 -0.8337 -5.9145 -7.5952 49.5304 -1.4012 -3.4095
# 5 -8.7199 -4.6312 -17.1478 -1.4012 31.7229 1.3690
# 6 -14.9753 -19.0085 -11.5708 -3.4095 1.3690 37.1607
#
#
#
# Elastic Compliance Matrix: (Units=1/GPa)
#
#
# Indices 1 2 3 4 5 6 
#
# 1 0.018396 -0.005179 -0.000858 -0.000037 0.003647 0.004359
# 2 -0.005179 0.013067 -0.001322 0.001560 -0.000349 0.004342
# 3 -0.000858 -0.001322 0.020828 0.003698 0.010760 0.005406
# 4 -0.000037 0.001560 0.003698 0.021287 0.002994 0.003777
# 5 0.003647 -0.000349 0.010760 0.002994 0.038272 0.003506
# 6 0.004359 0.004342 0.005406 0.003777 0.003506 0.032788
#
#
# Mechanical properties :
#
#
# Convention : Reuss Voigt Hill
#
# Bulk Modulus (GPa) = 26.61427 39.77915 33.19671
# Shear Modulus (GPa) = 29.08987 34.85667 31.97327
#
# Velocity S-wave (km/s) = 3.74233 4.09651 3.92341
# Velocity P-wave (km/s) = 5.61128 6.44410 6.04206
#
# Compressibility (1/GPa) = 0.03757383
#
# Stress axis : x y z
#
# Youngs Moduli (GPa) = 54.36034 76.52625 48.01131
#
# Poissons Ratio (x) = 0.39631 0.04121
# Poissons Ratio (y) = 0.28152 0.06346
# Poissons Ratio (z) = 0.04666 0.10116
#
# Static dielectric constant tensor:
#      x y z
#    x 1.708200 0.010910 -0.052360 
#    y 0.010910 1.729070 -0.000070 
#    z -0.052360 -0.000070 1.916320 
# 
# From -- ./inp_files/565453.got.cif
#   From: 2010.05.17/outbox.cif.g08.bks.cpg/sg2_283_cif.got.tgz:565453.got - 2010.06.03 11:33:40.
