data_PCOD9036191
_publ_section_title
;
Structure prediction by ZEFSAII (Michael W. Deem and Ramdas Pophale) SiO2 
 PCOD9036191
Probable space group: P -1
;
_chemical_formula_sum "Si O2"
_cell_formula_units_Z 14
_cell_length_a 5.363679
_cell_length_b 15.030643
_cell_length_c 9.832105
_cell_angle_alpha 131.678619
_cell_angle_beta 111.050169
_cell_angle_gamma 90.176910
_cell_volume 518.172068
_symmetry_space_group_name_H-M "P -1"
_symmetry_group_IT_number 2
_symmetry_cell_setting 'triclinic'
loop_
_space_group_symop_operation_xyz
x,y,z
-x,-y,-z
loop_
_atom_site_type_symbol
_atom_site_label
_atom_site_fract_x
_atom_site_fract_y
_atom_site_fract_z
Si Si1 0.639645 0.323711 0.918936
Si Si2 0.768036 0.710207 0.946925
Si Si3 0.036475 0.403917 0.759867
Si Si4 0.453707 0.837468 0.500083
Si Si5 0.232419 0.610992 0.574401
Si Si6 0.920961 0.782079 0.616616
Si Si7 0.178939 0.011214 0.685056
O O1 0.773845 0.460798 0.009834
O O2 0.919327 0.299098 0.006084
O O3 0.422792 0.341609 0.006834
O O4 0.466231 0.201775 0.671257
O O5 0.794804 0.857275 0.108228
O O6 0.552745 0.641236 0.715170
O O7 0.855144 0.275920 0.671972
O O8 0.815311 0.426936 0.631855
O O9 0.210011 0.346539 0.630869
O O10 0.645603 0.814864 0.636660
O O11 0.450662 0.977619 0.651778
O O12 0.000000 0.500000 0.500000
O O13 0.139423 0.737552 0.701146
O O14 0.074632 0.902823 0.672439
O O15 0.000000 0.000000 0.500000
#
# Coordination Sequence:
#
# PCOD9036191 Si02
#       7
#     2   2   2   2   2   2   2
#     4  12  26  42  71 106 138 183 235 290 359 417
#     4  12  27  43  71 105 136 191 236 281 349 415
#     4   9  23  42  64 101 132 181 225 294 349 408
#     4  11  23  42  71 100 139 182 233 297 353 414
#     4  10  22  48  68  98 144 181 236 287 345 424
#     4   9  23  42  67  99 135 181 230 285 350 400
#     4  11  23  45  67 101 141 183 234 289 346 416
#
# _framework density 27.018051
#
# number of rings (size 3 to 8) (size 9 to 14) (size 15 to 20)
#    0.857    0.571    2.857    1.286    8.000    4.000 
#    0.000    0.714    0.000    0.000    0.000    0.000 
#    0.000    0.000    0.000    0.000    0.000    0.000 
#
# Total GULP energy -78098.692251 kJ/mol
# GULP energy per Si atom -5578.478018 kJ/mol
# Density = 2.695656 g / cm^3
# Si number density = 27.018051 Si / 1000 Ang^3
#
#
#
# Elastic Constant Matrix: (Units=GPa)
#
#
# Indices 1 2 3 4 5 6 
#
# 1 94.9906 29.6068 3.6777 -2.9703 20.5464 -28.4081
# 2 29.6068 125.8642 14.3238 26.0951 19.8177 -10.0023
# 3 3.6777 14.3238 74.6035 14.7280 5.4490 -7.6031
# 4 -2.9703 26.0951 14.7280 54.0485 -9.9418 6.3943
# 5 20.5464 19.8177 5.4490 -9.9418 34.9915 -1.0072
# 6 -28.4081 -10.0023 -7.6031 6.3943 -1.0072 65.3937
#
#
#
# Elastic Compliance Matrix: (Units=1/GPa)
#
#
# Indices 1 2 3 4 5 6 
#
# 1 0.014487 -0.001631 0.000956 -0.000834 -0.007793 0.006117
# 2 -0.001631 0.011020 0.000015 -0.006923 -0.007209 0.001545
# 3 0.000956 0.000015 0.014941 -0.005119 -0.004277 0.002590
# 4 -0.000834 -0.006923 -0.005119 0.026004 0.012471 -0.004367
# 5 -0.007793 -0.007209 -0.004277 0.012471 0.041286 -0.005569
# 6 0.006117 0.001545 0.002590 -0.004367 -0.005569 0.018828
#
#
# Mechanical properties :
#
#
# Convention : Reuss Voigt Hill
#
# Bulk Modulus (GPa) = 25.55557 43.40832 34.48195
# Shear Modulus (GPa) = 35.47903 47.41005 41.44454
#
# Velocity S-wave (km/s) = 3.62769 4.19352 3.92083
# Velocity P-wave (km/s) = 5.19866 6.28878 5.76953
#
# Compressibility (1/GPa) = 0.03913041
#
# Stress axis : x y z
#
# Youngs Moduli (GPa) = 69.02520 90.74366 66.92972
#
# Poissons Ratio (x) = 0.14796 -0.06400
# Poissons Ratio (y) = 0.11255 -0.00102
# Poissons Ratio (z) = -0.06600 -0.00138
#
# Static dielectric constant tensor:
#      x y z
#    x 2.410250 0.078610 -0.064910 
#    y 0.078610 2.241890 -0.081120 
#    z -0.064910 -0.081120 2.065180 
# 
# From -- ./inp_files/369202.got.cif
#   From: 2010.05.17/outbox.cif.g08.bks.cpg/sg2_185_cif.got.tgz:369202.got - 2010.06.03 11:33:40.
