data_PCOD9036569
_publ_section_title
;
Structure prediction by ZEFSAII (Michael W. Deem and Ramdas Pophale) SiO2 
 PCOD9036569
Probable space group: P -1
;
_chemical_formula_sum "Si O2"
_cell_formula_units_Z 14
_cell_length_a 9.048799
_cell_length_b 9.083218
_cell_length_c 26.994089
_cell_angle_alpha 139.306220
_cell_angle_beta 27.692609
_cell_angle_gamma 133.998663
_cell_volume 670.301382
_symmetry_space_group_name_H-M "P -1"
_symmetry_group_IT_number 2
_symmetry_cell_setting 'triclinic'
loop_
_space_group_symop_operation_xyz
x,y,z
-x,-y,-z
loop_
_atom_site_type_symbol
_atom_site_label
_atom_site_fract_x
_atom_site_fract_y
_atom_site_fract_z
Si Si1 0.471978 0.637720 0.232079
Si Si2 0.808206 0.836107 0.665955
Si Si3 0.773759 0.955946 0.140985
Si Si4 0.884750 0.675564 0.271304
Si Si5 0.786959 0.661920 0.847767
Si Si6 0.880108 0.496520 0.944958
Si Si7 0.197031 0.644828 0.418538
O O1 0.536774 0.820309 0.215861
O O2 0.300363 0.411008 0.200861
O O3 0.278824 0.716351 0.356674
O O4 0.821318 0.585798 0.134295
O O5 0.880421 0.626051 0.625464
O O6 0.931714 0.769993 0.558112
O O7 0.434220 0.871988 0.782827
O O8 0.980197 0.070315 0.692674
O O9 0.880693 0.764308 0.023379
O O10 0.053273 0.092436 0.123276
O O11 0.518045 0.677892 0.364976
O O12 0.966257 0.516398 0.251999
O O13 0.068933 0.574759 0.144478
O O14 0.453403 0.615378 0.963978
#
# Coordination Sequence:
#
# PCOD9036569 Si02
#       7
#     2   2   2   2   2   2   2
#     4  10  23  42  58  89 125 154 200 248 297 355
#     4  11  22  41  66  87 120 158 201 251 294 352
#     4  11  22  38  63  90 124 159 195 244 301 353
#     4  11  21  40  63  91 118 158 202 248 295 352
#     4  11  21  37  61  90 122 158 198 240 297 358
#     4  10  23  38  61  91 124 154 202 244 295 358
#     4  10  24  42  63  91 117 155 207 248 297 350
#
# _framework density 20.886129
#
# number of rings (size 3 to 8) (size 9 to 14) (size 15 to 20)
#    0.000    1.429    4.286    2.571    0.000    8.000 
#    0.000    0.714    0.000    0.000    0.000    0.000 
#    0.000    0.000    0.000    0.000    0.000    0.000 
#
# Total GULP energy -78245.096018 kJ/mol
# GULP energy per Si atom -5588.935430 kJ/mol
# Density = 2.083859 g / cm^3
# Si number density = 20.886129 Si / 1000 Ang^3
#
#
#
# Elastic Constant Matrix: (Units=GPa)
#
#
# Indices 1 2 3 4 5 6 
#
# 1 0.4885 9.9710 43.4113 23.4028 24.7981 -6.6688
# 2 9.9710 89.6048 26.3088 20.2738 21.8141 31.0945
# 3 43.4113 26.3088 44.8126 4.9172 4.3322 6.2453
# 4 23.4028 20.2738 4.9172 23.4189 1.3650 5.8531
# 5 24.7981 21.8141 4.3322 1.3650 13.8525 6.7849
# 6 -6.6688 31.0945 6.2453 5.8531 6.7849 27.1367
#
#
#
# Elastic Compliance Matrix: (Units=1/GPa)
#
#
# Indices 1 2 3 4 5 6 
#
# 1 -0.005567 -0.008916 0.007507 0.010584 0.020793 -0.000361
# 2 -0.008916 0.025981 -0.001093 -0.005783 -0.010393 -0.027864
# 3 0.007507 -0.001093 0.017870 -0.010711 -0.019240 0.006106
# 4 0.010584 -0.005783 -0.010711 0.038473 -0.013612 0.006798
# 5 0.020793 -0.010393 -0.019240 -0.013612 0.053272 0.011063
# 6 -0.000361 -0.027864 0.006106 0.006798 0.011063 0.063052
#
#
# Mechanical properties :
#
#
# Convention : Reuss Voigt Hill
#
# Bulk Modulus (GPa) = 30.05020 32.69868 31.37444
# Shear Modulus (GPa) = 23.90301 16.56261 20.23281
#
# Velocity S-wave (km/s) = 3.38663 2.81907 3.11580
# Velocity P-wave (km/s) = 5.45080 5.12698 5.29137
#
# Compressibility (1/GPa) = 0.03327765
#
# Stress axis : x y z
#
# Youngs Moduli (GPa) = -179.61572 38.48933 55.96104
#
# Poissons Ratio (x) = 0.34317 -0.42008
# Poissons Ratio (y) = -1.60147 0.06119
# Poissons Ratio (z) = 1.34830 0.04208
#
# Static dielectric constant tensor:
#      x y z
#    x 1.748730 -0.005020 -0.005160 
#    y -0.005020 1.774590 -0.004130 
#    z -0.005160 -0.004130 1.730450 
# 
# From -- ./inp_files/177178.got.cif
#   From: 2010.05.17/outbox.cif.g08.bks.cpg/sg2_89_cif.got.tgz:177178.got - 2010.06.03 11:33:40.
