data_PCOD9036419
_publ_section_title
;
Structure prediction by ZEFSAII (Michael W. Deem and Ramdas Pophale) SiO2 
 PCOD9036419
Probable space group: P -1
;
_chemical_formula_sum "Si O2"
_cell_formula_units_Z 16
_cell_length_a 8.410920
_cell_length_b 14.761218
_cell_length_c 11.377070
_cell_angle_alpha 39.399475
_cell_angle_beta 51.300829
_cell_angle_gamma 66.431325
_cell_volume 689.750550
_symmetry_space_group_name_H-M "P -1"
_symmetry_group_IT_number 2
_symmetry_cell_setting 'triclinic'
loop_
_space_group_symop_operation_xyz
x,y,z
-x,-y,-z
loop_
_atom_site_type_symbol
_atom_site_label
_atom_site_fract_x
_atom_site_fract_y
_atom_site_fract_z
Si Si1 0.151336 0.351917 0.621506
Si Si2 0.290364 0.976846 0.194755
Si Si3 0.459763 0.657480 0.820350
Si Si4 0.441885 0.738456 0.491222
Si Si5 0.098071 0.237893 0.419666
Si Si6 0.756250 0.748711 0.921523
Si Si7 0.709732 0.344972 0.856974
Si Si8 0.848251 0.490635 0.285400
O O1 0.312020 0.242841 0.653846
O O2 0.232207 0.481498 0.363108
O O3 0.164040 0.435387 0.657037
O O4 0.912616 0.290240 0.769462
O O5 0.350292 0.883681 0.371471
O O6 0.093165 0.875684 0.330559
O O7 0.226501 0.124173 0.119819
O O8 0.500000 0.000000 0.000000
O O9 0.377492 0.666236 0.718916
O O10 0.684676 0.757728 0.621487
O O11 0.500000 0.500000 0.000000
O O12 0.318905 0.699037 0.949267
O O13 0.349377 0.628788 0.539997
O O14 0.138740 0.204206 0.298372
O O15 0.031318 0.396580 0.292612
O O16 0.510231 0.701933 0.056379
O O17 0.852018 0.615785 0.062383
#
# Coordination Sequence:
#
# PCOD9036419 Si02
#       8
#     2   2   2   2   2   2   2   2
#     4  11  21  37  59  97 131 163 204 261 326 377
#     4  11  26  44  64  93 133 174 218 262 319 380
#     4  11  20  42  65  98 131 163 213 268 319 384
#     4  11  23  41  66  95 128 171 216 264 321 383
#     4  10  24  41  66  95 127 172 212 266 325 379
#     4  11  22  44  64  92 129 172 216 265 317 384
#     4  10  23  36  62  92 128 167 204 262 324 373
#     4  11  22  36  68  99 127 162 218 270 323 378
#
# _framework density 23.196794000000001
#
# number of rings (size 3 to 8) (size 9 to 14) (size 15 to 20)
#    0.000    1.250    2.500    3.375    5.250    3.000 
#    0.000    7.500    0.000    0.000    0.000    0.000 
#    0.000    0.000    0.000    0.000    0.000    0.000 
#
# Total GULP energy -89525.486635 kJ/mol
# GULP energy per Si atom -5595.342915 kJ/mol
# Density = 2.314400 g / cm^3
# Si number density = 23.196794 Si / 1000 Ang^3
#
#
#
# Elastic Constant Matrix: (Units=GPa)
#
#
# Indices 1 2 3 4 5 6 
#
# 1 80.5594 12.8621 35.7674 15.1700 -17.7138 0.6844
# 2 12.8621 70.6758 17.2808 2.2037 -7.0702 4.2115
# 3 35.7674 17.2808 86.9980 12.2725 -24.5200 5.8689
# 4 15.1700 2.2037 12.2725 27.9716 -4.9919 6.5325
# 5 -17.7138 -7.0702 -24.5200 -4.9919 37.2081 14.4035
# 6 0.6844 4.2115 5.8689 6.5325 14.4035 37.3855
#
#
#
# Elastic Compliance Matrix: (Units=1/GPa)
#
#
# Indices 1 2 3 4 5 6 
#
# 1 0.016701 -0.001346 -0.004703 -0.006305 0.003641 0.000283
# 2 -0.001346 0.015171 -0.001883 0.001307 0.002118 -0.002433
# 3 -0.004703 -0.001883 0.017673 -0.001473 0.011413 -0.006616
# 4 -0.006305 0.001307 -0.001473 0.042955 0.005720 -0.009510
# 5 0.003641 0.002118 0.011413 0.005720 0.045247 -0.020529
# 6 0.000283 -0.002433 -0.006616 -0.009510 -0.020529 0.037627
#
#
# Mechanical properties :
#
#
# Convention : Reuss Voigt Hill
#
# Bulk Modulus (GPa) = 29.68998 41.11707 35.40352
# Shear Modulus (GPa) = 24.69569 32.00125 28.34847
#
# Velocity S-wave (km/s) = 3.26639 3.71827 3.49963
# Velocity P-wave (km/s) = 5.20122 6.01646 5.62363
#
# Compressibility (1/GPa) = 0.03368140
#
# Stress axis : x y z
#
# Youngs Moduli (GPa) = 59.87529 65.91678 56.58398
#
# Poissons Ratio (x) = 0.08870 0.26609
# Poissons Ratio (y) = 0.08057 0.10657
# Poissons Ratio (z) = 0.28157 0.12415
#
# Static dielectric constant tensor:
#      x y z
#    x 1.903000 0.009250 -0.018340 
#    y 0.009250 1.867480 0.027710 
#    z -0.018340 0.027710 1.886390 
# 
# From -- ./inp_files/345930.got.cif
#   From: 2010.05.17/outbox.cif.g08.bks.cpg/sg2_173_cif.got.tgz:345930.got - 2010.06.03 11:33:40.
