data_PCOD9036287
_publ_section_title
;
Structure prediction by ZEFSAII (Michael W. Deem and Ramdas Pophale) SiO2 
 PCOD9036287
Probable space group: P -1
;
_chemical_formula_sum "Si O2"
_cell_formula_units_Z 10
_cell_length_a 7.025930
_cell_length_b 9.765093
_cell_length_c 9.593935
_cell_angle_alpha 41.833969
_cell_angle_beta 69.064641
_cell_angle_gamma 48.708452
_cell_volume 317.787716
_symmetry_space_group_name_H-M "P -1"
_symmetry_group_IT_number 2
_symmetry_cell_setting 'triclinic'
loop_
_space_group_symop_operation_xyz
x,y,z
-x,-y,-z
loop_
_atom_site_type_symbol
_atom_site_label
_atom_site_fract_x
_atom_site_fract_y
_atom_site_fract_z
Si Si1 0.617381 0.258788 0.034420
Si Si2 0.161297 0.422653 0.849214
Si Si3 0.074714 0.684912 0.302199
Si Si4 0.756076 0.028896 0.481742
Si Si5 0.646778 0.138915 0.727401
O O1 0.318373 0.425383 0.935868
O O2 0.757455 0.361771 0.843642
O O3 0.652170 0.186746 0.243761
O O4 0.787686 0.969307 0.139420
O O5 0.384754 0.298882 0.765903
O O6 0.891336 0.716690 0.665962
O O7 0.167084 0.177384 0.064526
O O8 0.202011 0.754474 0.336399
O O9 0.000000 0.500000 0.500000
O O10 0.572789 0.168939 0.560105
O O11 0.000000 0.000000 0.500000
#
# Coordination Sequence:
#
# PCOD9036287 Si02
#       5
#     2   2   2   2   2
#     4  10  24  48  75 118 154 205 270 312 404 470
#     4  10  25  50  81 115 164 213 258 332 393 478
#     4  10  22  48  78 112 165 209 260 334 389 469
#     4  12  25  48  77 121 165 203 263 334 391 471
#     4  10  23  51  78 117 160 211 268 322 405 465
#
# _framework density 31.467549000000002
#
# number of rings (size 3 to 8) (size 9 to 14) (size 15 to 20)
#    0.000    1.600    2.000    0.600    0.000    8.800 
#   10.800    3.000    0.000    9.600    0.000    0.000 
#    0.000    0.000    0.000    0.000    0.000    0.000 
#
# Total GULP energy -56104.701187 kJ/mol
# GULP energy per Si atom -5610.470119 kJ/mol
# Density = 3.139593 g / cm^3
# Si number density = 31.467549 Si / 1000 Ang^3
#
#
#
# Elastic Constant Matrix: (Units=GPa)
#
#
# Indices 1 2 3 4 5 6 
#
# 1 204.9894 74.4672 109.8108 15.2254 10.1187 42.5005
# 2 74.4672 255.9181 116.2173 34.9964 14.8021 36.4673
# 3 109.8108 116.2173 333.0418 2.1583 -8.4946 24.1026
# 4 15.2254 34.9964 2.1583 56.0984 7.7972 -0.0329
# 5 10.1187 14.8021 -8.4946 7.7972 70.2992 15.0328
# 6 42.5005 36.4673 24.1026 -0.0329 15.0328 51.3718
#
#
#
# Elastic Compliance Matrix: (Units=1/GPa)
#
#
# Indices 1 2 3 4 5 6 
#
# 1 0.007114 -0.000305 -0.001881 -0.001674 0.000024 -0.004794
# 2 -0.000305 0.005625 -0.001642 -0.003315 -0.000358 -0.002867
# 3 -0.001881 -0.001642 0.004173 0.001253 0.000873 0.000509
# 4 -0.001674 -0.003315 0.001253 0.020579 -0.001993 0.003747
# 5 0.000024 -0.000358 0.000873 -0.001993 0.015640 -0.004753
# 6 -0.004794 -0.002867 0.000509 0.003747 -0.004753 0.026622
#
#
# Mechanical properties :
#
#
# Convention : Reuss Voigt Hill
#
# Bulk Modulus (GPa) = 108.04636 154.99332 131.51984
# Shear Modulus (GPa) = 55.25235 68.45081 61.85158
#
# Velocity S-wave (km/s) = 4.19483 4.66905 4.43828
# Velocity P-wave (km/s) = 7.60740 8.85599 8.25534
#
# Compressibility (1/GPa) = 0.00925529
#
# Stress axis : x y z
#
# Youngs Moduli (GPa) = 140.57202 177.78874 239.63083
#
# Poissons Ratio (x) = 0.05427 0.45065
# Poissons Ratio (y) = 0.04291 0.39354
# Poissons Ratio (z) = 0.26436 0.29198
#
# Static dielectric constant tensor:
#      x y z
#    x 2.544710 0.072140 0.080600 
#    y 0.072140 2.616310 0.050390 
#    z 0.080600 0.050390 2.537160 
# 
# From -- ./inp_files/151684.got.cif
#   From: 2010.05.17/outbox.cif.g08.bks.cpg/sg2_76_cif.got.tgz:151684.got - 2010.06.03 11:33:40.
