data_PCOD9036859
_publ_section_title
;
Structure prediction by ZEFSAII (Michael W. Deem and Ramdas Pophale) SiO2 
 PCOD9036859
Probable space group: P -1
;
_chemical_formula_sum "Si O2"
_cell_formula_units_Z 14
_cell_length_a 9.790963
_cell_length_b 13.020383
_cell_length_c 12.569939
_cell_angle_alpha 34.716209
_cell_angle_beta 128.280264
_cell_angle_gamma 135.776867
_cell_volume 634.630774
_symmetry_space_group_name_H-M "P -1"
_symmetry_group_IT_number 2
_symmetry_cell_setting 'triclinic'
loop_
_space_group_symop_operation_xyz
x,y,z
-x,-y,-z
loop_
_atom_site_type_symbol
_atom_site_label
_atom_site_fract_x
_atom_site_fract_y
_atom_site_fract_z
Si Si1 0.287988 0.235279 0.652326
Si Si2 0.348318 0.864529 0.452464
Si Si3 0.035241 0.025824 0.120428
Si Si4 0.622013 0.044406 0.228382
Si Si5 0.043231 0.229685 0.354241
Si Si6 0.666066 0.541785 0.132398
Si Si7 0.558220 0.407423 0.818139
O O1 0.131107 0.280321 0.472319
O O2 0.458821 0.409973 0.655511
O O3 0.355733 0.114598 0.704309
O O4 0.157428 0.077630 0.814508
O O5 0.286756 0.637843 0.655981
O O6 0.500000 0.000000 0.500000
O O7 0.177264 0.928565 0.303365
O O8 0.466912 0.918787 0.352062
O O9 0.146032 0.266474 0.985744
O O10 0.000000 0.000000 0.000000
O O11 0.827865 0.202102 0.250774
O O12 0.566781 0.196065 0.008135
O O13 0.224986 0.400287 0.230597
O O14 0.000000 0.000000 0.500000
O O15 0.579828 0.593212 0.152956
O O16 0.500000 0.500000 0.000000
#
# Coordination Sequence:
#
# PCOD9036859 Si02
#       7
#     2   2   2   2   2   2   2
#     4  11  24  44  68  99 142 177 225 288 345 409
#     4  12  24  47  74 102 141 182 236 285 345 413
#     4  12  25  48  68 105 145 179 231 291 346 414
#     4  11  23  44  71 102 135 182 228 286 343 411
#     4  10  23  39  64  95 131 172 226 280 334 402
#     4  12  25  42  76  99 138 190 233 280 352 413
#     4  12  23  45  68 102 135 181 231 284 347 411
#
# _framework density 22.060071000000001
#
# number of rings (size 3 to 8) (size 9 to 14) (size 15 to 20)
#    0.000    0.571    4.286    3.857    4.000    0.571 
#    5.143    0.000    0.000    0.000    0.000    0.000 
#    0.000    0.000    0.000    0.000    0.000    0.000 
#
# Total GULP energy -78262.422007 kJ/mol
# GULP energy per Si atom -5590.173001 kJ/mol
# Density = 2.200986 g / cm^3
# Si number density = 22.060071 Si / 1000 Ang^3
#
#
#
# Elastic Constant Matrix: (Units=GPa)
#
#
# Indices 1 2 3 4 5 6 
#
# 1 88.0229 14.3865 27.2110 -5.8378 -8.2548 -3.0009
# 2 14.3865 93.8786 19.6092 13.0003 8.1580 8.1376
# 3 27.2110 19.6092 105.4145 7.9954 11.8581 6.9364
# 4 -5.8378 13.0003 7.9954 49.0998 3.1058 -10.7575
# 5 -8.2548 8.1580 11.8581 3.1058 36.2510 2.7450
# 6 -3.0009 8.1376 6.9364 -10.7575 2.7450 38.4796
#
#
#
# Elastic Compliance Matrix: (Units=1/GPa)
#
#
# Indices 1 2 3 4 5 6 
#
# 1 0.013732 -0.002351 -0.004049 0.003264 0.004482 0.002891
# 2 -0.002351 0.012268 -0.000866 -0.004018 -0.002398 -0.003574
# 3 -0.004049 -0.000866 0.011508 -0.002437 -0.004086 -0.002597
# 4 0.003264 -0.004018 -0.002437 0.024046 -0.000243 0.008283
# 5 0.004482 -0.002398 -0.004086 -0.000243 0.030553 -0.000654
# 6 0.002891 -0.003574 -0.002597 0.008283 -0.000654 0.029799
#
#
# Mechanical properties :
#
#
# Convention : Reuss Voigt Hill
#
# Bulk Modulus (GPa) = 43.52284 45.52550 44.52417
# Shear Modulus (GPa) = 34.69917 39.84004 37.26960
#
# Velocity S-wave (km/s) = 3.97033 4.25429 4.11476
# Velocity P-wave (km/s) = 6.38672 6.69432 6.54232
#
# Compressibility (1/GPa) = 0.02297644
#
# Stress axis : x y z
#
# Youngs Moduli (GPa) = 72.82223 81.51510 86.89579
#
# Poissons Ratio (x) = 0.19161 0.35188
# Poissons Ratio (y) = 0.17118 0.07522
# Poissons Ratio (z) = 0.29489 0.07056
#
# Static dielectric constant tensor:
#      x y z
#    x 1.797940 0.045590 -0.002880 
#    y 0.045590 1.867000 -0.023620 
#    z -0.002880 -0.023620 1.979870 
# 
# From -- ./inp_files/271111.got.cif
#   From: 2010.05.17/outbox.cif.g08.bks.cpg/sg2_136_cif.got.tgz:271111.got - 2010.06.03 11:33:40.
