data_PCOD9036302
_publ_section_title
;
Structure prediction by ZEFSAII (Michael W. Deem and Ramdas Pophale) SiO2 
 PCOD9036302
Probable space group: P -1
;
_chemical_formula_sum "Si O2"
_cell_formula_units_Z 16
_cell_length_a 5.747772
_cell_length_b 27.243930
_cell_length_c 6.080067
_cell_angle_alpha 49.060924
_cell_angle_beta 101.784846
_cell_angle_gamma 89.183698
_cell_volume 689.795311
_symmetry_space_group_name_H-M "P -1"
_symmetry_group_IT_number 2
_symmetry_cell_setting 'triclinic'
loop_
_space_group_symop_operation_xyz
x,y,z
-x,-y,-z
loop_
_atom_site_type_symbol
_atom_site_label
_atom_site_fract_x
_atom_site_fract_y
_atom_site_fract_z
Si Si1 0.473485 0.070258 0.664112
Si Si2 0.927699 0.482177 0.289549
Si Si3 0.402568 0.827086 0.265309
Si Si4 0.288155 0.276619 0.668535
Si Si5 0.634344 0.295090 0.092577
Si Si6 0.095335 0.659917 0.330521
Si Si7 0.446342 0.393361 0.133275
Si Si8 0.928266 0.070328 0.404768
O O1 0.498648 0.126444 0.679312
O O2 0.191687 0.084057 0.489057
O O3 0.705242 0.067014 0.547632
O O4 0.500000 0.000000 0.000000
O O5 0.023055 0.403048 0.542399
O O6 0.000000 0.500000 0.500000
O O7 0.660750 0.529365 0.110728
O O8 0.000000 0.500000 0.000000
O O9 0.603862 0.788979 0.248133
O O10 0.328512 0.767014 0.559482
O O11 0.191763 0.872685 0.954025
O O12 0.274350 0.343225 0.324564
O O13 0.023580 0.283567 0.692631
O O14 0.455093 0.282417 0.898334
O O15 0.543012 0.363023 0.007762
O O16 0.876793 0.304450 0.994015
O O17 0.343422 0.623177 0.597288
O O18 0.000000 0.000000 0.500000
#
# Coordination Sequence:
#
# PCOD9036302 Si02
#       8
#     2   2   2   2   2   2   2   2
#     4  12  27  52  83 119 158 207 258 329 408 481
#     4  12  26  44  77 107 146 201 258 327 408 480
#     4  11  26  50  75 112 159 202 260 320 400 485
#     4  10  22  49  66 103 146 195 248 313 380 475
#     4  10  24  47  68 105 144 199 254 314 386 474
#     4  11  24  44  76 102 147 194 256 321 388 471
#     4  10  23  43  70 103 143 184 255 314 393 457
#     4  12  27  52  83 120 159 202 264 330 400 484
#
# _framework density 23.195285999999999
#
# number of rings (size 3 to 8) (size 9 to 14) (size 15 to 20)
#    0.000    1.000    2.500    2.625    3.500    2.500 
#   29.250    0.000    0.000    0.000    0.000    0.000 
#    0.000    0.000    0.000    0.000    0.000    0.000 
#
# Total GULP energy -89233.588456 kJ/mol
# GULP energy per Si atom -5577.099278 kJ/mol
# Density = 2.314249 g / cm^3
# Si number density = 23.195286 Si / 1000 Ang^3
#
#
#
# Elastic Constant Matrix: (Units=GPa)
#
#
# Indices 1 2 3 4 5 6 
#
# 1 104.7786 57.9222 63.9832 4.8062 5.3323 -16.8902
# 2 57.9222 176.9636 44.4928 -0.7411 3.1211 -26.6959
# 3 63.9832 44.4928 104.3906 -4.1161 14.2305 -11.8508
# 4 4.8062 -0.7411 -4.1161 39.8979 -8.0936 9.0578
# 5 5.3323 3.1211 14.2305 -8.0936 34.9032 9.4117
# 6 -16.8902 -26.6959 -11.8508 9.0578 9.4117 41.4389
#
#
#
# Elastic Compliance Matrix: (Units=1/GPa)
#
#
# Indices 1 2 3 4 5 6 
#
# 1 0.017571 -0.002886 -0.009195 -0.004088 -0.000626 0.003709
# 2 -0.002886 0.007383 -0.000841 -0.000655 -0.001030 0.003717
# 3 -0.009195 -0.000841 0.016497 0.001427 -0.005269 0.001313
# 4 -0.004088 -0.000655 0.001427 0.030088 0.009912 -0.010508
# 5 -0.000626 -0.001030 -0.005269 0.009912 0.036776 -0.012945
# 6 0.003709 0.003717 0.001313 -0.010508 -0.012945 0.033650
#
#
# Mechanical properties :
#
#
# Convention : Reuss Voigt Hill
#
# Bulk Modulus (GPa) = 64.07128 79.88103 71.97616
# Shear Modulus (GPa) = 28.89980 37.89698 33.39839
#
# Velocity S-wave (km/s) = 3.53361 4.04644 3.79869
# Velocity P-wave (km/s) = 6.65816 7.50632 7.09492
#
# Compressibility (1/GPa) = 0.01560762
#
# Stress axis : x y z
#
# Youngs Moduli (GPa) = 56.91109 135.44339 60.61648
#
# Poissons Ratio (x) = 0.39091 0.55734
# Poissons Ratio (y) = 0.16425 0.05100
# Poissons Ratio (z) = 0.52327 0.11395
#
# Static dielectric constant tensor:
#      x y z
#    x 2.075930 0.016910 -0.079410 
#    y 0.016910 1.932990 0.048360 
#    z -0.079410 0.048360 1.893610 
# 
# From -- ./inp_files/14316.got.cif
#   From: 2010.05.17/outbox.cif.g08.bks.cpg/sg2_8_cif.got.tgz:14316.got - 2010.06.03 11:33:40.
