data_PCOD9036425
_publ_section_title
;
Structure prediction by ZEFSAII (Michael W. Deem and Ramdas Pophale) SiO2 
 PCOD9036425
Probable space group: P -1
;
_chemical_formula_sum "Si O2"
_cell_formula_units_Z 14
_cell_length_a 8.415482
_cell_length_b 20.532832
_cell_length_c 15.484328
_cell_angle_alpha 23.754128
_cell_angle_beta 37.142686
_cell_angle_gamma 35.909363
_cell_volume 614.225510
_symmetry_space_group_name_H-M "P -1"
_symmetry_group_IT_number 2
_symmetry_cell_setting 'triclinic'
loop_
_space_group_symop_operation_xyz
x,y,z
-x,-y,-z
loop_
_atom_site_type_symbol
_atom_site_label
_atom_site_fract_x
_atom_site_fract_y
_atom_site_fract_z
Si Si1 0.396129 0.968190 0.393521
Si Si2 0.866937 0.283193 0.267392
Si Si3 0.829008 0.731467 0.209202
Si Si4 0.790958 0.356941 0.697518
Si Si5 0.999584 0.176240 0.657856
Si Si6 0.826224 0.475272 0.230977
Si Si7 0.480061 0.048070 0.066274
O O1 0.682183 0.936799 0.359249
O O2 0.337170 0.791573 0.608890
O O3 0.131385 0.109591 0.379477
O O4 0.430331 0.043324 0.193895
O O5 0.779839 0.377800 0.282287
O O6 0.962365 0.422268 0.004343
O O7 0.814406 0.542415 0.443565
O O8 0.784414 0.822579 0.025547
O O9 0.105686 0.709483 0.171388
O O10 0.567245 0.854939 0.226912
O O11 0.470003 0.385505 0.786528
O O12 0.989806 0.231976 0.694521
O O13 0.919423 0.338853 0.432603
O O14 0.751319 0.096663 0.861122
#
# Coordination Sequence:
#
# PCOD9036425 Si02
#       7
#     2   2   2   2   2   2   2
#     4  11  24  45  65  92 131 166 219 257 305 388
#     4  10  26  46  64  84 125 187 214 254 300 364
#     4  10  23  36  65  97 134 159 198 246 354 364
#     4  11  22  42  63 105 125 164 198 273 326 380
#     4  12  25  38  69  99 129 160 206 272 328 366
#     4  11  24  45  65  92 131 166 219 257 305 388
#     4  11  22  42  63 105 125 164 198 273 326 380
#
# _framework density 22.792933000000001
#
# number of rings (size 3 to 8) (size 9 to 14) (size 15 to 20)
#    0.000    1.143    2.857    2.571    8.000    1.143 
#    0.000    5.714    0.000    0.000    0.000    0.000 
#    0.000    0.000    0.000    0.000    0.000    0.000 
#
# Total GULP energy -78270.371930 kJ/mol
# GULP energy per Si atom -5590.740852 kJ/mol
# Density = 2.274105 g / cm^3
# Si number density = 22.792933 Si / 1000 Ang^3
#
#
#
# Elastic Constant Matrix: (Units=GPa)
#
#
# Indices 1 2 3 4 5 6 
#
# 1 40.4959 -11.7701 9.8954 -4.7951 12.3710 -17.8468
# 2 -11.7701 47.4424 -11.0102 -7.3407 0.4181 -5.6646
# 3 9.8954 -11.0102 89.3508 0.5336 -6.9020 3.7795
# 4 -4.7951 -7.3407 0.5336 29.8682 1.3787 -6.2086
# 5 12.3710 0.4181 -6.9020 1.3787 34.3901 -16.5479
# 6 -17.8468 -5.6646 3.7795 -6.2086 -16.5479 32.9076
#
#
#
# Elastic Compliance Matrix: (Units=1/GPa)
#
#
# Indices 1 2 3 4 5 6 
#
# 1 0.048246 0.017480 -0.004953 0.018796 -0.004350 0.031102
# 2 0.017480 0.029916 0.001036 0.013793 0.001633 0.017934
# 3 -0.004953 0.001036 0.012221 -0.001455 0.002989 -0.002683
# 4 0.018796 0.013793 -0.001455 0.044391 0.001527 0.021878
# 5 -0.004350 0.001633 0.002989 0.001527 0.039755 0.017858
# 6 0.031102 0.017934 -0.002683 0.021878 0.017858 0.063759
#
#
# Mechanical properties :
#
#
# Convention : Reuss Voigt Hill
#
# Bulk Modulus (GPa) = 8.50997 16.83547 12.67272
# Shear Modulus (GPa) = 19.97352 32.11144 26.04248
#
# Velocity S-wave (km/s) = 2.96345 3.75751 3.38386
# Velocity P-wave (km/s) = 3.93079 5.12128 4.56501
#
# Compressibility (1/GPa) = 0.11750925
#
# Stress axis : x y z
#
# Youngs Moduli (GPa) = 20.72711 33.42655 81.82592
#
# Poissons Ratio (x) = -0.58430 0.40528
# Poissons Ratio (y) = -0.36231 -0.08475
# Poissons Ratio (z) = 0.10266 -0.03462
#
# Static dielectric constant tensor:
#      x y z
#    x 1.878510 0.015930 -0.063580 
#    y 0.015930 1.821600 -0.005500 
#    z -0.063580 -0.005500 1.853960 
# 
# From -- ./inp_files/235953.got.cif
#   From: 2010.05.17/outbox.cif.g08.bks.cpg/sg2_118_cif.got.tgz:235953.got - 2010.06.03 11:33:40.
