data_PCOD9036255
_publ_section_title
;
Structure prediction by ZEFSAII (Michael W. Deem and Ramdas Pophale) SiO2 
 PCOD9036255
Probable space group: P -1
;
_chemical_formula_sum "Si O2"
_cell_formula_units_Z 16
_cell_length_a 13.275450
_cell_length_b 10.608048
_cell_length_c 14.083140
_cell_angle_alpha 49.944129
_cell_angle_beta 33.892737
_cell_angle_gamma 34.009564
_cell_volume 612.251262
_symmetry_space_group_name_H-M "P -1"
_symmetry_group_IT_number 2
_symmetry_cell_setting 'triclinic'
loop_
_space_group_symop_operation_xyz
x,y,z
-x,-y,-z
loop_
_atom_site_type_symbol
_atom_site_label
_atom_site_fract_x
_atom_site_fract_y
_atom_site_fract_z
Si Si1 0.752453 0.928924 0.231124
Si Si2 0.429000 0.075980 0.234938
Si Si3 0.981979 0.984360 0.672358
Si Si4 0.178923 0.287597 0.031616
Si Si5 0.252552 0.724087 0.839394
Si Si6 0.973375 0.453224 0.312621
Si Si7 0.640744 0.350214 0.593884
Si Si8 0.412235 0.659135 0.078609
O O1 0.862975 0.698610 0.307324
O O2 0.536407 0.001063 0.293527
O O3 0.699694 0.112260 0.255477
O O4 0.968448 0.862318 0.022634
O O5 0.133431 0.262808 0.360963
O O6 0.503988 0.210921 0.075412
O O7 0.559957 0.877364 0.149487
O O8 0.903000 0.849084 0.825545
O O9 0.264801 0.798904 0.503612
O O10 0.796713 0.155660 0.648284
O O11 0.882063 0.153477 0.756773
O O12 0.148421 0.372000 0.121673
O O13 0.000000 0.500000 0.000000
O O14 0.356306 0.572169 0.736119
O O15 0.431226 0.520197 0.873031
O O16 0.764103 0.455047 0.445169
O O17 0.500000 0.500000 0.000000
#
# Coordination Sequence:
#
# PCOD9036255 Si02
#       8
#     2   2   2   2   2   2   2   2
#     4  11  22  37  63  94 119 158 218 266 307 360
#     4  11  21  36  58  92 125 155 205 259 313 366
#     4   8  18  34  61  90 121 168 206 249 308 375
#     4  10  19  35  61  95 123 159 209 264 303 365
#     4  10  21  38  62  91 123 165 210 266 308 363
#     4  11  22  38  64  89 128 167 201 257 320 371
#     4   9  19  40  62  87 128 171 207 245 319 385
#     4  10  17  32  61  90 119 160 209 262 305 357
#
# _framework density 26.133058999999999
#
# number of rings (size 3 to 8) (size 9 to 14) (size 15 to 20)
#    0.000    2.000    3.750    0.375    0.000    0.500 
#    2.250    0.625    8.250    4.500    0.000    0.000 
#    0.000    0.000    0.000    0.000    0.000    0.000 
#
# Total GULP energy -89495.807449 kJ/mol
# GULP energy per Si atom -5593.487966 kJ/mol
# Density = 2.607358 g / cm^3
# Si number density = 26.133059 Si / 1000 Ang^3
#
#
#
# Elastic Constant Matrix: (Units=GPa)
#
#
# Indices 1 2 3 4 5 6 
#
# 1 68.9761 32.4116 22.4151 19.1851 9.5069 0.7326
# 2 32.4116 131.9073 31.8925 8.3659 14.1495 25.2530
# 3 22.4151 31.8925 88.9650 14.8471 3.4341 15.9625
# 4 19.1851 8.3659 14.8471 47.3662 5.9555 10.5542
# 5 9.5069 14.1495 3.4341 5.9555 31.0353 3.8916
# 6 0.7326 25.2530 15.9625 10.5542 3.8916 34.9522
#
#
#
# Elastic Compliance Matrix: (Units=1/GPa)
#
#
# Indices 1 2 3 4 5 6 
#
# 1 0.020239 -0.004724 -0.003308 -0.007519 -0.003130 0.007118
# 2 -0.004724 0.010680 -0.001638 0.002524 -0.002808 -0.007319
# 3 -0.003308 -0.001638 0.013743 -0.001798 0.001162 -0.004610
# 4 -0.007519 0.002524 -0.001798 0.026517 -0.002664 -0.008556
# 5 -0.003130 -0.002808 0.001162 -0.002664 0.035035 -0.001533
# 6 0.007118 -0.007319 -0.004610 -0.008556 -0.001533 0.038609
#
#
# Mechanical properties :
#
#
# Convention : Reuss Voigt Hill
#
# Bulk Modulus (GPa) = 39.48800 51.47632 45.48216
# Shear Modulus (GPa) = 28.96815 36.21269 32.59042
#
# Velocity S-wave (km/s) = 3.33301 3.72654 3.53526
# Velocity P-wave (km/s) = 5.47312 6.18520 5.84002
#
# Compressibility (1/GPa) = 0.02532415
#
# Stress axis : x y z
#
# Youngs Moduli (GPa) = 49.40851 93.63268 72.76247
#
# Poissons Ratio (x) = 0.44228 0.24067
# Poissons Ratio (y) = 0.23338 0.11920
# Poissons Ratio (z) = 0.16342 0.15339
#
# Static dielectric constant tensor:
#      x y z
#    x 2.131780 0.020920 0.044800 
#    y 0.020920 2.078950 -0.051990 
#    z 0.044800 -0.051990 2.426000 
# 
# From -- ./inp_files/532397.got.cif
#   From: 2010.05.17/outbox.cif.g08.bks.cpg/sg2_267_cif.got.tgz:532397.got - 2010.06.03 11:33:40.
