data_PCOD9036887
_publ_section_title
;
Structure prediction by ZEFSAII (Michael W. Deem and Ramdas Pophale) SiO2 
 PCOD9036887
Probable space group: P -1
;
_chemical_formula_sum "Si O2"
_cell_formula_units_Z 12
_cell_length_a 5.378096
_cell_length_b 17.435866
_cell_length_c 4.942250
_cell_angle_alpha 90.022287
_cell_angle_beta 91.802648
_cell_angle_gamma 92.369265
_cell_volume 462.817491
_symmetry_space_group_name_H-M "P -1"
_symmetry_group_IT_number 2
_symmetry_cell_setting 'triclinic'
loop_
_space_group_symop_operation_xyz
x,y,z
-x,-y,-z
loop_
_atom_site_type_symbol
_atom_site_label
_atom_site_fract_x
_atom_site_fract_y
_atom_site_fract_z
Si Si1 0.809516 0.199851 0.636762
Si Si2 0.804099 0.459022 0.690711
Si Si3 0.477239 0.080490 0.856155
Si Si4 0.907934 0.661080 0.119814
Si Si5 0.699766 0.840862 0.631290
Si Si6 0.598003 0.616784 0.641364
O O1 0.541100 0.211247 0.483527
O O2 0.909493 0.265688 0.841046
O O3 0.033401 0.189629 0.434076
O O4 0.744642 0.121417 0.797671
O O5 0.626838 0.528412 0.747259
O O6 0.665419 0.391245 0.513201
O O7 0.000000 0.500000 0.500000
O O8 0.931463 0.413755 0.936772
O O9 0.343147 0.136084 0.063014
O O10 0.333980 0.084406 0.565600
O O11 0.500000 0.000000 0.000000
O O12 0.782030 0.640769 0.402641
O O13 0.688591 0.667690 0.896473
#
# Coordination Sequence:
#
# PCOD9036887 Si02
#       6
#     2   2   2   2   2   2
#     4  10  27  44  68 102 142 184 228 286 345 414
#     4   9  21  42  62  93 124 170 222 287 340 409
#     4  10  24  45  73 103 138 182 229 282 340 409
#     4  11  24  40  63  93 130 177 226 280 348 408
#     4  10  25  43  69  99 141 176 232 277 345 409
#     4  10  23  39  65  90 127 169 229 281 347 405
#
# _framework density 25.928149000000001
#
# number of rings (size 3 to 8) (size 9 to 14) (size 15 to 20)
#    1.000    1.000    0.000    1.000    7.000   10.000 
#    0.000    0.000    0.000    0.000    0.000    0.000 
#    0.000    0.000    0.000    0.000    0.000    0.000 
#
# Total GULP energy -67098.026348 kJ/mol
# GULP energy per Si atom -5591.502196 kJ/mol
# Density = 2.586914 g / cm^3
# Si number density = 25.928149 Si / 1000 Ang^3
#
#
#
# Elastic Constant Matrix: (Units=GPa)
#
#
# Indices 1 2 3 4 5 6 
#
# 1 130.3175 35.4049 26.1273 -3.5459 0.8719 22.6947
# 2 35.4049 106.4457 16.3128 -3.6226 5.9376 26.9431
# 3 26.1273 16.3128 108.4484 -5.9720 0.0356 12.6802
# 4 -3.5459 -3.6226 -5.9720 27.7389 -1.4353 -0.6349
# 5 0.8719 5.9376 0.0356 -1.4353 42.1306 -5.5591
# 6 22.6947 26.9431 12.6802 -0.6349 -5.5591 33.8286
#
#
#
# Elastic Compliance Matrix: (Units=1/GPa)
#
#
# Indices 1 2 3 4 5 6 
#
# 1 0.009195 -0.001690 -0.001422 0.000522 -0.000509 -0.004364
# 2 -0.001690 0.012527 -0.000350 0.000984 -0.002907 -0.009172
# 3 -0.001422 -0.000350 0.010013 0.001860 -0.000199 -0.002519
# 4 0.000522 0.000984 0.001860 0.036674 0.000968 -0.000984
# 5 -0.000509 -0.002907 -0.000199 0.000968 0.025096 0.006873
# 6 -0.004364 -0.009172 -0.002519 -0.000984 0.006873 0.041849
#
#
# Mechanical properties :
#
#
# Convention : Reuss Voigt Hill
#
# Bulk Modulus (GPa) = 40.30157 55.65573 47.97865
# Shear Modulus (GPa) = 33.21194 38.56407 35.88801
#
# Velocity S-wave (km/s) = 3.58288 3.86079 3.72443
# Velocity P-wave (km/s) = 5.71781 6.43322 6.08603
#
# Compressibility (1/GPa) = 0.02481293
#
# Stress axis : x y z
#
# Youngs Moduli (GPa) = 108.75085 79.82546 99.86868
#
# Poissons Ratio (x) = 0.13489 0.14201
# Poissons Ratio (y) = 0.18377 0.03492
# Poissons Ratio (z) = 0.15464 0.02791
#
# Static dielectric constant tensor:
#      x y z
#    x 2.051940 -0.078130 0.009230 
#    y -0.078130 2.107000 0.041370 
#    z 0.009230 0.041370 1.998800 
# 
# From -- ./inp_files/6876.got.cif
#   From: 2010.05.17/outbox.cif.g08.bks.cpg/sg2_4_cif.got.tgz:6876.got - 2010.06.03 11:33:40.
