data_PCOD9036641
_publ_section_title
;
Structure prediction by ZEFSAII (Michael W. Deem and Ramdas Pophale) SiO2 
 PCOD9036641
Probable space group: P -1
;
_chemical_formula_sum "Si O2"
_cell_formula_units_Z 16
_cell_length_a 15.294995
_cell_length_b 12.762620
_cell_length_c 7.459612
_cell_angle_alpha 127.628162
_cell_angle_beta 98.395993
_cell_angle_gamma 120.852799
_cell_volume 730.245951
_symmetry_space_group_name_H-M "P -1"
_symmetry_group_IT_number 2
_symmetry_cell_setting 'triclinic'
loop_
_space_group_symop_operation_xyz
x,y,z
-x,-y,-z
loop_
_atom_site_type_symbol
_atom_site_label
_atom_site_fract_x
_atom_site_fract_y
_atom_site_fract_z
Si Si1 0.695176 0.965840 0.864935
Si Si2 0.772472 0.782871 0.118650
Si Si3 0.981251 0.186552 0.158354
Si Si4 0.610547 0.357351 0.480295
Si Si5 0.576782 0.723768 0.203457
Si Si6 0.226991 0.639582 0.742143
Si Si7 0.069570 0.105821 0.399381
Si Si8 0.394723 0.756228 0.234707
O O1 0.550998 0.793719 0.747735
O O2 0.658119 0.868757 0.554234
O O3 0.738564 0.168265 0.076427
O O4 0.830528 0.041194 0.043753
O O5 0.679893 0.801657 0.157841
O O6 0.800279 0.738281 0.269855
O O7 0.928631 0.992671 0.329836
O O8 0.696748 0.592844 0.767789
O O9 0.071772 0.421490 0.413839
O O10 0.076417 0.199101 0.319605
O O11 0.955348 0.074990 0.853162
O O12 0.672959 0.333431 0.325178
O O13 0.622485 0.298445 0.617506
O O14 0.468125 0.713762 0.121838
O O15 0.500000 0.500000 0.000000
O O16 0.260586 0.641790 0.961167
O O17 0.500000 0.000000 0.500000
#
# Coordination Sequence:
#
# PCOD9036641 Si02
#       8
#     2   2   2   2   2   2   2   2
#     4  11  23  40  64  93 134 167 213 272 323 383
#     4  11  20  42  64  95 127 168 217 273 328 378
#     4  11  23  41  62  93 126 175 217 261 329 389
#     4  11  23  42  69  98 128 171 216 271 326 384
#     4  11  21  38  67  95 129 167 210 274 330 378
#     4  12  24  44  67  94 132 178 215 265 326 397
#     4  10  23  38  65  89 130 169 216 270 323 392
#     4  11  23  41  66  97 130 173 214 262 330 385
#
# _framework density 21.910425
#
# number of rings (size 3 to 8) (size 9 to 14) (size 15 to 20)
#    0.000    1.000    7.500    1.500    0.000    1.000 
#    0.000    1.250    0.000    3.000    0.000    0.000 
#    0.000    0.000    0.000    0.000    0.000    0.000 
#
# Total GULP energy -89410.361332 kJ/mol
# GULP energy per Si atom -5588.147583 kJ/mol
# Density = 2.186056 g / cm^3
# Si number density = 21.910425 Si / 1000 Ang^3
#
#
#
# Elastic Constant Matrix: (Units=GPa)
#
#
# Indices 1 2 3 4 5 6 
#
# 1 92.3170 9.8138 28.4118 -1.9294 -2.0326 6.5934
# 2 9.8138 30.9224 8.1916 -7.8055 -1.0957 7.7717
# 3 28.4118 8.1916 113.6121 18.7695 -10.4903 -5.4881
# 4 -1.9294 -7.8055 18.7695 32.6032 -5.2122 3.2537
# 5 -2.0326 -1.0957 -10.4903 -5.2122 42.8993 2.9215
# 6 6.5934 7.7717 -5.4881 3.2537 2.9215 35.2498
#
#
#
# Elastic Compliance Matrix: (Units=1/GPa)
#
#
# Indices 1 2 3 4 5 6 
#
# 1 0.012348 -0.001601 -0.003533 0.002689 0.000196 -0.002771
# 2 -0.001601 0.040582 -0.005174 0.014033 0.002145 -0.010926
# 3 -0.003533 -0.005174 0.011780 -0.008459 0.001260 0.004312
# 4 0.002689 0.014033 -0.008459 0.040590 0.003961 -0.008989
# 5 0.000196 0.002145 0.001260 0.003961 0.024347 -0.002697
# 6 -0.002771 -0.010926 0.004312 -0.008989 -0.002697 0.033021
#
#
# Mechanical properties :
#
#
# Convention : Reuss Voigt Hill
#
# Bulk Modulus (GPa) = 22.67790 36.63179 29.65485
# Shear Modulus (GPa) = 25.25481 34.84607 30.05044
#
# Velocity S-wave (km/s) = 3.39874 3.99229 3.70741
# Velocity P-wave (km/s) = 5.07687 6.16493 5.64717
#
# Compressibility (1/GPa) = 0.04409579
#
# Stress axis : x y z
#
# Youngs Moduli (GPa) = 80.98441 24.64152 84.88717
#
# Poissons Ratio (x) = 0.03945 0.29987
# Poissons Ratio (y) = 0.12965 0.43919
# Poissons Ratio (z) = 0.28608 0.12749
#
# Static dielectric constant tensor:
#      x y z
#    x 1.784200 -0.007070 0.019070 
#    y -0.007070 1.866760 -0.009250 
#    z 0.019070 -0.009250 1.815340 
# 
# From -- ./inp_files/314247.got.cif
#   From: 2010.05.17/outbox.cif.g08.bks.cpg/sg2_158_cif.got.tgz:314247.got - 2010.06.03 11:33:40.
