data_PCOD9036645
_publ_section_title
;
Structure prediction by ZEFSAII (Michael W. Deem and Ramdas Pophale) SiO2 
 PCOD9036645
Probable space group: P -1
;
_chemical_formula_sum "Si O2"
_cell_formula_units_Z 14
_cell_length_a 5.026298
_cell_length_b 13.219483
_cell_length_c 9.412331
_cell_angle_alpha 88.071590
_cell_angle_beta 76.671841
_cell_angle_gamma 78.279035
_cell_volume 595.811775
_symmetry_space_group_name_H-M "P -1"
_symmetry_group_IT_number 2
_symmetry_cell_setting 'triclinic'
loop_
_space_group_symop_operation_xyz
x,y,z
-x,-y,-z
loop_
_atom_site_type_symbol
_atom_site_label
_atom_site_fract_x
_atom_site_fract_y
_atom_site_fract_z
Si Si1 0.213624 0.077101 0.573576
Si Si2 0.077858 0.884560 0.693645
Si Si3 0.903158 0.889336 0.017018
Si Si4 0.889769 0.545620 0.356443
Si Si5 0.504087 0.445813 0.847773
Si Si6 0.398336 0.789566 0.155315
Si Si7 0.482313 0.754943 0.451676
O O1 0.281568 0.181351 0.613801
O O2 0.079016 0.099929 0.436284
O O3 0.500000 0.000000 0.500000
O O4 0.108126 0.003983 0.703346
O O5 0.927478 0.854566 0.850158
O O6 0.343404 0.797773 0.615487
O O7 0.141613 0.814826 0.079461
O O8 0.598261 0.872398 0.103042
O O9 0.000000 0.000000 0.000000
O O10 0.178031 0.566333 0.250883
O O11 0.000000 0.500000 0.500000
O O12 0.724397 0.500831 0.247122
O O13 0.635802 0.638153 0.431485
O O14 0.446060 0.329413 0.880378
O O15 0.500000 0.500000 0.000000
O O16 0.297358 0.788911 0.332113
#
# Coordination Sequence:
#
# PCOD9036645 Si02
#       7
#     2   2   2   2   2   2   2
#     4   9  20  37  63  91 131 174 230 268 346 399
#     4  10  23  38  65  95 132 180 230 281 339 404
#     4  12  27  43  66 102 145 179 234 289 343 403
#     4  11  25  46  75 109 138 178 242 307 361 416
#     4  11  25  50  75 102 143 193 235 289 374 445
#     4  11  26  45  68  98 137 187 229 281 353 426
#     4  10  23  41  68  92 134 179 228 277 349 421
#
# _framework density 23.497353
#
# number of rings (size 3 to 8) (size 9 to 14) (size 15 to 20)
#    0.000    1.429    0.000    3.857   16.000    1.143 
#    2.571    0.000    0.000    0.000    0.000    0.000 
#    0.000    0.000    0.000    0.000    0.000    0.000 
#
# Total GULP energy -77964.329762 kJ/mol
# GULP energy per Si atom -5568.880697 kJ/mol
# Density = 2.344387 g / cm^3
# Si number density = 23.497353 Si / 1000 Ang^3
#
#
#
# Elastic Constant Matrix: (Units=GPa)
#
#
# Indices 1 2 3 4 5 6 
#
# 1 106.5311 -0.8035 28.7641 -7.8275 5.9339 -2.4832
# 2 -0.8035 38.6261 30.9132 3.2660 9.3762 2.8234
# 3 28.7641 30.9132 153.2823 -5.4610 0.7399 -9.2791
# 4 -7.8275 3.2660 -5.4610 25.8141 -5.1313 14.6941
# 5 5.9339 9.3762 0.7399 -5.1313 32.0381 1.2815
# 6 -2.4832 2.8234 -9.2791 14.6941 1.2815 28.4652
#
#
#
# Elastic Compliance Matrix: (Units=1/GPa)
#
#
# Indices 1 2 3 4 5 6 
#
# 1 0.010347 0.002559 -0.002439 0.002699 -0.002119 -0.001444
# 2 0.002559 0.035944 -0.008030 -0.006693 -0.011801 -0.001973
# 3 -0.002439 -0.008030 0.008795 0.001091 0.002663 0.002768
# 4 0.002699 -0.006693 0.001091 0.060452 0.012336 -0.030506
# 5 -0.002119 -0.011801 0.002663 0.012336 0.037221 -0.006190
# 6 -0.001444 -0.001973 0.002768 -0.030506 -0.006190 0.052129
#
#
# Mechanical properties :
#
#
# Convention : Reuss Voigt Hill
#
# Bulk Modulus (GPa) = 25.46759 46.24301 35.85530
# Shear Modulus (GPa) = 21.38619 33.23451 27.31035
#
# Velocity S-wave (km/s) = 3.02015 3.76492 3.41291
# Velocity P-wave (km/s) = 4.79831 6.21469 5.55185
#
# Compressibility (1/GPa) = 0.03926559
#
# Stress axis : x y z
#
# Youngs Moduli (GPa) = 96.64283 27.82122 113.70635
#
# Poissons Ratio (x) = -0.07119 0.27731
# Poissons Ratio (y) = -0.24729 0.91307
# Poissons Ratio (z) = 0.23569 0.22341
#
# Static dielectric constant tensor:
#      x y z
#    x 2.026780 0.036340 0.208760 
#    y 0.036340 1.994420 -0.027970 
#    z 0.208760 -0.027970 1.844230 
# 
# From -- ./inp_files/132324.got.cif
#   From: 2010.05.17/outbox.cif.g08.bks.cpg/sg2_67_cif.got.tgz:132324.got - 2010.06.03 11:33:40.
