data_PCOD9036046
_publ_section_title
;
Structure prediction by ZEFSAII (Michael W. Deem and Ramdas Pophale) SiO2 
 PCOD9036046
Probable space group: P -1
;
_chemical_formula_sum "Si O2"
_cell_formula_units_Z 16
_cell_length_a 10.989430
_cell_length_b 15.432036
_cell_length_c 17.216753
_cell_angle_alpha 154.871448
_cell_angle_beta 56.915344
_cell_angle_gamma 138.501288
_cell_volume 725.214922
_symmetry_space_group_name_H-M "P -1"
_symmetry_group_IT_number 2
_symmetry_cell_setting 'triclinic'
loop_
_space_group_symop_operation_xyz
x,y,z
-x,-y,-z
loop_
_atom_site_type_symbol
_atom_site_label
_atom_site_fract_x
_atom_site_fract_y
_atom_site_fract_z
Si Si1 0.791197 0.662561 0.060590
Si Si2 0.546941 0.759724 0.472211
Si Si3 0.962952 0.409767 0.850650
Si Si4 0.258103 0.796196 0.934475
Si Si5 0.385866 0.373199 0.063731
Si Si6 0.362706 0.364302 0.359543
Si Si7 0.981059 0.718226 0.521044
Si Si8 0.775149 0.200590 0.363635
O O1 0.581354 0.490925 0.041625
O O2 0.862625 0.507516 0.925269
O O3 0.756052 0.661268 0.979828
O O4 0.945167 0.993413 0.307317
O O5 0.456625 0.583394 0.280148
O O6 0.502319 0.554755 0.390644
O O7 0.411681 0.826328 0.593720
O O8 0.790155 0.059495 0.621955
O O9 0.000000 0.500000 0.000000
O O10 0.179869 0.615480 0.895566
O O11 0.246056 0.029859 0.125457
O O12 0.118001 0.544011 0.714398
O O13 0.500000 0.000000 0.000000
O O14 0.277805 0.057609 0.874646
O O15 0.500000 0.500000 0.500000
O O16 0.197498 0.381271 0.439344
O O17 0.177507 0.824856 0.585052
O O18 0.000000 0.500000 0.500000
#
# Coordination Sequence:
#
# PCOD9036046 Si02
#       8
#     2   2   2   2   2   2   2   2
#     4  10  22  47  70  98 144 187 229 301 360 423
#     4  12  27  44  75 109 143 187 245 300 355 434
#     4  12  27  46  74 106 145 192 243 298 357 428
#     4  12  27  46  75 104 138 197 243 290 360 441
#     4  10  24  45  70 101 142 183 237 297 361 419
#     4  12  25  46  68 101 147 192 231 293 357 424
#     4  11  24  43  71 103 141 185 240 286 362 424
#     4  11  24  42  68 105 146 182 226 304 356 418
#
# _framework density 22.062425999999999
#
# number of rings (size 3 to 8) (size 9 to 14) (size 15 to 20)
#    0.000    0.750    5.000    1.500    3.500    2.000 
#    0.000    1.875    0.000    0.000    0.000    0.000 
#    0.000    0.000    0.000    0.000    0.000    0.000 
#
# Total GULP energy -89448.385030 kJ/mol
# GULP energy per Si atom -5590.524064 kJ/mol
# Density = 2.201221 g / cm^3
# Si number density = 22.062426 Si / 1000 Ang^3
#
#
#
# Elastic Constant Matrix: (Units=GPa)
#
#
# Indices 1 2 3 4 5 6 
#
# 1 39.0456 18.7120 12.7912 -6.5150 12.1566 -3.5466
# 2 18.7120 123.2151 42.4921 24.1348 0.0927 -10.3900
# 3 12.7912 42.4921 170.8778 12.5652 5.9462 -22.7097
# 4 -6.5150 24.1348 12.5652 38.3972 -2.1552 1.3301
# 5 12.1566 0.0927 5.9462 -2.1552 23.2221 3.8449
# 6 -3.5466 -10.3900 -22.7097 1.3301 3.8449 29.8944
#
#
#
# Elastic Compliance Matrix: (Units=1/GPa)
#
#
# Indices 1 2 3 4 5 6 
#
# 1 0.036963 -0.006989 -0.000624 0.009691 -0.018837 0.003473
# 2 -0.006989 0.011397 -0.001598 -0.007724 0.002995 0.001877
# 3 -0.000624 -0.001598 0.007215 -0.001788 -0.002551 0.005260
# 4 0.009691 -0.007724 -0.001788 0.033231 -0.000794 -0.004270
# 5 -0.018837 0.002995 -0.002551 -0.000794 0.055179 -0.010194
# 6 0.003473 0.001877 0.005260 -0.004270 -0.010194 0.040012
#
#
# Mechanical properties :
#
#
# Convention : Reuss Voigt Hill
#
# Bulk Modulus (GPa) = 26.91618 53.45879 40.18748
# Shear Modulus (GPa) = 23.27700 35.57896 29.42798
#
# Velocity S-wave (km/s) = 3.25168 4.02014 3.65615
# Velocity P-wave (km/s) = 5.13073 6.76993 6.00651
#
# Compressibility (1/GPa) = 0.03715238
#
# Stress axis : x y z
#
# Youngs Moduli (GPa) = 27.05442 87.74078 138.59118
#
# Poissons Ratio (x) = 0.61324 0.08653
# Poissons Ratio (y) = 0.18909 0.22144
# Poissons Ratio (z) = 0.01689 0.14019
#
# Static dielectric constant tensor:
#      x y z
#    x 1.852960 0.004710 -0.027030 
#    y 0.004710 1.863350 0.035700 
#    z -0.027030 0.035700 1.789300 
# 
# From -- ./inp_files/522629.got.cif
#   From: 2010.05.17/outbox.cif.g08.bks.cpg/sg2_262_cif.got.tgz:522629.got - 2010.06.03 11:33:40.
