data_PCOD9036550
_publ_section_title
;
Structure prediction by ZEFSAII (Michael W. Deem and Ramdas Pophale) SiO2 
 PCOD9036550
Probable space group: P -1
;
_chemical_formula_sum "Si O2"
_cell_formula_units_Z 12
_cell_length_a 15.514227
_cell_length_b 15.689284
_cell_length_c 6.922153
_cell_angle_alpha 131.437617
_cell_angle_beta 63.501091
_cell_angle_gamma 152.564469
_cell_volume 531.147553
_symmetry_space_group_name_H-M "P -1"
_symmetry_group_IT_number 2
_symmetry_cell_setting 'triclinic'
loop_
_space_group_symop_operation_xyz
x,y,z
-x,-y,-z
loop_
_atom_site_type_symbol
_atom_site_label
_atom_site_fract_x
_atom_site_fract_y
_atom_site_fract_z
Si Si1 0.398667 0.514095 0.874539
Si Si2 0.272831 0.628135 0.058011
Si Si3 0.898667 0.514094 0.370411
Si Si4 0.772831 0.628135 0.780731
Si Si5 0.719296 0.170770 0.326971
Si Si6 0.780704 0.829230 0.753253
O O1 0.617105 0.741083 0.888109
O O2 0.289819 0.287941 0.560711
O O3 0.275292 0.499139 0.917553
O O4 0.399984 0.520289 0.113718
O O5 0.267415 0.702462 0.361942
O O6 0.492515 0.885920 0.128767
O O7 0.100016 0.479711 0.852819
O O8 0.775291 0.499139 0.529282
O O9 0.789817 0.287939 0.223473
O O10 0.117104 0.741082 0.600931
O O11 0.767416 0.702463 0.710614
O O12 0.992515 0.885920 0.043964
#
# Coordination Sequence:
#
# PCOD9036550 Si02
#       6
#     2   2   2   2   2   2
#     4  11  21  39  61  86 118 154 195 243 297 350
#     4  11  21  39  61  86 118 154 195 243 297 350
#     4  11  21  39  61  86 118 154 195 243 297 350
#     4  11  21  39  61  86 118 154 195 243 297 350
#     4  10  23  38  60  86 118 154 195 244 292 352
#     4  10  23  38  60  86 118 154 195 244 292 352
#
# _framework density 22.592592
#
# number of rings (size 3 to 8) (size 9 to 14) (size 15 to 20)
#    0.000    1.333    3.333    3.000    0.000    0.000 
#    0.000    0.000    0.000    0.000    0.000    0.000 
#    0.000    0.000    0.000    0.000    0.000    0.000 
#
# Total GULP energy -67079.042377 kJ/mol
# GULP energy per Si atom -5589.920198 kJ/mol
# Density = 2.254117 g / cm^3
# Si number density = 22.592592 Si / 1000 Ang^3
#
#
#
# Elastic Constant Matrix: (Units=GPa)
#
#
# Indices 1 2 3 4 5 6 
#
# 1 96.7829 7.8212 11.4111 -4.4346 0.3622 1.3336
# 2 7.8212 36.3502 8.4506 -8.0294 -3.8335 -1.2528
# 3 11.4111 8.4506 65.5078 -9.0386 -9.3237 -2.7750
# 4 -4.4346 -8.0294 -9.0386 19.6776 6.4191 -2.1738
# 5 0.3622 -3.8335 -9.3237 6.4191 28.6651 -7.6367
# 6 1.3336 -1.2528 -2.7750 -2.1738 -7.6367 29.5618
#
#
#
# Elastic Compliance Matrix: (Units=1/GPa)
#
#
# Indices 1 2 3 4 5 6 
#
# 1 0.010760 -0.001829 -0.001720 0.001264 -0.001494 -0.001017
# 2 -0.001829 0.031053 -0.001793 0.011136 0.001766 0.002505
# 3 -0.001720 -0.001793 0.017437 0.005599 0.005097 0.003367
# 4 0.001264 0.011136 0.005599 0.061724 -0.009738 0.002964
# 5 -0.001494 0.001766 0.005097 -0.009738 0.041833 0.010711
# 6 -0.001017 0.002505 0.003367 0.002964 0.010711 0.037281
#
#
# Mechanical properties :
#
#
# Convention : Reuss Voigt Hill
#
# Bulk Modulus (GPa) = 20.59042 28.22296 24.40669
# Shear Modulus (GPa) = 22.03028 26.97810 24.50419
#
# Velocity S-wave (km/s) = 3.12606 3.45934 3.29692
# Velocity P-wave (km/s) = 4.70779 5.33623 5.03183
#
# Compressibility (1/GPa) = 0.04856627
#
# Stress axis : x y z
#
# Youngs Moduli (GPa) = 92.93253 32.20303 57.34971
#
# Poissons Ratio (x) = 0.05890 0.09863
# Poissons Ratio (y) = 0.16997 0.10284
# Poissons Ratio (z) = 0.15983 0.05775
#
# Static dielectric constant tensor:
#      x y z
#    x 1.837140 0.027940 0.020160 
#    y 0.027940 1.812730 -0.032090 
#    z 0.020160 -0.032090 1.817680 
# 
# From -- ./inp_files/18811.got.cif
#   From: 2010.05.17/outbox.cif.g08.bks.cpg/sg2_10_cif.got.tgz:18811.got - 2010.06.03 11:33:40.
