data_PCOD9036993
_publ_section_title
;
Structure prediction by ZEFSAII (Michael W. Deem and Ramdas Pophale) SiO2 
 PCOD9036993
Probable space group: P -1
;
_chemical_formula_sum "Si O2"
_cell_formula_units_Z 16
_cell_length_a 9.799582
_cell_length_b 9.839790
_cell_length_c 12.577673
_cell_angle_alpha 77.546328
_cell_angle_beta 129.441390
_cell_angle_gamma 126.215431
_cell_volume 730.428617
_symmetry_space_group_name_H-M "P -1"
_symmetry_group_IT_number 2
_symmetry_cell_setting 'triclinic'
loop_
_space_group_symop_operation_xyz
x,y,z
-x,-y,-z
loop_
_atom_site_type_symbol
_atom_site_label
_atom_site_fract_x
_atom_site_fract_y
_atom_site_fract_z
Si Si1 0.405690 0.022795 0.215374
Si Si2 0.789069 0.092743 0.550506
Si Si3 0.792310 0.369658 0.613439
Si Si4 0.773459 0.313231 0.945156
Si Si5 0.342745 0.213010 0.315707
Si Si6 0.581345 0.435845 0.694521
Si Si7 0.788344 0.262971 0.208613
Si Si8 0.931191 0.809826 0.518072
O O1 0.578661 0.027964 0.381504
O O2 0.290093 0.095883 0.206159
O O3 0.559691 0.156244 0.175605
O O4 0.254714 0.834564 0.118245
O O5 0.794694 0.204792 0.630980
O O6 0.996402 0.220270 0.554866
O O7 0.000000 0.000000 0.500000
O O8 0.609940 0.326567 0.443208
O O9 0.701274 0.401944 0.668609
O O10 0.039238 0.541828 0.693927
O O11 0.590613 0.341536 0.817897
O O12 0.760996 0.267177 0.069333
O O13 0.000000 0.500000 0.000000
O O14 0.302333 0.358767 0.269788
O O15 0.239171 0.074134 0.385395
O O16 0.324044 0.333778 0.557184
O O17 0.913341 0.180143 0.316160
#
# Coordination Sequence:
#
# PCOD9036993 Si02
#       8
#     2   2   2   2   2   2   2   2
#     4  10  23  42  64  98 132 175 219 267 328 396
#     4  10  23  39  68 100 138 167 216 271 334 394
#     4  11  21  38  69  98 131 172 219 263 326 396
#     4  12  25  44  68  91 131 185 227 256 319 407
#     4  11  22  38  68 100 136 162 216 284 332 374
#     4  12  24  41  67 102 131 168 224 273 330 379
#     4  11  24  41  70  93 135 174 223 257 329 398
#     4  11  24  40  67 104 136 163 216 283 334 374
#
# _framework density 21.904948000000001
#
# number of rings (size 3 to 8) (size 9 to 14) (size 15 to 20)
#    0.000    1.000    2.500    6.000    3.500    1.500 
#    0.000    1.250    2.750    0.000    0.000    0.000 
#    0.000    0.000    0.000    0.000    0.000    0.000 
#
# Total GULP energy -89427.474861 kJ/mol
# GULP energy per Si atom -5589.217179 kJ/mol
# Density = 2.185509 g / cm^3
# Si number density = 21.904948 Si / 1000 Ang^3
#
#
#
# Elastic Constant Matrix: (Units=GPa)
#
#
# Indices 1 2 3 4 5 6 
#
# 1 107.0435 52.2993 19.5591 5.2623 -21.9039 5.6211
# 2 52.2993 165.9537 41.8113 10.0239 -31.6005 -8.3986
# 3 19.5591 41.8113 59.5249 -2.2118 -28.9575 -3.5415
# 4 5.2623 10.0239 -2.2118 46.7522 8.7715 1.1817
# 5 -21.9039 -31.6005 -28.9575 8.7715 30.5936 0.8832
# 6 5.6211 -8.3986 -3.5415 1.1817 0.8832 31.8869
#
#
#
# Elastic Compliance Matrix: (Units=1/GPa)
#
#
# Indices 1 2 3 4 5 6 
#
# 1 0.012329 -0.002736 0.001641 -0.002203 0.008269 -0.002859
# 2 -0.002736 0.008888 -0.002652 -0.002807 0.005445 0.002482
# 3 0.001641 -0.002652 0.033082 -0.003880 0.030804 0.001977
# 4 -0.002203 -0.002807 -0.003880 0.024952 -0.015267 -0.001284
# 5 0.008269 0.005445 0.030804 -0.015267 0.077712 0.001811
# 6 -0.002859 0.002482 0.001977 -0.001284 0.001811 0.032736
#
#
# Mechanical properties :
#
#
# Convention : Reuss Voigt Hill
#
# Bulk Modulus (GPa) = 21.36490 62.20682 41.78586
# Shear Modulus (GPa) = 23.49670 36.43670 29.96670
#
# Velocity S-wave (km/s) = 3.27871 4.08291 3.70271
# Velocity P-wave (km/s) = 4.90998 7.11948 6.11535
#
# Compressibility (1/GPa) = 0.04680575
#
# Stress axis : x y z
#
# Youngs Moduli (GPa) = 81.10725 112.50865 30.22770
#
# Poissons Ratio (x) = 0.30785 -0.04961
# Poissons Ratio (y) = 0.22193 0.08016
# Poissons Ratio (z) = -0.13311 0.29838
#
# Static dielectric constant tensor:
#      x y z
#    x 1.875360 -0.015820 -0.002160 
#    y -0.015820 1.849820 -0.022420 
#    z -0.002160 -0.022420 1.848410 
# 
# From -- ./inp_files/493236.got.cif
#   From: 2010.05.17/outbox.cif.g08.bks.cpg/sg2_247_cif.got.tgz:493236.got - 2010.06.03 11:33:40.
