data_PCOD9036038
_publ_section_title
;
Structure prediction by ZEFSAII (Michael W. Deem and Ramdas Pophale) SiO2 
 PCOD9036038
Probable space group: P -1
;
_chemical_formula_sum "Si O2"
_cell_formula_units_Z 13
_cell_length_a 8.806942
_cell_length_b 8.698205
_cell_length_c 11.362110
_cell_angle_alpha 119.921352
_cell_angle_beta 139.551653
_cell_angle_gamma 71.124165
_cell_volume 486.971364
_symmetry_space_group_name_H-M "P -1"
_symmetry_group_IT_number 2
_symmetry_cell_setting 'triclinic'
loop_
_space_group_symop_operation_xyz
x,y,z
-x,-y,-z
loop_
_atom_site_type_symbol
_atom_site_label
_atom_site_fract_x
_atom_site_fract_y
_atom_site_fract_z
Si Si1 0.714851 0.873381 0.803596
Si Si2 0.242057 0.850119 0.426105
Si Si3 0.000000 0.500000 0.500000
Si Si4 0.834961 0.786318 0.579498
Si Si5 0.121559 0.663770 0.061989
Si Si6 0.372903 0.846668 0.953204
Si Si7 0.792311 0.619660 0.172615
O O1 0.444046 0.796033 0.609790
O O2 0.792135 0.873041 0.713436
O O3 0.701142 0.056154 0.934949
O O4 0.905099 0.772233 0.942703
O O5 0.290492 0.777597 0.295684
O O6 0.993144 0.758790 0.285434
O O7 0.234740 0.063636 0.494187
O O8 0.771072 0.576044 0.469991
O O9 0.879242 0.587036 0.342129
O O10 0.121584 0.758626 0.717566
O O11 0.224793 0.569919 0.976390
O O12 0.000000 0.500000 0.000000
O O13 0.554938 0.708365 0.039613
O O14 0.500000 0.000000 0.000000
#
# Coordination Sequence:
#
# PCOD9036038 Si02
#       7
#     2   2   1   2   2   2   2
#     4  12  25  46  76 112 147 202 247 309 381 451
#     4  11  25  46  83 103 152 199 261 306 373 461
#     4  12  28  46  70 110 166 188 254 310 386 446
#     4  12  26  49  71 114 151 194 252 316 371 453
#     4  10  22  47  70 110 149 189 253 308 374 439
#     4  12  25  47  82 109 148 203 256 315 374 449
#     4  11  25  48  70 117 149 202 249 315 379 447
#
# _framework density 26.695613999999999
#
# number of rings (size 3 to 8) (size 9 to 14) (size 15 to 20)
#    0.000    0.615    4.615    2.769    2.154    5.538 
#    0.000    0.000    0.000    0.000    0.000    0.000 
#    0.000    0.000    0.000    0.000    0.000    0.000 
#
# Total GULP energy -72629.679946 kJ/mol
# GULP energy per Si atom -5586.898457 kJ/mol
# Density = 2.663485 g / cm^3
# Si number density = 26.695614 Si / 1000 Ang^3
#
#
#
# Elastic Constant Matrix: (Units=GPa)
#
#
# Indices 1 2 3 4 5 6 
#
# 1 87.3577 44.0507 32.0683 -8.3665 13.3720 -8.5738
# 2 44.0507 202.6078 53.9518 -19.0959 -12.0550 -33.5282
# 3 32.0683 53.9518 159.0553 -28.8197 -4.6361 -21.7324
# 4 -8.3665 -19.0959 -28.8197 35.2855 -1.3389 0.4319
# 5 13.3720 -12.0550 -4.6361 -1.3389 42.2599 1.9305
# 6 -8.5738 -33.5282 -21.7324 0.4319 1.9305 55.9553
#
#
#
# Elastic Compliance Matrix: (Units=1/GPa)
#
#
# Indices 1 2 3 4 5 6 
#
# 1 0.014578 -0.002980 -0.002141 -0.000119 -0.005693 -0.000186
# 2 -0.002980 0.006684 -0.000725 0.002383 0.002701 0.003155
# 3 -0.002141 -0.000725 0.008426 0.006009 0.001475 0.002413
# 4 -0.000119 0.002383 0.006009 0.034555 0.002316 0.003396
# 5 -0.005693 0.002701 0.001475 0.002316 0.026453 0.000389
# 6 -0.000186 0.003155 0.002413 0.003396 0.000389 0.020631
#
#
# Mechanical properties :
#
#
# Convention : Reuss Voigt Hill
#
# Bulk Modulus (GPa) = 55.56895 78.79581 67.18238
# Shear Modulus (GPa) = 38.75449 47.96347 43.35898
#
# Velocity S-wave (km/s) = 3.81427 4.24332 4.03451
# Velocity P-wave (km/s) = 6.34501 7.32040 6.85009
#
# Compressibility (1/GPa) = 0.01799566
#
# Stress axis : x y z
#
# Youngs Moduli (GPa) = 68.59810 149.61064 118.67910
#
# Poissons Ratio (x) = 0.44584 0.25411
# Poissons Ratio (y) = 0.20442 0.08602
# Poissons Ratio (z) = 0.14688 0.10844
#
# Static dielectric constant tensor:
#      x y z
#    x 2.155900 -0.022210 -0.004380 
#    y -0.022210 1.186290 -0.577040 
#    z -0.004380 -0.577040 1.639350 
# 
# From -- ./inp_files/173744.got.cif
#   From: 2010.05.17/outbox.cif.g08.bks.cpg/sg2_87_cif.got.tgz:173744.got - 2010.06.03 11:33:40.
