data_PCOD9036803
_publ_section_title
;
Structure prediction by ZEFSAII (Michael W. Deem and Ramdas Pophale) SiO2 
 PCOD9036803
Probable space group: P -1
;
_chemical_formula_sum "Si O2"
_cell_formula_units_Z 14
_cell_length_a 24.260251
_cell_length_b 14.243185
_cell_length_c 6.966715
_cell_angle_alpha 52.240739
_cell_angle_beta 52.038659
_cell_angle_gamma 20.728710
_cell_volume 665.835125
_symmetry_space_group_name_H-M "P -1"
_symmetry_group_IT_number 2
_symmetry_cell_setting 'triclinic'
loop_
_space_group_symop_operation_xyz
x,y,z
-x,-y,-z
loop_
_atom_site_type_symbol
_atom_site_label
_atom_site_fract_x
_atom_site_fract_y
_atom_site_fract_z
Si Si1 0.570022 0.995900 0.226055
Si Si2 0.864192 0.514763 0.443380
Si Si3 0.161568 0.190682 0.376103
Si Si4 0.230619 0.359014 0.090259
Si Si5 0.998280 0.143963 0.307177
Si Si6 0.279593 0.864474 0.883031
Si Si7 0.447530 0.721352 0.060557
O O1 0.740985 0.760083 0.253266
O O2 0.500000 0.000000 0.500000
O O3 0.480375 0.256127 0.109513
O O4 0.606656 0.897493 0.055972
O O5 0.774269 0.614051 0.705841
O O6 0.004541 0.389128 0.356395
O O7 0.941042 0.287943 0.450012
O O8 0.163784 0.327058 0.242953
O O9 0.182028 0.088033 0.658651
O O10 0.313025 0.925489 0.254885
O O11 0.124358 0.618918 0.885805
O O12 0.000000 0.000000 0.500000
O O13 0.165463 0.947068 0.136092
O O14 0.364068 0.820696 0.911599
O O15 0.415787 0.583549 0.834931
#
# Coordination Sequence:
#
# PCOD9036803 Si02
#       7
#     2   2   2   2   2   2   2
#     4  10  24  41  63  91 128 164 207 252 309 376
#     4  11  22  40  67  92 120 163 205 262 311 355
#     4  11  21  40  67  98 119 152 216 261 308 365
#     4  10  23  40  67  94 121 158 207 265 307 363
#     4  11  25  40  61  92 129 166 208 250 309 372
#     4  11  22  40  65  89 129 164 205 256 305 370
#     4  10  23  39  62  92 126 169 200 253 315 362
#
# _framework density 21.026226999999999
#
# number of rings (size 3 to 8) (size 9 to 14) (size 15 to 20)
#    0.000    1.429    2.857    1.714    6.000    2.857 
#    0.000    0.000    0.000    0.000    0.000    0.000 
#    0.000    0.000    0.000    0.000    0.000    0.000 
#
# Total GULP energy -78261.638549 kJ/mol
# GULP energy per Si atom -5590.117039 kJ/mol
# Density = 2.097837 g / cm^3
# Si number density = 21.026227 Si / 1000 Ang^3
#
#
#
# Elastic Constant Matrix: (Units=GPa)
#
#
# Indices 1 2 3 4 5 6 
#
# 1 63.4474 30.0546 47.0832 -4.1959 1.1113 15.5753
# 2 30.0546 91.6616 34.1982 5.2562 1.9387 29.1916
# 3 47.0832 34.1982 119.7256 12.6288 1.1722 21.4226
# 4 -4.1959 5.2562 12.6288 38.6162 3.0834 7.1766
# 5 1.1113 1.9387 1.1722 3.0834 37.9940 0.2375
# 6 15.5753 29.1916 21.4226 7.1766 0.2375 35.2664
#
#
#
# Elastic Compliance Matrix: (Units=1/GPa)
#
#
# Indices 1 2 3 4 5 6 
#
# 1 0.025925 -0.004298 -0.009022 0.007135 -0.000816 -0.003858
# 2 -0.004298 0.016151 -0.000948 -0.000296 -0.000577 -0.010831
# 3 -0.009022 -0.000948 0.013062 -0.004738 0.000308 -0.002203
# 4 0.007135 -0.000296 -0.004738 0.029574 -0.002410 -0.006030
# 5 -0.000816 -0.000577 0.000308 -0.002410 0.026553 0.000963
# 6 -0.003858 -0.010831 -0.002203 -0.006030 0.000963 0.041583
#
#
# Mechanical properties :
#
#
# Convention : Reuss Voigt Hill
#
# Bulk Modulus (GPa) = 37.59033 55.27854 46.43443
# Shear Modulus (GPa) = 26.28085 33.27523 29.77804
#
# Velocity S-wave (km/s) = 3.53924 3.98245 3.76737
# Velocity P-wave (km/s) = 5.88373 6.89158 6.40750
#
# Compressibility (1/GPa) = 0.02660259
#
# Stress axis : x y z
#
# Youngs Moduli (GPa) = 38.57266 61.91510 76.55643
#
# Poissons Ratio (x) = 0.26608 0.69069
# Poissons Ratio (y) = 0.16577 0.07261
# Poissons Ratio (z) = 0.34800 0.05873
#
# Static dielectric constant tensor:
#      x y z
#    x 1.746860 -0.019320 -0.006660 
#    y -0.019320 1.773270 0.042800 
#    z -0.006660 0.042800 1.751020 
# 
# From -- ./inp_files/71083.got.cif
#   From: 2010.05.17/outbox.cif.g08.bks.cpg/sg2_36_cif.got.tgz:71083.got - 2010.06.03 11:33:40.
