data_PCOD9036378
_publ_section_title
;
Structure prediction by ZEFSAII (Michael W. Deem and Ramdas Pophale) SiO2 
 PCOD9036378
Probable space group: P -1
;
_chemical_formula_sum "Si O2"
_cell_formula_units_Z 16
_cell_length_a 7.290384
_cell_length_b 13.584105
_cell_length_c 15.028874
_cell_angle_alpha 140.689717
_cell_angle_beta 97.962180
_cell_angle_gamma 54.885086
_cell_volume 621.883245
_symmetry_space_group_name_H-M "P -1"
_symmetry_group_IT_number 2
_symmetry_cell_setting 'triclinic'
loop_
_space_group_symop_operation_xyz
x,y,z
-x,-y,-z
loop_
_atom_site_type_symbol
_atom_site_label
_atom_site_fract_x
_atom_site_fract_y
_atom_site_fract_z
Si Si1 0.365463 0.386508 0.706181
Si Si2 0.609758 0.268681 0.882203
Si Si3 0.322381 0.173603 0.328835
Si Si4 0.901986 0.845473 0.090006
Si Si5 0.700401 0.162043 0.140595
Si Si6 0.164639 0.603226 0.648323
Si Si7 0.699361 0.492989 0.798432
Si Si8 0.276320 0.108426 0.473946
O O1 0.220982 0.519806 0.695289
O O2 0.591378 0.381971 0.723728
O O3 0.456727 0.149292 0.541785
O O4 0.123252 0.574149 0.892148
O O5 0.618801 0.130343 0.710928
O O6 0.500000 0.500000 0.000000
O O7 0.405072 0.361337 0.015858
O O8 0.916112 0.122830 0.839236
O O9 0.275219 0.384037 0.450723
O O10 0.180258 0.215617 0.441468
O O11 0.159487 0.180804 0.247889
O O12 0.651256 0.951247 0.209405
O O13 0.743058 0.994552 0.093191
O O14 0.677159 0.337201 0.316189
O O15 0.461562 0.319395 0.161307
O O16 0.000000 0.000000 0.000000
O O17 0.016177 0.280799 0.642910
#
# Coordination Sequence:
#
# PCOD9036378 Si02
#       8
#     2   2   2   2   2   2   2   2
#     4   9  21  41  60  98 136 174 224 272 330 399
#     4  11  26  49  73 100 128 175 236 285 343 399
#     4  10  23  35  57  97 137 174 225 266 332 402
#     4  11  23  39  67  96 144 179 218 289 325 401
#     4  11  19  36  62  96 134 185 218 264 341 399
#     4   9  19  35  49  91 136 176 223 258 316 410
#     4  10  24  45  70  99 142 176 226 276 334 412
#     4  11  25  42  72  96 133 184 218 283 340 400
#
# _framework density 25.728300999999998
#
# number of rings (size 3 to 8) (size 9 to 14) (size 15 to 20)
#    0.000    1.750    3.750    0.750   12.250    1.500 
#    0.000    3.125    0.000    0.000    0.000    0.000 
#    0.000    0.000    0.000    0.000    0.000    0.000 
#
# Total GULP energy -89448.569739 kJ/mol
# GULP energy per Si atom -5590.535609 kJ/mol
# Density = 2.566974 g / cm^3
# Si number density = 25.728301 Si / 1000 Ang^3
#
#
#
# Elastic Constant Matrix: (Units=GPa)
#
#
# Indices 1 2 3 4 5 6 
#
# 1 87.5540 30.5737 78.9534 -7.1854 1.5801 2.6815
# 2 30.5737 58.8838 43.5984 4.0838 2.8192 -13.3247
# 3 78.9534 43.5984 139.2632 2.1309 11.2583 -8.1775
# 4 -7.1854 4.0838 2.1309 47.9576 7.4616 11.7880
# 5 1.5801 2.8192 11.2583 7.4616 62.8245 7.6242
# 6 2.6815 -13.3247 -8.1775 11.7880 7.6242 26.1555
#
#
#
# Elastic Compliance Matrix: (Units=1/GPa)
#
#
# Indices 1 2 3 4 5 6 
#
# 1 0.029946 -0.008822 -0.015697 0.009795 0.003464 -0.017896
# 2 -0.008822 0.028253 -0.002472 -0.007902 -0.001928 0.018648
# 3 -0.015697 -0.002472 0.017705 -0.004618 -0.003199 0.008899
# 4 0.009795 -0.007902 -0.004618 0.027883 -0.000068 -0.019020
# 5 0.003464 -0.001928 -0.003199 -0.000068 0.017393 -0.007377
# 6 -0.017896 0.018648 0.008899 -0.019020 -0.007377 0.063072
#
#
# Mechanical properties :
#
#
# Convention : Reuss Voigt Hill
#
# Bulk Modulus (GPa) = 45.61150 65.77244 55.69197
# Shear Modulus (GPa) = 20.36309 36.22589 28.29449
#
# Velocity S-wave (km/s) = 2.81635 3.75643 3.31983
# Velocity P-wave (km/s) = 5.32376 6.66589 6.03227
#
# Compressibility (1/GPa) = 0.02192430
#
# Stress axis : x y z
#
# Youngs Moduli (GPa) = 33.39324 35.39392 56.48010
#
# Poissons Ratio (x) = 0.31223 0.88655
# Poissons Ratio (y) = 0.29458 0.13963
# Poissons Ratio (z) = 0.52416 0.08750
#
# Static dielectric constant tensor:
#      x y z
#    x 2.033490 -0.000540 0.035870 
#    y -0.000540 2.096090 0.026770 
#    z 0.035870 0.026770 2.085500 
# 
# From -- ./inp_files/561178.got.cif
#   From: 2010.05.17/outbox.cif.g08.bks.cpg/sg2_281_cif.got.tgz:561178.got - 2010.06.03 11:33:40.
