data_PCOD9036842
_publ_section_title
;
Structure prediction by ZEFSAII (Michael W. Deem and Ramdas Pophale) SiO2 
 PCOD9036842
Probable space group: P -1
;
_chemical_formula_sum "Si O2"
_cell_formula_units_Z 14
_cell_length_a 10.219548
_cell_length_b 10.370006
_cell_length_c 16.027350
_cell_angle_alpha 83.112428
_cell_angle_beta 114.607994
_cell_angle_gamma 40.433243
_cell_volume 672.660745
_symmetry_space_group_name_H-M "P -1"
_symmetry_group_IT_number 2
_symmetry_cell_setting 'triclinic'
loop_
_space_group_symop_operation_xyz
x,y,z
-x,-y,-z
loop_
_atom_site_type_symbol
_atom_site_label
_atom_site_fract_x
_atom_site_fract_y
_atom_site_fract_z
Si Si1 0.125736 0.785163 0.113127
Si Si2 0.634302 0.256670 0.087747
Si Si3 0.316280 0.621742 0.580085
Si Si4 0.561087 0.848390 0.455090
Si Si5 0.246349 0.417428 0.083753
Si Si6 0.176356 0.190670 0.618341
Si Si7 0.830939 0.082208 0.626063
O O1 0.480247 0.526805 0.269478
O O2 0.122867 0.644558 0.083281
O O3 0.877734 0.993754 0.108300
O O4 0.000000 0.000000 0.000000
O O5 0.345830 0.393986 0.022757
O O6 0.500000 0.500000 0.000000
O O7 0.827197 0.141687 0.231483
O O8 0.571347 0.360614 0.598379
O O9 0.206009 0.842914 0.485711
O O10 0.035301 0.739994 0.498011
O O11 0.619563 0.876595 0.381201
O O12 0.257886 0.994664 0.372949
O O13 0.903415 0.488381 0.578167
O O14 0.500000 0.000000 0.500000
O O15 0.569884 0.095905 0.237467
O O16 0.000000 0.500000 0.000000
#
# Coordination Sequence:
#
# PCOD9036842 Si02
#       7
#     2   2   2   2   2   2   2
#     4  11  25  44  72 104 133 182 236 280 344 420
#     4  11  23  45  69  94 135 182 231 286 343 400
#     4   9  19  39  70  94 129 164 228 278 327 399
#     4  10  23  39  63  98 135 167 211 277 345 408
#     4  12  28  45  66  99 144 184 230 286 343 408
#     4  10  23  44  63  97 134 176 218 283 341 391
#     4   9  19  38  66  98 125 170 219 283 330 396
#
# _framework density 20.81287
#
# number of rings (size 3 to 8) (size 9 to 14) (size 15 to 20)
#    0.000    1.714    2.857    0.000    6.000    4.571 
#    2.571    0.000    0.000    0.000    0.000    0.000 
#    0.000    0.000    0.000    0.000    0.000    0.000 
#
# Total GULP energy -78143.509191 kJ/mol
# GULP energy per Si atom -5581.679228 kJ/mol
# Density = 2.076550 g / cm^3
# Si number density = 20.812870 Si / 1000 Ang^3
#
#
#
# Elastic Constant Matrix: (Units=GPa)
#
#
# Indices 1 2 3 4 5 6 
#
# 1 164.7705 34.2277 55.5594 7.1117 11.8379 17.2947
# 2 34.2277 143.9253 31.4634 -0.2045 1.1940 15.1259
# 3 55.5594 31.4634 98.8573 6.2898 -4.7924 16.8808
# 4 7.1117 -0.2045 6.2898 27.1608 6.0276 -2.0974
# 5 11.8379 1.1940 -4.7924 6.0276 36.6969 1.4240
# 6 17.2947 15.1259 16.8808 -2.0974 1.4240 35.4463
#
#
#
# Elastic Compliance Matrix: (Units=1/GPa)
#
#
# Indices 1 2 3 4 5 6 
#
# 1 0.008016 -0.000830 -0.004081 -0.000628 -0.002929 -0.001533
# 2 -0.000830 0.007733 -0.001691 0.000557 -0.000217 -0.002048
# 3 -0.004081 -0.001691 0.014102 -0.003422 0.003945 -0.004364
# 4 -0.000628 0.000557 -0.003422 0.039654 -0.006943 0.004324
# 5 -0.002929 -0.000217 0.003945 -0.006943 0.029934 -0.001970
# 6 -0.001533 -0.002048 -0.004364 0.004324 -0.001970 0.032247
#
#
# Mechanical properties :
#
#
# Convention : Reuss Voigt Hill
#
# Bulk Modulus (GPa) = 60.07297 72.22824 66.15061
# Shear Modulus (GPa) = 33.23618 38.94764 36.09191
#
# Velocity S-wave (km/s) = 4.00047 4.33057 4.16879
# Velocity P-wave (km/s) = 7.08973 7.73202 7.41783
#
# Compressibility (1/GPa) = 0.01664642
#
# Stress axis : x y z
#
# Youngs Moduli (GPa) = 124.74962 129.31821 70.91327
#
# Poissons Ratio (x) = 0.10728 0.28942
# Poissons Ratio (y) = 0.10349 0.11992
# Poissons Ratio (z) = 0.50915 0.21869
#
# Static dielectric constant tensor:
#      x y z
#    x 1.766060 -0.012570 -0.007620 
#    y -0.012570 1.771160 -0.028880 
#    z -0.007620 -0.028880 1.750960 
# 
# From -- ./inp_files/557187.got.cif
#   From: 2010.05.17/outbox.cif.g08.bks.cpg/sg2_279_cif.got.tgz:557187.got - 2010.06.03 11:33:40.
