data_PCOD9036344
_publ_section_title
;
Structure prediction by ZEFSAII (Michael W. Deem and Ramdas Pophale) SiO2 
 PCOD9036344
Probable space group: P -1
;
_chemical_formula_sum "Si O2"
_cell_formula_units_Z 15
_cell_length_a 9.210903
_cell_length_b 20.105768
_cell_length_c 9.080052
_cell_angle_alpha 138.153505
_cell_angle_beta 136.282327
_cell_angle_gamma 30.478206
_cell_volume 552.562806
_symmetry_space_group_name_H-M "P -1"
_symmetry_group_IT_number 2
_symmetry_cell_setting 'triclinic'
loop_
_space_group_symop_operation_xyz
x,y,z
-x,-y,-z
loop_
_atom_site_type_symbol
_atom_site_label
_atom_site_fract_x
_atom_site_fract_y
_atom_site_fract_z
Si Si1 0.290537 0.832669 0.444923
Si Si2 0.745174 0.841736 0.737017
Si Si3 0.836854 0.433968 0.551904
Si Si4 0.779449 0.985153 0.767203
Si Si5 0.361289 0.728564 0.647716
Si Si6 0.000000 0.500000 0.500000
Si Si7 0.039201 0.707257 0.005929
Si Si8 0.778611 0.725016 0.149825
O O1 0.526113 0.822928 0.521101
O O2 0.412491 0.765165 0.587604
O O3 0.000000 0.000000 0.500000
O O4 0.249967 0.733968 0.193327
O O5 0.059699 0.705112 0.671713
O O6 0.678638 0.964683 0.808684
O O7 0.772388 0.838134 0.925776
O O8 0.969367 0.472966 0.601799
O O9 0.507072 0.425508 0.490958
O O10 0.002316 0.388923 0.754346
O O11 0.010893 0.848944 0.611573
O O12 0.471569 0.123164 0.702620
O O13 0.000000 0.000000 0.000000
O O14 0.557350 0.720743 0.899871
O O15 0.888816 0.422371 0.231216
O O16 0.951376 0.717081 0.126164
#
# Coordination Sequence:
#
# PCOD9036344 Si02
#       8
#     2   2   2   2   2   1   2   2
#     4  12  28  46  83 121 164 220 276 333 420 497
#     4  11  26  51  78 114 167 213 274 340 406 489
#     4  11  24  46  82 111 159 217 263 340 412 480
#     4  10  26  45  76 117 159 210 267 337 410 484
#     4  11  24  49  74 119 166 201 276 337 404 499
#     4  10  22  50  78 116 162 212 276 336 402 482
#     4  11  25  48  82 118 162 220 272 344 407 494
#     4  11  23  46  82 112 164 212 268 340 414 478
#
# _framework density 27.146235000000001
#
# number of rings (size 3 to 8) (size 9 to 14) (size 15 to 20)
#    0.000    1.067    2.667    2.000    7.467    3.200 
#    0.000   10.667    0.000    0.000    0.000    0.000 
#    0.000    0.000    0.000    0.000    0.000    0.000 
#
# Total GULP energy -83654.488233 kJ/mol
# GULP energy per Si atom -5576.965882 kJ/mol
# Density = 2.708445 g / cm^3
# Si number density = 27.146235 Si / 1000 Ang^3
#
#
#
# Elastic Constant Matrix: (Units=GPa)
#
#
# Indices 1 2 3 4 5 6 
#
# 1 129.7484 55.2584 83.6267 -9.0333 21.6032 29.2575
# 2 55.2584 187.6845 65.9718 -4.8453 -3.6016 14.2353
# 3 83.6267 65.9718 139.3922 -22.5626 12.0744 11.9060
# 4 -9.0333 -4.8453 -22.5626 34.0448 0.5363 -12.5309
# 5 21.6032 -3.6016 12.0744 0.5363 48.9542 -6.6422
# 6 29.2575 14.2353 11.9060 -12.5309 -6.6422 68.2131
#
#
#
# Elastic Compliance Matrix: (Units=1/GPa)
#
#
# Indices 1 2 3 4 5 6 
#
# 1 0.015876 -0.001451 -0.008406 -0.003794 -0.005853 -0.006306
# 2 -0.001451 0.006713 -0.002643 -0.001355 0.001747 -0.000396
# 3 -0.008406 -0.002643 0.014495 0.008156 0.000278 0.003152
# 4 -0.003794 -0.001355 0.008156 0.036209 0.000137 0.007151
# 5 -0.005853 0.001747 0.000278 0.000137 0.023669 0.004427
# 6 -0.006306 -0.000396 0.003152 0.007151 0.004427 0.018642
#
#
# Mechanical properties :
#
#
# Convention : Reuss Voigt Hill
#
# Bulk Modulus (GPa) = 82.76558 96.28212 89.52385
# Shear Modulus (GPa) = 34.57041 47.04030 40.80536
#
# Velocity S-wave (km/s) = 3.57247 4.16727 3.88128
# Velocity P-wave (km/s) = 6.89722 7.66158 7.28942
#
# Compressibility (1/GPa) = 0.01208232
#
# Stress axis : x y z
#
# Youngs Moduli (GPa) = 62.98931 148.96211 68.99017
#
# Poissons Ratio (x) = 0.21620 0.57993
# Poissons Ratio (y) = 0.09142 0.18236
# Poissons Ratio (z) = 0.52949 0.39375
#
# Static dielectric constant tensor:
#      x y z
#    x 1.723050 0.212580 0.081100 
#    y 0.212580 2.077140 0.098950 
#    z 0.081100 0.098950 2.258390 
# 
# From -- ./inp_files/213956.got.cif
#   From: 2010.05.17/outbox.cif.g08.bks.cpg/sg2_107_cif.got.tgz:213956.got - 2010.06.03 11:33:40.
