data_PCOD9036360
_publ_section_title
;
Structure prediction by ZEFSAII (Michael W. Deem and Ramdas Pophale) SiO2 
 PCOD9036360
Probable space group: P -1
;
_chemical_formula_sum "Si O2"
_cell_formula_units_Z 14
_cell_length_a 10.242319
_cell_length_b 5.560491
_cell_length_c 16.924296
_cell_angle_alpha 114.173070
_cell_angle_beta 42.246732
_cell_angle_gamma 116.776542
_cell_volume 573.893478
_symmetry_space_group_name_H-M "P -1"
_symmetry_group_IT_number 2
_symmetry_cell_setting 'triclinic'
loop_
_space_group_symop_operation_xyz
x,y,z
-x,-y,-z
loop_
_atom_site_type_symbol
_atom_site_label
_atom_site_fract_x
_atom_site_fract_y
_atom_site_fract_z
Si Si1 0.327806 0.117406 0.841889
Si Si2 0.709870 0.469692 0.780323
Si Si3 0.721709 0.087329 0.875054
Si Si4 0.721749 0.059885 0.596422
Si Si5 0.738676 0.094645 0.417769
Si Si6 0.739144 0.600804 0.422505
Si Si7 0.959563 0.206565 0.940735
O O1 0.490015 0.964543 0.715291
O O2 0.478658 0.393967 0.841636
O O3 0.200306 0.988275 0.956778
O O4 0.172360 0.131438 0.844496
O O5 0.772545 0.795851 0.790381
O O6 0.718990 0.310165 0.837495
O O7 0.810243 0.290121 0.651250
O O8 0.865193 0.209122 0.898648
O O9 0.500000 0.000000 0.000000
O O10 0.750111 0.200658 0.517044
O O11 0.776384 0.779919 0.510388
O O12 0.816610 0.823660 0.351147
O O13 0.500000 0.000000 0.500000
O O14 0.826728 0.340075 0.353843
O O15 0.500000 0.500000 0.500000
O O16 0.000000 0.500000 0.000000
#
# Coordination Sequence:
#
# PCOD9036360 Si02
#       7
#     2   2   2   2   2   2   2
#     4   9  21  36  50  76 101 141 173 214 269 296
#     4  10  23  34  54  77 100 137 171 213 269 298
#     4  12  22  37  54  73 100 134 181 219 258 314
#     4   8  18  29  49  70 110 130 167 207 262 306
#     4   8  14  24  43  68 101 133 157 195 252 308
#     4   8  14  24  42  68  99 133 154 194 250 307
#     4  11  23  35  55  70 104 139 184 216 262 305
#
# _framework density 24.394772
#
# number of rings (size 3 to 8) (size 9 to 14) (size 15 to 20)
#    1.714    0.857    1.429    1.286    6.000    1.143 
#    0.000    0.000    0.000    0.000    0.000    0.000 
#    0.000    6.857    0.000    0.000    0.000    0.000 
#
# Total GULP energy -77998.589967 kJ/mol
# GULP energy per Si atom -5571.327855 kJ/mol
# Density = 2.433925 g / cm^3
# Si number density = 24.394772 Si / 1000 Ang^3
#
#
#
# Elastic Constant Matrix: (Units=GPa)
#
#
# Indices 1 2 3 4 5 6 
#
# 1 117.1561 31.8398 51.5237 -0.0751 4.8595 3.2654
# 2 31.8398 151.7642 17.5701 3.0171 0.6311 -11.2391
# 3 51.5237 17.5701 61.2356 5.6122 0.1238 8.2715
# 4 -0.0751 3.0171 5.6122 33.6487 2.6817 7.5309
# 5 4.8595 0.6311 0.1238 2.6817 41.1626 1.9390
# 6 3.2654 -11.2391 8.2715 7.5309 1.9390 49.6445
#
#
#
# Elastic Compliance Matrix: (Units=1/GPa)
#
#
# Indices 1 2 3 4 5 6 
#
# 1 0.014202 -0.001629 -0.011732 0.002189 -0.001777 0.000389
# 2 -0.001629 0.007202 -0.000882 -0.000960 0.000052 0.002028
# 3 -0.011732 -0.000882 0.027272 -0.003861 0.001731 -0.003454
# 4 0.002189 -0.000960 -0.003861 0.031612 -0.002083 -0.004432
# 5 -0.001777 0.000052 0.001731 -0.002083 0.024671 -0.000807
# 6 0.000389 0.002028 -0.003454 -0.004432 -0.000807 0.021856
#
#
# Mechanical properties :
#
#
# Convention : Reuss Voigt Hill
#
# Bulk Modulus (GPa) = 49.52895 59.11367 54.32131
# Shear Modulus (GPa) = 30.85839 40.17264 35.51552
#
# Velocity S-wave (km/s) = 3.56049 4.06245 3.81972
# Velocity P-wave (km/s) = 6.10327 6.80363 6.46294
#
# Compressibility (1/GPa) = 0.02019021
#
# Stress axis : x y z
#
# Youngs Moduli (GPa) = 70.41240 138.84904 36.66826
#
# Poissons Ratio (x) = 0.22613 0.43019
# Poissons Ratio (y) = 0.11468 0.03235
# Poissons Ratio (z) = 0.82607 0.12249
#
# Static dielectric constant tensor:
#      x y z
#    x 2.137930 0.014900 -0.072440 
#    y 0.014900 1.997600 0.007030 
#    z -0.072440 0.007030 1.915380 
# 
# From -- ./inp_files/552788.got.cif
#   From: 2010.05.17/outbox.cif.g08.bks.cpg/sg2_277_cif.got.tgz:552788.got - 2010.06.03 11:33:40.
