data_PCOD9036699
_publ_section_title
;
Structure prediction by ZEFSAII (Michael W. Deem and Ramdas Pophale) SiO2 
 PCOD9036699
Probable space group: P -1
;
_chemical_formula_sum "Si O2"
_cell_formula_units_Z 16
_cell_length_a 12.047969
_cell_length_b 9.653449
_cell_length_c 17.024285
_cell_angle_alpha 37.645794
_cell_angle_beta 37.714202
_cell_angle_gamma 49.017603
_cell_volume 737.479401
_symmetry_space_group_name_H-M "P -1"
_symmetry_group_IT_number 2
_symmetry_cell_setting 'triclinic'
loop_
_space_group_symop_operation_xyz
x,y,z
-x,-y,-z
loop_
_atom_site_type_symbol
_atom_site_label
_atom_site_fract_x
_atom_site_fract_y
_atom_site_fract_z
Si Si1 0.459252 0.054711 0.406232
Si Si2 0.651552 0.603435 0.448179
Si Si3 0.619845 0.290383 0.064914
Si Si4 0.695561 0.077725 0.833090
Si Si5 0.205255 0.433641 0.436274
Si Si6 0.493918 0.152798 0.767337
Si Si7 0.881517 0.722233 0.995529
Si Si8 0.010061 0.257790 0.900969
O O1 0.574309 0.215561 0.213660
O O2 0.271954 0.210032 0.450365
O O3 0.500000 0.000000 0.500000
O O4 0.496543 0.811144 0.453367
O O5 0.752326 0.597806 0.480460
O O6 0.431762 0.634363 0.414135
O O7 0.807380 0.651784 0.276842
O O8 0.585769 0.062284 0.134889
O O9 0.500000 0.500000 0.000000
O O10 0.824091 0.368950 0.918713
O O11 0.697684 0.338361 0.741820
O O12 0.672139 0.066217 0.757681
O O13 0.500000 0.000000 0.000000
O O14 0.855578 0.918901 0.855655
O O15 0.000000 0.500000 0.500000
O O16 0.328611 0.276565 0.857030
O O17 0.986176 0.761445 0.999229
O O18 0.000000 0.500000 0.000000
O O19 0.000000 0.000000 0.000000
#
# Coordination Sequence:
#
# PCOD9036699 Si02
#       8
#     2   2   2   2   2   2   2   2
#     4  10  23  42  67 103 137 183 238 291 358 432
#     4  10  23  46  69  97 141 184 236 295 363 430
#     4  12  28  44  76 105 144 192 242 300 369 441
#     4   9  22  41  64  93 137 181 225 281 353 420
#     4  10  23  38  68  98 136 180 230 292 353 421
#     4  10  23  48  70 102 143 195 232 298 367 434
#     4  11  25  41  71 106 141 185 240 295 357 428
#     4  12  25  46  71 105 139 187 240 303 360 430
#
# _framework density 21.695522
#
# number of rings (size 3 to 8) (size 9 to 14) (size 15 to 20)
#    0.000    1.500    2.500    0.000    8.750    6.000 
#    0.000    0.625    0.000    0.000    0.000    0.000 
#    0.000    0.000    0.000    0.000    0.000    0.000 
#
# Total GULP energy -89087.147470 kJ/mol
# GULP energy per Si atom -5567.946717 kJ/mol
# Density = 2.164614 g / cm^3
# Si number density = 21.695522 Si / 1000 Ang^3
#
#
#
# Elastic Constant Matrix: (Units=GPa)
#
#
# Indices 1 2 3 4 5 6 
#
# 1 128.1656 95.3230 41.0290 -7.0951 2.4711 -8.2075
# 2 95.3230 138.3595 39.4193 -2.8075 20.9462 -19.3723
# 3 41.0290 39.4193 94.8314 -14.8583 9.6027 -1.3460
# 4 -7.0951 -2.8075 -14.8583 29.9331 -3.6189 6.3819
# 5 2.4711 20.9462 9.6027 -3.6189 34.8912 -1.6090
# 6 -8.2075 -19.3723 -1.3460 6.3819 -1.6090 41.9692
#
#
#
# Elastic Compliance Matrix: (Units=1/GPa)
#
#
# Indices 1 2 3 4 5 6 
#
# 1 0.018613 -0.013570 -0.002717 0.003355 0.007789 -0.002922
# 2 -0.013570 0.019524 -0.001875 -0.004999 -0.010455 0.006658
# 3 -0.002717 -0.001875 0.013624 0.006134 -0.001886 -0.001965
# 4 0.003355 -0.004999 0.006134 0.038888 0.004778 -0.007185
# 5 0.007789 -0.010455 -0.001886 0.004778 0.035274 -0.002737
# 6 -0.002922 0.006658 -0.001965 -0.007185 -0.002737 0.027253
#
#
# Mechanical properties :
#
#
# Convention : Reuss Voigt Hill
#
# Bulk Modulus (GPa) = 64.77400 79.21100 71.99250
# Shear Modulus (GPa) = 25.68775 33.73104 29.70939
#
# Velocity S-wave (km/s) = 3.44468 3.94730 3.70453
# Velocity P-wave (km/s) = 6.76327 7.57394 7.18005
#
# Compressibility (1/GPa) = 0.01543829
#
# Stress axis : x y z
#
# Youngs Moduli (GPa) = 53.72597 51.21880 73.40017
#
# Poissons Ratio (x) = 0.69502 0.19942
# Poissons Ratio (y) = 0.72904 0.13762
# Poissons Ratio (z) = 0.14596 0.09603
#
# Static dielectric constant tensor:
#      x y z
#    x 1.640030 -0.025200 -0.078740 
#    y -0.025200 1.802090 0.074990 
#    z -0.078740 0.074990 1.792330 
# 
# From -- ./inp_files/515040.got.cif
#   From: 2010.05.17/outbox.cif.g08.bks.cpg/sg2_258_cif.got.tgz:515040.got - 2010.06.03 11:33:40.
