data_PCOD9036284
_publ_section_title
;
Structure prediction by ZEFSAII (Michael W. Deem and Ramdas Pophale) SiO2 
 PCOD9036284
Probable space group: P -1
;
_chemical_formula_sum "Si O2"
_cell_formula_units_Z 12
_cell_length_a 18.774754
_cell_length_b 10.138511
_cell_length_c 11.934851
_cell_angle_alpha 50.466898
_cell_angle_beta 23.693849
_cell_angle_gamma 33.995497
_cell_volume 427.645158
_symmetry_space_group_name_H-M "P -1"
_symmetry_group_IT_number 2
_symmetry_cell_setting 'triclinic'
loop_
_space_group_symop_operation_xyz
x,y,z
-x,-y,-z
loop_
_atom_site_type_symbol
_atom_site_label
_atom_site_fract_x
_atom_site_fract_y
_atom_site_fract_z
Si Si1 0.515240 0.287472 0.116237
Si Si2 0.371513 0.919895 0.181544
Si Si3 0.727854 0.979115 0.194781
Si Si4 0.618702 0.224799 0.440142
Si Si5 0.095939 0.685637 0.188415
Si Si6 0.049626 0.490898 0.160795
O O1 0.565242 0.616656 0.117485
O O2 0.194413 0.467272 0.522899
O O3 0.500000 0.500000 0.000000
O O4 0.611235 0.121361 0.953014
O O5 0.048523 0.172094 0.560791
O O6 0.500000 0.000000 0.000000
O O7 0.626085 0.200543 0.308865
O O8 0.500000 0.000000 0.500000
O O9 0.977163 0.690000 0.061946
O O10 0.741554 0.054221 0.013348
O O11 0.500000 0.500000 0.500000
O O12 0.918446 0.953612 0.220200
O O13 0.399514 0.235502 0.783236
O O14 0.001891 0.589617 0.304124
#
# Coordination Sequence:
#
# PCOD9036284 Si02
#       6
#     2   2   2   2   2   2
#     4  11  26  46  74 113 160 202 258 320 396 466
#     4  12  25  47  78 111 155 208 257 319 389 474
#     4   9  23  46  71 106 153 205 255 316 387 466
#     4  11  25  45  82 114 150 200 268 326 383 461
#     4  11  24  45  81 113 153 198 264 322 394 452
#     4  10  22  48  78 106 152 202 259 318 389 453
#
# _framework density 28.060649999999999
#
# number of rings (size 3 to 8) (size 9 to 14) (size 15 to 20)
#    0.000    1.333    3.333    0.500    2.333    6.667 
#    3.000    0.833    3.667    0.000    0.000    0.000 
#    0.000    0.000    0.000    0.000    0.000    0.000 
#
# Total GULP energy -67122.250826 kJ/mol
# GULP energy per Si atom -5593.520902 kJ/mol
# Density = 2.799678 g / cm^3
# Si number density = 28.060650 Si / 1000 Ang^3
#
#
#
# Elastic Constant Matrix: (Units=GPa)
#
#
# Indices 1 2 3 4 5 6 
#
# 1 227.9804 84.4605 45.6134 1.1712 34.3480 -0.5432
# 2 84.4605 156.1295 35.1316 -10.8336 7.0389 -28.5191
# 3 45.6134 35.1316 93.2853 -7.5110 -2.1472 0.0038
# 4 1.1712 -10.8336 -7.5110 55.2724 -0.9315 1.5150
# 5 34.3480 7.0389 -2.1472 -0.9315 44.8091 -2.8772
# 6 -0.5432 -28.5191 0.0038 1.5150 -2.8772 64.7575
#
#
#
# Elastic Compliance Matrix: (Units=1/GPa)
#
#
# Indices 1 2 3 4 5 6 
#
# 1 0.006823 -0.003325 -0.002290 -0.001147 -0.004944 -0.001600
# 2 -0.003325 0.009407 -0.001760 0.001583 0.001285 0.004135
# 3 -0.002290 -0.001760 0.012683 0.001491 0.002625 -0.000713
# 4 -0.001147 0.001583 0.001491 0.018640 0.001109 0.000301
# 5 -0.004944 0.001285 0.002625 0.001109 0.026161 0.001661
# 6 -0.001600 0.004135 -0.000713 0.000301 0.001661 0.017317
#
#
# Mechanical properties :
#
#
# Convention : Reuss Voigt Hill
#
# Bulk Modulus (GPa) = 70.60711 89.75624 80.18167
# Shear Modulus (GPa) = 45.24828 53.78044 49.51436
#
# Velocity S-wave (km/s) = 4.01997 4.38262 4.20521
# Velocity P-wave (km/s) = 6.83841 7.59380 7.22598
#
# Compressibility (1/GPa) = 0.01416288
#
# Stress axis : x y z
#
# Youngs Moduli (GPa) = 146.55658 106.30656 78.84532
#
# Poissons Ratio (x) = 0.35343 0.18059
# Poissons Ratio (y) = 0.48725 0.13877
# Poissons Ratio (z) = 0.33567 0.18711
#
# Static dielectric constant tensor:
#      x y z
#    x 2.185350 -0.124820 0.075870 
#    y -0.124820 2.424960 -0.138160 
#    z 0.075870 -0.138160 2.338280 
# 
# From -- ./inp_files/133851.got.cif
#   From: 2010.05.17/outbox.cif.g08.bks.cpg/sg2_67_cif.got.tgz:133851.got - 2010.06.03 11:33:40.
