data_PCOD9036203
_publ_section_title
;
Structure prediction by ZEFSAII (Michael W. Deem and Ramdas Pophale) SiO2 
 PCOD9036203
Probable space group: P -1
;
_chemical_formula_sum "Si O2"
_cell_formula_units_Z 11
_cell_length_a 5.493179
_cell_length_b 14.627397
_cell_length_c 12.386310
_cell_angle_alpha 150.724678
_cell_angle_beta 111.495908
_cell_angle_gamma 70.641622
_cell_volume 452.679274
_symmetry_space_group_name_H-M "P -1"
_symmetry_group_IT_number 2
_symmetry_cell_setting 'triclinic'
loop_
_space_group_symop_operation_xyz
x,y,z
-x,-y,-z
loop_
_atom_site_type_symbol
_atom_site_label
_atom_site_fract_x
_atom_site_fract_y
_atom_site_fract_z
Si Si1 0.017305 0.277052 0.270300
Si Si2 0.922781 0.901004 0.276573
Si Si3 0.500000 0.000000 0.000000
Si Si4 0.049804 0.200843 0.437027
Si Si5 0.410176 0.887414 0.104489
Si Si6 0.191396 0.528975 0.955600
O O1 0.291060 0.164408 0.190295
O O2 0.910871 0.212266 0.307193
O O3 0.000000 0.500000 0.500000
O O4 0.852159 0.218074 0.078484
O O5 0.640691 0.806651 0.133007
O O6 0.906200 0.066949 0.358154
O O7 0.137027 0.740481 0.125800
O O8 0.000000 0.000000 0.500000
O O9 0.524918 0.896712 0.012885
O O10 0.101354 0.391690 0.703500
O O11 0.320855 0.086540 0.344248
O O12 0.500000 0.500000 0.000000
O O13 0.000000 0.500000 0.000000
#
# Coordination Sequence:
#
# PCOD9036203 Si02
#       6
#     2   2   1   2   2   2
#     4  11  26  48  75 115 156 203 267 327 404 491
#     4  12  26  48  77 106 154 209 256 331 397 474
#     4  10  22  48  70 106 152 202 252 330 400 472
#     4  11  26  47  76 109 155 205 257 329 399 475
#     4  11  24  46  75 105 151 201 259 320 402 477
#     4  12  29  51  77 117 158 208 274 331 404 489
#
# _framework density 24.299766000000002
#
# number of rings (size 3 to 8) (size 9 to 14) (size 15 to 20)
#    0.000    0.727    1.818    5.455    7.636    2.182 
#    6.545    0.000    0.000    0.000    0.000    0.000 
#    0.000    0.000    0.000    0.000    0.000    0.000 
#
# Total GULP energy -61241.743092 kJ/mol
# GULP energy per Si atom -5567.431190 kJ/mol
# Density = 2.424446 g / cm^3
# Si number density = 24.299766 Si / 1000 Ang^3
#
#
#
# Elastic Constant Matrix: (Units=GPa)
#
#
# Indices 1 2 3 4 5 6 
#
# 1 102.6825 41.3369 31.6766 -15.9081 -13.5881 -18.8712
# 2 41.3369 120.1658 62.0554 -2.9728 10.4004 -25.2974
# 3 31.6766 62.0554 181.8770 4.9024 -23.8096 -25.4952
# 4 -15.9081 -2.9728 4.9024 49.0149 2.6493 0.3004
# 5 -13.5881 10.4004 -23.8096 2.6493 27.3878 -7.2369
# 6 -18.8712 -25.2974 -25.4952 0.3004 -7.2369 58.5013
#
#
#
# Elastic Compliance Matrix: (Units=1/GPa)
#
#
# Indices 1 2 3 4 5 6 
#
# 1 0.014409 -0.005688 0.001398 0.003556 0.011283 0.004175
# 2 -0.005688 0.014371 -0.005587 0.000289 -0.013079 0.000325
# 3 0.001398 -0.005587 0.009265 -0.001480 0.011953 0.003559
# 4 0.003556 0.000289 -0.001480 0.021809 -0.001660 0.000310
# 5 0.011283 -0.013079 0.011953 -0.001660 0.060451 0.010680
# 6 0.004175 0.000325 0.003559 0.000310 0.010680 0.021452
#
#
# Mechanical properties :
#
#
# Convention : Reuss Voigt Hill
#
# Bulk Modulus (GPa) = 54.67542 74.98479 64.83010
# Shear Modulus (GPa) = 29.83153 44.95790 37.39472
#
# Velocity S-wave (km/s) = 3.50758 4.30599 3.92713
# Velocity P-wave (km/s) = 6.24127 7.45971 6.87752
#
# Compressibility (1/GPa) = 0.01828975
#
# Stress axis : x y z
#
# Youngs Moduli (GPa) = 69.40244 69.58273 107.93840
#
# Poissons Ratio (x) = 0.39579 -0.15086
# Poissons Ratio (y) = 0.39476 0.60306
# Poissons Ratio (z) = -0.09700 0.38876
#
# Static dielectric constant tensor:
#      x y z
#    x 2.013920 0.139880 -0.030340 
#    y 0.139880 1.897790 0.074440 
#    z -0.030340 0.074440 1.778940 
# 
# From -- ./inp_files/58720.got.cif
#   From: 2010.05.17/outbox.cif.g08.bks.cpg/sg2_30_cif.got.tgz:58720.got - 2010.06.03 11:33:40.
