data_PCOD9036771
_publ_section_title
;
Structure prediction by ZEFSAII (Michael W. Deem and Ramdas Pophale) SiO2 
 PCOD9036771
Probable space group: P -1
;
_chemical_formula_sum "Si O2"
_cell_formula_units_Z 14
_cell_length_a 9.572420
_cell_length_b 17.694198
_cell_length_c 12.511263
_cell_angle_alpha 147.174343
_cell_angle_beta 145.360748
_cell_angle_gamma 50.518189
_cell_volume 642.255735
_symmetry_space_group_name_H-M "P -1"
_symmetry_group_IT_number 2
_symmetry_cell_setting 'triclinic'
loop_
_space_group_symop_operation_xyz
x,y,z
-x,-y,-z
loop_
_atom_site_type_symbol
_atom_site_label
_atom_site_fract_x
_atom_site_fract_y
_atom_site_fract_z
Si Si1 0.757328 0.114710 0.082630
Si Si2 0.650777 0.591833 0.608386
Si Si3 0.107768 0.993704 0.313047
Si Si4 0.635313 0.186196 0.866969
Si Si5 0.437611 0.501393 0.792136
Si Si6 0.913838 0.580569 0.336151
Si Si7 0.674863 0.914758 0.078010
O O1 0.904204 0.270604 0.393051
O O2 0.749668 0.108384 0.943345
O O3 0.468082 0.096758 0.913772
O O4 0.900006 0.009414 0.111468
O O5 0.500000 0.500000 0.500000
O O6 0.532073 0.561601 0.379886
O O7 0.913980 0.538604 0.697975
O O8 0.667425 0.755773 0.841914
O O9 0.224870 0.853838 0.197687
O O10 0.958164 0.991043 0.326325
O O11 0.342802 0.119503 0.596631
O O12 0.660638 0.350052 0.104027
O O13 0.236187 0.409966 0.635879
O O14 0.698998 0.538444 0.062876
O O15 0.500000 0.000000 0.000000
#
# Coordination Sequence:
#
# PCOD9036771 Si02
#       7
#     2   2   2   2   2   2   2
#     4  11  21  41  61  89 124 167 207 260 314 370
#     4  12  23  43  68  94 127 168 212 261 321 375
#     4  10  23  39  61  90 129 160 211 255 314 377
#     4  11  21  39  64  92 122 167 206 260 315 372
#     4  11  24  40  65  94 128 165 211 267 316 371
#     4  11  23  40  63  95 129 161 213 261 316 377
#     4  10  23  43  63  90 127 165 209 257 312 379
#
# _framework density 21.798168
#
# number of rings (size 3 to 8) (size 9 to 14) (size 15 to 20)
#    0.000    1.143    4.286    1.714    2.000    1.143 
#    0.000    1.429    0.000    0.000    0.000    0.000 
#    0.000    0.000    0.000    0.000    0.000    0.000 
#
# Total GULP energy -78197.987608 kJ/mol
# GULP energy per Si atom -5585.570543 kJ/mol
# Density = 2.174855 g / cm^3
# Si number density = 21.798168 Si / 1000 Ang^3
#
#
#
# Elastic Constant Matrix: (Units=GPa)
#
#
# Indices 1 2 3 4 5 6 
#
# 1 124.7524 26.0308 15.3471 -15.5592 17.1245 -13.2488
# 2 26.0308 53.0560 25.4847 -6.2401 4.7820 -7.8141
# 3 15.3471 25.4847 18.5684 -15.9548 10.8211 -11.9024
# 4 -15.5592 -6.2401 -15.9548 41.9052 -1.6214 -3.9705
# 5 17.1245 4.7820 10.8211 -1.6214 33.1750 -5.6273
# 6 -13.2488 -7.8141 -11.9024 -3.9705 -5.6273 32.2317
#
#
#
# Elastic Compliance Matrix: (Units=1/GPa)
#
#
# Indices 1 2 3 4 5 6 
#
# 1 0.008148 0.007084 -0.026674 -0.006479 0.002278 -0.005184
# 2 0.007084 -0.039527 0.150237 0.057263 -0.035748 0.049621
# 3 -0.026674 0.150237 -0.369524 -0.135520 0.086937 -0.112514
# 4 -0.006479 0.057263 -0.135520 -0.023801 0.031996 -0.036170
# 5 0.002278 -0.035748 0.086937 0.031996 0.012500 0.030497
# 6 -0.005184 0.049621 -0.112514 -0.036170 0.030497 0.000245
#
#
# Mechanical properties :
#
#
# Convention : Reuss Voigt Hill
#
# Bulk Modulus (GPa) = -7.16286 36.67801 14.75757
# Shear Modulus (GPa) = -6.94648 30.09667 11.57510
#
# Velocity S-wave (km/s) = -1.78708 3.71980 2.30687
# Velocity P-wave (km/s) = 2.74797 5.94239 3.72563
#
# Compressibility (1/GPa) = -0.13960901
#
# Stress axis : x y z
#
# Youngs Moduli (GPa) = 122.72988 -25.29948 -2.70618
#
# Poissons Ratio (x) = 0.17922 -0.07218
# Poissons Ratio (y) = -0.86943 0.40657
# Poissons Ratio (z) = 3.27370 3.80091
#
# Static dielectric constant tensor:
#      x y z
#    x 1.826170 0.032620 0.030150 
#    y 0.032620 1.792900 -0.009800 
#    z 0.030150 -0.009800 1.761690 
# 
# From -- ./inp_files/258362.got.cif
#   From: 2010.05.17/outbox.cif.g08.bks.cpg/sg2_130_cif.got.tgz:258362.got - 2010.06.03 11:33:40.
