data_PCOD9036290
_publ_section_title
;
Structure prediction by ZEFSAII (Michael W. Deem and Ramdas Pophale) SiO2 
 PCOD9036290
Probable space group: P -1
;
_chemical_formula_sum "Si O2"
_cell_formula_units_Z 12
_cell_length_a 16.941549
_cell_length_b 5.721219
_cell_length_c 5.226591
_cell_angle_alpha 100.539996
_cell_angle_beta 97.543474
_cell_angle_gamma 78.750479
_cell_volume 486.071204
_symmetry_space_group_name_H-M "P -1"
_symmetry_group_IT_number 2
_symmetry_cell_setting 'triclinic'
loop_
_space_group_symop_operation_xyz
x,y,z
-x,-y,-z
loop_
_atom_site_type_symbol
_atom_site_label
_atom_site_fract_x
_atom_site_fract_y
_atom_site_fract_z
Si Si1 0.815864 0.324820 0.950761
Si Si2 0.091789 0.992737 0.445958
Si Si3 0.226507 0.121024 0.864093
Si Si4 0.471431 0.740027 0.197679
Si Si5 0.605575 0.043605 0.309187
Si Si6 0.988238 0.353215 0.213672
O O1 0.772029 0.604738 0.985809
O O2 0.897079 0.304279 0.155391
O O3 0.769880 0.111300 0.989610
O O4 0.852002 0.250630 0.670940
O O5 0.143314 0.131729 0.676580
O O6 0.065313 0.138178 0.202199
O O7 0.000000 0.000000 0.500000
O O8 0.299716 0.049302 0.681017
O O9 0.421637 0.750017 0.444942
O O10 0.552831 0.841564 0.321145
O O11 0.500000 0.500000 0.000000
O O12 0.419469 0.899468 0.986894
O O13 0.000000 0.500000 0.500000
O O14 0.000000 0.500000 0.000000
#
# Coordination Sequence:
#
# PCOD9036290 Si02
#       6
#     2   2   2   2   2   2
#     4  12  28  47  71 104 150 201 254 318 385 444
#     4  12  26  47  72 105 147 203 264 320 379 445
#     4  12  29  47  72 111 151 198 250 316 385 451
#     4  10  22  48  79 110 146 195 240 300 373 455
#     4  10  25  45  73 115 148 189 248 301 372 457
#     4  12  24  45  75 101 142 195 263 317 373 440
#
# _framework density 24.687743000000001
#
# number of rings (size 3 to 8) (size 9 to 14) (size 15 to 20)
#    0.000    0.667    3.333    3.000    4.667    1.333 
#    0.000    0.000    0.000    0.000    0.000    0.000 
#    0.000    0.000    0.000    0.000    0.000    0.000 
#
# Total GULP energy -67038.853215 kJ/mol
# GULP energy per Si atom -5586.571101 kJ/mol
# Density = 2.463155 g / cm^3
# Si number density = 24.687743 Si / 1000 Ang^3
#
#
#
# Elastic Constant Matrix: (Units=GPa)
#
#
# Indices 1 2 3 4 5 6 
#
# 1 129.8371 49.1998 38.9126 7.4066 -32.8948 -10.5324
# 2 49.1998 131.9978 30.2311 30.8218 -24.8746 10.6269
# 3 38.9126 30.2311 124.9706 22.5538 -32.4548 1.5383
# 4 7.4066 30.8218 22.5538 49.0723 -10.3849 -6.8443
# 5 -32.8948 -24.8746 -32.4548 -10.3849 37.7834 3.8106
# 6 -10.5324 10.6269 1.5383 -6.8443 3.8106 18.2839
#
#
#
# Elastic Compliance Matrix: (Units=1/GPa)
#
#
# Indices 1 2 3 4 5 6 
#
# 1 0.012347 -0.005068 -0.002145 0.005069 0.005863 0.010914
# 2 -0.005068 0.013471 0.001426 -0.009522 0.004617 -0.015396
# 3 -0.002145 0.001426 0.011437 -0.005019 0.008183 -0.006611
# 4 0.005069 -0.009522 -0.005019 0.030791 0.000243 0.020352
# 5 0.005863 0.004617 0.008183 0.000243 0.042592 -0.008780
# 6 0.010914 -0.015396 -0.006611 0.020352 -0.008780 0.079933
#
#
# Mechanical properties :
#
#
# Convention : Reuss Voigt Hill
#
# Bulk Modulus (GPa) = 38.93866 69.27697 54.10781
# Shear Modulus (GPa) = 23.72992 38.92536 31.32764
#
# Velocity S-wave (km/s) = 3.10369 3.97509 3.56610
# Velocity P-wave (km/s) = 5.35262 7.01360 6.23864
#
# Compressibility (1/GPa) = 0.02568142
#
# Stress axis : x y z
#
# Youngs Moduli (GPa) = 80.99199 74.23189 87.43562
#
# Poissons Ratio (x) = 0.37622 0.18755
# Poissons Ratio (y) = 0.41048 -0.12471
# Poissons Ratio (z) = 0.17373 -0.10588
#
# Static dielectric constant tensor:
#      x y z
#    x 1.979920 0.028310 -0.064700 
#    y 0.028310 1.666960 -0.024940 
#    z -0.064700 -0.024940 2.072240 
# 
# From -- ./inp_files/102569.got.cif
#   From: 2010.05.17/outbox.cif.g08.bks.cpg/sg2_52_cif.got.tgz:102569.got - 2010.06.03 11:33:40.
