data_PCOD9036516
_publ_section_title
;
Structure prediction by ZEFSAII (Michael W. Deem and Ramdas Pophale) SiO2 
 PCOD9036516
Probable space group: P -1
;
_chemical_formula_sum "Si O2"
_cell_formula_units_Z 14
_cell_length_a 5.169897
_cell_length_b 14.696146
_cell_length_c 9.603838
_cell_angle_alpha 121.099386
_cell_angle_beta 108.783885
_cell_angle_gamma 71.900004
_cell_volume 582.070818
_symmetry_space_group_name_H-M "P -1"
_symmetry_group_IT_number 2
_symmetry_cell_setting 'triclinic'
loop_
_space_group_symop_operation_xyz
x,y,z
-x,-y,-z
loop_
_atom_site_type_symbol
_atom_site_label
_atom_site_fract_x
_atom_site_fract_y
_atom_site_fract_z
Si Si1 0.670163 0.208552 0.710617
Si Si2 0.069908 0.086876 0.886006
Si Si3 0.132543 0.298312 0.551483
Si Si4 0.392130 0.970673 0.609363
Si Si5 0.672392 0.531064 0.425053
Si Si6 0.940910 0.866238 0.780382
Si Si7 0.795649 0.437926 0.828221
O O1 0.339173 0.231777 0.646966
O O2 0.783517 0.122696 0.537900
O O3 0.756584 0.326036 0.808981
O O4 0.777609 0.146921 0.821064
O O5 0.251175 0.065535 0.761390
O O6 0.109575 0.154113 0.083127
O O7 0.100147 0.965351 0.857775
O O8 0.338756 0.343252 0.515222
O O9 0.945091 0.236509 0.374613
O O10 0.959203 0.395655 0.683025
O O11 0.647602 0.910804 0.694956
O O12 0.500000 0.000000 0.500000
O O13 0.500000 0.500000 0.500000
O O14 0.505713 0.498424 0.230646
O O15 0.000000 0.500000 0.500000
O O16 0.000000 0.500000 0.000000
#
# Coordination Sequence:
#
# PCOD9036516 Si02
#       7
#     2   2   2   2   2   2   2
#     4  10  23  37  66  99 136 186 239 292 363 433
#     4  11  22  39  62 100 136 180 240 289 358 423
#     4  10  23  44  67 100 140 182 244 289 378 430
#     4  11  21  37  65  93 138 189 232 287 358 439
#     4  11  23  47  77 103 139 188 243 301 379 445
#     4  10  23  40  64  96 137 184 229 304 350 432
#     4  11  25  45  72 106 144 190 245 315 362 446
#
# _framework density 24.052053999999998
#
# number of rings (size 3 to 8) (size 9 to 14) (size 15 to 20)
#    0.000    1.429    2.857    1.714    4.000    3.429 
#    2.571    0.000    3.143    0.000    0.000    0.000 
#    0.000    0.000    0.000    0.000    0.000    0.000 
#
# Total GULP energy -77958.046449 kJ/mol
# GULP energy per Si atom -5568.431889 kJ/mol
# Density = 2.399731 g / cm^3
# Si number density = 24.052054 Si / 1000 Ang^3
#
#
#
# Elastic Constant Matrix: (Units=GPa)
#
#
# Indices 1 2 3 4 5 6 
#
# 1 100.3372 25.4488 53.7266 -6.4461 -3.8434 -4.3500
# 2 25.4488 69.0186 44.1759 -15.5981 -8.3020 -2.3346
# 3 53.7266 44.1759 195.8112 -12.2656 0.1513 -10.2818
# 4 -6.4461 -15.5981 -12.2656 44.2692 3.1871 12.9995
# 5 -3.8434 -8.3020 0.1513 3.1871 31.2253 -4.3650
# 6 -4.3500 -2.3346 -10.2818 12.9995 -4.3650 35.9096
#
#
#
# Elastic Compliance Matrix: (Units=1/GPa)
#
#
# Indices 1 2 3 4 5 6 
#
# 1 0.012143 -0.002652 -0.002709 -0.000190 0.000920 0.000703
# 2 -0.002652 0.019333 -0.003365 0.005670 0.004029 -0.001591
# 3 -0.002709 -0.003365 0.006674 -0.000016 -0.001086 0.001238
# 4 -0.000190 0.005670 -0.000016 0.027694 -0.002743 -0.010018
# 5 0.000920 0.004029 -0.001086 -0.002743 0.034224 0.005216
# 6 0.000703 -0.001591 0.001238 -0.010018 0.005216 0.032444
#
#
# Mechanical properties :
#
#
# Convention : Reuss Voigt Hill
#
# Bulk Modulus (GPa) = 48.31460 67.98552 58.15006
# Shear Modulus (GPa) = 31.87445 38.40187 35.13816
#
# Velocity S-wave (km/s) = 3.64432 4.00010 3.82635
# Velocity P-wave (km/s) = 6.15136 7.04711 6.61441
#
# Compressibility (1/GPa) = 0.02069768
#
# Stress axis : x y z
#
# Youngs Moduli (GPa) = 82.35031 51.72492 149.82588
#
# Poissons Ratio (x) = 0.13716 0.40592
# Poissons Ratio (y) = 0.21837 0.50424
# Poissons Ratio (z) = 0.22311 0.17408
#
# Static dielectric constant tensor:
#      x y z
#    x 2.055770 0.005130 0.004980 
#    y 0.005130 2.077830 0.061480 
#    z 0.004980 0.061480 1.981490 
# 
# From -- ./inp_files/135869.got.cif
#   From: 2010.05.17/outbox.cif.g08.bks.cpg/sg2_68_cif.got.tgz:135869.got - 2010.06.03 11:33:40.
