data_PCOD9036882
_publ_section_title
;
Structure prediction by ZEFSAII (Michael W. Deem and Ramdas Pophale) SiO2 
 PCOD9036882
Probable space group: P -1
;
_chemical_formula_sum "Si O2"
_cell_formula_units_Z 16
_cell_length_a 14.993942
_cell_length_b 11.295667
_cell_length_c 13.581862
_cell_angle_alpha 149.555794
_cell_angle_beta 49.413606
_cell_angle_gamma 142.436757
_cell_volume 706.556553
_symmetry_space_group_name_H-M "P -1"
_symmetry_group_IT_number 2
_symmetry_cell_setting 'triclinic'
loop_
_space_group_symop_operation_xyz
x,y,z
-x,-y,-z
loop_
_atom_site_type_symbol
_atom_site_label
_atom_site_fract_x
_atom_site_fract_y
_atom_site_fract_z
Si Si1 0.021465 0.356077 0.289004
Si Si2 0.561786 0.429636 0.615086
Si Si3 0.850459 0.368293 0.952794
Si Si4 0.398982 0.155299 0.350649
Si Si5 0.378222 0.966193 0.961602
Si Si6 0.756571 0.255950 0.309596
Si Si7 0.161024 0.304913 0.985525
Si Si8 0.421995 0.284112 0.810518
O O1 0.000000 0.500000 0.500000
O O2 0.920506 0.363647 0.284948
O O3 0.164301 0.461736 0.197026
O O4 0.959261 0.037323 0.148117
O O5 0.425164 0.178473 0.466136
O O6 0.707380 0.466709 0.501074
O O7 0.529439 0.337859 0.685846
O O8 0.581462 0.730948 0.809926
O O9 0.764921 0.059708 0.730303
O O10 0.734786 0.291154 0.067182
O O11 0.873258 0.590754 0.012481
O O12 0.000000 0.500000 0.000000
O O13 0.500000 0.500000 0.500000
O O14 0.483170 0.030788 0.157307
O O15 0.300806 0.907921 0.870213
O O16 0.671241 0.033818 0.302314
O O17 0.311306 0.345186 0.890503
O O18 0.500000 0.500000 0.000000
#
# Coordination Sequence:
#
# PCOD9036882 Si02
#       8
#     2   2   2   2   2   2   2   2
#     4  10  23  45  68  93 137 189 223 287 357 433
#     4  11  23  40  70 102 139 182 236 301 348 425
#     4  12  26  45  73 104 147 190 234 300 359 417
#     4  11  25  45  71 103 140 195 247 287 351 431
#     4  11  23  45  71  97 144 191 235 292 365 416
#     4  10  23  39  65 103 129 178 243 281 356 428
#     4  10  25  44  66  99 140 181 234 282 364 426
#     4  11  22  39  68 102 135 178 229 304 357 413
#
# _framework density 22.645039000000001
#
# number of rings (size 3 to 8) (size 9 to 14) (size 15 to 20)
#    0.000    1.250    2.500    2.250    5.250    4.000 
#    0.000    0.625    0.000    0.000    0.000    0.000 
#    0.000    0.000    0.000    0.000    0.000    0.000 
#
# Total GULP energy -89319.908019 kJ/mol
# GULP energy per Si atom -5582.494251 kJ/mol
# Density = 2.259350 g / cm^3
# Si number density = 22.645039 Si / 1000 Ang^3
#
#
#
# Elastic Constant Matrix: (Units=GPa)
#
#
# Indices 1 2 3 4 5 6 
#
# 1 144.2482 25.0361 45.3996 8.1917 15.6714 -11.3902
# 2 25.0361 61.3527 36.9199 -8.3531 6.1379 -17.6838
# 3 45.3996 36.9199 131.2296 -6.6391 -4.0973 -5.2239
# 4 8.1917 -8.3531 -6.6391 31.4115 -8.8284 4.9970
# 5 15.6714 6.1379 -4.0973 -8.8284 34.6293 -0.8669
# 6 -11.3902 -17.6838 -5.2239 4.9970 -0.8669 29.7466
#
#
#
# Elastic Compliance Matrix: (Units=1/GPa)
#
#
# Indices 1 2 3 4 5 6 
#
# 1 0.009332 -0.001147 -0.003242 -0.005526 -0.005735 0.003083
# 2 -0.001147 0.024779 -0.006052 0.002575 -0.003615 0.012691
# 3 -0.003242 -0.006052 0.010618 0.003300 0.004552 -0.003396
# 4 -0.005526 0.002575 0.003300 0.039089 0.012245 -0.006216
# 5 -0.005735 -0.003615 0.004552 0.012245 0.035660 -0.004563
# 6 0.003083 0.012691 -0.003396 -0.006216 -0.004563 0.042657
#
#
# Mechanical properties :
#
#
# Convention : Reuss Voigt Hill
#
# Bulk Modulus (GPa) = 41.93239 61.28242 51.60741
# Shear Modulus (GPa) = 26.18259 34.45581 30.31920
#
# Velocity S-wave (km/s) = 3.40401 3.90495 3.66305
# Velocity P-wave (km/s) = 5.83157 6.88857 6.38199
#
# Compressibility (1/GPa) = 0.02384791
#
# Stress axis : x y z
#
# Youngs Moduli (GPa) = 107.15493 40.35637 94.17800
#
# Poissons Ratio (x) = 0.04631 0.30529
# Poissons Ratio (y) = 0.12296 0.56994
# Poissons Ratio (z) = 0.34736 0.24423
#
# Static dielectric constant tensor:
#      x y z
#    x 1.903220 -0.017840 0.016940 
#    y -0.017840 1.855430 0.028560 
#    z 0.016940 0.028560 1.860640 
# 
# From -- ./inp_files/532791.got.cif
#   From: 2010.05.17/outbox.cif.g08.bks.cpg/sg2_267_cif.got.tgz:532791.got - 2010.06.03 11:33:40.
