data_PCOD9036779
_publ_section_title
;
Structure prediction by ZEFSAII (Michael W. Deem and Ramdas Pophale) SiO2 
 PCOD9036779
Probable space group: P -1
;
_chemical_formula_sum "Si O2"
_cell_formula_units_Z 16
_cell_length_a 11.734072
_cell_length_b 8.259600
_cell_length_c 16.065051
_cell_angle_alpha 121.467749
_cell_angle_beta 55.448849
_cell_angle_gamma 143.711206
_cell_volume 752.231831
_symmetry_space_group_name_H-M "P -1"
_symmetry_group_IT_number 2
_symmetry_cell_setting 'triclinic'
loop_
_space_group_symop_operation_xyz
x,y,z
-x,-y,-z
loop_
_atom_site_type_symbol
_atom_site_label
_atom_site_fract_x
_atom_site_fract_y
_atom_site_fract_z
Si Si1 0.561602 0.289821 0.391612
Si Si2 0.513918 0.176004 0.775745
Si Si3 0.899357 0.640316 0.211625
Si Si4 0.764560 0.759020 0.554205
Si Si5 0.330572 0.579753 0.908011
Si Si6 0.723693 0.756618 0.768274
Si Si7 0.186675 0.603982 0.150048
Si Si8 0.125813 0.005082 0.883184
O O1 0.719310 0.512325 0.314206
O O2 0.658064 0.464217 0.483005
O O3 0.353512 0.188134 0.429230
O O4 0.535979 0.038556 0.327142
O O5 0.639160 0.478690 0.768955
O O6 0.635259 0.195969 0.804820
O O7 0.303793 0.055629 0.862123
O O8 0.789337 0.441622 0.123203
O O9 0.043396 0.636096 0.198156
O O10 0.057149 0.965341 0.214767
O O11 0.736284 0.746900 0.661225
O O12 0.000000 0.000000 0.500000
O O13 0.567239 0.774283 0.855868
O O14 0.241329 0.277104 0.855780
O O15 0.274995 0.614121 0.028745
O O16 0.036041 0.296895 0.168774
O O17 0.000000 0.000000 0.000000
#
# Coordination Sequence:
#
# PCOD9036779 Si02
#       8
#     2   2   2   2   2   2   2   2
#     4  11  24  42  70  95 127 166 215 270 326 390
#     4  11  24  42  64  97 134 172 216 261 318 386
#     4  12  22  40  65  95 129 170 220 266 321 381
#     4  11  23  45  73  96 123 167 213 271 340 380
#     4  10  23  39  61  95 133 171 222 264 312 378
#     4  11  24  42  66  95 130 168 215 271 319 385
#     4  11  23  38  64  94 135 179 213 261 317 383
#     4   9  20  39  62  88 128 177 213 259 312 377
#
# _framework density 21.270038
#
# number of rings (size 3 to 8) (size 9 to 14) (size 15 to 20)
#    0.000    1.250    3.750    1.875    0.000    7.500 
#    0.000    0.625    0.000    0.000    0.000    0.000 
#    0.000    0.000    0.000    0.000    0.000    0.000 
#
# Total GULP energy -89356.531875 kJ/mol
# GULP energy per Si atom -5584.783242 kJ/mol
# Density = 2.122163 g / cm^3
# Si number density = 21.270038 Si / 1000 Ang^3
#
#
#
# Elastic Constant Matrix: (Units=GPa)
#
#
# Indices 1 2 3 4 5 6 
#
# 1 91.3397 23.3193 21.2766 -0.5641 -14.1532 22.7541
# 2 23.3193 108.3173 18.8342 -3.6520 -17.5621 11.6209
# 3 21.2766 18.8342 64.5368 -3.1063 -8.6698 14.3385
# 4 -0.5641 -3.6520 -3.1063 38.0529 3.6227 -8.0072
# 5 -14.1532 -17.5621 -8.6698 3.6227 37.2743 2.0825
# 6 22.7541 11.6209 14.3385 -8.0072 2.0825 36.9529
#
#
#
# Elastic Compliance Matrix: (Units=1/GPa)
#
#
# Indices 1 2 3 4 5 6 
#
# 1 0.014676 -0.001096 -0.001977 -0.002395 0.005317 -0.008744
# 2 -0.001096 0.010713 -0.001668 -0.000024 0.004374 -0.002299
# 3 -0.001977 -0.001668 0.018267 -0.000156 0.003038 -0.005551
# 4 -0.002395 -0.000024 -0.000156 0.028287 -0.004148 0.007906
# 5 0.005317 0.004374 0.003038 -0.004148 0.032496 -0.008559
# 6 -0.008744 -0.002299 -0.005551 0.007906 -0.008559 0.037518
#
#
# Mechanical properties :
#
#
# Convention : Reuss Voigt Hill
#
# Bulk Modulus (GPa) = 29.26158 43.45045 36.35601
# Shear Modulus (GPa) = 30.70673 35.84028 33.27350
#
# Velocity S-wave (km/s) = 3.80368 4.10934 3.95946
# Velocity P-wave (km/s) = 5.75132 6.55652 6.16707
#
# Compressibility (1/GPa) = 0.03417451
#
# Stress axis : x y z
#
# Youngs Moduli (GPa) = 68.13942 93.34303 54.74217
#
# Poissons Ratio (x) = 0.10234 0.10821
# Poissons Ratio (y) = 0.07470 0.09130
# Poissons Ratio (z) = 0.13469 0.15569
#
# Static dielectric constant tensor:
#      x y z
#    x 1.828410 -0.004260 -0.008090 
#    y -0.004260 1.860850 0.021950 
#    z -0.008090 0.021950 1.738130 
# 
# From -- ./inp_files/81323.got.cif
#   From: 2010.05.17/outbox.cif.g08.bks.cpg/sg2_41_cif.got.tgz:81323.got - 2010.06.03 11:33:40.
