data_PCOD9036258
_publ_section_title
;
Structure prediction by ZEFSAII (Michael W. Deem and Ramdas Pophale) SiO2 
 PCOD9036258
Probable space group: P -1
;
_chemical_formula_sum "Si O2"
_cell_formula_units_Z 14
_cell_length_a 20.173023
_cell_length_b 7.593131
_cell_length_c 6.128535
_cell_angle_alpha 113.890699
_cell_angle_beta 54.530143
_cell_angle_gamma 135.031919
_cell_volume 540.281611
_symmetry_space_group_name_H-M "P -1"
_symmetry_group_IT_number 2
_symmetry_cell_setting 'triclinic'
loop_
_space_group_symop_operation_xyz
x,y,z
-x,-y,-z
loop_
_atom_site_type_symbol
_atom_site_label
_atom_site_fract_x
_atom_site_fract_y
_atom_site_fract_z
Si Si1 0.271334 0.919059 0.279980
Si Si2 0.253915 0.566316 0.821753
Si Si3 0.479691 0.177007 0.283650
Si Si4 0.500000 0.000000 0.500000
Si Si5 0.112005 0.995621 0.707527
Si Si6 0.933275 0.589078 0.160155
Si Si7 0.000000 0.000000 0.500000
Si Si8 0.580941 0.671408 0.121860
O O1 0.368537 0.063500 0.335358
O O2 0.170171 0.877506 0.538411
O O3 0.251688 0.676885 0.108123
O O4 0.312645 0.108192 0.087887
O O5 0.372690 0.735673 0.600921
O O6 0.195834 0.273955 0.785480
O O7 0.181688 0.587398 0.808956
O O8 0.569186 0.464570 0.190445
O O9 0.458863 0.197835 0.601367
O O10 0.507941 0.001816 0.201534
O O11 0.080129 0.012241 0.534477
O O12 0.010165 0.830205 0.974339
O O13 0.937065 0.705962 0.436709
O O14 0.000000 0.500000 0.000000
O O15 0.500000 0.500000 0.000000
#
# Coordination Sequence:
#
# PCOD9036258 Si02
#       8
#     2   2   2   1   2   2   1   2
#     4  11  24  45  75 107 146 199 245 304 376 444
#     4  11  26  47  70 112 153 187 253 306 368 455
#     4  10  23  42  69  97 149 198 250 297 359 451
#     4  12  26  46  66 114 154 194 246 306 378 448
#     4  11  27  48  77 111 146 196 252 312 372 443
#     4  11  26  50  80 109 149 195 252 316 370 446
#     4  10  22  48  74 112 144 188 242 314 372 434
#     4   9  20  42  66  97 138 193 252 293 354 436
#
# _framework density 25.912410000000001
#
# number of rings (size 3 to 8) (size 9 to 14) (size 15 to 20)
#    0.000    1.429    1.429    2.571    8.000    5.143 
#    7.714    0.000    0.000    0.000    0.000    0.000 
#    0.000    0.000    0.000    0.000    0.000    0.000 
#
# Total GULP energy -77945.792501 kJ/mol
# GULP energy per Si atom -5567.556607 kJ/mol
# Density = 2.585343 g / cm^3
# Si number density = 25.912410 Si / 1000 Ang^3
#
#
#
# Elastic Constant Matrix: (Units=GPa)
#
#
# Indices 1 2 3 4 5 6 
#
# 1 147.9228 56.4868 26.0393 -5.4688 -7.3314 8.9773
# 2 56.4868 140.6124 39.0947 -8.5089 9.6077 20.2394
# 3 26.0393 39.0947 50.6482 -30.1673 -13.7572 17.5460
# 4 -5.4688 -8.5089 -30.1673 51.9957 -2.8502 7.0253
# 5 -7.3314 9.6077 -13.7572 -2.8502 42.9885 -11.7023
# 6 8.9773 20.2394 17.5460 7.0253 -11.7023 56.6809
#
#
#
# Elastic Compliance Matrix: (Units=1/GPa)
#
#
# Indices 1 2 3 4 5 6 
#
# 1 0.008310 -0.002876 -0.002803 -0.001286 0.001354 0.001018
# 2 -0.002876 0.012561 -0.014722 -0.007212 -0.008583 -0.000350
# 3 -0.002803 -0.014722 0.068192 0.040236 0.023046 -0.015637
# 4 -0.001286 -0.007212 0.040236 0.043673 0.013834 -0.012233
# 5 0.001354 -0.008583 0.023046 0.013834 0.033981 0.001017
# 6 0.001018 -0.000350 -0.015637 -0.012233 0.001017 0.024173
#
#
# Mechanical properties :
#
#
# Convention : Reuss Voigt Hill
#
# Bulk Modulus (GPa) = 20.72120 64.71388 42.71754
# Shear Modulus (GPa) = 20.17932 44.83720 32.50826
#
# Velocity S-wave (km/s) = 2.79364 4.16424 3.54580
# Velocity P-wave (km/s) = 4.29184 6.93899 5.76929
#
# Compressibility (1/GPa) = 0.04825975
#
# Stress axis : x y z
#
# Youngs Moduli (GPa) = 120.34175 79.61344 14.66446
#
# Poissons Ratio (x) = 0.22894 0.04111
# Poissons Ratio (y) = 0.34606 0.21590
# Poissons Ratio (z) = 0.33735 1.17211
#
# Static dielectric constant tensor:
#      x y z
#    x 2.342680 -0.146290 0.159770 
#    y -0.146290 2.071590 0.087240 
#    z 0.159770 0.087240 2.268120 
# 
# From -- ./inp_files/117233.got.cif
#   From: 2010.05.17/outbox.cif.g08.bks.cpg/sg2_59_cif.got.tgz:117233.got - 2010.06.03 11:33:40.
