data_PCOD9036168
_publ_section_title
;
Structure prediction by ZEFSAII (Michael W. Deem and Ramdas Pophale) SiO2 
 PCOD9036168
Probable space group: P -1
;
_chemical_formula_sum "Si O2"
_cell_formula_units_Z 13
_cell_length_a 5.295508
_cell_length_b 21.356609
_cell_length_c 5.300438
_cell_angle_alpha 123.026177
_cell_angle_beta 92.708255
_cell_angle_gamma 97.761271
_cell_volume 492.688594
_symmetry_space_group_name_H-M "P -1"
_symmetry_group_IT_number 2
_symmetry_cell_setting 'triclinic'
loop_
_space_group_symop_operation_xyz
x,y,z
-x,-y,-z
loop_
_atom_site_type_symbol
_atom_site_label
_atom_site_fract_x
_atom_site_fract_y
_atom_site_fract_z
Si Si1 0.662252 0.793013 0.275823
Si Si2 0.071926 0.858321 0.762398
Si Si3 0.245248 0.590524 0.095513
Si Si4 0.701507 0.544160 0.813514
Si Si5 0.249505 0.062886 0.702950
Si Si6 0.370144 0.742124 0.666591
Si Si7 0.500000 0.000000 0.000000
O O1 0.660134 0.882473 0.408790
O O2 0.491846 0.764448 0.446316
O O3 0.951556 0.800604 0.407007
O O4 0.566004 0.746470 0.918717
O O5 0.209281 0.808205 0.845545
O O6 0.847665 0.884724 0.970759
O O7 0.236214 0.933558 0.813224
O O8 0.261643 0.515346 0.094638
O O9 0.212279 0.657488 0.431320
O O10 0.535735 0.606301 0.030931
O O11 0.006018 0.578357 0.859434
O O12 0.500000 0.500000 0.500000
O O13 0.470121 0.031908 0.787805
O O14 0.000000 0.000000 0.500000
#
# Coordination Sequence:
#
# PCOD9036168 Si02
#       7
#     2   2   2   2   2   2   1
#     4  12  27  50  70 106 145 193 249 303 386 454
#     4  12  27  46  72 107 142 194 252 314 386 460
#     4  10  25  45  74 117 153 198 255 307 375 452
#     4  10  22  47  79 114 152 200 254 307 370 450
#     4  12  27  45  74 100 139 189 252 319 378 452
#     4  12  30  48  74 108 153 197 243 311 379 459
#     4  12  24  44  70  98 136 186 244 316 380 436
#
# _framework density 26.385833999999999
#
# number of rings (size 3 to 8) (size 9 to 14) (size 15 to 20)
#    0.000    0.615    4.615    0.923    8.615    1.846 
#    0.000    0.000    0.000    0.000    0.000    0.000 
#    0.000    0.000    0.000    0.000    0.000    0.000 
#
# Total GULP energy -72461.105482 kJ/mol
# GULP energy per Si atom -5573.931191 kJ/mol
# Density = 2.632578 g / cm^3
# Si number density = 26.385834 Si / 1000 Ang^3
#
#
#
# Elastic Constant Matrix: (Units=GPa)
#
#
# Indices 1 2 3 4 5 6 
#
# 1 78.9672 25.9469 53.4654 -23.6222 30.2869 -4.6462
# 2 25.9469 63.7604 25.8260 -21.0246 -3.9878 -6.0749
# 3 53.4654 25.8260 142.1730 -19.7676 30.5203 -16.0764
# 4 -23.6222 -21.0246 -19.7676 41.2918 -2.9872 -1.2525
# 5 30.2869 -3.9878 30.5203 -2.9872 49.1470 -13.3780
# 6 -4.6462 -6.0749 -16.0764 -1.2525 -13.3780 26.8907
#
#
#
# Elastic Compliance Matrix: (Units=1/GPa)
#
#
# Indices 1 2 3 4 5 6 
#
# 1 0.026261 -0.007957 -0.004980 0.007249 -0.015347 -0.007535
# 2 -0.007957 0.023579 -0.001502 0.007764 0.010584 0.008681
# 3 -0.004980 -0.001502 0.010288 0.001261 -0.002315 0.003858
# 4 0.007249 0.007764 0.001261 0.032964 -0.001359 0.004619
# 5 -0.015347 0.010584 -0.002315 -0.001359 0.036496 0.016449
# 6 -0.007535 0.008681 0.003858 0.004619 0.016449 0.048552
#
#
# Mechanical properties :
#
#
# Convention : Reuss Voigt Hill
#
# Bulk Modulus (GPa) = 31.99959 55.04192 43.52075
# Shear Modulus (GPa) = 22.99557 35.44337 29.21947
#
# Velocity S-wave (km/s) = 2.95534 3.66904 3.33136
# Velocity P-wave (km/s) = 4.87845 6.23337 5.59706
#
# Compressibility (1/GPa) = 0.03125040
#
# Stress axis : x y z
#
# Youngs Moduli (GPa) = 38.07955 42.40996 97.20332
#
# Poissons Ratio (x) = 0.33746 0.48405
# Poissons Ratio (y) = 0.30300 0.14600
# Poissons Ratio (z) = 0.18963 0.06370
#
# Static dielectric constant tensor:
#      x y z
#    x 2.241900 0.024130 -0.082940 
#    y 0.024130 2.065300 0.059180 
#    z -0.082940 0.059180 2.114040 
# 
# From -- ./inp_files/8458.got.cif
#   From: 2010.05.17/outbox.cif.g08.bks.cpg/sg2_5_cif.got.tgz:8458.got - 2010.06.03 11:33:40.
