data_PCOD9036021
_publ_section_title
;
Structure prediction by ZEFSAII (Michael W. Deem and Ramdas Pophale) SiO2 
 PCOD9036021
Probable space group: P -1
;
_chemical_formula_sum "Si O2"
_cell_formula_units_Z 14
_cell_length_a 14.339630
_cell_length_b 9.119949
_cell_length_c 11.038358
_cell_angle_alpha 60.663485
_cell_angle_beta 147.358440
_cell_angle_gamma 107.419847
_cell_volume 658.817327
_symmetry_space_group_name_H-M "P -1"
_symmetry_group_IT_number 2
_symmetry_cell_setting 'triclinic'
loop_
_space_group_symop_operation_xyz
x,y,z
-x,-y,-z
loop_
_atom_site_type_symbol
_atom_site_label
_atom_site_fract_x
_atom_site_fract_y
_atom_site_fract_z
Si Si1 0.759583 0.048815 0.815350
Si Si2 0.622648 0.793228 0.586266
Si Si3 0.331570 0.469670 0.048357
Si Si4 0.129308 0.365498 0.284756
Si Si5 0.052431 0.271185 0.709122
Si Si6 0.951976 0.206191 0.364967
Si Si7 0.259304 0.623797 0.496501
O O1 0.588273 0.130601 0.677455
O O2 0.806549 0.203779 0.728710
O O3 0.699805 0.925164 0.700097
O O4 0.899462 0.922244 0.103731
O O5 0.655065 0.613072 0.768653
O O6 0.725178 0.761573 0.586214
O O7 0.530004 0.409240 0.236705
O O8 0.195117 0.374506 0.870473
O O9 0.248179 0.675111 0.881142
O O10 0.224728 0.470777 0.437881
O O11 0.016536 0.268680 0.284433
O O12 0.000000 0.500000 0.000000
O O13 0.052183 0.259577 0.569863
O O14 0.860831 0.357049 0.523251
O O15 0.000000 0.000000 0.500000
#
# Coordination Sequence:
#
# PCOD9036021 Si02
#       7
#     2   2   2   2   2   2   2
#     4   9  20  38  68 103 129 176 223 280 327 395
#     4   9  19  39  67  99 136 170 229 277 327 393
#     4  10  22  47  69  98 135 182 228 281 328 406
#     4  12  24  44  70  99 139 179 229 280 336 408
#     4  11  23  45  68  97 145 175 225 280 337 410
#     4  12  28  45  67 100 140 184 221 282 352 394
#     4  11  24  40  77 102 127 188 233 265 346 396
#
# _framework density 21.2502
#
# number of rings (size 3 to 8) (size 9 to 14) (size 15 to 20)
#    0.000    1.429    2.857    2.571    4.000    4.000 
#    0.000    1.429    0.000    0.000    0.000    0.000 
#    0.000    0.000    0.000    0.000    0.000    0.000 
#
# Total GULP energy -78268.837820 kJ/mol
# GULP energy per Si atom -5590.631273 kJ/mol
# Density = 2.120183 g / cm^3
# Si number density = 21.250200 Si / 1000 Ang^3
#
#
#
# Elastic Constant Matrix: (Units=GPa)
#
#
# Indices 1 2 3 4 5 6 
#
# 1 139.4730 36.5045 56.2680 -6.6987 6.4917 -18.0567
# 2 36.5045 80.0061 39.4923 -27.6587 4.8051 0.6501
# 3 56.2680 39.4923 86.0952 -21.1742 14.4883 -0.2742
# 4 -6.6987 -27.6587 -21.1742 31.0809 7.5777 0.5742
# 5 6.4917 4.8051 14.4883 7.5777 22.7748 -6.6605
# 6 -18.0567 0.6501 -0.2742 0.5742 -6.6605 35.8467
#
#
#
# Elastic Compliance Matrix: (Units=1/GPa)
#
#
# Indices 1 2 3 4 5 6 
#
# 1 0.013062 -0.005661 -0.010858 -0.012497 0.011130 0.008867
# 2 -0.005661 0.023824 0.001064 0.024230 -0.013983 -0.006262
# 3 -0.010858 0.001064 0.028893 0.025063 -0.026972 -0.010681
# 4 -0.012497 0.024230 0.025063 0.080432 -0.049221 -0.016977
# 5 0.011130 -0.013983 -0.026972 -0.049221 0.083651 0.021985
# 6 0.008867 -0.006262 -0.010681 -0.016977 0.021985 0.036752
#
#
# Mechanical properties :
#
#
# Convention : Reuss Voigt Hill
#
# Bulk Modulus (GPa) = 28.67970 63.34488 46.01229
# Shear Modulus (GPa) = 16.17358 29.49443 22.83401
#
# Velocity S-wave (km/s) = 2.76180 3.72958 3.28156
# Velocity P-wave (km/s) = 4.86781 6.95846 6.00482
#
# Compressibility (1/GPa) = 0.03486787
#
# Stress axis : x y z
#
# Youngs Moduli (GPa) = 76.55946 41.97427 34.61097
#
# Poissons Ratio (x) = 0.23760 0.37581
# Poissons Ratio (y) = 0.43338 -0.03682
# Poissons Ratio (z) = 0.83130 -0.04465
#
# Static dielectric constant tensor:
#      x y z
#    x 1.745050 0.017580 -0.001150 
#    y 0.017580 1.773680 -0.019620 
#    z -0.001150 -0.019620 1.788270 
# 
# From -- ./inp_files/447253.got.cif
#   From: 2010.05.17/outbox.cif.g08.bks.cpg/sg2_224_cif.got.tgz:447253.got - 2010.06.03 11:33:40.
