data_PCOD9036743
_publ_section_title
;
Structure prediction by ZEFSAII (Michael W. Deem and Ramdas Pophale) SiO2 
 PCOD9036743
Probable space group: P -1
;
_chemical_formula_sum "Si O2"
_cell_formula_units_Z 12
_cell_length_a 5.365358
_cell_length_b 20.268787
_cell_length_c 22.063532
_cell_angle_alpha 167.075727
_cell_angle_beta 97.323326
_cell_angle_gamma 80.200095
_cell_volume 520.724925
_symmetry_space_group_name_H-M "P -1"
_symmetry_group_IT_number 2
_symmetry_cell_setting 'triclinic'
loop_
_space_group_symop_operation_xyz
x,y,z
-x,-y,-z
loop_
_atom_site_type_symbol
_atom_site_label
_atom_site_fract_x
_atom_site_fract_y
_atom_site_fract_z
Si Si1 0.713656 0.602110 0.555688
Si Si2 0.050893 0.201204 0.877087
Si Si3 0.817484 0.200862 0.743798
Si Si4 0.957817 0.465289 0.701272
Si Si5 0.346460 0.138100 0.720669
Si Si6 0.379642 0.688883 0.835034
O O1 0.500000 0.500000 0.500000
O O2 0.685656 0.463184 0.364917
O O3 0.000000 0.500000 0.500000
O O4 0.660382 0.958730 0.864199
O O5 0.320787 0.098583 0.756245
O O6 0.862139 0.313961 0.915958
O O7 0.980681 0.895627 0.625849
O O8 0.059353 0.433374 0.138255
O O9 0.604826 0.009255 0.578199
O O10 0.105987 0.027611 0.584500
O O11 0.720004 0.501552 0.971897
O O12 0.675642 0.577047 0.763812
O O13 0.177736 0.610286 0.807226
#
# Coordination Sequence:
#
# PCOD9036743 Si02
#       6
#     2   2   2   2   2   2
#     4  12  24  45  76  98 127 162 203 248 299 354
#     4  10  23  39  60  88 117 172 214 246 316 372
#     4   8  16  32  56  82 114 150 207 273 314 355
#     4  12  26  39  65  86 136 168 203 248 299 372
#     4   8  16  32  56  82 114 150 207 273 314 355
#     4  12  26  45  62 102 131 162 203 248 299 354
#
# _framework density 23.044796000000002
#
# number of rings (size 3 to 8) (size 9 to 14) (size 15 to 20)
#    1.000    0.667    0.000    5.000    4.667    0.000 
#    0.000    3.333    0.000    4.000    0.000    0.000 
#    0.000    0.000    0.000    0.000    0.000    0.000 
#
# Total GULP energy -67043.791532 kJ/mol
# GULP energy per Si atom -5586.982628 kJ/mol
# Density = 2.299234 g / cm^3
# Si number density = 23.044796 Si / 1000 Ang^3
#
#
#
# Elastic Constant Matrix: (Units=GPa)
#
#
# Indices 1 2 3 4 5 6 
#
# 1 167.3703 8.5809 14.8344 19.2605 30.1280 10.4547
# 2 8.5809 82.8053 30.8079 -7.9010 11.3965 -11.3541
# 3 14.8344 30.8079 113.7608 -0.2965 0.4669 -0.4641
# 4 19.2605 -7.9010 -0.2965 46.3346 0.5243 14.6158
# 5 30.1280 11.3965 0.4669 0.5243 23.6226 17.6117
# 6 10.4547 -11.3541 -0.4641 14.6158 17.6117 40.6098
#
#
#
# Elastic Compliance Matrix: (Units=1/GPa)
#
#
# Indices 1 2 3 4 5 6 
#
# 1 0.010079 0.003599 -0.002173 -0.006607 -0.022125 0.010360
# 2 0.003599 0.019486 -0.005575 -0.003337 -0.026639 0.017211
# 3 -0.002173 -0.005575 0.010527 0.001657 0.009335 -0.005524
# 4 -0.006607 -0.003337 0.001657 0.030052 0.024848 -0.020805
# 5 -0.022125 -0.026639 0.009335 0.024848 0.133832 -0.068628
# 6 0.010360 0.017211 -0.005524 -0.020805 -0.068628 0.063957
#
#
# Mechanical properties :
#
#
# Convention : Reuss Voigt Hill
#
# Bulk Modulus (GPa) = 31.45361 52.48697 41.97029
# Shear Modulus (GPa) = 17.43202 42.76095 30.09648
#
# Velocity S-wave (km/s) = 2.75333 4.31229 3.61778
# Velocity P-wave (km/s) = 4.87712 6.90072 5.97521
#
# Compressibility (1/GPa) = 0.03179285
#
# Stress axis : x y z
#
# Youngs Moduli (GPa) = 99.21883 51.31946 94.99259
#
# Poissons Ratio (x) = -0.18471 0.20643
# Poissons Ratio (y) = -0.35711 0.52963
# Poissons Ratio (z) = 0.21561 0.28613
#
# Static dielectric constant tensor:
#      x y z
#    x 2.053450 0.019480 0.022290 
#    y 0.019480 1.877050 0.008250 
#    z 0.022290 0.008250 1.786530 
# 
# From -- ./inp_files/8957.got.cif
#   From: 2010.05.17/outbox.cif.g08.bks.cpg/sg2_5_cif.got.tgz:8957.got - 2010.06.03 11:33:40.
