data_PCOD9036083
_publ_section_title
;
Structure prediction by ZEFSAII (Michael W. Deem and Ramdas Pophale) SiO2 
 PCOD9036083
Probable space group: P -1
;
_chemical_formula_sum "Si O2"
_cell_formula_units_Z 16
_cell_length_a 20.620876
_cell_length_b 18.068668
_cell_length_c 6.985141
_cell_angle_alpha 57.610729
_cell_angle_beta 129.221217
_cell_angle_gamma 160.864949
_cell_volume 641.112044
_symmetry_space_group_name_H-M "P -1"
_symmetry_group_IT_number 2
_symmetry_cell_setting 'triclinic'
loop_
_space_group_symop_operation_xyz
x,y,z
-x,-y,-z
loop_
_atom_site_type_symbol
_atom_site_label
_atom_site_fract_x
_atom_site_fract_y
_atom_site_fract_z
Si Si1 0.089825 0.724399 0.667978
Si Si2 0.681754 0.912680 0.133880
Si Si3 0.265380 0.769723 0.656917
Si Si4 0.610376 0.505870 0.978231
Si Si5 0.058123 0.156843 0.340546
Si Si6 0.435963 0.344912 0.290002
Si Si7 0.960097 0.152067 0.764587
Si Si8 0.583077 0.206915 0.401326
O O1 0.242948 0.790893 0.797425
O O2 0.054569 0.757606 0.376216
O O3 0.832894 0.452185 0.620189
O O4 0.223047 0.914541 0.801234
O O5 0.502136 0.659285 0.171411
O O6 0.551775 0.834645 0.822976
O O7 0.899175 0.069409 0.273088
O O8 0.365427 0.778178 0.740141
O O9 0.000000 0.500000 0.500000
O O10 0.413342 0.981393 0.515249
O O11 0.657479 0.652728 0.815972
O O12 0.444667 0.351801 0.063827
O O13 0.833401 0.672775 0.225767
O O14 0.311510 0.415738 0.510547
O O15 0.021219 0.153097 0.059973
O O16 0.000000 0.000000 0.500000
O O17 0.275548 0.111978 0.378091
#
# Coordination Sequence:
#
# PCOD9036083 Si02
#       8
#     2   2   2   2   2   2   2   2
#     4  11  25  41  68 104 139 175 224 275 344 406
#     4  12  24  43  68 100 139 182 228 278 339 400
#     4   9  21  45  75 103 133 178 215 271 339 408
#     4  11  23  45  64  92 134 177 234 286 338 391
#     4  12  25  43  67  92 133 183 234 286 342 394
#     4  11  24  44  64  88 134 180 228 296 335 387
#     4  12  25  42  68  99 129 181 235 283 340 405
#     4  10  22  47  72  97 143 173 217 281 332 405
#
# _framework density 24.956636
#
# number of rings (size 3 to 8) (size 9 to 14) (size 15 to 20)
#    0.000    1.000    3.750    2.625    1.750    2.000 
#    0.000    5.625    0.000    0.000    0.000    0.000 
#    0.000    0.000    0.000    0.000    0.000    0.000 
#
# Total GULP energy -89267.789708 kJ/mol
# GULP energy per Si atom -5579.236857 kJ/mol
# Density = 2.489983 g / cm^3
# Si number density = 24.956636 Si / 1000 Ang^3
#
#
#
# Elastic Constant Matrix: (Units=GPa)
#
#
# Indices 1 2 3 4 5 6 
#
# 1 82.6211 41.0474 17.4518 22.7138 4.6525 -4.9746
# 2 41.0474 165.5168 27.2246 34.9525 -4.0208 -9.0822
# 3 17.4518 27.2246 79.8615 23.4231 5.7161 2.6588
# 4 22.7138 34.9525 23.4231 38.3715 0.6101 1.8023
# 5 4.6525 -4.0208 5.7161 0.6101 41.8723 8.1289
# 6 -4.9746 -9.0822 2.6588 1.8023 8.1289 38.3710
#
#
#
# Elastic Compliance Matrix: (Units=1/GPa)
#
#
# Indices 1 2 3 4 5 6 
#
# 1 0.015476 -0.002224 -0.000522 -0.006890 -0.002210 0.002308
# 2 -0.002224 0.008020 -0.000710 -0.005651 0.000858 0.001743
# 3 -0.000522 -0.000710 0.015512 -0.008459 -0.001906 -0.000509
# 4 -0.006890 -0.005651 -0.008459 0.040608 0.001539 -0.003878
# 5 -0.002210 0.000858 -0.001906 0.001539 0.025501 -0.005426
# 6 0.002308 0.001743 -0.000509 -0.003878 -0.005426 0.028140
#
#
# Mechanical properties :
#
#
# Convention : Reuss Voigt Hill
#
# Bulk Modulus (GPa) = 31.15629 55.49411 43.32520
# Shear Modulus (GPa) = 33.14157 39.87467 36.50812
#
# Velocity S-wave (km/s) = 3.64808 4.00153 3.82889
# Velocity P-wave (km/s) = 5.50054 6.60562 6.07824
#
# Compressibility (1/GPa) = 0.03209625
#
# Stress axis : x y z
#
# Youngs Moduli (GPa) = 64.61542 124.69097 64.46558
#
# Poissons Ratio (x) = 0.27736 0.03363
# Poissons Ratio (y) = 0.14373 0.04577
# Poissons Ratio (z) = 0.03370 0.08853
#
# Static dielectric constant tensor:
#      x y z
#    x 2.050000 0.030860 -0.094560 
#    y 0.030860 2.075660 -0.039040 
#    z -0.094560 -0.039040 2.043260 
# 
# From -- ./inp_files/348450.got.cif
#   From: 2010.05.17/outbox.cif.g08.bks.cpg/sg2_175_cif.got.tgz:348450.got - 2010.06.03 11:33:40.
