data_PCOD9036669
_publ_section_title
;
Structure prediction by ZEFSAII (Michael W. Deem and Ramdas Pophale) SiO2 
 PCOD9036669
Probable space group: P -1
;
_chemical_formula_sum "Si O2"
_cell_formula_units_Z 14
_cell_length_a 24.287244
_cell_length_b 15.502997
_cell_length_c 14.666495
_cell_angle_alpha 30.671409
_cell_angle_beta 19.342089
_cell_angle_gamma 19.721869
_cell_volume 597.383764
_symmetry_space_group_name_H-M "P -1"
_symmetry_group_IT_number 2
_symmetry_cell_setting 'triclinic'
loop_
_space_group_symop_operation_xyz
x,y,z
-x,-y,-z
loop_
_atom_site_type_symbol
_atom_site_label
_atom_site_fract_x
_atom_site_fract_y
_atom_site_fract_z
Si Si1 0.903293 0.772047 0.965329
Si Si2 0.594555 0.586831 0.092046
Si Si3 0.988890 0.059495 0.570851
Si Si4 0.480558 0.730237 0.511944
Si Si5 0.826747 0.549500 0.426939
Si Si6 0.573714 0.864618 0.718733
Si Si7 0.360321 0.269639 0.928300
O O1 0.216376 0.512466 0.707545
O O2 0.867357 0.984956 0.872326
O O3 0.781562 0.715481 0.264924
O O4 0.742846 0.891475 0.012819
O O5 0.645508 0.353338 0.196539
O O6 0.696695 0.556330 0.059365
O O7 0.675860 0.664432 0.821052
O O8 0.279430 0.847477 0.349049
O O9 0.829591 0.352806 0.571849
O O10 0.000000 0.000000 0.500000
O O11 0.489602 0.756689 0.364780
O O12 0.351289 0.999022 0.510635
O O13 0.653760 0.722268 0.627780
O O14 0.109192 0.386141 0.168781
O O15 0.500000 0.000000 0.000000
#
# Coordination Sequence:
#
# PCOD9036669 Si02
#       7
#     2   2   2   2   2   2   2
#     4  10  23  39  62  88 125 164 204 244 298 371
#     4  11  22  40  66  91 120 162 209 255 294 365
#     4  11  22  39  64  91 115 160 212 248 297 363
#     4  10  23  38  67  91 119 164 212 249 297 365
#     4  11  26  40  61  93 128 162 198 256 311 362
#     4  12  23  39  60  95 130 161 195 254 318 358
#     4  11  20  44  66  86 121 162 215 251 298 360
#
# _framework density 23.435521999999999
#
# number of rings (size 3 to 8) (size 9 to 14) (size 15 to 20)
#    0.000    1.143    4.286    2.143    4.000    2.286 
#    0.000    0.714    0.000    0.000    0.000    0.000 
#    0.000    0.000    0.000    0.000    0.000    0.000 
#
# Total GULP energy -78273.091698 kJ/mol
# GULP energy per Si atom -5590.935121 kJ/mol
# Density = 2.338218 g / cm^3
# Si number density = 23.435522 Si / 1000 Ang^3
#
#
#
# Elastic Constant Matrix: (Units=GPa)
#
#
# Indices 1 2 3 4 5 6 
#
# 1 120.4113 51.1482 14.7714 -15.8868 -2.0319 18.8449
# 2 51.1482 138.7826 48.0071 -57.2184 2.1997 37.5455
# 3 14.7714 48.0071 36.3213 -33.2776 -3.6869 21.0077
# 4 -15.8868 -57.2184 -33.2776 42.5887 7.8140 -15.3386
# 5 -2.0319 2.1997 -3.6869 7.8140 22.6036 -7.9101
# 6 18.8449 37.5455 21.0077 -15.3386 -7.9101 54.5937
#
#
#
# Elastic Compliance Matrix: (Units=1/GPa)
#
#
# Indices 1 2 3 4 5 6 
#
# 1 0.010158 -0.005283 -0.000885 -0.004663 0.002739 -0.000446
# 2 -0.005283 0.024794 0.006347 0.035909 -0.017823 -0.010164
# 3 -0.000885 0.006347 0.124884 0.100405 -0.024652 -0.027477
# 4 -0.004663 0.035909 0.100405 0.147436 -0.048044 -0.027260
# 5 0.002739 -0.017823 -0.024652 -0.048044 0.064641 0.016666
# 6 -0.000446 -0.010164 -0.027477 -0.027260 0.016666 0.030790
#
#
# Mechanical properties :
#
#
# Convention : Reuss Voigt Hill
#
# Bulk Modulus (GPa) = 6.24240 58.15205 32.19722
# Shear Modulus (GPa) = 10.97107 36.06311 23.51709
#
# Velocity S-wave (km/s) = 2.16600 3.92704 3.17121
# Velocity P-wave (km/s) = 2.98745 6.74015 5.21318
#
# Compressibility (1/GPa) = 0.16019489
#
# Stress axis : x y z
#
# Youngs Moduli (GPa) = 98.44155 40.33205 8.00741
#
# Poissons Ratio (x) = 0.21307 0.00708
# Poissons Ratio (y) = 0.52006 -0.05082
# Poissons Ratio (z) = 0.08708 -0.25597
#
# Static dielectric constant tensor:
#      x y z
#    x 1.890880 -0.027050 0.033080 
#    y -0.027050 1.976560 -0.010750 
#    z 0.033080 -0.010750 1.954490 
# 
# From -- ./inp_files/256163.got.cif
#   From: 2010.05.17/outbox.cif.g08.bks.cpg/sg2_129_cif.got.tgz:256163.got - 2010.06.03 11:33:40.
