data_PCOD9036110
_publ_section_title
;
Structure prediction by ZEFSAII (Michael W. Deem and Ramdas Pophale) SiO2 
 PCOD9036110
Probable space group: P -1
;
_chemical_formula_sum "Si O2"
_cell_formula_units_Z 12
_cell_length_a 5.354780
_cell_length_b 5.107540
_cell_length_c 18.677339
_cell_angle_alpha 102.972608
_cell_angle_beta 65.545634
_cell_angle_gamma 97.753265
_cell_volume 452.620041
_symmetry_space_group_name_H-M "P -1"
_symmetry_group_IT_number 2
_symmetry_cell_setting 'triclinic'
loop_
_space_group_symop_operation_xyz
x,y,z
-x,-y,-z
loop_
_atom_site_type_symbol
_atom_site_label
_atom_site_fract_x
_atom_site_fract_y
_atom_site_fract_z
Si Si1 0.174769 0.150429 0.755377
Si Si2 0.583357 0.261133 0.053494
Si Si3 0.186459 0.743901 0.527960
Si Si4 0.288045 0.844695 0.372413
Si Si5 0.934930 0.400261 0.320916
Si Si6 0.054062 0.454178 0.091507
O O1 0.480826 0.052287 0.703507
O O2 0.159880 0.394071 0.715104
O O3 0.087130 0.282199 0.847245
O O4 0.000065 0.886330 0.737055
O O5 0.288876 0.373375 0.114682
O O6 0.806909 0.238042 0.088709
O O7 0.756361 0.471174 0.994968
O O8 0.500000 0.000000 0.000000
O O9 0.379006 0.836464 0.444514
O O10 0.276579 0.648356 0.589748
O O11 0.000000 0.500000 0.500000
O O12 0.979236 0.979867 0.583307
O O13 0.194780 0.551632 0.336445
#
# Coordination Sequence:
#
# PCOD9036110 Si02
#       6
#     2   2   2   2   2   2
#     4  12  28  41  69 102 135 185 229 290 362 419
#     4  10  22  47  74 103 141 185 233 282 354 424
#     4   9  20  43  68  91 137 181 235 298 347 423
#     4  10  23  45  65  98 136 181 235 300 354 416
#     4  11  25  45  63  99 136 180 234 285 359 416
#     4  10  25  43  69 109 138 183 236 288 348 433
#
# _framework density 26.512301999999998
#
# number of rings (size 3 to 8) (size 9 to 14) (size 15 to 20)
#    0.000    1.667    1.667    0.500    9.333    1.333 
#    0.000    0.000    0.000    0.000    0.000    0.000 
#    0.000    0.000    0.000    0.000    0.000    0.000 
#
# Total GULP energy -67093.147691 kJ/mol
# GULP energy per Si atom -5591.095641 kJ/mol
# Density = 2.645196 g / cm^3
# Si number density = 26.512302 Si / 1000 Ang^3
#
#
#
# Elastic Constant Matrix: (Units=GPa)
#
#
# Indices 1 2 3 4 5 6 
#
# 1 137.0590 41.4666 41.6957 9.2029 -13.9838 17.9512
# 2 41.4666 117.8673 26.3527 25.8417 7.3503 4.1353
# 3 41.6957 26.3527 107.1659 21.9758 -17.5911 10.1584
# 4 9.2029 25.8417 21.9758 55.3704 1.0710 14.2719
# 5 -13.9838 7.3503 -17.5911 1.0710 30.7962 5.7307
# 6 17.9512 4.1353 10.1584 14.2719 5.7307 47.2023
#
#
#
# Elastic Compliance Matrix: (Units=1/GPa)
#
#
# Indices 1 2 3 4 5 6 
#
# 1 0.009956 -0.003577 -0.002189 0.001860 0.004832 -0.004151
# 2 -0.003577 0.011390 -0.001641 -0.004687 -0.005641 0.002818
# 3 -0.002189 -0.001641 0.012624 -0.003631 0.007013 -0.001494
# 4 0.001860 -0.004687 -0.003631 0.023055 0.000301 -0.006523
# 5 0.004832 -0.005641 0.007013 0.000301 0.041493 -0.007981
# 6 -0.004151 0.002818 -0.001494 -0.006523 -0.007981 0.025780
#
#
# Mechanical properties :
#
#
# Convention : Reuss Voigt Hill
#
# Bulk Modulus (GPa) = 52.20194 64.56914 58.38554
# Shear Modulus (GPa) = 34.36528 43.51226 38.93877
#
# Velocity S-wave (km/s) = 3.60419 4.05558 3.83653
# Velocity P-wave (km/s) = 6.08709 6.80717 6.45718
#
# Compressibility (1/GPa) = 0.01915637
#
# Stress axis : x y z
#
# Youngs Moduli (GPa) = 100.44371 87.79733 79.21460
#
# Poissons Ratio (x) = 0.31401 0.17339
# Poissons Ratio (y) = 0.35924 0.13001
# Poissons Ratio (z) = 0.21986 0.14410
#
# Static dielectric constant tensor:
#      x y z
#    x 2.203400 -0.031170 0.043350 
#    y -0.031170 2.146140 -0.059560 
#    z 0.043350 -0.059560 2.065150 
# 
# From -- ./inp_files/7368.got.cif
#   From: 2010.05.17/outbox.cif.g08.bks.cpg/sg2_4_cif.got.tgz:7368.got - 2010.06.03 11:33:40.
