data_PCOD9036549
_publ_section_title
;
Structure prediction by ZEFSAII (Michael W. Deem and Ramdas Pophale) SiO2 
 PCOD9036549
Probable space group: P -1
;
_chemical_formula_sum "Si O2"
_cell_formula_units_Z 14
_cell_length_a 5.340451
_cell_length_b 19.651941
_cell_length_c 7.725266
_cell_angle_alpha 127.868479
_cell_angle_beta 63.847335
_cell_angle_gamma 99.764623
_cell_volume 568.651568
_symmetry_space_group_name_H-M "P -1"
_symmetry_group_IT_number 2
_symmetry_cell_setting 'triclinic'
loop_
_space_group_symop_operation_xyz
x,y,z
-x,-y,-z
loop_
_atom_site_type_symbol
_atom_site_label
_atom_site_fract_x
_atom_site_fract_y
_atom_site_fract_z
Si Si1 0.463694 0.310529 0.322565
Si Si2 0.811005 0.447972 0.356447
Si Si3 0.653424 0.959888 0.659704
Si Si4 0.898679 0.663060 0.197566
Si Si5 0.740772 0.894862 0.194147
Si Si6 0.306469 0.872351 0.880074
Si Si7 0.473575 0.736719 0.143325
O O1 0.738488 0.359361 0.330778
O O2 0.233511 0.349123 0.593384
O O3 0.543794 0.208123 0.180951
O O4 0.398552 0.317565 0.149199
O O5 0.500000 0.500000 0.500000
O O6 0.000000 0.500000 0.500000
O O7 0.959793 0.420990 0.085249
O O8 0.861815 0.918067 0.382115
O O9 0.512344 0.886181 0.683945
O O10 0.408803 0.021265 0.727352
O O11 0.749295 0.028662 0.871925
O O12 0.649855 0.705344 0.210707
O O13 0.149950 0.721878 0.232928
O O14 0.518215 0.833463 0.226827
O O15 0.989662 0.851518 0.926455
#
# Coordination Sequence:
#
# PCOD9036549 Si02
#       7
#     2   2   2   2   2   2   2
#     4  11  25  46  74 101 140 187 224 286 352 410
#     4  11  25  47  74 107 141 173 226 285 342 423
#     4  10  23  38  59  96 127 182 235 286 336 398
#     4  11  26  46  73 109 137 184 229 280 347 420
#     4  11  21  39  62  88 134 186 227 289 343 384
#     4  11  22  42  61  94 132 177 234 281 338 406
#     4  11  24  44  69 104 145 182 242 283 333 413
#
# _framework density 24.619648000000002
#
# number of rings (size 3 to 8) (size 9 to 14) (size 15 to 20)
#    0.000    1.143    1.429    5.143    0.000    6.857 
#   10.286    0.000    0.000    0.000    0.000    0.000 
#    0.000    0.000    0.000    0.000    0.000    0.000 
#
# Total GULP energy -78232.514812 kJ/mol
# GULP energy per Si atom -5588.036772 kJ/mol
# Density = 2.456361 g / cm^3
# Si number density = 24.619648 Si / 1000 Ang^3
#
#
#
# Elastic Constant Matrix: (Units=GPa)
#
#
# Indices 1 2 3 4 5 6 
#
# 1 119.1915 23.8065 13.5942 -6.5448 5.2477 19.4583
# 2 23.8065 78.4644 12.9604 -18.9570 11.5294 18.7134
# 3 13.5942 12.9604 94.4468 -25.3509 10.3123 18.3670
# 4 -6.5448 -18.9570 -25.3509 52.1194 4.8558 -6.1543
# 5 5.2477 11.5294 10.3123 4.8558 30.5919 4.3005
# 6 19.4583 18.7134 18.3670 -6.1543 4.3005 38.2431
#
#
#
# Elastic Compliance Matrix: (Units=1/GPa)
#
#
# Indices 1 2 3 4 5 6 
#
# 1 0.009418 -0.001913 -0.000385 -0.000112 -0.000232 -0.003663
# 2 -0.001913 0.017216 0.001727 0.006748 -0.006911 -0.006417
# 3 -0.000385 0.001727 0.014075 0.007296 -0.005701 -0.005593
# 4 -0.000112 0.006748 0.007296 0.025812 -0.008856 -0.001600
# 5 -0.000232 -0.006911 -0.005701 -0.008856 0.038594 0.000473
# 6 -0.003663 -0.006417 -0.005593 -0.001600 0.000473 0.033528
#
#
# Mechanical properties :
#
#
# Convention : Reuss Voigt Hill
#
# Bulk Modulus (GPa) = 25.27469 43.64721 34.46095
# Shear Modulus (GPa) = 32.68504 40.30701 36.49603
#
# Velocity S-wave (km/s) = 3.64758 4.05061 3.85436
# Velocity P-wave (km/s) = 5.29416 6.29632 5.81686
#
# Compressibility (1/GPa) = 0.03956527
#
# Stress axis : x y z
#
# Youngs Moduli (GPa) = 106.18029 58.08532 71.04689
#
# Poissons Ratio (x) = 0.11113 0.02738
# Poissons Ratio (y) = 0.20314 -0.12267
# Poissons Ratio (z) = 0.04092 -0.10029
#
# Static dielectric constant tensor:
#      x y z
#    x 1.991630 0.043740 0.089150 
#    y 0.043740 1.931440 0.044100 
#    z 0.089150 0.044100 2.035420 
# 
# From -- ./inp_files/141560.got.cif
#   From: 2010.05.17/outbox.cif.g08.bks.cpg/sg2_71_cif.got.tgz:141560.got - 2010.06.03 11:33:40.
