data_PCOD9036802
_publ_section_title
;
Structure prediction by ZEFSAII (Michael W. Deem and Ramdas Pophale) SiO2 
 PCOD9036802
Probable space group: P -1
;
_chemical_formula_sum "Si O2"
_cell_formula_units_Z 14
_cell_length_a 12.301062
_cell_length_b 7.508588
_cell_length_c 10.075192
_cell_angle_alpha 91.119470
_cell_angle_beta 130.185792
_cell_angle_gamma 73.368699
_cell_volume 663.620013
_symmetry_space_group_name_H-M "P -1"
_symmetry_group_IT_number 2
_symmetry_cell_setting 'triclinic'
loop_
_space_group_symop_operation_xyz
x,y,z
-x,-y,-z
loop_
_atom_site_type_symbol
_atom_site_label
_atom_site_fract_x
_atom_site_fract_y
_atom_site_fract_z
Si Si1 0.647691 0.222433 0.182992
Si Si2 0.369744 0.699897 0.359712
Si Si3 0.811332 0.775148 0.370349
Si Si4 0.868599 0.416323 0.242469
Si Si5 0.470726 0.216328 0.286876
Si Si6 0.151923 0.539447 0.083268
Si Si7 0.500911 0.811237 0.207277
O O1 0.544531 0.306848 0.231804
O O2 0.250473 0.657795 0.778261
O O3 0.251346 0.000225 0.710569
O O4 0.542870 0.222990 0.975455
O O5 0.500000 0.500000 0.500000
O O6 0.406014 0.837936 0.496871
O O7 0.204554 0.680960 0.221013
O O8 0.414239 0.739699 0.248584
O O9 0.836378 0.636331 0.260583
O O10 0.683379 0.733637 0.357730
O O11 0.967280 0.709167 0.572240
O O12 0.862990 0.393961 0.080296
O O13 0.304240 0.349859 0.204015
O O14 0.454227 0.034914 0.201601
O O15 0.000000 0.500000 0.000000
#
# Coordination Sequence:
#
# PCOD9036802 Si02
#       7
#     2   2   2   2   2   2   2
#     4  11  22  42  69  96 125 162 218 264 313 375
#     4  10  23  39  62  92 124 167 212 249 309 385
#     4  10  24  38  65  98 127 162 208 270 316 376
#     4  11  23  40  65  94 130 171 203 262 325 371
#     4  10  23  41  66  94 124 164 208 269 308 373
#     4  11  24  42  62  90 130 167 213 257 314 379
#     4  11  21  42  67  91 127 161 215 260 315 371
#
# _framework density 21.096411
#
# number of rings (size 3 to 8) (size 9 to 14) (size 15 to 20)
#    0.000    1.429    1.429    4.286    8.000    2.286 
#    0.000    3.571    0.000    0.000    0.000    0.000 
#    0.000    0.000    0.000    0.000    0.000    0.000 
#
# Total GULP energy -78210.402856 kJ/mol
# GULP energy per Si atom -5586.457347 kJ/mol
# Density = 2.104839 g / cm^3
# Si number density = 21.096411 Si / 1000 Ang^3
#
#
#
# Elastic Constant Matrix: (Units=GPa)
#
#
# Indices 1 2 3 4 5 6 
#
# 1 121.8017 16.6755 49.9427 2.7070 18.6715 7.7440
# 2 16.6755 40.4321 26.2427 0.9851 12.0263 0.8933
# 3 49.9427 26.2427 122.8092 21.0787 17.2174 -2.0718
# 4 2.7070 0.9851 21.0787 22.8987 2.0754 -0.7986
# 5 18.6715 12.0263 17.2174 2.0754 39.7892 3.0071
# 6 7.7440 0.8933 -2.0718 -0.7986 3.0071 26.0424
#
#
#
# Elastic Compliance Matrix: (Units=1/GPa)
#
#
# Indices 1 2 3 4 5 6 
#
# 1 0.010649 -0.000749 -0.004326 0.002903 -0.002818 -0.003071
# 2 -0.000749 0.030940 -0.006278 0.005112 -0.006518 -0.000429
# 3 -0.004326 -0.006278 0.013443 -0.011376 -0.001477 0.002393
# 4 0.002903 0.005112 -0.011376 0.053641 -0.000767 -0.000210
# 5 -0.002818 -0.006518 -0.001477 -0.000767 0.029290 -0.002462
# 6 -0.003071 -0.000429 0.002393 -0.000210 -0.002462 0.039795
#
#
# Mechanical properties :
#
#
# Convention : Reuss Voigt Hill
#
# Bulk Modulus (GPa) = 30.93332 52.30721 41.62026
# Shear Modulus (GPa) = 23.66984 30.55821 27.11403
#
# Velocity S-wave (km/s) = 3.35324 3.81005 3.58892
# Velocity P-wave (km/s) = 5.44857 6.64857 6.07826
#
# Compressibility (1/GPa) = 0.03232760
#
# Stress axis : x y z
#
# Youngs Moduli (GPa) = 93.90577 32.32068 74.38653
#
# Poissons Ratio (x) = 0.02421 0.32176
# Poissons Ratio (y) = 0.07034 0.46698
# Poissons Ratio (z) = 0.40620 0.20290
#
# Static dielectric constant tensor:
#      x y z
#    x 1.767950 -0.007780 -0.020410 
#    y -0.007780 1.831880 0.045650 
#    z -0.020410 0.045650 1.766600 
# 
# From -- ./inp_files/444793.got.cif
#   From: 2010.05.17/outbox.cif.g08.bks.cpg/sg2_223_cif.got.tgz:444793.got - 2010.06.03 11:33:40.
