data_PCOD9036047
_publ_section_title
;
Structure prediction by ZEFSAII (Michael W. Deem and Ramdas Pophale) SiO2 
 PCOD9036047
Probable space group: P -1
;
_chemical_formula_sum "Si O2"
_cell_formula_units_Z 10
_cell_length_a 5.434190
_cell_length_b 20.083698
_cell_length_c 5.010434
_cell_angle_alpha 133.129459
_cell_angle_beta 98.862897
_cell_angle_gamma 73.533963
_cell_volume 382.100159
_symmetry_space_group_name_H-M "P -1"
_symmetry_group_IT_number 2
_symmetry_cell_setting 'triclinic'
loop_
_space_group_symop_operation_xyz
x,y,z
-x,-y,-z
loop_
_atom_site_type_symbol
_atom_site_label
_atom_site_fract_x
_atom_site_fract_y
_atom_site_fract_z
Si Si1 0.128368 0.059547 0.980460
Si Si2 0.379440 0.213385 0.444841
Si Si3 0.349980 0.875732 0.286069
Si Si4 0.302052 0.564710 0.439344
Si Si5 0.749210 0.606981 0.386733
O O1 0.930808 0.102442 0.830748
O O2 0.361688 0.979334 0.676099
O O3 0.201575 0.150184 0.361771
O O4 0.000000 0.000000 0.000000
O O5 0.609589 0.191490 0.634063
O O6 0.256907 0.321561 0.662016
O O7 0.464577 0.168367 0.045745
O O8 0.500000 0.500000 0.500000
O O9 0.467955 0.634852 0.554058
O O10 0.007047 0.606045 0.594751
O O11 0.251204 0.496457 0.006145
#
# Coordination Sequence:
#
# PCOD9036047 Si02
#       5
#     2   2   2   2   2
#     4  11  25  44  70  97 138 187 236 287 352 410
#     4  12  27  42  68 101 138 182 234 293 344 420
#     4  11  26  44  65  98 138 183 231 289 349 411
#     4  10  22  47  71 100 138 183 221 291 356 424
#     4  10  25  42  69 104 137 177 237 282 354 423
#
# _framework density 26.171149
#
# number of rings (size 3 to 8) (size 9 to 14) (size 15 to 20)
#    0.000    1.200    2.000    1.800   11.200    0.000 
#    0.000    0.000    0.000    0.000    0.000    0.000 
#    0.000    0.000    0.000    0.000    0.000    0.000 
#
# Total GULP energy -55888.743985 kJ/mol
# GULP energy per Si atom -5588.874399 kJ/mol
# Density = 2.611158 g / cm^3
# Si number density = 26.171149 Si / 1000 Ang^3
#
#
#
# Elastic Constant Matrix: (Units=GPa)
#
#
# Indices 1 2 3 4 5 6 
#
# 1 157.7255 60.8289 36.2642 0.2947 30.6688 1.8272
# 2 60.8289 175.9492 17.6021 -5.4769 22.6822 -10.7965
# 3 36.2642 17.6021 67.5208 0.8910 -3.2114 11.0266
# 4 0.2947 -5.4769 0.8910 45.2018 4.8966 8.8821
# 5 30.6688 22.6822 -3.2114 4.8966 33.3299 -11.9953
# 6 1.8272 -10.7965 11.0266 8.8821 -11.9953 46.6129
#
#
#
# Elastic Compliance Matrix: (Units=1/GPa)
#
#
# Indices 1 2 3 4 5 6 
#
# 1 0.010092 -0.001860 -0.005024 0.001301 -0.009538 -0.002340
# 2 -0.001860 0.006901 -0.001114 0.000984 -0.002874 0.001008
# 3 -0.005024 -0.001114 0.018549 -0.000615 0.006281 -0.002716
# 4 0.001301 0.000984 -0.000615 0.024328 -0.007772 -0.006314
# 5 -0.009538 -0.002874 0.006281 -0.007772 0.046701 0.011721
# 6 -0.002340 0.001008 -0.002716 -0.006314 0.011721 0.026640
#
#
# Mechanical properties :
#
#
# Convention : Reuss Voigt Hill
#
# Bulk Modulus (GPa) = 51.16200 70.06509 60.61354
# Shear Modulus (GPa) = 32.10839 44.12895 38.11867
#
# Velocity S-wave (km/s) = 3.50646 4.11075 3.82057
# Velocity P-wave (km/s) = 5.99876 7.02574 6.53246
#
# Compressibility (1/GPa) = 0.01954576
#
# Stress axis : x y z
#
# Youngs Moduli (GPa) = 99.09099 144.90855 53.91033
#
# Poissons Ratio (x) = 0.26951 0.27084
# Poissons Ratio (y) = 0.18430 0.06008
# Poissons Ratio (z) = 0.49782 0.16148
#
# Static dielectric constant tensor:
#      x y z
#    x 2.196810 0.011070 -0.048530 
#    y 0.011070 2.023720 -0.031580 
#    z -0.048530 -0.031580 2.107750 
# 
# From -- ./inp_files/2548.got.cif
#   From: 2010.05.17/outbox.cif.g08.bks.cpg/sg2_2_cif.got.tgz:2548.got - 2010.06.03 11:33:40.
