data_PCOD9036446
_publ_section_title
;
Structure prediction by ZEFSAII (Michael W. Deem and Ramdas Pophale) SiO2 
 PCOD9036446
Probable space group: P -1
;
_chemical_formula_sum "Si O2"
_cell_formula_units_Z 16
_cell_length_a 15.526984
_cell_length_b 9.607498
_cell_length_c 7.860901
_cell_angle_alpha 104.013454
_cell_angle_beta 107.780149
_cell_angle_gamma 37.789067
_cell_volume 684.228742
_symmetry_space_group_name_H-M "P -1"
_symmetry_group_IT_number 2
_symmetry_cell_setting 'triclinic'
loop_
_space_group_symop_operation_xyz
x,y,z
-x,-y,-z
loop_
_atom_site_type_symbol
_atom_site_label
_atom_site_fract_x
_atom_site_fract_y
_atom_site_fract_z
Si Si1 0.236880 0.508971 0.683472
Si Si2 0.387236 0.581543 0.228411
Si Si3 0.265389 0.992036 0.092406
Si Si4 0.822244 0.836072 0.368357
Si Si5 0.487921 0.181614 0.002468
Si Si6 0.648547 0.895987 0.523646
Si Si7 0.287768 0.731446 0.589481
Si Si8 0.005922 0.639319 0.770911
O O1 0.388798 0.315816 0.814198
O O2 0.237260 0.372801 0.514190
O O3 0.226306 0.666569 0.619942
O O4 0.116885 0.628277 0.787956
O O5 0.315922 0.767540 0.094933
O O6 0.297338 0.710684 0.384660
O O7 0.546525 0.450292 0.310889
O O8 0.407411 0.390043 0.141440
O O9 0.355249 0.945500 0.977351
O O10 0.321292 0.030045 0.287134
O O11 0.095624 0.209287 0.084764
O O12 0.669572 0.960719 0.381531
O O13 0.910406 0.742396 0.571943
O O14 0.902692 0.619290 0.240877
O O15 0.804419 0.016921 0.342732
O O16 0.500000 0.000000 0.000000
O O17 0.500000 0.000000 0.500000
#
# Coordination Sequence:
#
# PCOD9036446 Si02
#       8
#     2   2   2   2   2   2   2   2
#     4  11  24  39  65  98 131 165 217 266 318 380
#     4  11  24  41  65  98 132 164 216 268 327 383
#     4  11  21  44  66  92 131 174 207 266 327 372
#     4   9  19  36  60  96 132 165 205 262 324 375
#     4  12  28  43  64  96 130 171 219 268 323 379
#     4  10  17  32  63  93 122 154 214 260 305 363
#     4  11  22  38  70 101 126 167 214 273 320 374
#     4   9  20  40  64  94 133 169 210 258 321 390
#
# _framework density 23.383990000000001
#
# number of rings (size 3 to 8) (size 9 to 14) (size 15 to 20)
#    0.000    1.500    5.000    1.125    7.000    0.500 
#    0.000    1.250    0.000    0.000    0.000    0.000 
#    0.000    0.000    0.000    0.000    0.000    0.000 
#
# Total GULP energy -89473.850267 kJ/mol
# GULP energy per Si atom -5592.115642 kJ/mol
# Density = 2.333077 g / cm^3
# Si number density = 23.383990 Si / 1000 Ang^3
#
#
#
# Elastic Constant Matrix: (Units=GPa)
#
#
# Indices 1 2 3 4 5 6 
#
# 1 158.6370 69.1985 15.3282 10.4252 -20.1922 18.8749
# 2 69.1985 118.5836 15.3951 16.3671 -12.7643 27.3774
# 3 15.3282 15.3951 41.6310 14.7347 -1.8509 7.5055
# 4 10.4252 16.3671 14.7347 28.7380 1.1901 0.0366
# 5 -20.1922 -12.7643 -1.8509 1.1901 30.7416 5.0700
# 6 18.8749 27.3774 7.5055 0.0366 5.0700 59.8745
#
#
#
# Elastic Compliance Matrix: (Units=1/GPa)
#
#
# Indices 1 2 3 4 5 6 
#
# 1 0.009004 -0.004353 -0.001207 -0.000342 0.004221 -0.001054
# 2 -0.004353 0.013411 -0.000096 -0.006160 0.003777 -0.005064
# 3 -0.001207 -0.000096 0.030668 -0.015319 0.002200 -0.003597
# 4 -0.000342 -0.006160 -0.015319 0.046542 -0.006390 0.005357
# 5 0.004221 0.003777 0.002200 -0.006390 0.038335 -0.006576
# 6 -0.001054 -0.005064 -0.003597 0.005357 -0.006576 0.020354
#
#
# Mechanical properties :
#
#
# Convention : Reuss Voigt Hill
#
# Bulk Modulus (GPa) = 23.93855 57.63282 40.78568
# Shear Modulus (GPa) = 27.24065 38.46614 32.85339
#
# Velocity S-wave (km/s) = 3.41681 4.06023 3.75234
# Velocity P-wave (km/s) = 5.08188 6.83231 6.02104
#
# Compressibility (1/GPa) = 0.04177362
#
# Stress axis : x y z
#
# Youngs Moduli (GPa) = 111.05910 74.56435 32.60683
#
# Poissons Ratio (x) = 0.32455 0.03935
# Poissons Ratio (y) = 0.48340 0.00312
# Poissons Ratio (z) = 0.13403 0.00713
#
# Static dielectric constant tensor:
#      x y z
#    x 1.913170 -0.062900 0.012470 
#    y -0.062900 1.903860 -0.039170 
#    z 0.012470 -0.039170 1.976060 
# 
# From -- ./inp_files/299291.got.cif
#   From: 2010.05.17/outbox.cif.g08.bks.cpg/sg2_150_cif.got.tgz:299291.got - 2010.06.03 11:33:40.
