data_PCOD9036238
_publ_section_title
;
Structure prediction by ZEFSAII (Michael W. Deem and Ramdas Pophale) SiO2 
 PCOD9036238
Probable space group: P -1
;
_chemical_formula_sum "Si O2"
_cell_formula_units_Z 16
_cell_length_a 12.403920
_cell_length_b 7.477401
_cell_length_c 9.887595
_cell_angle_alpha 49.289940
_cell_angle_beta 78.606150
_cell_angle_gamma 82.731378
_cell_volume 681.450573
_symmetry_space_group_name_H-M "P -1"
_symmetry_group_IT_number 2
_symmetry_cell_setting 'triclinic'
loop_
_space_group_symop_operation_xyz
x,y,z
-x,-y,-z
loop_
_atom_site_type_symbol
_atom_site_label
_atom_site_fract_x
_atom_site_fract_y
_atom_site_fract_z
Si Si1 0.793740 0.133162 0.160106
Si Si2 0.215058 0.324537 0.792125
Si Si3 0.331232 0.072331 0.290564
Si Si4 0.599776 0.179484 0.381257
Si Si5 0.309045 0.564065 0.207179
Si Si6 0.556039 0.676223 0.103652
Si Si7 0.840566 0.267231 0.592884
Si Si8 0.970377 0.925874 0.889932
O O1 0.789766 0.876569 0.220550
O O2 0.715020 0.122242 0.313053
O O3 0.919401 0.195976 0.131323
O O4 0.743991 0.305023 0.973437
O O5 0.342882 0.323014 0.813171
O O6 0.164070 0.556827 0.620056
O O7 0.136278 0.239137 0.976533
O O8 0.321780 0.291564 0.289889
O O9 0.377268 0.826345 0.462214
O O10 0.214714 0.981037 0.314471
O O11 0.407396 0.157648 0.108028
O O12 0.562242 0.402619 0.196473
O O13 0.500000 0.000000 0.500000
O O14 0.425735 0.691226 0.155126
O O15 0.230502 0.607235 0.333147
O O16 0.948144 0.164078 0.691789
O O17 0.000000 0.000000 0.000000
#
# Coordination Sequence:
#
# PCOD9036238 Si02
#       8
#     2   2   2   2   2   2   2   2
#     4  11  24  46  73 100 137 187 238 283 360 410
#     4  11  24  44  71 102 138 184 233 293 345 413
#     4  12  24  44  69 100 144 183 233 283 347 419
#     4  12  24  43  67 102 142 181 231 286 343 421
#     4  12  24  43  70 104 140 191 228 282 356 420
#     4  12  24  43  67  99 149 185 224 288 354 411
#     4  12  25  45  72 104 139 182 243 288 347 415
#     4  10  22  48  72  99 136 185 235 295 347 407
#
# _framework density 23.479324999999999
#
# number of rings (size 3 to 8) (size 9 to 14) (size 15 to 20)
#    0.000    0.500    7.500    1.875    0.000    5.500 
#    2.250    3.125    0.000    0.000    0.000    0.000 
#    0.000    0.000    0.000    0.000    0.000    0.000 
#
# Total GULP energy -89193.966473 kJ/mol
# GULP energy per Si atom -5574.622905 kJ/mol
# Density = 2.342588 g / cm^3
# Si number density = 23.479325 Si / 1000 Ang^3
#
#
#
# Elastic Constant Matrix: (Units=GPa)
#
#
# Indices 1 2 3 4 5 6 
#
# 1 114.8861 2.0690 59.3755 -4.6034 27.8479 -22.6382
# 2 2.0690 52.4764 16.7103 -8.8349 -2.4153 -2.3693
# 3 59.3755 16.7103 194.4890 -0.5476 18.8522 -21.4290
# 4 -4.6034 -8.8349 -0.5476 23.2433 3.6938 -1.1614
# 5 27.8479 -2.4153 18.8522 3.6938 31.3821 4.8108
# 6 -22.6382 -2.3693 -21.4290 -1.1614 4.8108 30.8044
#
#
#
# Elastic Compliance Matrix: (Units=1/GPa)
#
#
# Indices 1 2 3 4 5 6 
#
# 1 0.016738 0.001034 -0.002065 0.006964 -0.016464 0.013777
# 2 0.001034 0.021127 -0.002063 0.008113 0.000820 0.001128
# 3 -0.002065 -0.002063 0.006578 -0.000439 -0.002733 0.003310
# 4 0.006964 0.008113 -0.000439 0.049941 -0.012594 0.009287
# 5 -0.016464 0.000820 -0.002733 -0.012594 0.053145 -0.022713
# 6 0.013777 0.001128 0.003310 0.009287 -0.022713 0.048874
#
#
# Mechanical properties :
#
#
# Convention : Reuss Voigt Hill
#
# Bulk Modulus (GPa) = 26.14088 57.57346 41.85717
# Shear Modulus (GPa) = 23.21879 35.99908 29.60894
#
# Velocity S-wave (km/s) = 3.14810 3.91989 3.55500
# Velocity P-wave (km/s) = 4.93678 6.71279 5.89208
#
# Compressibility (1/GPa) = 0.03825426
#
# Stress axis : x y z
#
# Youngs Moduli (GPa) = 59.74519 47.33291 152.02536
#
# Poissons Ratio (x) = -0.04896 0.31396
# Poissons Ratio (y) = -0.06180 0.31369
# Poissons Ratio (z) = 0.12339 0.09767
#
# Static dielectric constant tensor:
#      x y z
#    x 2.993450 -0.052380 0.389650 
#    y -0.052380 1.953090 -0.072980 
#    z 0.389650 -0.072980 2.068350 
# 
# From -- ./inp_files/416080.got.cif
#   From: 2010.05.17/outbox.cif.g08.bks.cpg/sg2_209_cif.got.tgz:416080.got - 2010.06.03 11:33:40.
