data_PCOD9036133
_publ_section_title
;
Structure prediction by ZEFSAII (Michael W. Deem and Ramdas Pophale) SiO2 
 PCOD9036133
Probable space group: P -1
;
_chemical_formula_sum "Si O2"
_cell_formula_units_Z 13
_cell_length_a 6.325681
_cell_length_b 12.257598
_cell_length_c 12.246380
_cell_angle_alpha 44.434934
_cell_angle_beta 94.782744
_cell_angle_gamma 68.741221
_cell_volume 527.451236
_symmetry_space_group_name_H-M "P -1"
_symmetry_group_IT_number 2
_symmetry_cell_setting 'triclinic'
loop_
_space_group_symop_operation_xyz
x,y,z
-x,-y,-z
loop_
_atom_site_type_symbol
_atom_site_label
_atom_site_fract_x
_atom_site_fract_y
_atom_site_fract_z
Si Si1 0.500000 0.500000 0.500000
Si Si2 0.368718 0.141326 0.496560
Si Si3 0.515470 0.993258 0.835725
Si Si4 0.178175 0.610737 0.621000
Si Si5 0.590643 0.300118 0.032659
Si Si6 0.760327 0.536286 0.894562
Si Si7 0.915750 0.699398 0.236020
O O1 0.343922 0.610056 0.530524
O O2 0.793352 0.373662 0.666323
O O3 0.547673 0.053082 0.675280
O O4 0.291959 0.345075 0.301780
O O5 0.088708 0.190094 0.489146
O O6 0.500000 0.000000 0.500000
O O7 0.299614 0.186138 0.757063
O O8 0.393699 0.873769 0.898396
O O9 0.777506 0.855028 0.019422
O O10 0.090945 0.480173 0.663601
O O11 0.362729 0.491479 0.817330
O O12 0.489248 0.328775 0.131482
O O13 0.816677 0.329833 0.023582
O O14 0.000000 0.500000 0.000000
#
# Coordination Sequence:
#
# PCOD9036133 Si02
#       7
#     1   2   2   2   2   2   2
#     4  12  24  42  76 112 142 204 254 310 374 458
#     4  12  24  44  78 109 151 200 250 321 381 442
#     4  10  22  47  75 112 155 191 258 320 372 446
#     4  11  25  44  73 108 151 199 256 304 386 459
#     4  10  23  44  70 105 147 196 253 301 378 458
#     4  11  23  43  71 103 146 202 246 299 378 455
#     4  10  24  47  76 105 153 202 253 313 379 450
#
# _framework density 24.646830000000001
#
# number of rings (size 3 to 8) (size 9 to 14) (size 15 to 20)
#    0.000    1.231    4.615    0.462    2.154    0.000 
#    0.000   13.077    3.385    0.000    0.000    0.000 
#    0.000    0.000    0.000    0.000    0.000    0.000 
#
# Total GULP energy -72503.955923 kJ/mol
# GULP energy per Si atom -5577.227379 kJ/mol
# Density = 2.459073 g / cm^3
# Si number density = 24.646830 Si / 1000 Ang^3
#
#
#
# Elastic Constant Matrix: (Units=GPa)
#
#
# Indices 1 2 3 4 5 6 
#
# 1 82.7513 47.4852 60.9714 5.9778 22.4920 -2.3158
# 2 47.4852 158.8263 33.1849 18.8218 6.1377 -26.4330
# 3 60.9714 33.1849 162.3684 43.7746 23.1262 3.0400
# 4 5.9778 18.8218 43.7746 44.9447 -4.7070 -0.3598
# 5 22.4920 6.1377 23.1262 -4.7070 34.8453 4.4863
# 6 -2.3158 -26.4330 3.0400 -0.3598 4.4863 55.3196
#
#
#
# Elastic Compliance Matrix: (Units=1/GPa)
#
#
# Indices 1 2 3 4 5 6 
#
# 1 0.022866 -0.005742 -0.008082 0.006452 -0.007423 -0.000698
# 2 -0.005742 0.008866 0.001403 -0.004271 0.000137 0.003880
# 3 -0.008082 0.001403 0.013179 -0.012926 -0.005519 -0.000029
# 4 0.006452 -0.004271 -0.012926 0.036841 0.010357 -0.001661
# 5 -0.007423 0.000137 -0.005519 0.010357 0.038918 -0.003031
# 6 -0.000698 0.003880 -0.000029 -0.001661 -0.003031 0.020138
#
#
# Mechanical properties :
#
#
# Convention : Reuss Voigt Hill
#
# Bulk Modulus (GPa) = 49.82638 76.35876 63.09257
# Shear Modulus (GPa) = 29.01258 44.50889 36.76073
#
# Velocity S-wave (km/s) = 3.43466 4.25416 3.86618
# Velocity P-wave (km/s) = 5.99910 7.42825 6.75160
#
# Compressibility (1/GPa) = 0.02006969
#
# Stress axis : x y z
#
# Youngs Moduli (GPa) = 43.73297 112.78804 75.88054
#
# Poissons Ratio (x) = 0.64759 0.61328
# Poissons Ratio (y) = 0.25110 -0.10648
# Poissons Ratio (z) = 0.35346 -0.15827
#
# Static dielectric constant tensor:
#      x y z
#    x 2.049810 0.000950 -0.027230 
#    y 0.000950 2.003390 -0.029030 
#    z -0.027230 -0.029030 1.975350 
# 
# From -- ./inp_files/363708.got.cif
#   From: 2010.05.17/outbox.cif.g08.bks.cpg/sg2_182_cif.got.tgz:363708.got - 2010.06.03 11:33:40.
