data_PCOD9036356
_publ_section_title
;
Structure prediction by ZEFSAII (Michael W. Deem and Ramdas Pophale) SiO2 
 PCOD9036356
Probable space group: P -1
;
_chemical_formula_sum "Si O2"
_cell_formula_units_Z 14
_cell_length_a 7.326316
_cell_length_b 10.375834
_cell_length_c 13.729402
_cell_angle_alpha 106.316383
_cell_angle_beta 41.820819
_cell_angle_gamma 114.092146
_cell_volume 634.832355
_symmetry_space_group_name_H-M "P -1"
_symmetry_group_IT_number 2
_symmetry_cell_setting 'triclinic'
loop_
_space_group_symop_operation_xyz
x,y,z
-x,-y,-z
loop_
_atom_site_type_symbol
_atom_site_label
_atom_site_fract_x
_atom_site_fract_y
_atom_site_fract_z
Si Si1 0.891784 0.605081 0.735805
Si Si2 0.624372 0.835656 0.668324
Si Si3 0.900713 0.935615 0.382754
Si Si4 0.998533 0.308002 0.605600
Si Si5 0.350775 0.457427 0.793092
Si Si6 0.402726 0.759598 0.432247
Si Si7 0.993523 0.336996 0.084767
O O1 0.980788 0.460547 0.670810
O O2 0.606525 0.568542 0.775646
O O3 0.157571 0.722805 0.604896
O O4 0.844683 0.644880 0.873039
O O5 0.715027 0.930620 0.555033
O O6 0.295950 0.793954 0.819250
O O7 0.711521 0.699045 0.566848
O O8 0.838842 0.920887 0.684669
O O9 0.671722 0.894351 0.379146
O O10 0.025872 0.803888 0.321983
O O11 0.751806 0.244372 0.610012
O O12 0.481348 0.375475 0.646254
O O13 0.129327 0.530564 0.853876
O O14 0.188220 0.342333 0.914874
#
# Coordination Sequence:
#
# PCOD9036356 Si02
#       7
#     2   2   2   2   2   2   2
#     4  11  19  32  55  76 100 133 165 205 254 296
#     4   9  18  35  50  75 100 133 169 206 241 296
#     4   9  19  33  50  77 100 130 170 207 247 284
#     4   9  18  30  49  78 104 120 165 216 242 290
#     4  10  23  33  50  81 103 129 166 203 252 310
#     4  11  19  32  54  77 100 130 168 209 251 287
#     4  11  20  36  52  71 109 136 158 204 256 295
#
# _framework density 22.053068
#
# number of rings (size 3 to 8) (size 9 to 14) (size 15 to 20)
#    0.857    1.143    1.429    4.714    0.000    2.286 
#    0.000    0.714    0.000    3.429    0.000    0.000 
#    0.000    0.000    0.000    0.000    0.000    0.000 
#
# Total GULP energy -78120.465771 kJ/mol
# GULP energy per Si atom -5580.033269 kJ/mol
# Density = 2.200287 g / cm^3
# Si number density = 22.053068 Si / 1000 Ang^3
#
#
#
# Elastic Constant Matrix: (Units=GPa)
#
#
# Indices 1 2 3 4 5 6 
#
# 1 60.3634 9.4394 -1.7118 5.9073 9.4464 13.5237
# 2 9.4394 56.8152 -9.8661 -5.3315 0.3868 16.8602
# 3 -1.7118 -9.8661 37.4572 -16.8009 3.6405 9.3574
# 4 5.9073 -5.3315 -16.8009 20.4497 -0.7465 -12.8741
# 5 9.4464 0.3868 3.6405 -0.7465 20.0278 6.6791
# 6 13.5237 16.8602 9.3574 -12.8741 6.6791 44.3523
#
#
#
# Elastic Compliance Matrix: (Units=1/GPa)
#
#
# Indices 1 2 3 4 5 6 
#
# 1 0.021415 -0.003443 -0.004397 -0.015880 -0.007221 -0.007815
# 2 -0.003443 0.024174 0.014463 0.014743 0.001456 -0.007131
# 3 -0.004397 0.014463 0.052279 0.047434 -0.005756 -0.000552
# 4 -0.015880 0.014743 0.047434 0.109867 -0.004596 0.021813
# 5 -0.007221 0.001456 -0.005756 -0.004596 0.056511 -0.006982
# 6 -0.007815 -0.007131 -0.000552 0.021813 -0.006982 0.035140
#
#
# Mechanical properties :
#
#
# Convention : Reuss Voigt Hill
#
# Bulk Modulus (GPa) = 8.99975 16.70653 12.85314
# Shear Modulus (GPa) = 15.47134 27.41759 21.44446
#
# Velocity S-wave (km/s) = 2.65155 3.52981 3.12172
# Velocity P-wave (km/s) = 3.66935 4.91983 4.33987
#
# Compressibility (1/GPa) = 0.11111425
#
# Stress axis : x y z
#
# Youngs Moduli (GPa) = 46.69622 41.36637 19.12812
#
# Poissons Ratio (x) = 0.14243 0.08410
# Poissons Ratio (y) = 0.16078 -0.27665
# Poissons Ratio (z) = 0.20531 -0.59828
#
# Static dielectric constant tensor:
#      x y z
#    x 1.842970 -0.030570 0.014210 
#    y -0.030570 1.865840 -0.011840 
#    z 0.014210 -0.011840 1.797890 
# 
# From -- ./inp_files/498170.got.cif
#   From: 2010.05.17/outbox.cif.g08.bks.cpg/sg2_250_cif.got.tgz:498170.got - 2010.06.03 11:33:40.
