data_PCOD9036858
_publ_section_title
;
Structure prediction by ZEFSAII (Michael W. Deem and Ramdas Pophale) SiO2 
 PCOD9036858
Probable space group: P -1
;
_chemical_formula_sum "Si O2"
_cell_formula_units_Z 14
_cell_length_a 8.156285
_cell_length_b 22.880297
_cell_length_c 13.734241
_cell_angle_alpha 158.697678
_cell_angle_beta 134.692582
_cell_angle_gamma 36.275409
_cell_volume 537.125664
_symmetry_space_group_name_H-M "P -1"
_symmetry_group_IT_number 2
_symmetry_cell_setting 'triclinic'
loop_
_space_group_symop_operation_xyz
x,y,z
-x,-y,-z
loop_
_atom_site_type_symbol
_atom_site_label
_atom_site_fract_x
_atom_site_fract_y
_atom_site_fract_z
Si Si1 0.788276 0.435579 0.797195
Si Si2 0.803103 0.368761 0.155054
Si Si3 0.387941 0.283673 0.241364
Si Si4 0.365870 0.048637 0.628715
Si Si5 0.082473 0.949604 0.652633
Si Si6 0.234860 0.462476 0.267276
Si Si7 0.357575 0.132748 0.330837
O O1 0.475694 0.577436 0.936352
O O2 0.907288 0.213187 0.529918
O O3 0.707849 0.469272 0.702547
O O4 0.000000 0.500000 0.000000
O O5 0.700094 0.572276 0.481695
O O6 0.098337 0.299197 0.119943
O O7 0.913582 0.176630 0.971489
O O8 0.443047 0.365560 0.295665
O O9 0.628480 0.052264 0.996854
O O10 0.110300 0.026860 0.482142
O O11 0.500000 0.000000 0.500000
O O12 0.569453 0.922607 0.609308
O O13 0.234435 0.277782 0.944749
O O14 0.393064 0.871382 0.625011
O O15 0.934603 0.655725 0.476113
#
# Coordination Sequence:
#
# PCOD9036858 Si02
#       7
#     2   2   2   2   2   2   2
#     4  12  25  41  61  97 132 172 212 262 330 385
#     4  10  23  44  72  90 130 168 217 271 321 386
#     4   9  22  47  67  96 122 171 220 268 322 380
#     4  11  22  38  60  91 131 170 214 262 326 389
#     4  11  23  39  63  95 125 174 216 261 325 385
#     4  11  23  40  64  91 132 170 209 269 321 384
#     4  10  23  39  64  95 127 167 219 267 319 385
#
# _framework density 26.064661999999998
#
# number of rings (size 3 to 8) (size 9 to 14) (size 15 to 20)
#    0.000    1.429    1.429    3.000    2.000    3.429 
#    0.000    5.714    0.000    0.000    0.000    0.000 
#    0.000    0.000    0.000    0.000    0.000    0.000 
#
# Total GULP energy -78288.817017 kJ/mol
# GULP energy per Si atom -5592.058358 kJ/mol
# Density = 2.600534 g / cm^3
# Si number density = 26.064662 Si / 1000 Ang^3
#
#
#
# Elastic Constant Matrix: (Units=GPa)
#
#
# Indices 1 2 3 4 5 6 
#
# 1 87.1441 14.2257 40.5171 4.7362 16.3348 -0.0246
# 2 14.2257 77.1166 42.1802 16.5315 13.1837 5.8924
# 3 40.5171 42.1802 179.8313 37.6496 -0.5682 16.3488
# 4 4.7362 16.5315 37.6496 44.5404 3.0491 1.7657
# 5 16.3348 13.1837 -0.5682 3.0491 43.2715 5.8218
# 6 -0.0246 5.8924 16.3488 1.7657 5.8218 46.7525
#
#
#
# Elastic Compliance Matrix: (Units=1/GPa)
#
#
# Indices 1 2 3 4 5 6 
#
# 1 0.014246 -0.000152 -0.003810 0.002079 -0.005797 0.002002
# 2 -0.000152 0.016164 -0.003117 -0.003020 -0.004661 -0.000253
# 3 -0.003810 -0.003117 0.008643 -0.005858 0.003293 -0.002821
# 4 0.002079 -0.003020 -0.005858 0.028386 -0.002161 0.001627
# 5 -0.005797 -0.004661 0.003293 -0.002161 0.027439 -0.003902
# 6 0.002002 -0.000253 -0.002821 0.001627 -0.003902 0.022833
#
#
# Mechanical properties :
#
#
# Convention : Reuss Voigt Hill
#
# Bulk Modulus (GPa) = 40.16640 59.77087 49.96864
# Shear Modulus (GPa) = 35.67207 43.39083 39.53145
#
# Velocity S-wave (km/s) = 3.70347 4.08455 3.89867
# Velocity P-wave (km/s) = 5.80787 6.72505 6.28322
#
# Compressibility (1/GPa) = 0.02489643
#
# Stress axis : x y z
#
# Youngs Moduli (GPa) = 70.19745 61.86750 115.69555
#
# Poissons Ratio (x) = 0.00939 0.44076
# Poissons Ratio (y) = 0.01065 0.36058
# Poissons Ratio (z) = 0.26743 0.19282
#
# Static dielectric constant tensor:
#      x y z
#    x 2.128330 -0.054830 0.022180 
#    y -0.054830 2.115700 -0.051520 
#    z 0.022180 -0.051520 2.137180 
# 
# From -- ./inp_files/508518.got.cif
#   From: 2010.05.17/outbox.cif.g08.bks.cpg/sg2_255_cif.got.tgz:508518.got - 2010.06.03 11:33:40.
