data_PCOD9036520
_publ_section_title
;
Structure prediction by ZEFSAII (Michael W. Deem and Ramdas Pophale) SiO2 
 PCOD9036520
Probable space group: P -1
;
_chemical_formula_sum "Si O2"
_cell_formula_units_Z 12
_cell_length_a 9.115195
_cell_length_b 11.142141
_cell_length_c 11.394198
_cell_angle_alpha 66.473490
_cell_angle_beta 140.996805
_cell_angle_gamma 127.943380
_cell_volume 567.105191
_symmetry_space_group_name_H-M "P -1"
_symmetry_group_IT_number 2
_symmetry_cell_setting 'triclinic'
loop_
_space_group_symop_operation_xyz
x,y,z
-x,-y,-z
loop_
_atom_site_type_symbol
_atom_site_label
_atom_site_fract_x
_atom_site_fract_y
_atom_site_fract_z
Si Si1 0.072001 0.291917 0.511605
Si Si2 0.170526 0.250196 0.212226
Si Si3 0.679444 0.978109 0.525075
Si Si4 0.481712 0.499670 0.127835
Si Si5 0.896199 0.374684 0.136859
Si Si6 0.534336 0.315957 0.622481
O O1 0.228254 0.423333 0.655668
O O2 0.918062 0.329188 0.301357
O O3 0.301147 0.279133 0.585916
O O4 0.870653 0.133446 0.513643
O O5 0.147520 0.087819 0.278509
O O6 0.274876 0.331882 0.120747
O O7 0.922497 0.260722 0.108377
O O8 0.423795 0.356064 0.419545
O O9 0.485230 0.840543 0.367549
O O10 0.500000 0.000000 0.500000
O O11 0.500000 0.500000 0.000000
O O12 0.358438 0.605597 0.040958
O O13 0.167166 0.543705 0.217275
#
# Coordination Sequence:
#
# PCOD9036520 Si02
#       6
#     2   2   2   2   2   2
#     4  11  21  43  62  93 126 159 218 244 309 377
#     4   9  20  42  60  92 122 161 211 248 307 369
#     4  10  23  37  67  92 127 170 196 255 319 369
#     4  12  26  37  63  98 125 160 210 263 308 362
#     4  11  21  40  72  89 120 165 208 265 303 360
#     4   9  19  39  69  91 116 166 206 254 301 368
#
# _framework density 21.160094000000001
#
# number of rings (size 3 to 8) (size 9 to 14) (size 15 to 20)
#    1.000    0.667    3.333    2.000    4.667    0.667 
#    0.000    3.333    0.000    0.000    0.000    0.000 
#    0.000    0.000    0.000    0.000    0.000    0.000 
#
# Total GULP energy -66982.054783 kJ/mol
# GULP energy per Si atom -5581.837899 kJ/mol
# Density = 2.111193 g / cm^3
# Si number density = 21.160094 Si / 1000 Ang^3
#
#
#
# Elastic Constant Matrix: (Units=GPa)
#
#
# Indices 1 2 3 4 5 6 
#
# 1 88.0676 32.2926 21.5586 -10.6970 -19.0222 27.0385
# 2 32.2926 93.5505 15.5426 -22.3193 -3.3593 29.5358
# 3 21.5586 15.5426 61.5715 -22.8105 -10.2081 15.3588
# 4 -10.6970 -22.3193 -22.8105 25.3045 0.1037 -12.7813
# 5 -19.0222 -3.3593 -10.2081 0.1037 34.9808 -14.5354
# 6 27.0385 29.5358 15.3588 -12.7813 -14.5354 31.5571
#
#
#
# Elastic Compliance Matrix: (Units=1/GPa)
#
#
# Indices 1 2 3 4 5 6 
#
# 1 0.016534 -0.002801 -0.003284 -0.003258 0.003824 -0.009505
# 2 -0.002801 0.017752 0.002921 0.010237 -0.004663 -0.013638
# 3 -0.003284 0.002921 0.027238 0.025858 0.006484 0.000283
# 4 -0.003258 0.010237 0.025858 0.080578 0.014876 0.020113
# 5 0.003824 -0.004663 0.006484 0.014876 0.041690 0.023160
# 6 -0.009505 -0.013638 0.000283 0.020113 0.023160 0.071274
#
#
# Mechanical properties :
#
#
# Convention : Reuss Voigt Hill
#
# Bulk Modulus (GPa) = 18.11746 42.44192 30.27969
# Shear Modulus (GPa) = 17.87032 29.95487 23.91259
#
# Velocity S-wave (km/s) = 2.90923 3.76657 3.36531
# Velocity P-wave (km/s) = 4.45707 6.24637 5.42599
#
# Compressibility (1/GPa) = 0.05519538
#
# Stress axis : x y z
#
# Youngs Moduli (GPa) = 60.47991 56.33268 36.71355
#
# Poissons Ratio (x) = 0.15778 0.12058
# Poissons Ratio (y) = 0.16940 -0.10724
# Poissons Ratio (z) = 0.19864 -0.16455
#
# Static dielectric constant tensor:
#      x y z
#    x 1.768830 -0.033020 -0.018270 
#    y -0.033020 1.746860 -0.012470 
#    z -0.018270 -0.012470 1.824970 
# 
# From -- ./inp_files/179286.got.cif
#   From: 2010.05.17/outbox.cif.g08.bks.cpg/sg2_90_cif.got.tgz:179286.got - 2010.06.03 11:33:40.
