data_PCOD9036562
_publ_section_title
;
Structure prediction by ZEFSAII (Michael W. Deem and Ramdas Pophale) SiO2 
 PCOD9036562
Probable space group: P -1
;
_chemical_formula_sum "Si O2"
_cell_formula_units_Z 16
_cell_length_a 8.725553
_cell_length_b 12.246904
_cell_length_c 7.859950
_cell_angle_alpha 106.828882
_cell_angle_beta 52.919482
_cell_angle_gamma 88.655629
_cell_volume 619.443295
_symmetry_space_group_name_H-M "P -1"
_symmetry_group_IT_number 2
_symmetry_cell_setting 'triclinic'
loop_
_space_group_symop_operation_xyz
x,y,z
-x,-y,-z
loop_
_atom_site_type_symbol
_atom_site_label
_atom_site_fract_x
_atom_site_fract_y
_atom_site_fract_z
Si Si1 0.803035 0.170656 0.997761
Si Si2 0.745002 0.833146 0.811099
Si Si3 0.205611 0.491412 0.087274
Si Si4 0.834330 0.143368 0.331191
Si Si5 0.331008 0.954576 0.284539
Si Si6 0.661338 0.419730 0.627013
Si Si7 0.624484 0.654481 0.594745
Si Si8 0.092520 0.322785 0.870217
O O1 0.804517 0.102173 0.142254
O O2 0.605879 0.280628 0.188513
O O3 0.782555 0.103517 0.808988
O O4 0.004345 0.211555 0.888224
O O5 0.739527 0.704769 0.690196
O O6 0.945437 0.852044 0.760353
O O7 0.692002 0.914520 0.712041
O O8 0.560776 0.883058 0.082140
O O9 0.203705 0.551261 0.297706
O O10 0.074322 0.585470 0.087535
O O11 0.435268 0.455131 0.861450
O O12 0.123705 0.376646 0.056603
O O13 0.752957 0.066918 0.488085
O O14 0.720370 0.282742 0.481277
O O15 0.668322 0.513731 0.517459
O O16 0.708675 0.689425 0.377689
#
# Coordination Sequence:
#
# PCOD9036562 Si02
#       8
#     2   2   2   2   2   2   2   2
#     4  11  25  44  66 102 135 173 224 278 334 390
#     4  10  24  45  74  97 128 179 224 275 333 399
#     4  10  23  38  61  87 135 185 213 269 321 386
#     4  12  26  41  72 102 130 178 223 270 337 402
#     4  10  24  51  70  95 137 171 221 286 337 383
#     4  11  24  40  63  99 136 178 217 267 330 399
#     4  11  24  43  66  94 140 178 218 273 333 393
#     4  11  23  40  60  93 132 178 222 268 321 391
#
# _framework density 25.829644999999999
#
# number of rings (size 3 to 8) (size 9 to 14) (size 15 to 20)
#    0.000    1.250    1.250    3.375   10.500    3.500 
#    0.000    5.625    0.000    0.000    0.000    0.000 
#    0.000    0.000    0.000    0.000    0.000    0.000 
#
# Total GULP energy -89741.387435 kJ/mol
# GULP energy per Si atom -5608.836715 kJ/mol
# Density = 2.577086 g / cm^3
# Si number density = 25.829645 Si / 1000 Ang^3
#
#
#
# Elastic Constant Matrix: (Units=GPa)
#
#
# Indices 1 2 3 4 5 6 
#
# 1 95.8597 10.4175 35.4809 -8.8463 8.8085 5.6260
# 2 10.4175 77.1529 24.3995 5.0080 -7.2922 2.2826
# 3 35.4809 24.3995 60.6402 -16.0363 -7.3140 -3.6378
# 4 -8.8463 5.0080 -16.0363 39.5875 -0.1316 1.7718
# 5 8.8085 -7.2922 -7.3140 -0.1316 46.2928 -3.6505
# 6 5.6260 2.2826 -3.6378 1.7718 -3.6505 29.1719
#
#
#
# Elastic Compliance Matrix: (Units=1/GPa)
#
#
# Indices 1 2 3 4 5 6 
#
# 1 0.014649 0.000919 -0.009955 -0.000681 -0.004586 -0.004671
# 2 0.000919 0.015938 -0.008316 -0.005085 0.000846 -0.002047
# 3 -0.009955 -0.008316 0.029521 0.010522 0.005778 0.006336
# 4 -0.000681 -0.005085 0.010522 0.030010 0.001088 0.000155
# 5 -0.004586 0.000846 0.005778 0.001088 0.023875 0.004460
# 6 -0.004671 -0.002047 0.006336 0.000155 0.004460 0.036679
#
#
# Mechanical properties :
#
#
# Convention : Reuss Voigt Hill
#
# Bulk Modulus (GPa) = 39.36318 41.58318 40.47318
# Shear Modulus (GPa) = 25.79398 33.90077 29.84737
#
# Velocity S-wave (km/s) = 3.16352 3.62674 3.40302
# Velocity P-wave (km/s) = 5.34943 5.80273 5.58068
#
# Compressibility (1/GPa) = 0.02540445
#
# Stress axis : x y z
#
# Youngs Moduli (GPa) = 68.26307 62.74436 33.87451
#
# Poissons Ratio (x) = -0.05767 0.33721
# Poissons Ratio (y) = -0.06274 0.28170
# Poissons Ratio (z) = 0.67954 0.52179
#
# Static dielectric constant tensor:
#      x y z
#    x 1.989980 -0.002340 0.005240 
#    y -0.002340 2.033830 0.018980 
#    z 0.005240 0.018980 2.020270 
# 
# From -- ./inp_files/187243.got.cif
#   From: 2010.05.17/outbox.cif.g08.bks.cpg/sg2_94_cif.got.tgz:187243.got - 2010.06.03 11:33:40.
