data_PCOD9036943
_publ_section_title
;
Structure prediction by ZEFSAII (Michael W. Deem and Ramdas Pophale) SiO2 
 PCOD9036943
Probable space group: P -1
;
_chemical_formula_sum "Si O2"
_cell_formula_units_Z 14
_cell_length_a 9.789084
_cell_length_b 8.044701
_cell_length_c 9.472729
_cell_angle_alpha 63.697554
_cell_angle_beta 74.017213
_cell_angle_gamma 73.707129
_cell_volume 631.924292
_symmetry_space_group_name_H-M "P -1"
_symmetry_group_IT_number 2
_symmetry_cell_setting 'triclinic'
loop_
_space_group_symop_operation_xyz
x,y,z
-x,-y,-z
loop_
_atom_site_type_symbol
_atom_site_label
_atom_site_fract_x
_atom_site_fract_y
_atom_site_fract_z
Si Si1 0.427365 0.037340 0.159732
Si Si2 0.113779 0.094210 0.791150
Si Si3 0.124587 0.295302 0.202817
Si Si4 0.629151 0.323197 0.511623
Si Si5 0.047692 0.688171 0.476873
Si Si6 0.394856 0.905911 0.661066
Si Si7 0.056258 0.700653 0.019518
O O1 0.266014 0.158037 0.161350
O O2 0.525001 0.143615 0.194719
O O3 0.413537 0.843290 0.316492
O O4 0.500000 0.000000 0.000000
O O5 0.982473 0.154214 0.696537
O O6 0.086140 0.252702 0.858786
O O7 0.258538 0.068960 0.671385
O O8 0.121764 0.889809 0.936489
O O9 0.152281 0.510236 0.118937
O O10 0.059565 0.242977 0.388445
O O11 0.995701 0.311207 0.120272
O O12 0.500000 0.500000 0.500000
O O13 0.786625 0.352921 0.506802
O O14 0.644062 0.256249 0.368028
O O15 0.000000 0.500000 0.500000
O O16 0.500000 0.000000 0.500000
#
# Coordination Sequence:
#
# PCOD9036943 Si02
#       7
#     2   2   2   2   2   2   2
#     4  11  25  45  70 101 142 185 224 289 348 417
#     4  11  22  42  65  96 131 168 233 269 347 388
#     4  11  23  43  66  96 136 172 235 271 352 395
#     4  11  27  45  70 101 141 183 233 281 353 410
#     4  12  25  41  72 102 133 180 234 291 328 406
#     4  10  23  41  67  94 136 182 218 281 343 410
#     4  10  23  39  66  94 129 172 212 294 331 411
#
# _framework density 22.154551999999999
#
# number of rings (size 3 to 8) (size 9 to 14) (size 15 to 20)
#    0.000    1.143    1.429    4.286    6.000    6.286 
#    0.000    1.429    0.000    0.000    0.000    0.000 
#    0.000    0.000    0.000    0.000    0.000    0.000 
#
# Total GULP energy -78227.076568 kJ/mol
# GULP energy per Si atom -5587.648326 kJ/mol
# Density = 2.210413 g / cm^3
# Si number density = 22.154552 Si / 1000 Ang^3
#
#
#
# Elastic Constant Matrix: (Units=GPa)
#
#
# Indices 1 2 3 4 5 6 
#
# 1 102.5156 19.1872 26.3535 9.8175 -5.9224 -4.9245
# 2 19.1872 104.1318 46.4204 -0.9558 -16.2487 -19.8304
# 3 26.3535 46.4204 126.8616 22.2429 4.1274 -6.4102
# 4 9.8175 -0.9558 22.2429 49.3812 -3.7096 3.1976
# 5 -5.9224 -16.2487 4.1274 -3.7096 28.8896 10.5981
# 6 -4.9245 -19.8304 -6.4102 3.1976 10.5981 38.1287
#
#
#
# Elastic Compliance Matrix: (Units=1/GPa)
#
#
# Indices 1 2 3 4 5 6 
#
# 1 0.010586 -0.000902 -0.001689 -0.001254 0.001647 0.000261
# 2 -0.000902 0.014268 -0.005665 0.003324 0.007626 0.003953
# 3 -0.001689 -0.005665 0.011522 -0.005495 -0.006239 0.000968
# 4 -0.001254 0.003324 -0.005495 0.023743 0.006615 -0.003187
# 5 0.001647 0.007626 -0.006239 0.006615 0.044583 -0.009817
# 6 0.000261 0.003953 0.000968 -0.003187 -0.009817 0.031475
#
#
# Mechanical properties :
#
#
# Convention : Reuss Voigt Hill
#
# Bulk Modulus (GPa) = 50.34490 57.49237 53.91863
# Shear Modulus (GPa) = 31.38546 39.38309 35.38427
#
# Velocity S-wave (km/s) = 3.76794 4.22080 4.00078
# Velocity P-wave (km/s) = 6.45783 7.05411 6.76254
#
# Compressibility (1/GPa) = 0.01986299
#
# Stress axis : x y z
#
# Youngs Moduli (GPa) = 94.46829 70.08747 86.79385
#
# Poissons Ratio (x) = 0.06323 0.14663
# Poissons Ratio (y) = 0.08522 0.49165
# Poissons Ratio (z) = 0.15959 0.39701
#
# Static dielectric constant tensor:
#      x y z
#    x 1.842360 0.055450 -0.002260 
#    y 0.055450 1.867530 -0.005700 
#    z -0.002260 -0.005700 1.845690 
# 
# From -- ./inp_files/157124.got.cif
#   From: 2010.05.17/outbox.cif.g08.bks.cpg/sg2_79_cif.got.tgz:157124.got - 2010.06.03 11:33:40.
