data_PCOD9036672
_publ_section_title
;
Structure prediction by ZEFSAII (Michael W. Deem and Ramdas Pophale) SiO2 
 PCOD9036672
Probable space group: P -1
;
_chemical_formula_sum "Si O2"
_cell_formula_units_Z 16
_cell_length_a 9.662580
_cell_length_b 5.254629
_cell_length_c 23.027060
_cell_angle_alpha 63.193056
_cell_angle_beta 64.895240
_cell_angle_gamma 107.090627
_cell_volume 755.688059
_symmetry_space_group_name_H-M "P -1"
_symmetry_group_IT_number 2
_symmetry_cell_setting 'triclinic'
loop_
_space_group_symop_operation_xyz
x,y,z
-x,-y,-z
loop_
_atom_site_type_symbol
_atom_site_label
_atom_site_fract_x
_atom_site_fract_y
_atom_site_fract_z
Si Si1 0.114080 0.781066 0.841057
Si Si2 0.965153 0.017444 0.937835
Si Si3 0.695558 0.866177 0.761962
Si Si4 0.561411 0.369845 0.723150
Si Si5 0.650367 0.922963 0.426690
Si Si6 0.475517 0.249260 0.409681
Si Si7 0.531467 0.698066 0.034049
Si Si8 0.904760 0.919636 0.301944
O O1 0.101939 0.439978 0.857892
O O2 0.331444 0.090058 0.788323
O O3 0.039276 0.869178 0.789645
O O4 0.994881 0.774853 0.917142
O O5 0.753510 0.900079 0.985107
O O6 0.000000 0.000000 0.000000
O O7 0.629474 0.622739 0.741121
O O8 0.590212 0.589942 0.863430
O O9 0.639776 0.135717 0.737823
O O10 0.923347 0.087523 0.708516
O O11 0.608496 0.609843 0.632358
O O12 0.500000 0.500000 0.500000
O O13 0.658585 0.990458 0.487602
O O14 0.852679 0.078018 0.346892
O O15 0.538630 0.019181 0.394534
O O16 0.691143 0.567461 0.361151
O O17 0.500000 0.500000 0.000000
O O18 0.500000 0.000000 0.000000
#
# Coordination Sequence:
#
# PCOD9036672 Si02
#       8
#     2   2   2   2   2   2   2   2
#     4  11  24  41  66  93 119 170 223 267 311 380
#     4  12  24  41  64  91 124 165 219 272 321 375
#     4  12  26  43  62  98 134 172 209 269 331 389
#     4  11  25  42  65  94 138 169 209 266 334 378
#     4   9  19  39  69  98 123 163 221 265 306 374
#     4   9  21  40  70  94 127 169 219 259 315 380
#     4  12  25  44  65  90 130 174 218 267 328 384
#     4  10  23  38  67  91 129 165 220 261 314 380
#
# _framework density 21.172757000000001
#
# number of rings (size 3 to 8) (size 9 to 14) (size 15 to 20)
#    0.000    1.250    0.000    5.625   10.500    0.000 
#    0.000    1.250    0.000    0.000    0.000    0.000 
#    0.000    0.000    0.000    0.000    0.000    0.000 
#
# Total GULP energy -89179.227518 kJ/mol
# GULP energy per Si atom -5573.701720 kJ/mol
# Density = 2.112457 g / cm^3
# Si number density = 21.172757 Si / 1000 Ang^3
#
#
#
# Elastic Constant Matrix: (Units=GPa)
#
#
# Indices 1 2 3 4 5 6 
#
# 1 174.2867 59.6139 42.9454 16.5384 22.2789 -12.5091
# 2 59.6139 107.9152 28.4169 5.1166 13.0170 -6.2449
# 3 42.9454 28.4169 73.6963 24.5212 23.3983 -2.9052
# 4 16.5384 5.1166 24.5212 27.5888 -5.0927 -0.9448
# 5 22.2789 13.0170 23.3983 -5.0927 34.5503 -3.3900
# 6 -12.5091 -6.2449 -2.9052 -0.9448 -3.3900 41.3172
#
#
#
# Elastic Compliance Matrix: (Units=1/GPa)
#
#
# Indices 1 2 3 4 5 6 
#
# 1 0.008133 -0.003566 -0.000561 -0.004410 -0.004029 0.001453
# 2 -0.003566 0.012055 -0.004279 0.003968 0.001303 0.000639
# 3 -0.000561 -0.004279 0.036857 -0.036951 -0.028572 -0.001414
# 4 -0.004410 0.003968 -0.036951 0.078072 0.038035 0.001572
# 5 -0.004029 0.001303 -0.028572 0.038035 0.056247 0.002453
# 6 0.001453 0.000639 -0.001414 0.001572 0.002453 0.024877
#
#
# Mechanical properties :
#
#
# Convention : Reuss Voigt Hill
#
# Bulk Modulus (GPa) = 24.85532 68.65008 46.75270
# Shear Modulus (GPa) = 20.28697 35.68605 27.98651
#
# Velocity S-wave (km/s) = 3.09878 4.10990 3.63962
# Velocity P-wave (km/s) = 4.95661 7.41727 6.30809
#
# Compressibility (1/GPa) = 0.04023284
#
# Stress axis : x y z
#
# Youngs Moduli (GPa) = 122.95057 82.95326 27.13214
#
# Poissons Ratio (x) = 0.29583 0.01522
# Poissons Ratio (y) = 0.43847 0.11610
# Poissons Ratio (z) = 0.06897 0.35495
#
# Static dielectric constant tensor:
#      x y z
#    x 2.006270 -0.298000 0.087100 
#    y -0.298000 2.179320 -0.061910 
#    z 0.087100 -0.061910 1.823410 
# 
# From -- ./inp_files/339711.got.cif
#   From: 2010.05.17/outbox.cif.g08.bks.cpg/sg2_170_cif.got.tgz:339711.got - 2010.06.03 11:33:40.
