data_PCOD9036728
_publ_section_title
;
Structure prediction by ZEFSAII (Michael W. Deem and Ramdas Pophale) SiO2 
 PCOD9036728
Probable space group: P -1
;
_chemical_formula_sum "Si O2"
_cell_formula_units_Z 16
_cell_length_a 9.012623
_cell_length_b 11.299228
_cell_length_c 10.167617
_cell_angle_alpha 77.837903
_cell_angle_beta 96.344348
_cell_angle_gamma 40.939271
_cell_volume 601.612901
_symmetry_space_group_name_H-M "P -1"
_symmetry_group_IT_number 2
_symmetry_cell_setting 'triclinic'
loop_
_space_group_symop_operation_xyz
x,y,z
-x,-y,-z
loop_
_atom_site_type_symbol
_atom_site_label
_atom_site_fract_x
_atom_site_fract_y
_atom_site_fract_z
Si Si1 0.155289 0.738828 0.526359
Si Si2 0.317102 0.886798 0.138994
Si Si3 0.998760 0.614878 0.103033
Si Si4 0.413843 0.047861 0.234171
Si Si5 0.477320 0.786002 0.880387
Si Si6 0.963302 0.385619 0.287101
Si Si7 0.728471 0.351178 0.724108
Si Si8 0.134114 0.788216 0.790723
O O1 0.103734 0.627941 0.575393
O O2 0.450172 0.579078 0.610465
O O3 0.120923 0.786046 0.359745
O O4 0.022078 0.880943 0.609816
O O5 0.328730 0.735262 0.186605
O O6 0.485683 0.862611 0.257067
O O7 0.388443 0.867694 0.001137
O O8 0.046553 0.084717 0.132840
O O9 0.230525 0.418650 0.082175
O O10 0.112245 0.652545 0.185619
O O11 0.933312 0.544459 0.208713
O O12 0.767483 0.809381 0.945600
O O13 0.595554 0.043858 0.246566
O O14 0.244878 0.170556 0.318392
O O15 0.351862 0.741837 0.837940
O O16 0.804360 0.394626 0.176872
#
# Coordination Sequence:
#
# PCOD9036728 Si02
#       8
#     2   2   2   2   2   2   2   2
#     4   9  21  44  60  85 110 153 209 248 280 330
#     4  11  25  37  58  89 122 156 192 233 302 350
#     4  11  22  37  61  91 120 153 195 232 299 348
#     4  10  23  39  56  91 124 152 188 238 297 359
#     4  11  21  38  62  86 122 158 187 242 287 353
#     4   8  18  37  61  81 115 150 186 240 286 337
#     4  11  24  37  64  87 110 159 202 243 289 338
#     4   9  20  40  61  84 120 154 194 239 292 344
#
# _framework density 26.595172000000002
#
# number of rings (size 3 to 8) (size 9 to 14) (size 15 to 20)
#    0.750    1.250    1.250    2.250    8.750    1.500 
#    0.000    0.000    0.000    0.750    0.000    0.000 
#    0.000    0.000    0.000    0.000    0.000    0.000 
#
# Total GULP energy -89312.909816 kJ/mol
# GULP energy per Si atom -5582.056864 kJ/mol
# Density = 2.653464 g / cm^3
# Si number density = 26.595172 Si / 1000 Ang^3
#
#
#
# Elastic Constant Matrix: (Units=GPa)
#
#
# Indices 1 2 3 4 5 6 
#
# 1 182.5500 39.7873 13.8153 1.7365 -27.9544 2.5436
# 2 39.7873 93.7433 23.1464 29.2374 2.1950 -10.2564
# 3 13.8153 23.1464 59.8086 18.3444 -25.8891 -13.7651
# 4 1.7365 29.2374 18.3444 37.6542 -5.5096 -10.7396
# 5 -27.9544 2.1950 -25.8891 -5.5096 32.4188 13.6128
# 6 2.5436 -10.2564 -13.7651 -10.7396 13.6128 53.2417
#
#
#
# Elastic Compliance Matrix: (Units=1/GPa)
#
#
# Indices 1 2 3 4 5 6 
#
# 1 0.008642 -0.006564 0.004559 0.003529 0.013496 -0.003238
# 2 -0.006564 0.020670 -0.009805 -0.012564 -0.018709 0.004010
# 3 0.004559 -0.009805 0.034524 -0.005411 0.032309 -0.002533
# 4 0.003529 -0.012564 -0.005411 0.040356 0.005251 0.002810
# 5 0.013496 -0.018709 0.032309 0.005251 0.076488 -0.014393
# 6 -0.003238 0.004010 -0.002533 0.002810 -0.014393 0.023301
#
#
# Mechanical properties :
#
#
# Convention : Reuss Voigt Hill
#
# Bulk Modulus (GPa) = 24.86706 54.39999 39.63353
# Shear Modulus (GPa) = 20.74627 41.95311 31.34969
#
# Velocity S-wave (km/s) = 2.79601 3.97605 3.43705
# Velocity P-wave (km/s) = 4.44906 6.44809 5.53949
#
# Compressibility (1/GPa) = 0.04021383
#
# Stress axis : x y z
#
# Youngs Moduli (GPa) = 115.71553 48.37969 28.96550
#
# Poissons Ratio (x) = 0.31758 -0.13204
# Poissons Ratio (y) = 0.75959 0.28401
# Poissons Ratio (z) = -0.52751 0.47437
#
# Static dielectric constant tensor:
#      x y z
#    x 2.142240 0.073810 -0.008230 
#    y 0.073810 2.238550 -0.127210 
#    z -0.008230 -0.127210 2.149110 
# 
# From -- ./inp_files/387317.got.cif
#   From: 2010.05.17/outbox.cif.g08.bks.cpg/sg2_194_cif.got.tgz:387317.got - 2010.06.03 11:33:40.
