data_PCOD9036840
_publ_section_title
;
Structure prediction by ZEFSAII (Michael W. Deem and Ramdas Pophale) SiO2 
 PCOD9036840
Probable space group: P -1
;
_chemical_formula_sum "Si O2"
_cell_formula_units_Z 16
_cell_length_a 18.119904
_cell_length_b 26.995679
_cell_length_c 14.339905
_cell_angle_alpha 20.672468
_cell_angle_beta 20.321380
_cell_angle_gamma 18.520351
_cell_volume 701.939697
_symmetry_space_group_name_H-M "P -1"
_symmetry_group_IT_number 2
_symmetry_cell_setting 'triclinic'
loop_
_space_group_symop_operation_xyz
x,y,z
-x,-y,-z
loop_
_atom_site_type_symbol
_atom_site_label
_atom_site_fract_x
_atom_site_fract_y
_atom_site_fract_z
Si Si1 0.468298 0.664018 0.297514
Si Si2 0.234782 0.935461 0.729627
Si Si3 0.704699 0.046660 0.158511
Si Si4 0.765826 0.604689 0.704733
Si Si5 0.947729 0.320192 0.121113
Si Si6 0.126431 0.083584 0.153033
Si Si7 0.796936 0.382388 0.888114
Si Si8 0.290796 0.210493 0.086631
O O1 0.500000 0.500000 0.500000
O O2 0.230800 0.732943 0.529685
O O3 0.408591 0.800182 0.049285
O O4 0.691459 0.655495 0.108559
O O5 0.257935 0.909894 0.858520
O O6 0.527834 0.781009 0.631374
O O7 0.184798 0.113805 0.439631
O O8 0.008417 0.916890 0.996086
O O9 0.500000 0.000000 0.500000
O O10 0.812008 0.475214 0.797396
O O11 0.004133 0.618761 0.415733
O O12 0.752893 0.515009 0.970624
O O13 0.115619 0.203321 0.039239
O O14 0.126536 0.299216 0.031759
O O15 0.000000 0.000000 0.500000
O O16 0.936225 0.192411 0.099610
O O17 0.417027 0.944886 0.017167
O O18 0.500000 0.500000 0.000000
#
# Coordination Sequence:
#
# PCOD9036840 Si02
#       8
#     2   2   2   2   2   2   2   2
#     4  12  26  46  69 103 147 182 241 300 359 432
#     4  11  23  44  73 102 134 184 239 293 361 422
#     4  11  24  45  73 104 135 177 241 305 356 425
#     4  10  23  42  62  98 140 177 229 289 347 420
#     4  11  25  44  67 105 147 184 233 293 356 430
#     4  11  23  42  70 104 145 182 237 294 351 424
#     4  10  23  39  63  96 137 184 230 279 346 421
#     4  12  24  44  74 105 137 196 238 292 363 425
#
# _framework density 22.793980999999999
#
# number of rings (size 3 to 8) (size 9 to 14) (size 15 to 20)
#    0.000    1.000    5.000    1.125    1.750    3.500 
#    0.000    2.500    0.000    0.000    0.000    0.000 
#    0.000    0.000    0.000    0.000    0.000    0.000 
#
# Total GULP energy -89223.231255 kJ/mol
# GULP energy per Si atom -5576.451953 kJ/mol
# Density = 2.274210 g / cm^3
# Si number density = 22.793981 Si / 1000 Ang^3
#
#
#
# Elastic Constant Matrix: (Units=GPa)
#
#
# Indices 1 2 3 4 5 6 
#
# 1 133.4922 23.3284 55.8438 -11.7188 -5.5297 -22.3142
# 2 23.3284 61.3922 37.0462 9.2826 -16.8966 -17.0946
# 3 55.8438 37.0462 148.7408 8.9296 -0.2708 -28.2756
# 4 -11.7188 9.2826 8.9296 34.6463 -5.8472 0.8742
# 5 -5.5297 -16.8966 -0.2708 -5.8472 42.8414 4.3120
# 6 -22.3142 -17.0946 -28.2756 0.8742 4.3120 36.9569
#
#
#
# Elastic Compliance Matrix: (Units=1/GPa)
#
#
# Indices 1 2 3 4 5 6 
#
# 1 0.009978 -0.001599 -0.003122 0.004711 0.001012 0.002667
# 2 -0.001599 0.023871 -0.003841 -0.004774 0.007896 0.006329
# 3 -0.003122 -0.003841 0.009845 -0.003129 -0.002712 0.004261
# 4 0.004711 -0.004774 -0.003129 0.033214 0.003536 -0.002956
# 5 0.001012 0.007896 -0.002712 0.003536 0.027159 -0.001064
# 6 0.002667 0.006329 0.004261 -0.002956 -0.001064 0.035050
#
#
# Mechanical properties :
#
#
# Convention : Reuss Voigt Hill
#
# Bulk Modulus (GPa) = 37.63600 64.00688 50.82144
# Shear Modulus (GPa) = 30.28510 38.04938 34.16724
#
# Velocity S-wave (km/s) = 3.64901 4.09011 3.87584
# Velocity P-wave (km/s) = 5.85670 7.10260 6.50952
#
# Compressibility (1/GPa) = 0.02657030
#
# Stress axis : x y z
#
# Youngs Moduli (GPa) = 100.22279 41.89122 101.57603
#
# Poissons Ratio (x) = 0.06697 0.31711
# Poissons Ratio (y) = 0.16023 0.39017
# Poissons Ratio (z) = 0.31289 0.16091
#
# Static dielectric constant tensor:
#      x y z
#    x 1.966500 0.067590 -0.014740 
#    y 0.067590 2.105770 0.062740 
#    z -0.014740 0.062740 1.928740 
# 
# From -- ./inp_files/539370.got.cif
#   From: 2010.05.17/outbox.cif.g08.bks.cpg/sg2_270_cif.got.tgz:539370.got - 2010.06.03 11:33:40.
