data_PCOD9036383
_publ_section_title
;
Structure prediction by ZEFSAII (Michael W. Deem and Ramdas Pophale) SiO2 
 PCOD9036383
Probable space group: P -1
;
_chemical_formula_sum "Si O2"
_cell_formula_units_Z 14
_cell_length_a 14.385890
_cell_length_b 9.461456
_cell_length_c 18.086149
_cell_angle_alpha 64.703844
_cell_angle_beta 18.795017
_cell_angle_gamma 72.787354
_cell_volume 665.383237
_symmetry_space_group_name_H-M "P -1"
_symmetry_group_IT_number 2
_symmetry_cell_setting 'triclinic'
loop_
_space_group_symop_operation_xyz
x,y,z
-x,-y,-z
loop_
_atom_site_type_symbol
_atom_site_label
_atom_site_fract_x
_atom_site_fract_y
_atom_site_fract_z
Si Si1 0.343827 0.963190 0.894916
Si Si2 0.263784 0.367060 0.986742
Si Si3 0.406225 0.248808 0.333984
Si Si4 0.712526 0.564512 0.209520
Si Si5 0.376002 0.194968 0.533868
Si Si6 0.563748 0.232821 0.542368
Si Si7 0.703254 0.977651 0.918751
O O1 0.404571 0.798447 0.861746
O O2 0.513795 0.095148 0.673807
O O3 0.978974 0.926570 0.173155
O O4 0.442334 0.011436 0.893921
O O5 0.277158 0.207193 0.055690
O O6 0.914873 0.364338 0.257183
O O7 0.514264 0.551559 0.773798
O O8 0.296321 0.339490 0.880758
O O9 0.507926 0.206642 0.348756
O O10 0.044731 0.127284 0.626221
O O11 0.419304 0.389585 0.470737
O O12 0.682463 0.679557 0.273241
O O13 0.000000 0.500000 0.000000
O O14 0.528498 0.159213 0.501994
O O15 0.500000 0.000000 0.000000
#
# Coordination Sequence:
#
# PCOD9036383 Si02
#       7
#     2   2   2   2   2   2   2
#     4  11  23  42  62  97 133 166 227 275 318 392
#     4  11  23  43  67  96 136 172 221 269 322 392
#     4  10  24  43  65  99 133 169 219 274 322 395
#     4  11  22  37  59  91 135 178 222 255 307 388
#     4  10  23  35  59  93 135 178 214 253 311 391
#     4  12  22  37  64  95 135 183 218 252 326 386
#     4  11  25  49  71  93 126 170 223 286 340 384
#
# _framework density 21.040506000000001
#
# number of rings (size 3 to 8) (size 9 to 14) (size 15 to 20)
#    0.000    1.143    4.286    1.714    4.000    1.714 
#    0.000    0.714    0.000    0.000    0.000    0.000 
#    0.000    0.000    0.000    0.000    0.000    0.000 
#
# Total GULP energy -78139.059398 kJ/mol
# GULP energy per Si atom -5581.361386 kJ/mol
# Density = 2.099262 g / cm^3
# Si number density = 21.040506 Si / 1000 Ang^3
#
#
#
# Elastic Constant Matrix: (Units=GPa)
#
#
# Indices 1 2 3 4 5 6 
#
# 1 140.8707 54.9652 41.1024 -4.9716 1.6604 -6.8264
# 2 54.9652 106.8694 32.8016 -3.2607 -1.3141 4.0931
# 3 41.1024 32.8016 88.4996 -25.1014 4.6603 -6.5220
# 4 -4.9716 -3.2607 -25.1014 38.3466 2.0067 8.2912
# 5 1.6604 -1.3141 4.6603 2.0067 20.2970 -0.6464
# 6 -6.8264 4.0931 -6.5220 8.2912 -0.6464 28.5192
#
#
#
# Elastic Compliance Matrix: (Units=1/GPa)
#
#
# Indices 1 2 3 4 5 6 
#
# 1 0.009755 -0.004162 -0.003307 -0.001838 -0.000040 0.002709
# 2 -0.004162 0.012659 -0.003412 -0.001100 0.001949 -0.003229
# 3 -0.003307 -0.003412 0.017487 0.010902 -0.005030 0.000414
# 4 -0.001838 -0.001100 0.010902 0.034953 -0.006137 -0.008090
# 5 -0.000040 0.001949 -0.005030 -0.006137 0.051207 0.001505
# 6 0.002709 -0.003229 0.000414 -0.008090 0.001505 0.038657
#
#
# Mechanical properties :
#
#
# Convention : Reuss Voigt Hill
#
# Bulk Modulus (GPa) = 55.12912 65.99756 60.56334
# Shear Modulus (GPa) = 25.97045 31.25728 28.61386
#
# Velocity S-wave (km/s) = 3.51708 3.85850 3.69174
# Velocity P-wave (km/s) = 6.53846 7.16140 6.85701
#
# Compressibility (1/GPa) = 0.01813923
#
# Stress axis : x y z
#
# Youngs Moduli (GPa) = 102.51581 78.99416 57.18374
#
# Poissons Ratio (x) = 0.32879 0.18912
# Poissons Ratio (y) = 0.42670 0.19509
# Poissons Ratio (z) = 0.33904 0.26950
#
# Static dielectric constant tensor:
#      x y z
#    x 1.744660 0.007370 0.015490 
#    y 0.007370 1.794990 -0.016190 
#    z 0.015490 -0.016190 1.768660 
# 
# From -- ./inp_files/46428.got.cif
#   From: 2010.05.17/outbox.cif.g08.bks.cpg/sg2_24_cif.got.tgz:46428.got - 2010.06.03 11:33:40.
