data_PCOD9036141
_publ_section_title
;
Structure prediction by ZEFSAII (Michael W. Deem and Ramdas Pophale) SiO2 
 PCOD9036141
Probable space group: P -1
;
_chemical_formula_sum "Si O2"
_cell_formula_units_Z 15
_cell_length_a 26.081898
_cell_length_b 7.313021
_cell_length_c 9.169032
_cell_angle_alpha 130.876374
_cell_angle_beta 34.076099
_cell_angle_gamma 137.514680
_cell_volume 657.407609
_symmetry_space_group_name_H-M "P -1"
_symmetry_group_IT_number 2
_symmetry_cell_setting 'triclinic'
loop_
_space_group_symop_operation_xyz
x,y,z
-x,-y,-z
loop_
_atom_site_type_symbol
_atom_site_label
_atom_site_fract_x
_atom_site_fract_y
_atom_site_fract_z
Si Si1 0.222215 0.670674 0.602046
Si Si2 0.539608 0.383554 0.507074
Si Si3 0.198304 0.654453 0.300817
Si Si4 0.241489 0.212065 0.805011
Si Si5 0.000000 0.500000 0.500000
Si Si6 0.461237 0.954182 0.229867
Si Si7 0.894033 0.729560 0.087111
Si Si8 0.606980 0.934059 0.095787
O O1 0.212482 0.657225 0.442897
O O2 0.196433 0.917167 0.829667
O O3 0.339715 0.769193 0.425275
O O4 0.149964 0.405732 0.724682
O O5 0.636197 0.676461 0.447625
O O6 0.497558 0.749773 0.633885
O O7 0.436806 0.297312 0.799190
O O8 0.593850 0.190439 0.330489
O O9 0.084515 0.583003 0.479373
O O10 0.225594 0.419457 0.055996
O O11 0.281114 0.932015 0.170129
O O12 0.185827 0.202336 0.779261
O O13 0.916794 0.533259 0.823328
O O14 0.523391 0.829631 0.109463
O O15 0.500000 0.000000 0.000000
O O16 0.000000 0.000000 0.000000
#
# Coordination Sequence:
#
# PCOD9036141 Si02
#       8
#     2   2   2   2   1   2   2   2
#     4  12  24  40  73  98 130 175 217 268 338 389
#     4   8  16  31  56  86 127 168 206 250 314 386
#     4  10  21  41  62  96 133 168 222 280 320 387
#     4  10  22  42  65  96 132 176 219 265 326 395
#     4  10  24  42  70  90 124 176 222 272 336 380
#     4  10  17  32  60  97 132 169 206 264 322 384
#     4  11  26  46  68  96 130 170 226 280 329 386
#     4   8  15  31  58  82 128 171 201 257 319 375
#
# _framework density 22.816894000000001
#
# number of rings (size 3 to 8) (size 9 to 14) (size 15 to 20)
#    0.800    1.333    1.333    1.600    3.733    3.733 
#    0.000    3.333    2.933    0.000    0.000    0.000 
#    0.000    0.000    0.000    0.000    0.000    0.000 
#
# Total GULP energy -83509.000927 kJ/mol
# GULP energy per Si atom -5567.266728 kJ/mol
# Density = 2.276496 g / cm^3
# Si number density = 22.816894 Si / 1000 Ang^3
#
#
#
# Elastic Constant Matrix: (Units=GPa)
#
#
# Indices 1 2 3 4 5 6 
#
# 1 141.2638 39.5350 31.0844 -23.4965 -7.2953 16.2613
# 2 39.5350 97.8124 34.0643 -31.6638 0.9353 4.6521
# 3 31.0844 34.0643 75.2377 -15.7588 3.4061 -1.4437
# 4 -23.4965 -31.6638 -15.7588 33.6382 1.5386 1.7511
# 5 -7.2953 0.9353 3.4061 1.5386 45.2678 -0.3040
# 6 16.2613 4.6521 -1.4437 1.7511 -0.3040 24.5176
#
#
#
# Elastic Compliance Matrix: (Units=1/GPa)
#
#
# Indices 1 2 3 4 5 6 
#
# 1 0.009605 -0.001145 -0.002674 0.004651 0.001570 -0.006623
# 2 -0.001145 0.016584 -0.004353 0.012987 -0.000665 -0.003579
# 3 -0.002674 -0.004353 0.016894 0.001846 -0.001652 0.003442
# 4 0.004651 0.012987 0.001846 0.046584 -0.001300 -0.008784
# 5 0.001570 -0.000665 -0.001652 -0.001300 0.022522 -0.000640
# 6 -0.006623 -0.003579 0.003442 -0.008784 -0.000640 0.046681
#
#
# Mechanical properties :
#
#
# Convention : Reuss Voigt Hill
#
# Bulk Modulus (GPa) = 37.39997 58.18679 47.79338
# Shear Modulus (GPa) = 27.15516 34.66007 30.90762
#
# Velocity S-wave (km/s) = 3.45357 3.90173 3.68447
# Velocity P-wave (km/s) = 5.68593 6.77163 6.25239
#
# Compressibility (1/GPa) = 0.02673799
#
# Stress axis : x y z
#
# Youngs Moduli (GPa) = 104.11186 60.30055 59.19178
#
# Poissons Ratio (x) = 0.06907 0.15826
# Poissons Ratio (y) = 0.11925 0.25769
# Poissons Ratio (z) = 0.27836 0.26251
#
# Static dielectric constant tensor:
#      x y z
#    x 1.873700 -0.042770 -0.014040 
#    y -0.042770 1.985060 0.054230 
#    z -0.014040 0.054230 1.885080 
# 
# From -- ./inp_files/351068.got.cif
#   From: 2010.05.17/outbox.cif.g08.bks.cpg/sg2_176_cif.got.tgz:351068.got - 2010.06.03 11:33:40.
