data_PCOD9036757
_publ_section_title
;
Structure prediction by ZEFSAII (Michael W. Deem and Ramdas Pophale) SiO2 
 PCOD9036757
Probable space group: P -1
;
_chemical_formula_sum "Si O2"
_cell_formula_units_Z 12
_cell_length_a 9.814743
_cell_length_b 11.922259
_cell_length_c 8.782777
_cell_angle_alpha 49.561798
_cell_angle_beta 94.500673
_cell_angle_gamma 127.916219
_cell_volume 522.069966
_symmetry_space_group_name_H-M "P -1"
_symmetry_group_IT_number 2
_symmetry_cell_setting 'triclinic'
loop_
_space_group_symop_operation_xyz
x,y,z
-x,-y,-z
loop_
_atom_site_type_symbol
_atom_site_label
_atom_site_fract_x
_atom_site_fract_y
_atom_site_fract_z
Si Si1 0.601148 0.228071 0.881510
Si Si2 0.868597 0.521103 0.389467
Si Si3 0.450924 0.317381 0.016844
Si Si4 0.851352 0.754859 0.764188
Si Si5 0.143374 0.801159 0.923074
Si Si6 0.480863 0.831379 0.556892
O O1 0.705909 0.419647 0.598386
O O2 0.436473 0.185178 0.001739
O O3 0.773081 0.297387 0.950317
O O4 0.500000 0.000000 0.000000
O O5 0.733342 0.352482 0.385864
O O6 0.000000 0.500000 0.500000
O O7 0.033610 0.756230 0.112349
O O8 0.263035 0.274185 0.069043
O O9 0.481405 0.258993 0.231835
O O10 0.667989 0.572915 0.792337
O O11 0.981296 0.714738 0.854884
O O12 0.000000 0.000000 0.500000
O O13 0.346239 0.043266 0.667792
O O14 0.500000 0.000000 0.500000
#
# Coordination Sequence:
#
# PCOD9036757 Si02
#       6
#     2   2   2   2   2   2
#     4  11  22  44  67  97 134 169 213 279 338 390
#     4  10  23  39  60  94 137 168 207 269 337 396
#     4  11  24  42  68  96 133 172 220 278 326 391
#     4  11  24  43  64  97 133 173 224 270 328 390
#     4  11  22  39  67  92 130 170 219 274 325 393
#     4  12  21  38  68 100 129 167 222 284 328 385
#
# _framework density 22.985423999999998
#
# number of rings (size 3 to 8) (size 9 to 14) (size 15 to 20)
#    0.000    1.000    6.667    0.000    0.000    4.000 
#    9.000    1.667    0.000    0.000    0.000    0.000 
#    0.000    0.000    0.000    0.000    0.000    0.000 
#
# Total GULP energy -66895.730418 kJ/mol
# GULP energy per Si atom -5574.644201 kJ/mol
# Density = 2.293311 g / cm^3
# Si number density = 22.985424 Si / 1000 Ang^3
#
#
#
# Elastic Constant Matrix: (Units=GPa)
#
#
# Indices 1 2 3 4 5 6 
#
# 1 82.2061 43.4029 -5.0005 -3.9628 -10.6330 6.0602
# 2 43.4029 82.1409 26.5644 -1.8908 -11.1315 -2.8204
# 3 -5.0005 26.5644 147.3357 -3.9462 -21.6110 -0.4598
# 4 -3.9628 -1.8908 -3.9462 26.9805 4.4474 -3.3585
# 5 -10.6330 -11.1315 -21.6110 4.4474 35.9698 3.0995
# 6 6.0602 -2.8204 -0.4598 -3.3585 3.0995 38.1339
#
#
#
# Elastic Compliance Matrix: (Units=1/GPa)
#
#
# Indices 1 2 3 4 5 6 
#
# 1 0.018825 -0.010489 0.003201 0.001273 0.004427 -0.003976
# 2 -0.010489 0.019067 -0.003745 -0.000441 0.000349 0.002965
# 3 0.003201 -0.003745 0.008284 0.000501 0.004791 -0.001031
# 4 0.001273 -0.000441 0.000501 0.038477 -0.004520 0.003527
# 5 0.004427 0.000349 0.004791 -0.004520 0.032974 -0.003698
# 6 -0.003976 0.002965 -0.001031 0.003527 -0.003698 0.027673
#
#
# Mechanical properties :
#
#
# Convention : Reuss Voigt Hill
#
# Bulk Modulus (GPa) = 41.47856 49.06849 45.27352
# Shear Modulus (GPa) = 28.50573 36.66454 32.58514
#
# Velocity S-wave (km/s) = 3.52542 3.99823 3.76925
# Velocity P-wave (km/s) = 5.88695 6.53517 6.21951
#
# Compressibility (1/GPa) = 0.02410884
#
# Stress axis : x y z
#
# Youngs Moduli (GPa) = 53.12210 52.44712 120.71318
#
# Poissons Ratio (x) = 0.55014 -0.38642
# Poissons Ratio (y) = 0.55722 0.45209
# Poissons Ratio (z) = -0.17005 0.19642
#
# Static dielectric constant tensor:
#      x y z
#    x 1.912240 0.004020 -0.015080 
#    y 0.004020 1.877280 -0.014260 
#    z -0.015080 -0.014260 1.952780 
# 
# From -- ./inp_files/174352.got.cif
#   From: 2010.05.17/outbox.cif.g08.bks.cpg/sg2_88_cif.got.tgz:174352.got - 2010.06.03 11:33:40.
