data_PCOD9036437
_publ_section_title
;
Structure prediction by ZEFSAII (Michael W. Deem and Ramdas Pophale) SiO2 
 PCOD9036437
Probable space group: P -1
;
_chemical_formula_sum "Si O2"
_cell_formula_units_Z 14
_cell_length_a 9.440325
_cell_length_b 8.725600
_cell_length_c 19.540054
_cell_angle_alpha 40.420716
_cell_angle_beta 134.885789
_cell_angle_gamma 132.408880
_cell_volume 705.699720
_symmetry_space_group_name_H-M "P -1"
_symmetry_group_IT_number 2
_symmetry_cell_setting 'triclinic'
loop_
_space_group_symop_operation_xyz
x,y,z
-x,-y,-z
loop_
_atom_site_type_symbol
_atom_site_label
_atom_site_fract_x
_atom_site_fract_y
_atom_site_fract_z
Si Si1 0.513570 0.144279 0.173510
Si Si2 0.881744 0.951742 0.831355
Si Si3 0.885133 0.599234 0.159527
Si Si4 0.935066 0.091326 0.376243
Si Si5 0.502351 0.115930 0.885602
Si Si6 0.955955 0.998046 0.267800
Si Si7 0.956577 0.432214 0.918668
O O1 0.318706 0.075206 0.181142
O O2 0.644810 0.434481 0.125253
O O3 0.684605 0.016591 0.303765
O O4 0.469747 0.057670 0.109596
O O5 0.878707 0.017927 0.728016
O O6 0.069088 0.172175 0.852321
O O7 0.941015 0.696587 0.945129
O O8 0.994595 0.391996 0.292527
O O9 0.984865 0.689049 0.089703
O O10 0.015015 0.985769 0.371131
O O11 0.000000 0.000000 0.500000
O O12 0.279161 0.162823 0.778243
O O13 0.707510 0.351903 0.870251
O O14 0.500000 0.000000 0.000000
O O15 0.942292 0.279394 0.159889
#
# Coordination Sequence:
#
# PCOD9036437 Si02
#       7
#     2   2   2   2   2   2   2
#     4   9  22  36  56  82 113 141 189 227 281 322
#     4  12  21  34  55  85 119 146 178 231 273 328
#     4   9  21  36  56  83 111 145 191 223 272 335
#     4   8  18  44  63  72 107 149 184 239 281 321
#     4  11  20  34  53  80 114 151 196 210 261 335
#     4  10  23  37  55  86 112 149 193 224 264 335
#     4  11  21  34  55  78 121 157 183 212 268 334
#
# _framework density 19.838466
#
# number of rings (size 3 to 8) (size 9 to 14) (size 15 to 20)
#    0.857    1.143    4.286    0.857    0.000    2.857 
#    0.000    2.143    0.000    0.000    0.000    0.000 
#    0.000    0.000    0.000    0.000    0.000    0.000 
#
# Total GULP energy -77999.669358 kJ/mol
# GULP energy per Si atom -5571.404954 kJ/mol
# Density = 1.979331 g / cm^3
# Si number density = 19.838466 Si / 1000 Ang^3
#
#
#
# Elastic Constant Matrix: (Units=GPa)
#
#
# Indices 1 2 3 4 5 6 
#
# 1 113.9349 26.2869 25.6440 14.4473 -34.4417 7.4693
# 2 26.2869 83.0172 13.1068 12.7263 -7.9353 12.5651
# 3 25.6440 13.1068 106.4812 27.4253 -28.5303 -2.3099
# 4 14.4473 12.7263 27.4253 18.7408 -10.4017 -7.3231
# 5 -34.4417 -7.9353 -28.5303 -10.4017 29.3242 1.7823
# 6 7.4693 12.5651 -2.3099 -7.3231 1.7823 28.7986
#
#
#
# Elastic Compliance Matrix: (Units=1/GPa)
#
#
# Indices 1 2 3 4 5 6 
#
# 1 0.015354 -0.001471 0.003325 -0.007896 0.018447 -0.006223
# 2 -0.001471 0.016689 0.002836 -0.019149 -0.000545 -0.011508
# 3 0.003325 0.002836 0.018909 -0.027891 0.013695 -0.008523
# 4 -0.007896 -0.019149 -0.027891 0.130622 0.002236 0.041243
# 5 0.018447 -0.000545 0.013695 0.002236 0.070177 -0.007223
# 6 -0.006223 -0.011508 -0.008523 0.041243 -0.007223 0.051610
#
#
# Mechanical properties :
#
#
# Convention : Reuss Voigt Hill
#
# Bulk Modulus (GPa) = 16.57484 48.16764 32.37124
# Shear Modulus (GPa) = 15.91894 31.26575 23.59234
#
# Velocity S-wave (km/s) = 2.83579 3.97421 3.45225
# Velocity P-wave (km/s) = 4.36982 6.73734 5.67834
#
# Compressibility (1/GPa) = 0.06033241
#
# Stress axis : x y z
#
# Youngs Moduli (GPa) = 65.13088 59.92017 52.88351
#
# Poissons Ratio (x) = 0.08814 -0.17582
# Poissons Ratio (y) = 0.09581 -0.15000
# Poissons Ratio (z) = -0.21654 -0.16996
#
# Static dielectric constant tensor:
#      x y z
#    x 1.760990 -0.045210 -0.024150 
#    y -0.045210 1.752480 0.027930 
#    z -0.024150 0.027930 1.698320 
# 
# From -- ./inp_files/210861.got.cif
#   From: 2010.05.17/outbox.cif.g08.bks.cpg/sg2_106_cif.got.tgz:210861.got - 2010.06.03 11:33:40.
