data_PCOD9036590
_publ_section_title
;
Structure prediction by ZEFSAII (Michael W. Deem and Ramdas Pophale) SiO2 
 PCOD9036590
Probable space group: P -1
;
_chemical_formula_sum "Si O2"
_cell_formula_units_Z 16
_cell_length_a 11.793643
_cell_length_b 26.057978
_cell_length_c 26.754606
_cell_angle_alpha 169.488144
_cell_angle_beta 150.288121
_cell_angle_gamma 30.165054
_cell_volume 738.327158
_symmetry_space_group_name_H-M "P -1"
_symmetry_group_IT_number 2
_symmetry_cell_setting 'triclinic'
loop_
_space_group_symop_operation_xyz
x,y,z
-x,-y,-z
loop_
_atom_site_type_symbol
_atom_site_label
_atom_site_fract_x
_atom_site_fract_y
_atom_site_fract_z
Si Si1 0.555438 0.572844 0.391525
Si Si2 0.943920 0.285897 0.448846
Si Si3 0.263798 0.747631 0.028484
Si Si4 0.118225 0.677665 0.381539
Si Si5 0.424404 0.221080 0.727018
Si Si6 0.706725 0.926229 0.094995
Si Si7 0.244560 0.250434 0.257806
Si Si8 0.730638 0.121050 0.949822
O O1 0.281781 0.627881 0.348315
O O2 0.662484 0.614157 0.526804
O O3 0.658841 0.807800 0.622654
O O4 0.625990 0.275668 0.107512
O O5 0.794677 0.115137 0.265342
O O6 0.800483 0.507792 0.570107
O O7 0.084808 0.032157 0.229291
O O8 0.126302 0.476760 0.727293
O O9 0.436837 0.816107 0.203568
O O10 0.362535 0.714492 0.978571
O O11 0.180668 0.956450 0.700145
O O12 0.847285 0.725836 0.316090
O O13 0.201786 0.405358 0.188401
O O14 0.500000 0.000000 0.500000
O O15 0.500000 0.500000 0.000000
O O16 0.435458 0.010051 0.079013
O O17 0.003470 0.138575 0.071521
#
# Coordination Sequence:
#
# PCOD9036590 Si02
#       8
#     2   2   2   2   2   2   2   2
#     4  11  23  41  62  87 122 165 209 259 302 348
#     4  11  22  39  60  90 131 165 198 252 311 369
#     4  11  24  41  62  93 123 159 209 254 305 371
#     4  11  24  41  62  93 123 159 208 252 304 371
#     4  12  24  42  70  96 122 158 198 250 311 372
#     4  11  22  39  60  90 131 165 197 250 310 369
#     4  10  23  38  62  94 122 166 215 250 298 370
#     4  11  23  41  62  87 122 165 209 259 302 348
#
# _framework density 21.67061
#
# number of rings (size 3 to 8) (size 9 to 14) (size 15 to 20)
#    0.000    1.000    0.000    8.625    0.000    8.000 
#    0.000    7.500    0.000    0.000    0.000    0.000 
#    0.000    0.000    0.000    0.000    0.000    0.000 
#
# Total GULP energy -89513.013760 kJ/mol
# GULP energy per Si atom -5594.563360 kJ/mol
# Density = 2.162129 g / cm^3
# Si number density = 21.670610 Si / 1000 Ang^3
#
#
#
# Elastic Constant Matrix: (Units=GPa)
#
#
# Indices 1 2 3 4 5 6 
#
# 1 104.0949 48.0770 16.8400 -11.6386 7.5328 -5.2773
# 2 48.0770 105.5222 18.9871 -13.3734 -11.0004 -10.2015
# 3 16.8400 18.9871 101.7683 3.1784 -0.3377 -8.4872
# 4 -11.6386 -13.3734 3.1784 25.9339 2.2337 5.7695
# 5 7.5328 -11.0004 -0.3377 2.2337 42.2171 1.4265
# 6 -5.2773 -10.2015 -8.4872 5.7695 1.4265 30.3549
#
#
#
# Elastic Compliance Matrix: (Units=1/GPa)
#
#
# Indices 1 2 3 4 5 6 
#
# 1 0.013142 -0.005782 -0.001261 0.003528 -0.004032 -0.000492
# 2 -0.005782 0.013504 -0.001479 0.003689 0.004268 0.002218
# 3 -0.001261 -0.001479 0.010654 -0.003276 0.000001 0.002885
# 4 0.003528 0.003689 -0.003276 0.044244 -0.001786 -0.007388
# 5 -0.004032 0.004268 0.000001 -0.001786 0.025617 -0.000131
# 6 -0.000492 0.002218 0.002885 -0.007388 -0.000131 0.035821
#
#
# Mechanical properties :
#
#
# Convention : Reuss Voigt Hill
#
# Bulk Modulus (GPa) = 49.36407 53.24376 51.30391
# Shear Modulus (GPa) = 29.98034 34.86662 32.42348
#
# Velocity S-wave (km/s) = 3.72352 4.01551 3.87227
# Velocity P-wave (km/s) = 6.42766 6.79131 6.61199
#
# Compressibility (1/GPa) = 0.02025765
#
# Stress axis : x y z
#
# Youngs Moduli (GPa) = 76.09176 74.05308 93.86442
#
# Poissons Ratio (x) = 0.42814 0.11832
# Poissons Ratio (y) = 0.43993 0.13881
# Poissons Ratio (z) = 0.09592 0.10951
#
# Static dielectric constant tensor:
#      x y z
#    x 1.810590 0.003960 0.005700 
#    y 0.003960 1.000370 0.020480 
#    z 0.005700 0.020480 1.759490 
# 
# From -- ./inp_files/618876.got.cif
#   From: 2010.05.17/outbox.cif.g08.bks.cpg/sg2_310_cif.got.tgz:618876.got - 2010.06.03 11:33:40.
