data_PCOD9036903
_publ_section_title
;
Structure prediction by ZEFSAII (Michael W. Deem and Ramdas Pophale) SiO2 
 PCOD9036903
Probable space group: P -1
;
_chemical_formula_sum "Si O2"
_cell_formula_units_Z 14
_cell_length_a 9.250911
_cell_length_b 19.513131
_cell_length_c 9.409703
_cell_angle_alpha 136.165694
_cell_angle_beta 87.829290
_cell_angle_gamma 57.262784
_cell_volume 671.369400
_symmetry_space_group_name_H-M "P -1"
_symmetry_group_IT_number 2
_symmetry_cell_setting 'triclinic'
loop_
_space_group_symop_operation_xyz
x,y,z
-x,-y,-z
loop_
_atom_site_type_symbol
_atom_site_label
_atom_site_fract_x
_atom_site_fract_y
_atom_site_fract_z
Si Si1 0.866854 0.018834 0.407599
Si Si2 0.867242 0.413083 0.978711
Si Si3 0.700140 0.955902 0.005783
Si Si4 0.356108 0.790060 0.582059
Si Si5 0.452257 0.111566 0.554289
Si Si6 0.322010 0.623481 0.825369
Si Si7 0.235406 0.630822 0.385765
O O1 0.804121 0.114955 0.414064
O O2 0.599257 0.124486 0.626521
O O3 0.000000 0.000000 0.500000
O O4 0.085465 0.816667 0.063259
O O5 0.809681 0.376249 0.787133
O O6 0.157677 0.283386 0.782086
O O7 0.657403 0.616905 0.282357
O O8 0.808372 0.388499 0.091271
O O9 0.696877 0.074826 0.138318
O O10 0.609561 0.004968 0.244835
O O11 0.500000 0.000000 0.000000
O O12 0.976370 0.757683 0.668238
O O13 0.291805 0.717082 0.533525
O O14 0.500000 0.000000 0.500000
O O15 0.500000 0.500000 0.500000
O O16 0.520374 0.558644 0.836153
#
# Coordination Sequence:
#
# PCOD9036903 Si02
#       7
#     2   2   2   2   2   2   2
#     4  11  22  39  64  96 123 165 212 260 316 375
#     4  11  22  42  66  92 127 171 209 261 321 375
#     4  11  23  41  63  95 125 167 209 263 314 374
#     4  10  23  39  65  95 126 164 215 260 310 379
#     4  11  23  41  65  89 131 166 209 259 323 376
#     4  11  22  39  63  93 127 163 209 258 312 374
#     4  11  22  42  67  92 127 167 215 258 315 378
#
# _framework density 20.852900999999999
#
# number of rings (size 3 to 8) (size 9 to 14) (size 15 to 20)
#    0.000    1.143    2.857    5.571    0.000    3.429 
#    2.571    0.000    0.000    1.714    0.000    0.000 
#    0.000    0.000    0.000    0.000    0.000    0.000 
#
# Total GULP energy -78068.995816 kJ/mol
# GULP energy per Si atom -5576.356844 kJ/mol
# Density = 2.080544 g / cm^3
# Si number density = 20.852901 Si / 1000 Ang^3
#
#
#
# Elastic Constant Matrix: (Units=GPa)
#
#
# Indices 1 2 3 4 5 6 
#
# 1 94.5680 19.4777 22.0073 -3.4291 -20.3641 -35.7193
# 2 19.4777 99.0836 33.4243 11.3773 -16.8657 -16.7385
# 3 22.0073 33.4243 105.1822 13.7825 -30.0459 -8.9354
# 4 -3.4291 11.3773 13.7825 39.8242 -9.6549 -11.6406
# 5 -20.3641 -16.8657 -30.0459 -9.6549 41.6860 5.1625
# 6 -35.7193 -16.7385 -8.9354 -11.6406 5.1625 38.8216
#
#
#
# Elastic Compliance Matrix: (Units=1/GPa)
#
#
# Indices 1 2 3 4 5 6 
#
# 1 0.021352 0.000268 -0.001487 0.010795 0.009316 0.021417
# 2 0.000268 0.012196 -0.002804 -0.000647 0.002355 0.004353
# 3 -0.001487 -0.002804 0.012939 -0.002468 0.007051 -0.001277
# 4 0.010795 -0.000647 -0.002468 0.034596 0.008983 0.018264
# 5 0.009316 0.002355 0.007051 0.008983 0.035519 0.009180
# 6 0.021417 0.004353 -0.001277 0.018264 0.009180 0.051303
#
#
# Mechanical properties :
#
#
# Convention : Reuss Voigt Hill
#
# Bulk Modulus (GPa) = 26.01355 49.85027 37.93191
# Shear Modulus (GPa) = 26.48806 38.99466 32.74136
#
# Velocity S-wave (km/s) = 3.56790 4.32903 3.96676
# Velocity P-wave (km/s) = 5.42910 6.99606 6.26179
#
# Compressibility (1/GPa) = 0.03844150
#
# Stress axis : x y z
#
# Youngs Moduli (GPa) = 46.83376 81.99187 77.28684
#
# Poissons Ratio (x) = -0.02201 0.11491
# Poissons Ratio (y) = -0.01257 0.21675
# Poissons Ratio (z) = 0.06963 0.22994
#
# Static dielectric constant tensor:
#      x y z
#    x 1.738150 0.025830 -0.072130 
#    y 0.025830 1.738720 0.035220 
#    z -0.072130 0.035220 1.682510 
# 
# From -- ./inp_files/218582.got.cif
#   From: 2010.05.17/outbox.cif.g08.bks.cpg/sg2_110_cif.got.tgz:218582.got - 2010.06.03 11:33:40.
