data_PCOD9036720
_publ_section_title
;
Structure prediction by ZEFSAII (Michael W. Deem and Ramdas Pophale) SiO2 
 PCOD9036720
Probable space group: P -1
;
_chemical_formula_sum "Si O2"
_cell_formula_units_Z 14
_cell_length_a 9.000625
_cell_length_b 13.139381
_cell_length_c 9.203400
_cell_angle_alpha 67.489291
_cell_angle_beta 70.556551
_cell_angle_gamma 118.259180
_cell_volume 686.454892
_symmetry_space_group_name_H-M "P -1"
_symmetry_group_IT_number 2
_symmetry_cell_setting 'triclinic'
loop_
_space_group_symop_operation_xyz
x,y,z
-x,-y,-z
loop_
_atom_site_type_symbol
_atom_site_label
_atom_site_fract_x
_atom_site_fract_y
_atom_site_fract_z
Si Si1 0.245607 0.993179 0.567419
Si Si2 0.274052 0.949650 0.247184
Si Si3 0.453708 0.606388 0.475859
Si Si4 0.655431 0.254009 0.789967
Si Si5 0.752999 0.252918 0.257492
Si Si6 0.007909 0.474068 0.788628
Si Si7 0.925535 0.915376 0.225660
O O1 0.497543 0.150406 0.421028
O O2 0.076721 0.993721 0.696720
O O3 0.218565 0.955937 0.426020
O O4 0.224633 0.864599 0.719770
O O5 0.322375 0.843390 0.267152
O O6 0.079811 0.890207 0.235689
O O7 0.476301 0.122726 0.034287
O O8 0.500000 0.500000 0.500000
O O9 0.415012 0.670682 0.316103
O O10 0.230887 0.511658 0.691192
O O11 0.677572 0.758238 0.385419
O O12 0.874166 0.389944 0.731677
O O13 0.899592 0.361487 0.287050
O O14 0.845828 0.362687 0.030611
O O15 0.000000 0.000000 0.000000
#
# Coordination Sequence:
#
# PCOD9036720 Si02
#       7
#     2   2   2   2   2   2   2
#     4  11  23  43  68  99 138 178 229 281 337 403
#     4  11  24  43  72 103 134 180 232 284 336 395
#     4  12  26  42  65 102 138 178 223 279 345 402
#     4  11  24  42  72  99 138 180 231 280 335 408
#     4  10  23  38  70  98 134 179 228 278 337 403
#     4  11  22  43  65 101 137 179 226 279 337 408
#     4  12  26  44  69  98 139 178 232 281 336 407
#
# _framework density 20.394641
#
# number of rings (size 3 to 8) (size 9 to 14) (size 15 to 20)
#    0.000    0.857    4.286    2.571    6.000    1.143 
#    0.000    0.000    0.000    4.286    0.000    0.000 
#    0.000    0.000    0.000    0.000    0.000    0.000 
#
# Total GULP energy -78152.763606 kJ/mol
# GULP energy per Si atom -5582.340258 kJ/mol
# Density = 2.034822 g / cm^3
# Si number density = 20.394641 Si / 1000 Ang^3
#
#
#
# Elastic Constant Matrix: (Units=GPa)
#
#
# Indices 1 2 3 4 5 6 
#
# 1 81.0948 33.6750 13.5754 -16.2588 1.5498 -6.6388
# 2 33.6750 100.9930 39.1503 -4.0810 0.1149 0.7591
# 3 13.5754 39.1503 70.5156 -6.6719 9.1048 -12.4323
# 4 -16.2588 -4.0810 -6.6719 30.7558 3.4387 -10.6502
# 5 1.5498 0.1149 9.1048 3.4387 31.2060 -5.4837
# 6 -6.6388 0.7591 -12.4323 -10.6502 -5.4837 43.9850
#
#
#
# Elastic Compliance Matrix: (Units=1/GPa)
#
#
# Indices 1 2 3 4 5 6 
#
# 1 0.017272 -0.006321 0.002494 0.011065 -0.001748 0.005882
# 2 -0.006321 0.015291 -0.008919 -0.005153 0.002608 -0.004661
# 3 0.002494 -0.008919 0.021581 0.008206 -0.005907 0.007881
# 4 0.011065 -0.005153 0.008206 0.045015 -0.005371 0.014309
# 5 -0.001748 0.002608 -0.005907 -0.005371 0.034620 0.001037
# 6 0.005882 -0.004661 0.007881 0.014309 0.001037 0.029525
#
#
# Mechanical properties :
#
#
# Convention : Reuss Voigt Hill
#
# Bulk Modulus (GPa) = 34.90091 47.26720 41.08406
# Shear Modulus (GPa) = 25.20850 32.26955 28.73903
#
# Velocity S-wave (km/s) = 3.51954 3.98207 3.75793
# Velocity P-wave (km/s) = 5.80226 6.66102 6.24641
#
# Compressibility (1/GPa) = 0.02865255
#
# Stress axis : x y z
#
# Youngs Moduli (GPa) = 57.89708 65.40005 46.33651
#
# Poissons Ratio (x) = 0.41340 -0.11556
# Poissons Ratio (y) = 0.36597 0.41325
# Poissons Ratio (z) = -0.14440 0.58327
#
# Static dielectric constant tensor:
#      x y z
#    x 1.720700 -0.009750 0.001320 
#    y -0.009750 1.783450 0.026500 
#    z 0.001320 0.026500 1.729540 
# 
# From -- ./inp_files/149317.got.cif
#   From: 2010.05.17/outbox.cif.g08.bks.cpg/sg2_75_cif.got.tgz:149317.got - 2010.06.03 11:33:40.
