data_PCOD9036718
_publ_section_title
;
Structure prediction by ZEFSAII (Michael W. Deem and Ramdas Pophale) SiO2 
 PCOD9036718
Probable space group: P -1
;
_chemical_formula_sum "Si O2"
_cell_formula_units_Z 16
_cell_length_a 12.069198
_cell_length_b 14.402991
_cell_length_c 8.186064
_cell_angle_alpha 103.887194
_cell_angle_beta 56.301792
_cell_angle_gamma 138.555216
_cell_volume 742.579049
_symmetry_space_group_name_H-M "P -1"
_symmetry_group_IT_number 2
_symmetry_cell_setting 'triclinic'
loop_
_space_group_symop_operation_xyz
x,y,z
-x,-y,-z
loop_
_atom_site_type_symbol
_atom_site_label
_atom_site_fract_x
_atom_site_fract_y
_atom_site_fract_z
Si Si1 0.319278 0.416053 0.483966
Si Si2 0.749582 0.106671 0.656667
Si Si3 0.536175 0.673046 0.182956
Si Si4 0.231484 0.668533 0.394349
Si Si5 0.064056 0.789494 0.110407
Si Si6 0.377676 0.858058 0.656424
Si Si7 0.892698 0.900641 0.207782
Si Si8 0.879070 0.814111 0.695692
O O1 0.500000 0.500000 0.500000
O O2 0.391114 0.511780 0.305963
O O3 0.231629 0.268299 0.420651
O O4 0.132169 0.366922 0.707662
O O5 0.739829 0.215386 0.676582
O O6 0.781975 0.106515 0.821646
O O7 0.952583 0.178774 0.426867
O O8 0.552852 0.939883 0.683854
O O9 0.400197 0.681045 0.215102
O O10 0.656255 0.774604 0.291533
O O11 0.705010 0.725549 0.940368
O O12 0.292830 0.728678 0.556118
O O13 0.000000 0.500000 0.500000
O O14 0.969872 0.835360 0.137555
O O15 0.183307 0.799404 0.878210
O O16 0.500000 0.000000 0.500000
O O17 0.981440 0.015185 0.326617
O O18 0.000000 0.000000 0.000000
#
# Coordination Sequence:
#
# PCOD9036718 Si02
#       8
#     2   2   2   2   2   2   2   2
#     4  11  23  41  62  97 135 176 208 266 332 385
#     4  10  23  42  69  98 132 170 219 268 338 381
#     4  11  23  43  68  97 135 172 223 266 320 393
#     4  11  24  42  65  97 132 175 223 263 314 399
#     4  11  23  44  67  98 135 168 220 280 327 389
#     4  10  24  40  70  91 127 178 218 262 335 392
#     4  10  23  38  70  98 132 161 227 272 325 373
#     4  10  23  40  69  99 127 174 219 266 324 385
#
# _framework density 21.546527999999999
#
# number of rings (size 3 to 8) (size 9 to 14) (size 15 to 20)
#    0.000    1.500    1.250    3.000   14.000    3.000 
#    2.250    2.500    0.000    0.000    0.000    0.000 
#    0.000    0.000    0.000    0.000    0.000    0.000 
#
# Total GULP energy -89290.653660 kJ/mol
# GULP energy per Si atom -5580.665854 kJ/mol
# Density = 2.149749 g / cm^3
# Si number density = 21.546528 Si / 1000 Ang^3
#
#
#
# Elastic Constant Matrix: (Units=GPa)
#
#
# Indices 1 2 3 4 5 6 
#
# 1 85.2381 15.5846 19.8271 2.4129 -18.1340 7.4954
# 2 15.5846 113.3255 19.7121 0.2482 -6.8157 24.3528
# 3 19.8271 19.7121 133.1954 -1.3659 -13.6257 -8.5592
# 4 2.4129 0.2482 -1.3659 24.1379 0.1546 6.0552
# 5 -18.1340 -6.8157 -13.6257 0.1546 27.2492 0.3231
# 6 7.4954 24.3528 -8.5592 6.0552 0.3231 40.5801
#
#
#
# Elastic Compliance Matrix: (Units=1/GPa)
#
#
# Indices 1 2 3 4 5 6 
#
# 1 0.014249 -0.000689 -0.001295 -0.000939 0.008697 -0.002420
# 2 -0.000689 0.010813 -0.001784 0.001601 0.001428 -0.006989
# 3 -0.001295 -0.001784 0.008457 -0.000169 0.002885 0.003096
# 4 -0.000939 0.001601 -0.000169 0.043327 -0.000468 -0.007284
# 5 0.008697 0.001428 0.002885 -0.000468 0.044314 -0.002138
# 6 -0.002420 -0.006989 0.003096 -0.007284 -0.002138 0.031041
#
#
# Mechanical properties :
#
#
# Convention : Reuss Voigt Hill
#
# Bulk Modulus (GPa) = 38.48679 49.11185 43.79932
# Shear Modulus (GPa) = 29.69177 36.83580 33.26378
#
# Velocity S-wave (km/s) = 3.71621 4.13921 3.93340
# Velocity P-wave (km/s) = 6.02616 6.75921 6.40318
#
# Compressibility (1/GPa) = 0.02598294
#
# Stress axis : x y z
#
# Youngs Moduli (GPa) = 70.18264 92.47739 118.24651
#
# Poissons Ratio (x) = 0.06372 0.15307
# Poissons Ratio (y) = 0.04836 0.21100
# Poissons Ratio (z) = 0.09085 0.16501
#
# Static dielectric constant tensor:
#      x y z
#    x 1.817680 0.023350 0.023940 
#    y 0.023350 2.130870 -0.012700 
#    z 0.023940 -0.012700 1.806280 
# 
# From -- ./inp_files/190085.got.cif
#   From: 2010.05.17/outbox.cif.g08.bks.cpg/sg2_96_cif.got.tgz:190085.got - 2010.06.03 11:33:40.
