data_PCOD9036860
_publ_section_title
;
Structure prediction by ZEFSAII (Michael W. Deem and Ramdas Pophale) SiO2 
 PCOD9036860
Probable space group: P -1
;
_chemical_formula_sum "Si O2"
_cell_formula_units_Z 16
_cell_length_a 27.668302
_cell_length_b 8.989715
_cell_length_c 14.659309
_cell_angle_alpha 45.035922
_cell_angle_beta 20.593993
_cell_angle_gamma 35.683058
_cell_volume 722.036920
_symmetry_space_group_name_H-M "P -1"
_symmetry_group_IT_number 2
_symmetry_cell_setting 'triclinic'
loop_
_space_group_symop_operation_xyz
x,y,z
-x,-y,-z
loop_
_atom_site_type_symbol
_atom_site_label
_atom_site_fract_x
_atom_site_fract_y
_atom_site_fract_z
Si Si1 0.764484 0.829714 0.908290
Si Si2 0.920751 0.307991 0.509897
Si Si3 0.704733 0.345723 0.717250
Si Si4 0.771541 0.463876 0.907013
Si Si5 0.398523 0.025509 0.547464
Si Si6 0.205986 0.612025 0.661269
Si Si7 0.567092 0.455900 0.561342
Si Si8 0.173349 0.927850 0.878010
O O1 0.912732 0.693024 0.783572
O O2 0.769242 0.053745 0.756270
O O3 0.799850 0.630308 0.852598
O O4 0.574538 0.966237 0.225435
O O5 0.775724 0.436346 0.631713
O O6 0.839238 0.424154 0.702699
O O7 0.000000 0.000000 0.500000
O O8 0.776438 0.362775 0.487848
O O9 0.500000 0.500000 0.000000
O O10 0.568533 0.599418 0.197312
O O11 0.852951 0.187530 0.934701
O O12 0.458787 0.772913 0.611677
O O13 0.287933 0.020629 0.664511
O O14 0.277131 0.312000 0.682791
O O15 0.334008 0.647948 0.473596
O O16 0.009727 0.832544 0.940894
O O17 0.711544 0.318456 0.286881
#
# Coordination Sequence:
#
# PCOD9036860 Si02
#       8
#     2   2   2   2   2   2   2   2
#     4  11  21  42  68  94 130 167 221 262 321 389
#     4  10  23  39  64  96 124 167 217 264 311 386
#     4  11  23  44  64  92 136 172 208 270 326 377
#     4  11  21  43  70  94 129 172 217 264 325 389
#     4  11  22  44  66  95 130 174 215 271 320 390
#     4  12  25  42  65  96 134 174 216 269 327 378
#     4  11  23  43  69  95 130 175 217 262 326 392
#     4  11  22  43  65  98 132 169 215 276 325 374
#
# _framework density 22.159533
#
# number of rings (size 3 to 8) (size 9 to 14) (size 15 to 20)
#    0.000    1.000    3.750    4.500    1.750    0.000 
#    4.500    5.000    0.000    0.000    0.000    0.000 
#    0.000    0.000    0.000    0.000    0.000    0.000 
#
# Total GULP energy -89433.950172 kJ/mol
# GULP energy per Si atom -5589.621886 kJ/mol
# Density = 2.210910 g / cm^3
# Si number density = 22.159533 Si / 1000 Ang^3
#
#
#
# Elastic Constant Matrix: (Units=GPa)
#
#
# Indices 1 2 3 4 5 6 
#
# 1 129.6266 29.7131 43.6885 0.8779 -42.3735 7.8435
# 2 29.7131 53.0927 44.1530 8.8869 -22.8831 13.5563
# 3 43.6885 44.1530 97.9787 15.4534 -30.7460 -3.7498
# 4 0.8779 8.8869 15.4534 34.5235 -4.2623 -6.1174
# 5 -42.3735 -22.8831 -30.7460 -4.2623 44.8778 -5.4847
# 6 7.8435 13.5563 -3.7498 -6.1174 -5.4847 17.3588
#
#
#
# Elastic Compliance Matrix: (Units=1/GPa)
#
#
# Indices 1 2 3 4 5 6 
#
# 1 0.011737 -0.000078 -0.002707 0.001626 0.009049 -0.002395
# 2 -0.000078 0.055794 -0.023662 -0.012314 0.004701 -0.051502
# 3 -0.002707 -0.023662 0.024830 0.000553 0.005753 0.027078
# 4 0.001626 -0.012314 0.000553 0.036009 0.001775 0.022252
# 5 0.009049 0.004701 0.005753 0.001775 0.038084 0.006141
# 6 -0.002395 -0.051502 0.027078 0.022252 0.006141 0.114541
#
#
# Mechanical properties :
#
#
# Convention : Reuss Voigt Hill
#
# Bulk Modulus (GPa) = 25.33697 57.31192 41.32444
# Shear Modulus (GPa) = 14.40743 30.22827 22.31785
#
# Velocity S-wave (km/s) = 2.55261 3.69741 3.17700
# Velocity P-wave (km/s) = 4.48848 6.64434 5.66982
#
# Compressibility (1/GPa) = 0.03946802
#
# Stress axis : x y z
#
# Youngs Moduli (GPa) = 85.20386 17.92318 40.27348
#
# Poissons Ratio (x) = 0.00140 0.10900
# Poissons Ratio (y) = 0.00663 0.95294
# Poissons Ratio (z) = 0.23061 0.42409
#
# Static dielectric constant tensor:
#      x y z
#    x 1.829030 -0.011130 -0.028060 
#    y -0.011130 1.813420 0.006630 
#    z -0.028060 0.006630 1.840390 
# 
# From -- ./inp_files/328880.got.cif
#   From: 2010.05.17/outbox.cif.g08.bks.cpg/sg2_165_cif.got.tgz:328880.got - 2010.06.03 11:33:40.
