data_PCOD9036471
_publ_section_title
;
Structure prediction by ZEFSAII (Michael W. Deem and Ramdas Pophale) SiO2 
 PCOD9036471
Probable space group: P -1
;
_chemical_formula_sum "Si O2"
_cell_formula_units_Z 16
_cell_length_a 9.162070
_cell_length_b 21.503347
_cell_length_c 18.211693
_cell_angle_alpha 20.702554
_cell_angle_beta 147.052815
_cell_angle_gamma 149.932143
_cell_volume 626.555027
_symmetry_space_group_name_H-M "P -1"
_symmetry_group_IT_number 2
_symmetry_cell_setting 'triclinic'
loop_
_space_group_symop_operation_xyz
x,y,z
-x,-y,-z
loop_
_atom_site_type_symbol
_atom_site_label
_atom_site_fract_x
_atom_site_fract_y
_atom_site_fract_z
Si Si1 0.635183 0.558948 0.571660
Si Si2 0.780526 0.638029 0.125973
Si Si3 0.435348 0.024943 0.176665
Si Si4 0.818005 0.163736 0.471878
Si Si5 0.112139 0.314541 0.718185
Si Si6 0.869373 0.231885 0.020132
Si Si7 0.457302 0.325768 0.231039
Si Si8 0.227642 0.720607 0.832754
O O1 0.500000 0.500000 0.500000
O O2 0.365506 0.491024 0.588624
O O3 0.816818 0.422995 0.811201
O O4 0.855516 0.786263 0.415421
O O5 0.918098 0.635911 0.264962
O O6 0.547638 0.425537 0.236630
O O7 0.014180 0.732156 0.054342
O O8 0.553637 0.738746 0.926300
O O9 0.686479 0.120090 0.241176
O O10 0.260129 0.160885 0.956474
O O11 0.574790 0.059466 0.115532
O O12 0.192467 0.805452 0.320338
O O13 0.695957 0.252003 0.388828
O O14 0.907614 0.244083 0.338314
O O15 0.500000 0.000000 0.500000
O O16 0.120176 0.197866 0.210874
O O17 0.500000 0.500000 0.000000
O O18 0.000000 0.500000 0.000000
#
# Coordination Sequence:
#
# PCOD9036471 Si02
#       8
#     2   2   2   2   2   2   2   2
#     4  11  23  41  62  84 132 180 207 253 330 398
#     4  10  17  32  64  90 116 159 221 258 303 377
#     4   9  19  33  56  92 128 150 213 277 307 363
#     4  12  24  39  64 103 129 161 217 273 325 381
#     4   9  20  36  55  87 123 170 211 254 316 390
#     4  10  18  36  65  94 118 165 218 262 313 374
#     4  10  17  36  65  92 121 159 214 264 314 381
#     4  11  20  35  65  95 124 170 215 262 320 390
#
# _framework density 25.536463999999999
#
# number of rings (size 3 to 8) (size 9 to 14) (size 15 to 20)
#    0.000    1.750    5.000    3.000    1.750    0.500 
#    0.000    1.875    0.000    8.250    0.000    0.000 
#    0.000    0.000    0.000    0.000    0.000    0.000 
#
# Total GULP energy -89154.813233 kJ/mol
# GULP energy per Si atom -5572.175827 kJ/mol
# Density = 2.547834 g / cm^3
# Si number density = 25.536464 Si / 1000 Ang^3
#
#
#
# Elastic Constant Matrix: (Units=GPa)
#
#
# Indices 1 2 3 4 5 6 
#
# 1 169.7278 57.8037 16.1814 1.0887 -15.3028 2.0207
# 2 57.8037 171.4471 13.9933 -10.6314 -25.6215 -4.9555
# 3 16.1814 13.9933 30.0681 14.8843 -2.1931 1.4458
# 4 1.0887 -10.6314 14.8843 31.3165 -0.8544 -13.7213
# 5 -15.3028 -25.6215 -2.1931 -0.8544 24.6069 7.6115
# 6 2.0207 -4.9555 1.4458 -13.7213 7.6115 43.2323
#
#
#
# Elastic Compliance Matrix: (Units=1/GPa)
#
#
# Indices 1 2 3 4 5 6 
#
# 1 0.006997 -0.001761 -0.002832 0.000220 0.002524 -0.000809
# 2 -0.001761 0.008414 -0.006046 0.006977 0.006661 0.002290
# 3 -0.002832 -0.006046 0.054935 -0.033801 -0.000290 -0.013075
# 4 0.000220 0.006977 -0.033801 0.059468 0.000022 0.020790
# 5 0.002524 0.006661 -0.000290 0.000022 0.051731 -0.008446
# 6 -0.000809 0.002290 -0.013075 0.020790 -0.008446 0.031954
#
#
# Mechanical properties :
#
#
# Convention : Reuss Voigt Hill
#
# Bulk Modulus (GPa) = 20.37945 60.79997 40.58971
# Shear Modulus (GPa) = 19.90980 38.71545 29.31263
#
# Velocity S-wave (km/s) = 2.79527 3.89792 3.39170
# Velocity P-wave (km/s) = 4.29138 6.64222 5.59174
#
# Compressibility (1/GPa) = 0.04906904
#
# Stress axis : x y z
#
# Youngs Moduli (GPa) = 142.91579 118.84946 18.20329
#
# Poissons Ratio (x) = 0.20924 0.05155
# Poissons Ratio (y) = 0.25161 0.11006
# Poissons Ratio (z) = 0.40473 0.71858
#
# Static dielectric constant tensor:
#      x y z
#    x 2.066770 -0.049940 0.148260 
#    y -0.049940 2.103900 -0.107030 
#    z 0.148260 -0.107030 2.276360 
# 
# From -- ./inp_files/562922.got.cif
#   From: 2010.05.17/outbox.cif.g08.bks.cpg/sg2_282_cif.got.tgz:562922.got - 2010.06.03 11:33:40.
