data_PCOD9036157
_publ_section_title
;
Structure prediction by ZEFSAII (Michael W. Deem and Ramdas Pophale) SiO2 
 PCOD9036157
Probable space group: P -1
;
_chemical_formula_sum "Si O2"
_cell_formula_units_Z 14
_cell_length_a 5.012925
_cell_length_b 11.745742
_cell_length_c 10.497273
_cell_angle_alpha 58.650299
_cell_angle_beta 90.657734
_cell_angle_gamma 86.269378
_cell_volume 525.985165
_symmetry_space_group_name_H-M "P -1"
_symmetry_group_IT_number 2
_symmetry_cell_setting 'triclinic'
loop_
_space_group_symop_operation_xyz
x,y,z
-x,-y,-z
loop_
_atom_site_type_symbol
_atom_site_label
_atom_site_fract_x
_atom_site_fract_y
_atom_site_fract_z
Si Si1 0.422434 0.581466 0.709073
Si Si2 0.135363 0.793912 0.079459
Si Si3 0.875463 0.356872 0.569338
Si Si4 0.320109 0.852180 0.684405
Si Si5 0.400008 0.080686 0.106256
Si Si6 0.124563 0.915384 0.374306
Si Si7 0.957088 0.458757 0.882323
O O1 0.378951 0.615092 0.541265
O O2 0.296417 0.698710 0.733341
O O3 0.731449 0.556760 0.757000
O O4 0.239016 0.460432 0.809374
O O5 0.174462 0.701722 0.257817
O O6 0.166094 0.682702 0.034117
O O7 0.334588 0.903638 0.981378
O O8 0.834734 0.852696 0.021044
O O9 0.000000 0.500000 0.500000
O O10 0.011637 0.223163 0.573491
O O11 0.552412 0.852324 0.792211
O O12 0.313016 0.906537 0.505501
O O13 0.089097 0.956636 0.682806
O O14 0.304104 0.941580 0.237092
O O15 0.000000 0.500000 0.000000
#
# Coordination Sequence:
#
# PCOD9036157 Si02
#       7
#     2   2   2   2   2   2   2
#     4  11  25  44  77 105 151 192 251 306 365 446
#     4  12  27  45  77 103 160 197 248 313 368 444
#     4  11  26  54  75 111 147 208 261 304 368 456
#     4  10  22  47  77 113 145 195 248 312 377 449
#     4  12  24  48  72 114 149 196 246 313 378 446
#     4  10  24  47  81 109 150 198 244 317 374 450
#     4  12  24  44  70 115 146 199 237 308 383 439
#
# _framework density 26.616717999999999
#
# number of rings (size 3 to 8) (size 9 to 14) (size 15 to 20)
#    0.000    0.857    2.857    3.429    2.000    2.857 
#   10.286    0.000    0.000    0.000    0.000    0.000 
#    0.000    0.000    0.000    0.000    0.000    0.000 
#
# Total GULP energy -78232.982286 kJ/mol
# GULP energy per Si atom -5588.070163 kJ/mol
# Density = 2.655614 g / cm^3
# Si number density = 26.616718 Si / 1000 Ang^3
#
#
#
# Elastic Constant Matrix: (Units=GPa)
#
#
# Indices 1 2 3 4 5 6 
#
# 1 92.5207 48.6060 74.5698 8.3092 10.8849 15.1928
# 2 48.6060 192.1438 43.3931 -5.6111 -5.1589 15.2871
# 3 74.5698 43.3931 166.3236 22.0586 -4.9672 11.6801
# 4 8.3092 -5.6111 22.0586 35.2472 3.2004 -9.9818
# 5 10.8849 -5.1589 -4.9672 3.2004 44.4467 1.5627
# 6 15.1928 15.2871 11.6801 -9.9818 1.5627 31.0316
#
#
#
# Elastic Compliance Matrix: (Units=1/GPa)
#
#
# Indices 1 2 3 4 5 6 
#
# 1 0.020759 -0.003178 -0.008070 -0.001418 -0.006052 -0.005712
# 2 -0.003178 0.006235 -0.000292 0.001518 0.001395 -0.000987
# 3 -0.008070 -0.000292 0.010713 -0.005734 0.003622 -0.001964
# 4 -0.001418 0.001518 -0.005734 0.036829 -0.003266 0.014115
# 5 -0.006052 0.001395 0.003622 -0.003266 0.024832 -0.001388
# 6 -0.005712 -0.000987 -0.001964 0.014115 -0.001388 0.040858
#
#
# Mechanical properties :
#
#
# Convention : Reuss Voigt Hill
#
# Bulk Modulus (GPa) = 68.36669 87.12511 77.74590
# Shear Modulus (GPa) = 29.72978 41.10638 35.41808
#
# Velocity S-wave (km/s) = 3.34572 3.93413 3.65179
# Velocity P-wave (km/s) = 6.37703 7.31032 6.85956
#
# Compressibility (1/GPa) = 0.01462701
#
# Stress axis : x y z
#
# Youngs Moduli (GPa) = 48.17087 160.39119 93.34397
#
# Poissons Ratio (x) = 0.50980 0.75326
# Poissons Ratio (y) = 0.15311 0.02725
# Poissons Ratio (z) = 0.38872 0.04683
#
# Static dielectric constant tensor:
#      x y z
#    x 2.100970 0.032150 -0.026750 
#    y 0.032150 2.197900 -0.033860 
#    z -0.026750 -0.033860 2.089650 
# 
# From -- ./inp_files/72236.got.cif
#   From: 2010.05.17/outbox.cif.g08.bks.cpg/sg2_37_cif.got.tgz:72236.got - 2010.06.03 11:33:40.
