data_PCOD9036773
_publ_section_title
;
Structure prediction by ZEFSAII (Michael W. Deem and Ramdas Pophale) SiO2 
 PCOD9036773
Probable space group: P -1
;
_chemical_formula_sum "Si O2"
_cell_formula_units_Z 12
_cell_length_a 8.913156
_cell_length_b 8.910828
_cell_length_c 21.434822
_cell_angle_alpha 26.542373
_cell_angle_beta 136.156000
_cell_angle_gamma 132.139750
_cell_volume 525.144312
_symmetry_space_group_name_H-M "P -1"
_symmetry_group_IT_number 2
_symmetry_cell_setting 'triclinic'
loop_
_space_group_symop_operation_xyz
x,y,z
-x,-y,-z
loop_
_atom_site_type_symbol
_atom_site_label
_atom_site_fract_x
_atom_site_fract_y
_atom_site_fract_z
Si Si1 0.662270 0.702322 0.091243
Si Si2 0.823529 0.014329 0.260742
Si Si3 0.810369 0.203947 0.053164
Si Si4 0.028420 0.188059 0.373663
Si Si5 0.197717 0.183936 0.032583
Si Si6 0.567160 0.338134 0.645891
O O1 0.816059 0.404887 0.235551
O O2 0.798188 0.982208 0.069215
O O3 0.426272 0.645505 0.071912
O O4 0.616612 0.820920 0.963358
O O5 0.835056 0.952781 0.213108
O O6 0.015075 0.986858 0.379530
O O7 0.638147 0.782808 0.328160
O O8 0.829434 0.428977 0.105142
O O9 0.000000 0.500000 0.000000
O O10 0.258118 0.402740 0.364439
O O11 0.000000 0.000000 0.500000
O O12 0.290139 0.988553 0.191342
O O13 0.000000 0.000000 0.000000
O O14 0.500000 0.500000 0.500000
#
# Coordination Sequence:
#
# PCOD9036773 Si02
#       6
#     2   2   2   2   2   2
#     4  10  23  39  61  93 129 159 216 262 314 377
#     4  11  23  38  64  93 124 165 218 261 318 377
#     4  11  24  38  62  94 128 168 213 263 316 373
#     4  11  24  41  64  96 128 164 214 270 322 382
#     4  11  20  38  66  94 125 161 214 274 316 372
#     4  12  23  36  65  98 129 160 207 272 329 373
#
# _framework density 22.850860000000001
#
# number of rings (size 3 to 8) (size 9 to 14) (size 15 to 20)
#    0.000    1.000    6.667    1.500    2.333    0.000 
#    0.000    0.833    0.000    2.000    0.000    0.000 
#    0.000    0.000    0.000    0.000    0.000    0.000 
#
# Total GULP energy -66832.545425 kJ/mol
# GULP energy per Si atom -5569.378785 kJ/mol
# Density = 2.279885 g / cm^3
# Si number density = 22.850860 Si / 1000 Ang^3
#
#
#
# Elastic Constant Matrix: (Units=GPa)
#
#
# Indices 1 2 3 4 5 6 
#
# 1 65.1747 18.4897 16.9959 6.3058 -16.7181 7.0468
# 2 18.4897 99.5677 15.3591 16.6003 -8.4726 15.0896
# 3 16.9959 15.3591 119.3304 31.9206 -33.2259 -4.0349
# 4 6.3058 16.6003 31.9206 35.4687 0.2069 -11.3018
# 5 -16.7181 -8.4726 -33.2259 0.2069 34.0250 4.0961
# 6 7.0468 15.0896 -4.0349 -11.3018 4.0961 53.2580
#
#
#
# Elastic Compliance Matrix: (Units=1/GPa)
#
#
# Indices 1 2 3 4 5 6 
#
# 1 0.019231 -0.001194 0.002304 -0.006375 0.011959 -0.004304
# 2 -0.001194 0.012975 0.002743 -0.010263 0.006103 -0.005958
# 3 0.002304 0.002743 0.018886 -0.020612 0.021063 -0.005645
# 4 -0.006375 -0.010263 -0.020612 0.058167 -0.028181 0.016701
# 5 0.011959 0.006103 0.021063 -0.028181 0.058998 -0.012233
# 6 -0.004304 -0.005958 -0.005645 0.016701 -0.012233 0.025091
#
#
# Mechanical properties :
#
#
# Convention : Reuss Voigt Hill
#
# Bulk Modulus (GPa) = 17.00675 42.86247 29.93461
# Shear Modulus (GPa) = 24.36146 40.09887 32.23017
#
# Velocity S-wave (km/s) = 3.26867 4.19359 3.75968
# Velocity P-wave (km/s) = 4.65878 6.49973 5.65468
#
# Compressibility (1/GPa) = 0.05880019
#
# Stress axis : x y z
#
# Youngs Moduli (GPa) = 51.99948 77.06938 52.94809
#
# Poissons Ratio (x) = 0.09200 -0.12201
# Poissons Ratio (y) = 0.06207 -0.14525
# Poissons Ratio (z) = -0.11982 -0.21142
#
# Static dielectric constant tensor:
#      x y z
#    x 1.953600 0.003210 -0.044180 
#    y 0.003210 1.946540 0.021870 
#    z -0.044180 0.021870 1.975350 
# 
# From -- ./inp_files/587732.got.cif
#   From: 2010.05.17/outbox.cif.g08.bks.cpg/sg2_294_cif.got.tgz:587732.got - 2010.06.03 11:33:40.
