data_PCOD9036248
_publ_section_title
;
Structure prediction by ZEFSAII (Michael W. Deem and Ramdas Pophale) SiO2 
 PCOD9036248
Probable space group: P -1
;
_chemical_formula_sum "Si O2"
_cell_formula_units_Z 10
_cell_length_a 4.915810
_cell_length_b 17.336300
_cell_length_c 5.088775
_cell_angle_alpha 115.732527
_cell_angle_beta 84.823014
_cell_angle_gamma 113.479789
_cell_volume 356.519340
_symmetry_space_group_name_H-M "P -1"
_symmetry_group_IT_number 2
_symmetry_cell_setting 'triclinic'
loop_
_space_group_symop_operation_xyz
x,y,z
-x,-y,-z
loop_
_atom_site_type_symbol
_atom_site_label
_atom_site_fract_x
_atom_site_fract_y
_atom_site_fract_z
Si Si1 0.811934 0.038159 0.274403
Si Si2 0.272721 0.542139 0.837143
Si Si3 0.874186 0.629310 0.722422
Si Si4 0.338997 0.803726 0.697401
Si Si5 0.335665 0.153028 0.762887
O O1 0.668682 0.094848 0.194396
O O2 0.029144 0.117848 0.575414
O O3 0.645213 0.947364 0.335566
O O4 0.000000 0.000000 0.000000
O O5 0.619357 0.613552 0.939154
O O6 0.295201 0.446512 0.596999
O O7 0.133405 0.595860 0.734715
O O8 0.000000 0.500000 0.000000
O O9 0.036860 0.730458 0.735799
O O10 0.420756 0.781683 0.367649
O O11 0.586200 0.806740 0.893218
#
# Coordination Sequence:
#
# PCOD9036248 Si02
#       5
#     2   2   2   2   2
#     4  11  25  45  72  99 144 195 244 299 370 435
#     4  10  22  48  74 102 144 195 239 306 383 455
#     4  10  25  44  72 108 145 190 250 306 376 451
#     4  12  27  44  69 107 144 187 248 308 364 443
#     4  11  26  44  68 100 143 191 238 300 364 434
#
# _framework density 28.048971999999999
#
# number of rings (size 3 to 8) (size 9 to 14) (size 15 to 20)
#    0.000    1.200    2.000    1.800   11.200    0.000 
#    0.000    0.000    0.000    0.000    0.000    0.000 
#    0.000    0.000    0.000    0.000    0.000    0.000 
#
# Total GULP energy -55871.737050 kJ/mol
# GULP energy per Si atom -5587.173705 kJ/mol
# Density = 2.798513 g / cm^3
# Si number density = 28.048972 Si / 1000 Ang^3
#
#
#
# Elastic Constant Matrix: (Units=GPa)
#
#
# Indices 1 2 3 4 5 6 
#
# 1 137.3461 60.6389 29.8046 -13.0135 8.4842 2.6012
# 2 60.6389 199.2755 54.3321 -17.2302 9.2132 30.0913
# 3 29.8046 54.3321 95.2869 -36.0712 2.9948 -6.7214
# 4 -13.0135 -17.2302 -36.0712 44.6808 -12.1012 2.8376
# 5 8.4842 9.2132 2.9948 -12.1012 35.3583 3.0398
# 6 2.6012 30.0913 -6.7214 2.8376 3.0398 48.2009
#
#
#
# Elastic Compliance Matrix: (Units=1/GPa)
#
#
# Indices 1 2 3 4 5 6 
#
# 1 0.008672 -0.002380 -0.001152 0.000251 -0.001357 0.000928
# 2 -0.002380 0.007666 -0.004440 -0.001279 -0.001047 -0.005136
# 3 -0.001152 -0.004440 0.018893 0.014086 0.004278 0.004370
# 4 0.000251 -0.001279 0.014086 0.036475 0.011574 -0.000128
# 5 -0.001357 -0.001047 0.004278 0.011574 0.032601 -0.001414
# 6 0.000928 -0.005136 0.004370 -0.000128 -0.001414 0.024609
#
#
# Mechanical properties :
#
#
# Convention : Reuss Voigt Hill
#
# Bulk Modulus (GPa) = 51.85150 80.16219 66.00685
# Shear Modulus (GPa) = 33.04926 44.79021 38.91973
#
# Velocity S-wave (km/s) = 3.43632 4.00040 3.72904
# Velocity P-wave (km/s) = 5.85411 7.06959 6.49036
#
# Compressibility (1/GPa) = 0.01928584
#
# Stress axis : x y z
#
# Youngs Moduli (GPa) = 115.31530 130.43804 52.93068
#
# Poissons Ratio (x) = 0.31051 0.06097
# Poissons Ratio (y) = 0.27451 0.23503
# Poissons Ratio (z) = 0.13282 0.57918
#
# Static dielectric constant tensor:
#      x y z
#    x 2.259560 0.105990 -0.034900 
#    y 0.105990 2.185040 0.035920 
#    z -0.034900 0.035920 2.302600 
# 
# From -- ./inp_files/4714.got.cif
#   From: 2010.05.17/outbox.cif.g08.bks.cpg/sg2_3_cif.got.tgz:4714.got - 2010.06.03 11:33:40.
