data_PCOD9036902
_publ_section_title
;
Structure prediction by ZEFSAII (Michael W. Deem and Ramdas Pophale) SiO2 
 PCOD9036902
Probable space group: P -1
;
_chemical_formula_sum "Si O2"
_cell_formula_units_Z 16
_cell_length_a 9.244766
_cell_length_b 11.936519
_cell_length_c 14.133323
_cell_angle_alpha 135.307394
_cell_angle_beta 130.074552
_cell_angle_gamma 45.992862
_cell_volume 753.504627
_symmetry_space_group_name_H-M "P -1"
_symmetry_group_IT_number 2
_symmetry_cell_setting 'triclinic'
loop_
_space_group_symop_operation_xyz
x,y,z
-x,-y,-z
loop_
_atom_site_type_symbol
_atom_site_label
_atom_site_fract_x
_atom_site_fract_y
_atom_site_fract_z
Si Si1 0.325016 0.348232 0.997525
Si Si2 0.700886 0.527716 0.571965
Si Si3 0.473615 0.183384 0.776578
Si Si4 0.051261 0.728601 0.644241
Si Si5 0.106967 0.368196 0.106762
Si Si6 0.575763 0.815873 0.533186
Si Si7 0.032658 0.932491 0.081129
Si Si8 0.379534 0.454395 0.752908
O O1 0.283185 0.305933 0.060683
O O2 0.483950 0.438299 0.115188
O O3 0.418829 0.188357 0.866521
O O4 0.103343 0.486418 0.943499
O O5 0.500000 0.500000 0.500000
O O6 0.842315 0.366581 0.464997
O O7 0.820505 0.548294 0.726191
O O8 0.619637 0.707874 0.584310
O O9 0.715705 0.149239 0.847315
O O10 0.344016 0.372813 0.785663
O O11 0.445368 0.024240 0.618721
O O12 0.165994 0.581795 0.686094
O O13 0.805053 0.783069 0.572887
O O14 0.072984 0.902395 0.792066
O O15 0.056078 0.209818 0.025716
O O16 0.495997 0.715826 0.364774
O O17 0.000000 0.000000 0.000000
#
# Coordination Sequence:
#
# PCOD9036902 Si02
#       8
#     2   2   2   2   2   2   2   2
#     4  11  25  39  62  92 126 168 208 251 319 370
#     4  11  23  41  65  88 122 166 209 253 308 373
#     4  11  23  38  63  95 125 162 209 257 309 365
#     4  10  23  39  65  95 123 161 210 255 312 363
#     4  11  24  43  61  90 129 166 206 258 310 377
#     4  10  23  40  62  95 123 160 208 258 315 362
#     4  11  23  41  65  96 129 161 207 262 312 365
#     4  11  20  39  64  92 127 159 211 255 306 372
#
# _framework density 21.234107999999999
#
# number of rings (size 3 to 8) (size 9 to 14) (size 15 to 20)
#    0.000    1.250    1.250    6.000    5.250    1.000 
#    0.000    3.750    0.000    3.750    0.000    0.000 
#    0.000    0.000    0.000    0.000    0.000    0.000 
#
# Total GULP energy -89515.474694 kJ/mol
# GULP energy per Si atom -5594.717168 kJ/mol
# Density = 2.118578 g / cm^3
# Si number density = 21.234108 Si / 1000 Ang^3
#
#
#
# Elastic Constant Matrix: (Units=GPa)
#
#
# Indices 1 2 3 4 5 6 
#
# 1 82.6789 32.0362 32.0681 12.6988 -24.2283 10.6960
# 2 32.0362 56.5768 40.4239 4.4901 -8.9968 7.4514
# 3 32.0681 40.4239 123.6500 9.4115 -13.1592 5.5113
# 4 12.6988 4.4901 9.4115 39.3402 5.0124 -3.6921
# 5 -24.2283 -8.9968 -13.1592 5.0124 34.6467 -0.4788
# 6 10.6960 7.4514 5.5113 -3.6921 -0.4788 20.3465
#
#
#
# Elastic Compliance Matrix: (Units=1/GPa)
#
#
# Indices 1 2 3 4 5 6 
#
# 1 0.022263 -0.007912 -0.000524 -0.008935 0.014470 -0.009945
# 2 -0.007912 0.027333 -0.006912 0.000885 -0.001242 -0.003847
# 3 -0.000524 -0.006912 0.010894 -0.001978 0.002256 -0.000450
# 4 -0.008935 0.000885 -0.001978 0.031058 -0.011121 0.010283
# 5 0.014470 -0.001242 0.002256 -0.011121 0.041003 -0.008816
# 6 -0.009945 -0.003847 -0.000450 0.010283 -0.008816 0.057566
#
#
# Mechanical properties :
#
#
# Convention : Reuss Voigt Hill
#
# Bulk Modulus (GPa) = 33.56389 52.44021 43.00205
# Shear Modulus (GPa) = 21.66917 29.42517 25.54717
#
# Velocity S-wave (km/s) = 3.19797 3.72660 3.47236
# Velocity P-wave (km/s) = 5.42927 6.57774 6.03090
#
# Compressibility (1/GPa) = 0.02979393
#
# Stress axis : x y z
#
# Youngs Moduli (GPa) = 44.91722 36.58636 91.79773
#
# Poissons Ratio (x) = 0.28947 0.04810
# Poissons Ratio (y) = 0.35539 0.63448
# Poissons Ratio (z) = 0.02353 0.25287
#
# Static dielectric constant tensor:
#      x y z
#    x 1.738910 -0.008990 -0.024650 
#    y -0.008990 1.800700 0.002350 
#    z -0.024650 0.002350 1.787890 
# 
# From -- ./inp_files/307429.got.cif
#   From: 2010.05.17/outbox.cif.g08.bks.cpg/sg2_154_cif.got.tgz:307429.got - 2010.06.03 11:33:40.
