data_PCOD9036595
_publ_section_title
;
Structure prediction by ZEFSAII (Michael W. Deem and Ramdas Pophale) SiO2 
 PCOD9036595
Probable space group: P -1
;
_chemical_formula_sum "Si O2"
_cell_formula_units_Z 15
_cell_length_a 11.213682
_cell_length_b 13.954060
_cell_length_c 12.561156
_cell_angle_alpha 32.399055
_cell_angle_beta 36.550132
_cell_angle_gamma 51.968764
_cell_volume 615.150933
_symmetry_space_group_name_H-M "P -1"
_symmetry_group_IT_number 2
_symmetry_cell_setting 'triclinic'
loop_
_space_group_symop_operation_xyz
x,y,z
-x,-y,-z
loop_
_atom_site_type_symbol
_atom_site_label
_atom_site_fract_x
_atom_site_fract_y
_atom_site_fract_z
Si Si1 0.226478 0.379961 0.320771
Si Si2 0.410772 0.081463 0.370370
Si Si3 0.247076 0.675602 0.851456
Si Si4 0.761135 0.917540 0.736309
Si Si5 0.000000 0.500000 0.500000
Si Si6 0.884422 0.162665 0.916546
Si Si7 0.779627 0.631358 0.165589
Si Si8 0.435586 0.737191 0.429931
O O1 0.347964 0.221048 0.369356
O O2 0.254171 0.498177 0.296959
O O3 0.026219 0.667009 0.232454
O O4 0.257297 0.504256 0.079284
O O5 0.288799 0.115630 0.320082
O O6 0.319715 0.875237 0.664893
O O7 0.354703 0.900118 0.849706
O O8 0.382259 0.686223 0.637899
O O9 0.018657 0.661980 0.984326
O O10 0.630115 0.068673 0.723817
O O11 0.724177 0.735487 0.002353
O O12 0.000000 0.000000 0.500000
O O13 0.015635 0.704354 0.384419
O O14 0.000000 0.000000 0.000000
O O15 0.666803 0.725344 0.249464
O O16 0.692936 0.417641 0.409432
#
# Coordination Sequence:
#
# PCOD9036595 Si02
#       8
#     2   2   2   2   1   2   2   2
#     4  10  25  44  72 100 135 176 223 288 350 419
#     4  11  25  42  71 105 133 189 227 280 344 410
#     4  11  24  41  64 105 140 176 229 283 332 404
#     4  11  22  42  63  98 144 182 228 273 324 395
#     4   8  24  50  68 104 128 174 212 300 352 414
#     4  10  25  49  72  99 136 171 230 287 349 420
#     4  11  22  40  66  92 140 191 228 276 329 382
#     4  10  23  38  62  94 131 192 232 273 326 390
#
# _framework density 24.384260000000001
#
# number of rings (size 3 to 8) (size 9 to 14) (size 15 to 20)
#    0.800    0.800    2.667    1.600    3.733    7.467 
#    0.000    0.000    0.000    0.000    0.000    0.000 
#    0.000    0.000    0.000    0.000    0.000    0.000 
#
# Total GULP energy -83576.051832 kJ/mol
# GULP energy per Si atom -5571.736789 kJ/mol
# Density = 2.432876 g / cm^3
# Si number density = 24.384260 Si / 1000 Ang^3
#
#
#
# Elastic Constant Matrix: (Units=GPa)
#
#
# Indices 1 2 3 4 5 6 
#
# 1 79.3420 21.3598 33.9122 3.6837 11.3739 -21.2402
# 2 21.3598 125.9863 15.6038 -13.9742 2.4936 -8.0131
# 3 33.9122 15.6038 110.9600 -11.5595 13.3168 -16.2105
# 4 3.6837 -13.9742 -11.5595 54.3768 1.3689 4.8238
# 5 11.3739 2.4936 13.3168 1.3689 22.9861 -0.3274
# 6 -21.2402 -8.0131 -16.2105 4.8238 -0.3274 12.0912
#
#
#
# Elastic Compliance Matrix: (Units=1/GPa)
#
#
# Indices 1 2 3 4 5 6 
#
# 1 0.029568 -0.002149 -0.000186 -0.006938 -0.013127 0.052681
# 2 -0.002149 0.008623 -0.000231 0.002244 0.000139 0.000739
# 3 -0.000186 -0.000231 0.012303 0.001387 -0.006876 0.015276
# 4 -0.006938 0.002244 0.001387 0.021244 0.000875 -0.017293
# 5 -0.013127 0.000139 -0.006876 0.000875 0.053473 -0.031086
# 6 0.052681 0.000739 0.015276 -0.017293 -0.031086 0.202276
#
#
# Mechanical properties :
#
#
# Convention : Reuss Voigt Hill
#
# Bulk Modulus (GPa) = 22.04415 50.89332 36.46873
# Shear Modulus (GPa) = 14.37857 34.25163 24.31510
#
# Velocity S-wave (km/s) = 2.43094 3.75195 3.16122
# Velocity P-wave (km/s) = 4.11573 6.29970 5.32097
#
# Compressibility (1/GPa) = 0.04536351
#
# Stress axis : x y z
#
# Youngs Moduli (GPa) = 33.81978 115.96311 81.28271
#
# Poissons Ratio (x) = 0.24922 0.01509
# Poissons Ratio (y) = 0.07268 0.01876
# Poissons Ratio (z) = 0.00628 0.02677
#
# Static dielectric constant tensor:
#      x y z
#    x 1.982700 -0.031090 0.024170 
#    y -0.031090 2.131940 -0.017900 
#    z 0.024170 -0.017900 2.025640 
# 
# From -- ./inp_files/533586.got.cif
#   From: 2010.05.17/outbox.cif.g08.bks.cpg/sg2_267_cif.got.tgz:533586.got - 2010.06.03 11:33:40.
