data_PCOD9036912
_publ_section_title
;
Structure prediction by ZEFSAII (Michael W. Deem and Ramdas Pophale) SiO2 
 PCOD9036912
Probable space group: P -1
;
_chemical_formula_sum "Si O2"
_cell_formula_units_Z 14
_cell_length_a 27.755491
_cell_length_b 10.527444
_cell_length_c 13.157223
_cell_angle_alpha 144.290914
_cell_angle_beta 154.291715
_cell_angle_gamma 24.731178
_cell_volume 697.264916
_symmetry_space_group_name_H-M "P -1"
_symmetry_group_IT_number 2
_symmetry_cell_setting 'triclinic'
loop_
_space_group_symop_operation_xyz
x,y,z
-x,-y,-z
loop_
_atom_site_type_symbol
_atom_site_label
_atom_site_fract_x
_atom_site_fract_y
_atom_site_fract_z
Si Si1 0.338230 0.277873 0.106239
Si Si2 0.946390 0.262239 0.491826
Si Si3 0.379226 0.122109 0.758029
Si Si4 0.048894 0.335321 0.091512
Si Si5 0.129557 0.768595 0.184557
Si Si6 0.317901 0.773400 0.327251
Si Si7 0.873948 0.829219 0.422434
O O1 0.278858 0.438367 0.207998
O O2 0.269795 0.585073 0.116789
O O3 0.515215 0.014510 0.232855
O O4 0.258485 0.157941 0.854205
O O5 0.763303 0.514616 0.278584
O O6 0.965967 0.454361 0.718414
O O7 0.049226 0.151631 0.514727
O O8 0.000000 0.000000 0.500000
O O9 0.301601 0.984737 0.520890
O O10 0.500000 0.000000 0.000000
O O11 0.225330 0.007205 0.211576
O O12 0.000000 0.500000 0.000000
O O13 0.950826 0.273811 0.912339
O O14 0.176095 0.924712 0.430823
O O15 0.000000 0.000000 0.000000
O O16 0.500000 0.500000 0.500000
O O17 0.000000 0.500000 0.500000
#
# Coordination Sequence:
#
# PCOD9036912 Si02
#       7
#     2   2   2   2   2   2   2
#     4  11  22  39  63  94 130 166 219 269 321 383
#     4  11  24  43  64  97 134 173 220 270 325 398
#     4  10  23  39  65  97 133 173 217 269 333 386
#     4  11  21  38  63  94 129 170 217 267 322 387
#     4  12  22  37  64  96 130 170 218 273 324 381
#     4   9  20  38  59  90 129 167 209 264 318 384
#     4  12  22  37  67  95 129 170 222 271 323 383
#
# _framework density 20.078451999999999
#
# number of rings (size 3 to 8) (size 9 to 14) (size 15 to 20)
#    0.000    1.143    4.286    1.714    4.000    2.286 
#    0.000    0.714    0.000    8.571    0.000    0.000 
#    0.000    0.000    0.000    0.000    0.000    0.000 
#
# Total GULP energy -77949.396529 kJ/mol
# GULP energy per Si atom -5567.814038 kJ/mol
# Density = 2.003275 g / cm^3
# Si number density = 20.078452 Si / 1000 Ang^3
#
#
#
# Elastic Constant Matrix: (Units=GPa)
#
#
# Indices 1 2 3 4 5 6 
#
# 1 132.7157 51.5416 50.9315 -12.5623 11.5725 6.2036
# 2 51.5416 104.5771 59.2942 -2.0516 10.8901 10.2576
# 3 50.9315 59.2942 100.4057 22.4280 -4.1513 -5.2404
# 4 -12.5623 -2.0516 22.4280 40.0812 -1.9504 -3.9373
# 5 11.5725 10.8901 -4.1513 -1.9504 29.7839 1.0054
# 6 6.2036 10.2576 -5.2404 -3.9373 1.0054 43.0720
#
#
#
# Elastic Compliance Matrix: (Units=1/GPa)
#
#
# Indices 1 2 3 4 5 6 
#
# 1 0.011966 -0.000779 -0.007585 0.007555 -0.004871 -0.001657
# 2 -0.000779 0.018577 -0.012707 0.006950 -0.007636 -0.005045
# 3 -0.007585 -0.012707 0.025665 -0.016365 0.009913 0.005514
# 4 0.007555 0.006950 -0.016365 0.036445 -0.005328 -0.001279
# 5 -0.004871 -0.007636 0.009913 -0.005328 0.039214 0.002324
# 6 -0.001657 -0.005045 0.005514 -0.001279 0.002324 0.025157
#
#
# Mechanical properties :
#
#
# Convention : Reuss Voigt Hill
#
# Bulk Modulus (GPa) = 71.09790 73.47036 72.28413
# Shear Modulus (GPa) = 24.52730 34.31616 29.42173
#
# Velocity S-wave (km/s) = 3.49889 4.13862 3.83213
# Velocity P-wave (km/s) = 7.19791 7.71418 7.46051
#
# Compressibility (1/GPa) = 0.01406511
#
# Stress axis : x y z
#
# Youngs Moduli (GPa) = 83.57325 53.82921 38.96398
#
# Poissons Ratio (x) = 0.04191 0.29555
# Poissons Ratio (y) = 0.06507 0.49513
# Poissons Ratio (z) = 0.63393 0.68403
#
# Static dielectric constant tensor:
#      x y z
#    x 1.739600 -0.068070 0.047170 
#    y -0.068070 1.722250 0.008800 
#    z 0.047170 0.008800 1.793800 
# 
# From -- ./inp_files/474444.got.cif
#   From: 2010.05.17/outbox.cif.g08.bks.cpg/sg2_238_cif.got.tgz:474444.got - 2010.06.03 11:33:40.
