data_PCOD9036987
_publ_section_title
;
Structure prediction by ZEFSAII (Michael W. Deem and Ramdas Pophale) SiO2 
 PCOD9036987
Probable space group: P -1
;
_chemical_formula_sum "Si O2"
_cell_formula_units_Z 12
_cell_length_a 14.377455
_cell_length_b 13.802082
_cell_length_c 8.565930
_cell_angle_alpha 44.105939
_cell_angle_beta 36.855708
_cell_angle_gamma 28.783331
_cell_volume 490.084503
_symmetry_space_group_name_H-M "P -1"
_symmetry_group_IT_number 2
_symmetry_cell_setting 'triclinic'
loop_
_space_group_symop_operation_xyz
x,y,z
-x,-y,-z
loop_
_atom_site_type_symbol
_atom_site_label
_atom_site_fract_x
_atom_site_fract_y
_atom_site_fract_z
Si Si1 0.809637 0.712871 0.347312
Si Si2 0.943171 0.892270 0.493309
Si Si3 0.371672 0.990883 0.458963
Si Si4 0.291055 0.724488 0.953128
Si Si5 0.320258 0.711405 0.411058
Si Si6 0.266210 0.480087 0.094158
O O1 0.635794 0.854956 0.277368
O O2 0.772028 0.585323 0.622509
O O3 0.073597 0.557112 0.144425
O O4 0.741980 0.857063 0.417404
O O5 0.139655 0.732713 0.538809
O O6 0.772043 0.895077 0.637891
O O7 0.801833 0.101672 0.528867
O O8 0.091598 0.855310 0.193847
O O9 0.359089 0.833316 0.686219
O O10 0.500000 0.500000 0.000000
O O11 0.219475 0.671425 0.969741
O O12 0.500000 0.500000 0.500000
O O13 0.477707 0.699219 0.096336
#
# Coordination Sequence:
#
# PCOD9036987 Si02
#       6
#     2   2   2   2   2   2
#     4  10  23  39  67  97 138 167 212 279 341 387
#     4  11  24  40  65  99 131 171 223 275 328 388
#     4  11  22  39  65 103 130 171 220 277 332 391
#     4  12  21  38  72 101 127 167 233 281 322 380
#     4  11  25  43  66  97 136 175 224 276 329 387
#     4  11  22  43  65  98 130 173 222 275 329 395
#
# _framework density 24.485572000000001
#
# number of rings (size 3 to 8) (size 9 to 14) (size 15 to 20)
#    0.000    1.000    5.000    1.500    2.333    0.000 
#    3.000    1.667    0.000    0.000    0.000    0.000 
#    0.000    0.000    0.000    0.000    0.000    0.000 
#
# Total GULP energy -67086.248088 kJ/mol
# GULP energy per Si atom -5590.520674 kJ/mol
# Density = 2.442984 g / cm^3
# Si number density = 24.485572 Si / 1000 Ang^3
#
#
#
# Elastic Constant Matrix: (Units=GPa)
#
#
# Indices 1 2 3 4 5 6 
#
# 1 172.3684 49.3274 13.8244 16.7194 -18.8493 -41.1723
# 2 49.3274 109.4068 21.8093 14.9106 -10.5482 -16.2885
# 3 13.8244 21.8093 43.1428 15.1734 -0.9667 8.3741
# 4 16.7194 14.9106 15.1734 45.2875 2.9616 -10.2864
# 5 -18.8493 -10.5482 -0.9667 2.9616 30.4423 9.3532
# 6 -41.1723 -16.2885 8.3741 -10.2864 9.3532 71.4076
#
#
#
# Elastic Compliance Matrix: (Units=1/GPa)
#
#
# Indices 1 2 3 4 5 6 
#
# 1 0.007887 -0.002244 -0.001709 -0.000956 0.003007 0.003705
# 2 -0.002244 0.011755 -0.005074 -0.001134 0.002161 0.001536
# 3 -0.001709 -0.005074 0.031267 -0.009956 0.001428 -0.007431
# 4 -0.000956 -0.001134 -0.009956 0.027657 -0.005549 0.005069
# 5 0.003007 0.002161 0.001428 -0.005549 0.037153 -0.003607
# 6 0.003705 0.001536 -0.007431 0.005069 -0.003607 0.018564
#
#
# Mechanical properties :
#
#
# Convention : Reuss Voigt Hill
#
# Bulk Modulus (GPa) = 30.43579 54.98225 42.70902
# Shear Modulus (GPa) = 30.62064 45.42462 38.02263
#
# Velocity S-wave (km/s) = 3.54016 4.31183 3.94491
# Velocity P-wave (km/s) = 5.40068 6.87698 6.18305
#
# Compressibility (1/GPa) = 0.03285605
#
# Stress axis : x y z
#
# Youngs Moduli (GPa) = 126.79047 85.07052 31.98244
#
# Poissons Ratio (x) = 0.19087 0.05464
# Poissons Ratio (y) = 0.28448 0.16229
# Poissons Ratio (z) = 0.21663 0.43167
#
# Static dielectric constant tensor:
#      x y z
#    x 2.068130 -0.077740 0.011310 
#    y -0.077740 1.966000 -0.014860 
#    z 0.011310 -0.014860 2.024640 
# 
# From -- ./inp_files/310881.got.cif
#   From: 2010.05.17/outbox.cif.g08.bks.cpg/sg2_156_cif.got.tgz:310881.got - 2010.06.03 11:33:40.
