data_PCOD9036649
_publ_section_title
;
Structure prediction by ZEFSAII (Michael W. Deem and Ramdas Pophale) SiO2 
 PCOD9036649
Probable space group: P -1
;
_chemical_formula_sum "Si O2"
_cell_formula_units_Z 14
_cell_length_a 9.398724
_cell_length_b 9.431239
_cell_length_c 8.676512
_cell_angle_alpha 68.364592
_cell_angle_beta 68.932774
_cell_angle_gamma 74.831392
_cell_volume 659.697194
_symmetry_space_group_name_H-M "P -1"
_symmetry_group_IT_number 2
_symmetry_cell_setting 'triclinic'
loop_
_space_group_symop_operation_xyz
x,y,z
-x,-y,-z
loop_
_atom_site_type_symbol
_atom_site_label
_atom_site_fract_x
_atom_site_fract_y
_atom_site_fract_z
Si Si1 0.161295 0.042165 0.475462
Si Si2 0.195002 0.585484 0.027381
Si Si3 0.085564 0.391292 0.380322
Si Si4 0.625791 0.167364 0.280871
Si Si5 0.862209 0.566163 0.197790
Si Si6 0.554221 0.663892 0.439140
Si Si7 0.552582 0.030699 0.797208
O O1 0.137127 0.217226 0.474085
O O2 0.248528 0.927051 0.615317
O O3 0.272770 0.035322 0.286335
O O4 0.000000 0.000000 0.500000
O O5 0.297292 0.716739 0.904555
O O6 0.212376 0.471852 0.918524
O O7 0.215121 0.479434 0.214853
O O8 0.010715 0.652333 0.080512
O O9 0.000000 0.500000 0.500000
O O10 0.951047 0.403927 0.295961
O O11 0.500346 0.266299 0.401894
O O12 0.734548 0.641709 0.335308
O O13 0.548437 0.048457 0.255831
O O14 0.500000 0.500000 0.500000
O O15 0.472144 0.787997 0.300360
O O16 0.500000 0.000000 0.000000
#
# Coordination Sequence:
#
# PCOD9036649 Si02
#       7
#     2   2   2   2   2   2   2
#     4  11  25  44  70  98 137 176 226 282 345 408
#     4   9  20  39  66  94 128 176 221 273 328 410
#     4  10  23  38  65  99 129 168 227 278 324 395
#     4  11  24  47  67 102 137 187 220 282 356 402
#     4   9  20  38  66  96 132 167 229 266 339 388
#     4  11  22  41  72  96 131 181 226 279 344 412
#     4  11  29  46  65  99 145 182 228 286 347 400
#
# _framework density 21.221857
#
# number of rings (size 3 to 8) (size 9 to 14) (size 15 to 20)
#    0.857    0.857    1.429    2.571    8.000    1.143 
#    0.000    3.571    0.000    0.000    0.000    0.000 
#    0.000    0.000    0.000    0.000    0.000    0.000 
#
# Total GULP energy -78145.501343 kJ/mol
# GULP energy per Si atom -5581.821525 kJ/mol
# Density = 2.117356 g / cm^3
# Si number density = 21.221857 Si / 1000 Ang^3
#
#
#
# Elastic Constant Matrix: (Units=GPa)
#
#
# Indices 1 2 3 4 5 6 
#
# 1 86.4407 35.3154 59.0437 12.2766 -17.5847 0.6526
# 2 35.3154 133.1826 65.9524 2.5615 -13.1656 6.4752
# 3 59.0437 65.9524 129.0112 2.4325 -15.0530 14.2917
# 4 12.2766 2.5615 2.4325 27.5823 -1.8697 -9.9824
# 5 -17.5847 -13.1656 -15.0530 -1.8697 35.5479 1.8651
# 6 0.6526 6.4752 14.2917 -9.9824 1.8651 25.0472
#
#
#
# Elastic Compliance Matrix: (Units=1/GPa)
#
#
# Indices 1 2 3 4 5 6 
#
# 1 0.019318 -0.000587 -0.007848 -0.007163 0.005594 0.000855
# 2 -0.000587 0.010166 -0.004744 -0.000200 0.001460 -0.000094
# 3 -0.007848 -0.004744 0.014639 0.000205 0.000933 -0.006909
# 4 -0.007163 -0.000200 0.000205 0.046043 -0.002086 0.018627
# 5 0.005594 0.001460 0.000933 -0.002086 0.031948 -0.004266
# 6 0.000855 -0.000094 -0.006909 0.018627 -0.004266 0.051610
#
#
# Mechanical properties :
#
#
# Convention : Reuss Voigt Hill
#
# Bulk Modulus (GPa) = 56.29068 74.36195 65.32631
# Shear Modulus (GPa) = 24.27143 30.19036 27.23089
#
# Velocity S-wave (km/s) = 3.38553 3.77584 3.58600
# Velocity P-wave (km/s) = 6.47031 7.35701 6.92786
#
# Compressibility (1/GPa) = 0.01776493
#
# Stress axis : x y z
#
# Youngs Moduli (GPa) = 51.76577 98.36642 68.31289
#
# Poissons Ratio (x) = 0.05773 0.53612
# Poissons Ratio (y) = 0.03038 0.32406
# Poissons Ratio (z) = 0.40626 0.46663
#
# Static dielectric constant tensor:
#      x y z
#    x 1.849920 -0.034880 0.020000 
#    y -0.034880 1.769160 -0.018400 
#    z 0.020000 -0.018400 1.804450 
# 
# From -- ./inp_files/243386.got.cif
#   From: 2010.05.17/outbox.cif.g08.bks.cpg/sg2_122_cif.got.tgz:243386.got - 2010.06.03 11:33:40.
