data_PCOD9036066
_publ_section_title
;
Structure prediction by ZEFSAII (Michael W. Deem and Ramdas Pophale) SiO2 
 PCOD9036066
Probable space group: P -1
;
_chemical_formula_sum "Si O2"
_cell_formula_units_Z 12
_cell_length_a 11.293403
_cell_length_b 6.672017
_cell_length_c 18.037562
_cell_angle_alpha 100.668919
_cell_angle_beta 31.808265
_cell_angle_gamma 121.899228
_cell_volume 491.125453
_symmetry_space_group_name_H-M "P -1"
_symmetry_group_IT_number 2
_symmetry_cell_setting 'triclinic'
loop_
_space_group_symop_operation_xyz
x,y,z
-x,-y,-z
loop_
_atom_site_type_symbol
_atom_site_label
_atom_site_fract_x
_atom_site_fract_y
_atom_site_fract_z
Si Si1 0.673922 0.269287 0.049506
Si Si2 0.864218 0.389515 0.690347
Si Si3 0.137690 0.326669 0.158905
Si Si4 0.178978 0.237980 0.792069
Si Si5 0.644600 0.815721 0.644945
Si Si6 0.446056 0.764430 0.299404
O O1 0.819717 0.495613 0.921553
O O2 0.914922 0.243101 0.940487
O O3 0.411237 0.645536 0.829243
O O4 0.068363 0.008326 0.772208
O O5 0.989898 0.623662 0.701271
O O6 0.850510 0.491449 0.507370
O O7 0.661093 0.071374 0.811896
O O8 0.625490 0.344239 0.754708
O O9 0.500000 0.500000 0.000000
O O10 0.507627 0.584549 0.636897
O O11 0.247664 0.132961 0.817715
O O12 0.581627 0.008945 0.669685
O O13 0.000000 0.000000 0.500000
#
# Coordination Sequence:
#
# PCOD9036066 Si02
#       6
#     2   2   2   2   2   2
#     4  11  25  44  71 106 140 182 239 283 350 408
#     4  10  22  47  72 101 142 185 230 284 342 417
#     4  12  27  44  70 103 144 187 227 288 352 414
#     4  12  25  45  71 106 141 183 230 294 345 416
#     4  11  25  44  73 105 139 182 237 293 337 415
#     4  10  24  46  73 105 135 185 239 282 348 404
#
# _framework density 24.433674
#
# number of rings (size 3 to 8) (size 9 to 14) (size 15 to 20)
#    0.000    1.000    1.667    5.000    4.667    5.333 
#    0.000    1.667    0.000    0.000    0.000    0.000 
#    0.000    0.000    0.000    0.000    0.000    0.000 
#
# Total GULP energy -67056.882962 kJ/mol
# GULP energy per Si atom -5588.073580 kJ/mol
# Density = 2.437806 g / cm^3
# Si number density = 24.433674 Si / 1000 Ang^3
#
#
#
# Elastic Constant Matrix: (Units=GPa)
#
#
# Indices 1 2 3 4 5 6 
#
# 1 101.1296 56.1572 36.3130 8.0747 -14.1275 -4.8671
# 2 56.1572 197.4602 23.0427 -1.6496 -6.1273 28.2108
# 3 36.3130 23.0427 44.3344 -7.2576 -0.5045 -4.6363
# 4 8.0747 -1.6496 -7.2576 21.5741 -0.1096 -5.8531
# 5 -14.1275 -6.1273 -0.5045 -0.1096 39.2295 11.0610
# 6 -4.8671 28.2108 -4.6363 -5.8531 11.0610 57.0973
#
#
#
# Elastic Compliance Matrix: (Units=1/GPa)
#
#
# Indices 1 2 3 4 5 6 
#
# 1 0.019680 -0.003512 -0.016450 -0.013279 0.006440 -0.000532
# 2 -0.003512 0.006751 -0.000944 0.000479 0.000858 -0.003829
# 3 -0.016450 -0.000944 0.040544 0.021295 -0.007162 0.005927
# 4 -0.013279 0.000479 0.021295 0.060613 -0.006471 0.007828
# 5 0.006440 0.000858 -0.007162 -0.006471 0.029776 -0.006888
# 6 -0.000532 -0.003829 0.005927 0.007828 -0.006888 0.021979
#
#
# Mechanical properties :
#
#
# Convention : Reuss Voigt Hill
#
# Bulk Modulus (GPa) = 39.74146 63.77222 51.75684
# Shear Modulus (GPa) = 21.78236 38.74092 30.26164
#
# Velocity S-wave (km/s) = 2.98902 3.98622 3.52308
# Velocity P-wave (km/s) = 5.31156 6.88066 6.14638
#
# Compressibility (1/GPa) = 0.02516264
#
# Stress axis : x y z
#
# Youngs Moduli (GPa) = 50.81369 148.12450 24.66432
#
# Poissons Ratio (x) = 0.52028 0.40572
# Poissons Ratio (y) = 0.17848 0.02329
# Poissons Ratio (z) = 0.83587 0.13986
#
# Static dielectric constant tensor:
#      x y z
#    x 1.964300 0.010250 -0.038940 
#    y 0.010250 2.051910 -0.028900 
#    z -0.038940 -0.028900 1.994400 
# 
# From -- ./inp_files/323776.got.cif
#   From: 2010.05.17/outbox.cif.g08.bks.cpg/sg2_162_cif.got.tgz:323776.got - 2010.06.03 11:33:40.
