data_PCOD9036886
_publ_section_title
;
Structure prediction by ZEFSAII (Michael W. Deem and Ramdas Pophale) SiO2 
 PCOD9036886
Probable space group: P -1
;
_chemical_formula_sum "Si O2"
_cell_formula_units_Z 16
_cell_length_a 15.075219
_cell_length_b 12.523201
_cell_length_c 14.703537
_cell_angle_alpha 152.795075
_cell_angle_beta 138.384153
_cell_angle_gamma 34.812218
_cell_volume 722.878895
_symmetry_space_group_name_H-M "P -1"
_symmetry_group_IT_number 2
_symmetry_cell_setting 'triclinic'
loop_
_space_group_symop_operation_xyz
x,y,z
-x,-y,-z
loop_
_atom_site_type_symbol
_atom_site_label
_atom_site_fract_x
_atom_site_fract_y
_atom_site_fract_z
Si Si1 0.921582 0.627790 0.804828
Si Si2 0.218413 0.173255 0.962987
Si Si3 0.458231 0.623666 0.784317
Si Si4 0.305841 0.787223 0.984654
Si Si5 0.752378 0.613974 0.038913
Si Si6 0.655292 0.097324 0.456959
Si Si7 0.010001 0.031373 0.422221
Si Si8 0.575736 0.805489 0.321225
O O1 0.943977 0.341894 0.572875
O O2 0.092933 0.555858 0.912701
O O3 0.840634 0.904840 0.894847
O O4 0.818265 0.687553 0.862107
O O5 0.387643 0.903485 0.888289
O O6 0.095078 0.075144 0.781074
O O7 0.201881 0.361714 0.009798
O O8 0.493477 0.380266 0.559524
O O9 0.349495 0.700451 0.846562
O O10 0.628328 0.521175 0.878031
O O11 0.438568 0.814893 0.161084
O O12 0.309677 0.518734 0.820944
O O13 0.663068 0.919145 0.242308
O O14 0.661846 0.925797 0.420255
O O15 0.808516 0.117929 0.578176
O O16 0.000000 0.000000 0.500000
O O17 0.500000 0.000000 0.500000
#
# Coordination Sequence:
#
# PCOD9036886 Si02
#       8
#     2   2   2   2   2   2   2   2
#     4  10  23  39  65  89 130 172 207 263 307 385
#     4  11  23  38  62  93 130 178 213 251 315 373
#     4  11  23  37  64  96 127 164 214 267 312 375
#     4  10  23  41  66  97 120 162 213 264 327 378
#     4  11  22  40  58  92 135 169 211 255 311 376
#     4  11  23  39  64  92 127 167 212 259 312 381
#     4  11  23  41  60  92 132 178 209 248 315 374
#     4  11  22  43  70  93 125 162 209 270 333 370
#
# _framework density 22.133721999999999
#
# number of rings (size 3 to 8) (size 9 to 14) (size 15 to 20)
#    0.000    1.250    5.000    1.500    3.500    0.500 
#    0.000    2.500    0.000    6.750    0.000    0.000 
#    0.000    0.000    0.000    0.000    0.000    0.000 
#
# Total GULP energy -89334.535338 kJ/mol
# GULP energy per Si atom -5583.408459 kJ/mol
# Density = 2.208334 g / cm^3
# Si number density = 22.133722 Si / 1000 Ang^3
#
#
#
# Elastic Constant Matrix: (Units=GPa)
#
#
# Indices 1 2 3 4 5 6 
#
# 1 69.2068 4.4192 14.0730 -1.3916 6.7772 2.8739
# 2 4.4192 81.2449 21.8668 25.0860 0.9840 6.9052
# 3 14.0730 21.8668 85.2925 23.1423 -9.4594 -1.0549
# 4 -1.3916 25.0860 23.1423 31.2247 -1.1739 -6.9356
# 5 6.7772 0.9840 -9.4594 -1.1739 38.5807 7.7581
# 6 2.8739 6.9052 -1.0549 -6.9356 7.7581 12.7318
#
#
#
# Elastic Compliance Matrix: (Units=1/GPa)
#
#
# Indices 1 2 3 4 5 6 
#
# 1 0.015783 -0.001556 -0.004070 0.005330 -0.004032 0.002305
# 2 -0.001556 0.022009 0.001603 -0.024996 0.004998 -0.028114
# 3 -0.004070 0.001603 0.017034 -0.016407 0.006672 -0.011543
# 4 0.005330 -0.024996 -0.016407 0.077771 -0.014456 0.062168
# 5 -0.004032 0.004998 0.006672 -0.014456 0.033655 -0.029630
# 6 0.002305 -0.028114 -0.011543 0.062168 -0.029630 0.144236
#
#
# Mechanical properties :
#
#
# Convention : Reuss Voigt Hill
#
# Bulk Modulus (GPa) = 21.37700 35.16248 28.26974
# Shear Modulus (GPa) = 14.96443 29.53312 22.24878
#
# Velocity S-wave (km/s) = 2.60300 3.65678 3.17393
# Velocity P-wave (km/s) = 4.32588 5.80949 5.12169
#
# Compressibility (1/GPa) = 0.04677924
#
# Stress axis : x y z
#
# Youngs Moduli (GPa) = 63.36028 45.43657 58.70654
#
# Poissons Ratio (x) = 0.07069 0.23894
# Poissons Ratio (y) = 0.09858 -0.09411
# Poissons Ratio (z) = 0.25789 -0.07283
#
# Static dielectric constant tensor:
#      x y z
#    x 1.801280 -0.009480 -0.020530 
#    y -0.009480 1.856130 0.015140 
#    z -0.020530 0.015140 1.940200 
# 
# From -- ./inp_files/273059.got.cif
#   From: 2010.05.17/outbox.cif.g08.bks.cpg/sg2_137_cif.got.tgz:273059.got - 2010.06.03 11:33:40.
