data_PCOD9036323
_publ_section_title
;
Structure prediction by ZEFSAII (Michael W. Deem and Ramdas Pophale) SiO2 
 PCOD9036323
Probable space group: P -1
;
_chemical_formula_sum "Si O2"
_cell_formula_units_Z 14
_cell_length_a 11.491416
_cell_length_b 5.057331
_cell_length_c 10.110971
_cell_angle_alpha 82.337069
_cell_angle_beta 81.055110
_cell_angle_gamma 113.532780
_cell_volume 519.648915
_symmetry_space_group_name_H-M "P -1"
_symmetry_group_IT_number 2
_symmetry_cell_setting 'triclinic'
loop_
_space_group_symop_operation_xyz
x,y,z
-x,-y,-z
loop_
_atom_site_type_symbol
_atom_site_label
_atom_site_fract_x
_atom_site_fract_y
_atom_site_fract_z
Si Si1 0.356570 0.439943 0.585287
Si Si2 0.566728 0.801827 0.170451
Si Si3 0.077095 0.961594 0.613351
Si Si4 0.797166 0.373465 0.006383
Si Si5 0.030004 0.376758 0.792114
Si Si6 0.664934 0.182590 0.645049
Si Si7 0.295842 0.334038 0.198068
O O1 0.500000 0.500000 0.500000
O O2 0.363818 0.351633 0.740591
O O3 0.334116 0.716288 0.513266
O O4 0.232377 0.160932 0.568957
O O5 0.485247 0.926184 0.272144
O O6 0.449691 0.537606 0.136326
O O7 0.666030 0.071059 0.050942
O O8 0.045362 0.622475 0.664240
O O9 0.738934 0.480184 0.696927
O O10 0.000000 0.000000 0.500000
O O11 0.851034 0.467264 0.137253
O O12 0.904055 0.318217 0.906202
O O13 0.772591 0.632745 0.923725
O O14 0.032912 0.094909 0.739549
O O15 0.718266 0.961675 0.709430
#
# Coordination Sequence:
#
# PCOD9036323 Si02
#       7
#     2   2   2   2   2   2   2
#     4  10  22  49  79 113 155 201 260 335 393 460
#     4   9  21  45  71 113 152 204 258 320 397 458
#     4  12  28  55  83 115 154 204 268 333 395 466
#     4  11  24  50  76 112 164 210 262 315 387 484
#     4  11  29  51  78 114 153 215 260 323 390 468
#     4   9  23  41  67 112 147 202 252 323 395 450
#     4  10  23  42  70 110 155 202 255 319 387 464
#
# _framework density 26.941265999999999
#
# number of rings (size 3 to 8) (size 9 to 14) (size 15 to 20)
#    0.857    0.857    1.429    0.857    2.000    8.000 
#    2.571    0.000    3.143    0.000    0.000    0.000 
#    0.000    0.000    0.000    0.000    0.000    0.000 
#
# Total GULP energy -78453.859468 kJ/mol
# GULP energy per Si atom -5603.847105 kJ/mol
# Density = 2.687995 g / cm^3
# Si number density = 26.941266 Si / 1000 Ang^3
#
#
#
# Elastic Constant Matrix: (Units=GPa)
#
#
# Indices 1 2 3 4 5 6 
#
# 1 124.7278 33.8798 54.4745 -14.9141 18.9763 -5.4872
# 2 33.8798 71.6617 21.4665 -19.2637 10.8898 -10.8823
# 3 54.4745 21.4665 117.8893 -18.5841 33.4982 -10.9917
# 4 -14.9141 -19.2637 -18.5841 55.5442 4.5222 8.1843
# 5 18.9763 10.8898 33.4982 4.5222 64.9027 -11.2633
# 6 -5.4872 -10.8823 -10.9917 8.1843 -11.2633 54.6217
#
#
#
# Elastic Compliance Matrix: (Units=1/GPa)
#
#
# Indices 1 2 3 4 5 6 
#
# 1 0.011012 -0.003867 -0.004247 0.000337 -0.000520 -0.000676
# 2 -0.003867 0.017690 0.000070 0.004975 -0.001870 0.002019
# 3 -0.004247 0.000070 0.012559 0.003455 -0.005409 0.000481
# 4 0.000337 0.004975 0.003455 0.021723 -0.004663 -0.002496
# 5 -0.000520 -0.001870 -0.005409 -0.004663 0.019548 0.003216
# 6 -0.000676 0.002019 0.000481 -0.002496 0.003216 0.019776
#
#
# Mechanical properties :
#
#
# Convention : Reuss Voigt Hill
#
# Bulk Modulus (GPa) = 39.72640 59.32446 49.52543
# Shear Modulus (GPa) = 39.43589 48.64424 44.04007
#
# Velocity S-wave (km/s) = 3.83008 4.25381 4.04749
# Velocity P-wave (km/s) = 5.85977 6.79663 6.34551
#
# Compressibility (1/GPa) = 0.02517218
#
# Stress axis : x y z
#
# Youngs Moduli (GPa) = 90.80789 56.52910 79.62591
#
# Poissons Ratio (x) = 0.21862 0.33814
# Poissons Ratio (y) = 0.35119 -0.00554
# Poissons Ratio (z) = 0.38562 -0.00393
#
# Static dielectric constant tensor:
#      x y z
#    x 2.111030 -0.009350 -0.063150 
#    y -0.009350 2.125840 0.045920 
#    z -0.063150 0.045920 2.058630 
# 
# From -- ./inp_files/466146.got.cif
#   From: 2010.05.17/outbox.cif.g08.bks.cpg/sg2_234_cif.got.tgz:466146.got - 2010.06.03 11:33:40.
