data_PCOD9036801
_publ_section_title
;
Structure prediction by ZEFSAII (Michael W. Deem and Ramdas Pophale) SiO2 
 PCOD9036801
Probable space group: P -1
;
_chemical_formula_sum "Si O2"
_cell_formula_units_Z 12
_cell_length_a 11.337767
_cell_length_b 13.563954
_cell_length_c 10.388932
_cell_angle_alpha 129.618103
_cell_angle_beta 155.605081
_cell_angle_gamma 63.026131
_cell_volume 465.948046
_symmetry_space_group_name_H-M "P -1"
_symmetry_group_IT_number 2
_symmetry_cell_setting 'triclinic'
loop_
_space_group_symop_operation_xyz
x,y,z
-x,-y,-z
loop_
_atom_site_type_symbol
_atom_site_label
_atom_site_fract_x
_atom_site_fract_y
_atom_site_fract_z
Si Si1 0.830497 0.705178 0.058083
Si Si2 0.250319 0.602061 0.549776
Si Si3 0.942165 0.325660 0.173104
Si Si4 0.345514 0.258511 0.689514
Si Si5 0.522100 0.111040 0.225575
Si Si6 0.706112 0.032931 0.604294
O O1 0.013493 0.671376 0.331500
O O2 0.144367 0.754029 0.321785
O O3 0.473948 0.596096 0.649057
O O4 0.735568 0.832680 0.027495
O O5 0.070830 0.453287 0.311718
O O6 0.481920 0.694903 0.965788
O O7 0.136985 0.340985 0.510776
O O8 0.600050 0.295979 0.859379
O O9 0.954614 0.188534 0.005411
O O10 0.176955 0.091130 0.393245
O O11 0.506333 0.036996 0.284458
O O12 0.500000 0.000000 0.000000
O O13 0.500000 0.000000 0.500000
#
# Coordination Sequence:
#
# PCOD9036801 Si02
#       6
#     2   2   2   2   2   2
#     4  10  23  39  62  92 122 165 216 265 311 373
#     4  11  21  41  64  92 129 171 215 262 316 383
#     4  11  23  39  61  94 129 170 213 264 322 381
#     4  11  22  38  63  94 128 169 216 265 318 381
#     4  11  23  42  67  96 129 169 216 264 317 382
#     4  10  24  43  66  96 131 168 211 268 326 378
#
# _framework density 25.753945000000002
#
# number of rings (size 3 to 8) (size 9 to 14) (size 15 to 20)
#    0.000    1.333    0.000    6.000    0.000    6.667 
#    0.000    5.000    0.000    0.000    0.000    0.000 
#    0.000    0.000    0.000    0.000    0.000    0.000 
#
# Total GULP energy -66923.000750 kJ/mol
# GULP energy per Si atom -5576.916729 kJ/mol
# Density = 2.569533 g / cm^3
# Si number density = 25.753945 Si / 1000 Ang^3
#
#
#
# Elastic Constant Matrix: (Units=GPa)
#
#
# Indices 1 2 3 4 5 6 
#
# 1 115.8110 46.4978 43.9011 0.2201 -14.0408 30.6944
# 2 46.4978 245.4625 -2.5049 -80.9828 37.7433 45.2423
# 3 43.9011 -2.5049 119.9163 -7.3801 -5.5457 8.2949
# 4 0.2201 -80.9828 -7.3801 83.6863 -17.1896 -7.3603
# 5 -14.0408 37.7433 -5.5457 -17.1896 62.9900 -4.9763
# 6 30.6944 45.2423 8.2949 -7.3603 -4.9763 47.5402
#
#
#
# Elastic Compliance Matrix: (Units=1/GPa)
#
#
# Indices 1 2 3 4 5 6 
#
# 1 0.013458 -0.003331 -0.004719 -0.003436 0.003257 -0.004886
# 2 -0.003331 0.008971 0.002081 0.007441 -0.004383 -0.006057
# 3 -0.004719 0.002081 0.010275 0.002762 -0.000670 -0.000369
# 4 -0.003436 0.007441 0.002762 0.019210 0.000074 -0.002363
# 5 0.003257 -0.004383 -0.000670 0.000074 0.019524 0.004240
# 6 -0.004886 -0.006057 -0.000369 -0.002363 0.004240 0.030096
#
#
# Mechanical properties :
#
#
# Convention : Reuss Voigt Hill
#
# Bulk Modulus (GPa) = 48.15685 72.99751 60.57718
# Shear Modulus (GPa) = 41.53022 65.06301 53.29662
#
# Velocity S-wave (km/s) = 4.02005 5.03172 4.55406
# Velocity P-wave (km/s) = 6.34721 7.88437 7.15718
#
# Compressibility (1/GPa) = 0.02076548
#
# Stress axis : x y z
#
# Youngs Moduli (GPa) = 74.30759 111.46574 97.32483
#
# Poissons Ratio (x) = 0.37130 0.45930
# Poissons Ratio (y) = 0.24752 -0.20255
# Poissons Ratio (z) = 0.35067 -0.23197
#
# Static dielectric constant tensor:
#      x y z
#    x 2.118680 -0.037460 -0.036720 
#    y -0.037460 1.987400 0.068910 
#    z -0.036720 0.068910 2.076640 
# 
# From -- ./inp_files/434286.got.cif
#   From: 2010.05.17/outbox.cif.g08.bks.cpg/sg2_218_cif.got.tgz:434286.got - 2010.06.03 11:33:40.
