data_PCOD9036128
_publ_section_title
;
Structure prediction by ZEFSAII (Michael W. Deem and Ramdas Pophale) SiO2 
 PCOD9036128
Probable space group: P -1
;
_chemical_formula_sum "Si O2"
_cell_formula_units_Z 15
_cell_length_a 16.673149
_cell_length_b 7.547297
_cell_length_c 5.092553
_cell_angle_alpha 93.526750
_cell_angle_beta 58.268832
_cell_angle_gamma 84.992038
_cell_volume 538.581738
_symmetry_space_group_name_H-M "P -1"
_symmetry_group_IT_number 2
_symmetry_cell_setting 'triclinic'
loop_
_space_group_symop_operation_xyz
x,y,z
-x,-y,-z
loop_
_atom_site_type_symbol
_atom_site_label
_atom_site_fract_x
_atom_site_fract_y
_atom_site_fract_z
Si Si1 0.218750 0.485543 0.131786
Si Si2 0.359836 0.139320 0.263741
Si Si3 0.500000 0.000000 0.500000
Si Si4 0.198301 0.081401 0.201817
Si Si5 0.074891 0.803070 0.252096
Si Si6 0.053539 0.643032 0.777087
Si Si7 0.613158 0.481789 0.830431
Si Si8 0.361680 0.838718 0.609952
O O1 0.203261 0.279790 0.094607
O O2 0.164147 0.638150 0.056072
O O3 0.158600 0.547427 0.506948
O O4 0.327626 0.513913 0.999122
O O5 0.253698 0.092969 0.383847
O O6 0.355092 0.346025 0.353078
O O7 0.403659 0.016147 0.419403
O O8 0.421207 0.100735 0.891093
O O9 0.545427 0.197745 0.376882
O O10 0.105602 0.981402 0.344481
O O11 0.268347 0.931373 0.912148
O O12 0.014310 0.711193 0.565665
O O13 0.043374 0.809472 0.008517
O O14 0.000000 0.500000 0.000000
O O15 0.650452 0.297873 0.604585
O O16 0.500000 0.500000 0.000000
#
# Coordination Sequence:
#
# PCOD9036128 Si02
#       8
#     2   2   1   2   2   2   2   2
#     4   9  24  40  64 104 131 186 226 290 339 408
#     4   9  23  41  57  86 126 167 234 283 344 389
#     4   8  22  38  54  84 112 176 220 286 340 382
#     4  11  22  40  67  93 132 176 230 282 341 414
#     4  10  23  43  73 102 140 179 225 276 349 413
#     4  10  22  47  75 105 143 179 220 283 348 415
#     4  11  23  40  65  92 130 179 235 279 346 401
#     4  10  23  38  57  84 121 171 224 282 345 392
#
# _framework density 27.850926000000001
#
# number of rings (size 3 to 8) (size 9 to 14) (size 15 to 20)
#    1.600    0.533    0.000    2.000    5.600    6.933 
#    0.000    1.333    0.000    0.000    0.000    0.000 
#    0.000    0.000    0.000    0.000    0.000    0.000 
#
# Total GULP energy -83672.593857 kJ/mol
# GULP energy per Si atom -5578.172924 kJ/mol
# Density = 2.778754 g / cm^3
# Si number density = 27.850926 Si / 1000 Ang^3
#
#
#
# Elastic Constant Matrix: (Units=GPa)
#
#
# Indices 1 2 3 4 5 6 
#
# 1 69.3758 29.9684 14.9016 2.9055 -0.9413 3.7020
# 2 29.9684 129.8817 13.8049 16.0211 16.6123 30.7752
# 3 14.9016 13.8049 110.2972 5.9957 12.8527 17.9415
# 4 2.9055 16.0211 5.9957 36.4293 14.5844 -4.1908
# 5 -0.9413 16.6123 12.8527 14.5844 34.1559 -6.5981
# 6 3.7020 30.7752 17.9415 -4.1908 -6.5981 57.2856
#
#
#
# Elastic Compliance Matrix: (Units=1/GPa)
#
#
# Indices 1 2 3 4 5 6 
#
# 1 0.017004 -0.004857 -0.002661 -0.000252 0.004489 0.002843
# 2 -0.004857 0.011617 0.001299 -0.003256 -0.006293 -0.007297
# 3 -0.002661 0.001299 0.010651 -0.000477 -0.005382 -0.004517
# 4 -0.000252 -0.003256 -0.000477 0.034245 -0.012286 0.003005
# 5 0.004489 -0.006293 -0.005382 -0.012286 0.041403 0.008646
# 6 0.002843 -0.007297 -0.004517 0.003005 0.008646 0.023823
#
#
# Mechanical properties :
#
#
# Convention : Reuss Voigt Hill
#
# Bulk Modulus (GPa) = 37.26528 47.43383 42.34956
# Shear Modulus (GPa) = 31.22525 42.29948 36.76236
#
# Velocity S-wave (km/s) = 3.35200 3.90138 3.63708
# Velocity P-wave (km/s) = 5.32828 6.11250 5.73381
#
# Compressibility (1/GPa) = 0.02683463
#
# Stress axis : x y z
#
# Youngs Moduli (GPa) = 58.81038 86.07744 93.88673
#
# Poissons Ratio (x) = 0.41809 0.24985
# Poissons Ratio (y) = 0.28565 -0.12200
# Poissons Ratio (z) = 0.15650 -0.11185
#
# Static dielectric constant tensor:
#      x y z
#    x 2.349930 0.006840 -0.040310 
#    y 0.006840 2.247040 -0.000870 
#    z -0.040310 -0.000870 2.248350 
# 
# From -- ./inp_files/115648.got.cif
#   From: 2010.05.17/outbox.cif.g08.bks.cpg/sg2_58_cif.got.tgz:115648.got - 2010.06.03 11:33:40.
