data_PCOD9036778
_publ_section_title
;
Structure prediction by ZEFSAII (Michael W. Deem and Ramdas Pophale) SiO2 
 PCOD9036778
Probable space group: P -1
;
_chemical_formula_sum "Si O2"
_cell_formula_units_Z 14
_cell_length_a 18.644112
_cell_length_b 9.832442
_cell_length_c 7.476916
_cell_angle_alpha 134.327889
_cell_angle_beta 131.040985
_cell_angle_gamma 38.810073
_cell_volume 594.997166
_symmetry_space_group_name_H-M "P -1"
_symmetry_group_IT_number 2
_symmetry_cell_setting 'triclinic'
loop_
_space_group_symop_operation_xyz
x,y,z
-x,-y,-z
loop_
_atom_site_type_symbol
_atom_site_label
_atom_site_fract_x
_atom_site_fract_y
_atom_site_fract_z
Si Si1 0.355120 0.070339 0.950254
Si Si2 0.621722 0.675354 0.075934
Si Si3 0.940877 0.365560 0.536934
Si Si4 0.950780 0.787581 0.887720
Si Si5 0.711068 0.562346 0.523154
Si Si6 0.179893 0.976954 0.747260
Si Si7 0.843432 0.235674 0.927529
O O1 0.354567 0.247306 0.252719
O O2 0.483988 0.822824 0.943604
O O3 0.335912 0.180925 0.823040
O O4 0.257285 0.042658 0.834986
O O5 0.642922 0.650379 0.301257
O O6 0.703459 0.421112 0.877822
O O7 0.837600 0.511745 0.648044
O O8 0.881988 0.306307 0.234272
O O9 0.052210 0.129331 0.585582
O O10 0.971422 0.539932 0.682370
O O11 0.858928 0.932360 0.030292
O O12 0.888445 0.968876 0.785728
O O13 0.078064 0.743144 0.068501
O O14 0.746184 0.305212 0.392130
#
# Coordination Sequence:
#
# PCOD9036778 Si02
#       7
#     2   2   2   2   2   2   2
#     4  11  25  45  70  89 133 173 212 275 314 376
#     4  10  23  47  66  95 127 173 222 258 323 383
#     4  11  22  37  61  92 133 162 209 259 322 384
#     4  11  21  37  62  93 128 169 201 262 326 374
#     4  11  24  43  67  97 131 167 216 268 321 379
#     4  12  24  40  62 104 126 168 219 256 327 390
#     4  10  23  39  61  95 132 162 213 267 314 386
#
# _framework density 23.529525
#
# number of rings (size 3 to 8) (size 9 to 14) (size 15 to 20)
#    0.000    1.143    4.286    2.571    2.000    2.857 
#    0.000    2.857    0.000    0.000    0.000    0.000 
#    0.000    0.000    0.000    0.000    0.000    0.000 
#
# Total GULP energy -78306.464417 kJ/mol
# GULP energy per Si atom -5593.318887 kJ/mol
# Density = 2.347597 g / cm^3
# Si number density = 23.529525 Si / 1000 Ang^3
#
#
#
# Elastic Constant Matrix: (Units=GPa)
#
#
# Indices 1 2 3 4 5 6 
#
# 1 74.1295 3.1651 6.8642 -0.6671 -6.5539 0.7846
# 2 3.1651 122.9674 23.8685 12.6226 -6.4710 2.0518
# 3 6.8642 23.8685 35.6453 15.7042 0.9883 18.4955
# 4 -0.6671 12.6226 15.7042 28.3925 4.2246 -1.8937
# 5 -6.5539 -6.4710 0.9883 4.2246 25.6625 12.6337
# 6 0.7846 2.0518 18.4955 -1.8937 12.6337 49.9556
#
#
#
# Elastic Compliance Matrix: (Units=1/GPa)
#
#
# Indices 1 2 3 4 5 6 
#
# 1 0.014175 0.000425 -0.004374 0.002126 0.003229 0.000643
# 2 0.000425 0.009669 -0.007380 -0.000384 0.002004 0.001807
# 3 -0.004374 -0.007380 0.064272 -0.036439 0.014571 -0.028490
# 4 0.002126 -0.000384 -0.036439 0.059619 -0.017945 0.020272
# 5 0.003229 0.002004 0.014571 -0.017945 0.052252 -0.019423
# 6 0.000643 0.001807 -0.028490 0.020272 -0.019423 0.036162
#
#
# Mechanical properties :
#
#
# Convention : Reuss Voigt Hill
#
# Bulk Modulus (GPa) = 15.27740 33.39309 24.33524
# Shear Modulus (GPa) = 17.81739 34.05840 25.93789
#
# Velocity S-wave (km/s) = 2.75478 3.80870 3.32378
# Velocity P-wave (km/s) = 4.07742 5.79348 5.00948
#
# Compressibility (1/GPa) = 0.06545618
#
# Stress axis : x y z
#
# Youngs Moduli (GPa) = 70.54873 103.42809 15.55897
#
# Poissons Ratio (x) = -0.04398 0.06806
# Poissons Ratio (y) = -0.03000 0.11483
# Poissons Ratio (z) = 0.30861 0.76331
#
# Static dielectric constant tensor:
#      x y z
#    x 1.899280 0.026530 -0.048170 
#    y 0.026530 1.896350 -0.008630 
#    z -0.048170 -0.008630 1.938310 
# 
# From -- ./inp_files/328087.got.cif
#   From: 2010.05.17/outbox.cif.g08.bks.cpg/sg2_165_cif.got.tgz:328087.got - 2010.06.03 11:33:40.
