data_PCOD9036278
_publ_section_title
;
Structure prediction by ZEFSAII (Michael W. Deem and Ramdas Pophale) SiO2 
 PCOD9036278
Probable space group: P -1
;
_chemical_formula_sum "Si O2"
_cell_formula_units_Z 12
_cell_length_a 9.104705
_cell_length_b 9.355384
_cell_length_c 10.615639
_cell_angle_alpha 64.073113
_cell_angle_beta 127.716313
_cell_angle_gamma 135.749318
_cell_volume 499.122216
_symmetry_space_group_name_H-M "P -1"
_symmetry_group_IT_number 2
_symmetry_cell_setting 'triclinic'
loop_
_space_group_symop_operation_xyz
x,y,z
-x,-y,-z
loop_
_atom_site_type_symbol
_atom_site_label
_atom_site_fract_x
_atom_site_fract_y
_atom_site_fract_z
Si Si1 0.383891 0.165050 0.072276
Si Si2 0.226121 0.611933 0.325976
Si Si3 0.546304 0.340461 0.827482
Si Si4 0.068067 0.202447 0.521493
Si Si5 0.253283 0.732758 0.555190
Si Si6 0.094330 0.295121 0.968583
O O1 0.562973 0.223470 0.258317
O O2 0.149584 0.929122 0.046168
O O3 0.507477 0.217830 0.980755
O O4 0.273165 0.281330 0.988908
O O5 0.852401 0.612331 0.602616
O O6 0.354306 0.755029 0.460590
O O7 0.383990 0.708248 0.246051
O O8 0.848071 0.149951 0.507281
O O9 0.300007 0.298572 0.691305
O O10 0.236805 0.424012 0.117471
O O11 0.000000 0.000000 0.500000
O O12 0.000000 0.500000 0.500000
O O13 0.992068 0.592939 0.189137
#
# Coordination Sequence:
#
# PCOD9036278 Si02
#       6
#     2   2   2   2   2   2
#     4  11  26  47  80 111 144 199 250 303 368 446
#     4  11  25  47  73 112 148 195 241 310 370 434
#     4  12  25  47  75 106 157 186 245 310 374 431
#     4  11  26  46  76 111 147 198 250 303 368 444
#     4  10  22  48  77 106 148 194 248 295 373 436
#     4  11  25  47  76 111 149 194 251 302 370 444
#
# _framework density 24.042206
#
# number of rings (size 3 to 8) (size 9 to 14) (size 15 to 20)
#    0.000    1.000    0.000    6.500    4.667    1.333 
#    3.000    0.000    0.000    0.000    0.000    0.000 
#    0.000    0.000    0.000    0.000    0.000    0.000 
#
# Total GULP energy -67178.807308 kJ/mol
# GULP energy per Si atom -5598.233942 kJ/mol
# Density = 2.398748 g / cm^3
# Si number density = 24.042206 Si / 1000 Ang^3
#
#
#
# Elastic Constant Matrix: (Units=GPa)
#
#
# Indices 1 2 3 4 5 6 
#
# 1 193.7767 69.6294 85.4158 0.9117 -32.3560 -5.6990
# 2 69.6294 126.3646 76.0424 27.4374 -1.1515 2.9271
# 3 85.4158 76.0424 198.7039 24.9788 -4.5003 -6.7091
# 4 0.9117 27.4374 24.9788 35.9133 -2.8665 13.3974
# 5 -32.3560 -1.1515 -4.5003 -2.8665 47.1810 -6.3654
# 6 -5.6990 2.9271 -6.7091 13.3974 -6.3654 35.1897
#
#
#
# Elastic Compliance Matrix: (Units=1/GPa)
#
#
# Indices 1 2 3 4 5 6 
#
# 1 0.008946 -0.004443 -0.002669 0.005374 0.006149 0.000376
# 2 -0.004443 0.013663 -0.002204 -0.009307 -0.003401 0.000652
# 3 -0.002669 -0.002204 0.007690 -0.004738 -0.001057 0.002830
# 4 0.005374 -0.009307 -0.004738 0.044153 0.003609 -0.015416
# 5 0.006149 -0.003401 -0.001057 0.003609 0.026043 0.004414
# 6 0.000376 0.000652 0.002830 -0.015416 0.004414 0.035631
#
#
# Mechanical properties :
#
#
# Convention : Reuss Voigt Hill
#
# Bulk Modulus (GPa) = 85.70508 109.00228 97.35368
# Shear Modulus (GPa) = 31.51652 42.84064 37.17858
#
# Velocity S-wave (km/s) = 3.62454 4.22583 3.93668
# Velocity P-wave (km/s) = 7.29668 8.32145 7.82585
#
# Compressibility (1/GPa) = 0.01166792
#
# Stress axis : x y z
#
# Youngs Moduli (GPa) = 111.78111 73.19204 130.03196
#
# Poissons Ratio (x) = 0.32519 0.34705
# Poissons Ratio (y) = 0.49664 0.28656
# Poissons Ratio (z) = 0.29834 0.16130
#
# Static dielectric constant tensor:
#      x y z
#    x 1.962590 0.016350 -0.021420 
#    y 0.016350 1.987300 -0.049770 
#    z -0.021420 -0.049770 1.885510 
# 
# From -- ./inp_files/392423.got.cif
#   From: 2010.05.17/outbox.cif.g08.bks.cpg/sg2_197_cif.got.tgz:392423.got - 2010.06.03 11:33:40.
