data_PCOD9036685
_publ_section_title
;
Structure prediction by ZEFSAII (Michael W. Deem and Ramdas Pophale) SiO2 
 PCOD9036685
Probable space group: P -1
;
_chemical_formula_sum "Si O2"
_cell_formula_units_Z 14
_cell_length_a 5.225740
_cell_length_b 15.258952
_cell_length_c 20.743886
_cell_angle_alpha 156.621564
_cell_angle_beta 91.889120
_cell_angle_gamma 87.925301
_cell_volume 655.921839
_symmetry_space_group_name_H-M "P -1"
_symmetry_group_IT_number 2
_symmetry_cell_setting 'triclinic'
loop_
_space_group_symop_operation_xyz
x,y,z
-x,-y,-z
loop_
_atom_site_type_symbol
_atom_site_label
_atom_site_fract_x
_atom_site_fract_y
_atom_site_fract_z
Si Si1 0.576773 0.960768 0.049081
Si Si2 0.734496 0.663158 0.405770
Si Si3 0.251703 0.357869 0.888661
Si Si4 0.073808 0.810998 0.925384
Si Si5 0.751520 0.347477 0.400318
Si Si6 0.766506 0.128049 0.391498
Si Si7 0.751696 0.845732 0.390789
O O1 0.705478 0.169678 0.223844
O O2 0.298020 0.901557 0.034521
O O3 0.795962 0.771457 0.927648
O O4 0.500000 0.000000 0.000000
O O5 0.810592 0.412001 0.254222
O O6 0.463131 0.745039 0.486690
O O7 0.745212 0.684929 0.343544
O O8 0.959433 0.813777 0.536837
O O9 0.246697 0.280631 0.762096
O O10 0.268460 0.132426 0.777669
O O11 0.500000 0.500000 0.000000
O O12 0.000000 0.500000 0.000000
O O13 0.000000 0.000000 0.000000
O O14 0.500000 0.500000 0.500000
O O15 0.763826 0.214500 0.377234
O O16 0.000000 0.500000 0.500000
O O17 0.500000 0.000000 0.500000
O O18 0.000000 0.000000 0.500000
#
# Coordination Sequence:
#
# PCOD9036685 Si02
#       7
#     2   2   2   2   2   2   2
#     4  10  23  42  64  94 137 177 240 288 353 412
#     4  12  24  44  75 107 142 195 241 306 350 446
#     4  12  26  46  75 110 154 186 233 321 382 428
#     4  10  23  38  67  98 139 176 236 290 355 401
#     4  12  28  45  72 103 146 196 240 299 365 434
#     4  12  27  45  73 107 146 190 251 288 378 442
#     4  12  23  46  74 109 143 189 251 293 367 448
#
# _framework density 21.344007999999999
#
# number of rings (size 3 to 8) (size 9 to 14) (size 15 to 20)
#    0.000    0.571    2.857    4.286   12.000    2.286 
#    0.000    0.000    0.000    0.000    0.000    0.000 
#    0.000    0.000    0.000    0.000    0.000    0.000 
#
# Total GULP energy -78282.167121 kJ/mol
# GULP energy per Si atom -5591.583366 kJ/mol
# Density = 2.129543 g / cm^3
# Si number density = 21.344008 Si / 1000 Ang^3
#
#
#
# Elastic Constant Matrix: (Units=GPa)
#
#
# Indices 1 2 3 4 5 6 
#
# 1 182.1802 33.9372 55.9528 -13.1118 4.0125 -8.8653
# 2 33.9372 153.5008 53.0857 -0.9866 4.9802 12.8857
# 3 55.9528 53.0857 133.7061 -2.9411 5.1830 2.8450
# 4 -13.1118 -0.9866 -2.9411 49.5566 -5.2680 0.8771
# 5 4.0125 4.9802 5.1830 -5.2680 55.3649 -1.3025
# 6 -8.8653 12.8857 2.8450 0.8771 -1.3025 25.1982
#
#
#
# Elastic Compliance Matrix: (Units=1/GPa)
#
#
# Indices 1 2 3 4 5 6 
#
# 1 0.006669 -0.000861 -0.002481 0.001551 0.000045 0.003015
# 2 -0.000861 0.008004 -0.002715 -0.000212 -0.000520 -0.004109
# 3 -0.002481 -0.002715 0.009623 -0.000183 -0.000508 -0.000591
# 4 0.001551 -0.000212 -0.000183 0.020776 0.001902 0.000050
# 5 0.000045 -0.000520 -0.000508 0.001902 0.018363 0.001222
# 6 0.003015 -0.004109 -0.000591 0.000050 0.001222 0.042976
#
#
# Mechanical properties :
#
#
# Convention : Reuss Voigt Hill
#
# Bulk Modulus (GPa) = 82.07800 83.92650 83.00225
# Shear Modulus (GPa) = 40.78828 47.78468 44.28648
#
# Velocity S-wave (km/s) = 4.37623 4.73671 4.56004
# Velocity P-wave (km/s) = 8.00460 8.32595 8.16686
#
# Compressibility (1/GPa) = 0.01218353
#
# Stress axis : x y z
#
# Youngs Moduli (GPa) = 149.95385 124.93299 103.91526
#
# Poissons Ratio (x) = 0.10758 0.25777
# Poissons Ratio (y) = 0.12912 0.28210
# Poissons Ratio (z) = 0.37197 0.33915
#
# Static dielectric constant tensor:
#      x y z
#    x 1.875030 0.083260 -0.016030 
#    y 0.083260 1.820620 -0.010560 
#    z -0.016030 -0.010560 1.794750 
# 
# From -- ./inp_files/583709.got.cif
#   From: 2010.05.17/outbox.cif.g08.bks.cpg/sg2_292_cif.got.tgz:583709.got - 2010.06.03 11:33:40.
