data_PCOD9036695
_publ_section_title
;
Structure prediction by ZEFSAII (Michael W. Deem and Ramdas Pophale) SiO2 
 PCOD9036695
Probable space group: P -1
;
_chemical_formula_sum "Si O2"
_cell_formula_units_Z 14
_cell_length_a 8.927027
_cell_length_b 9.863334
_cell_length_c 11.658333
_cell_angle_alpha 122.644973
_cell_angle_beta 129.888430
_cell_angle_gamma 56.498806
_cell_volume 628.596245
_symmetry_space_group_name_H-M "P -1"
_symmetry_group_IT_number 2
_symmetry_cell_setting 'triclinic'
loop_
_space_group_symop_operation_xyz
x,y,z
-x,-y,-z
loop_
_atom_site_type_symbol
_atom_site_label
_atom_site_fract_x
_atom_site_fract_y
_atom_site_fract_z
Si Si1 0.560173 0.003610 0.898745
Si Si2 0.349564 0.640438 0.908542
Si Si3 0.764321 0.751382 0.525333
Si Si4 0.212590 0.598530 0.569426
Si Si5 0.997188 0.182843 0.035419
Si Si6 0.763401 0.115198 0.452286
Si Si7 0.685739 0.130261 0.690831
O O1 0.382103 0.977303 0.721261
O O2 0.772083 0.850782 0.908466
O O3 0.500000 0.000000 0.000000
O O4 0.595954 0.184156 0.976440
O O5 0.337045 0.599851 0.749604
O O6 0.500000 0.500000 0.000000
O O7 0.117929 0.681010 0.864018
O O8 0.757294 0.596832 0.531546
O O9 0.555799 0.793282 0.366880
O O10 0.971872 0.688400 0.524650
O O11 0.750614 0.928989 0.658541
O O12 0.269881 0.708218 0.549700
O O13 0.834228 0.214655 0.865416
O O14 0.000000 0.000000 0.000000
O O15 0.713275 0.139885 0.572704
O O16 0.000000 0.000000 0.500000
#
# Coordination Sequence:
#
# PCOD9036695 Si02
#       7
#     2   2   2   2   2   2   2
#     4  11  23  43  66  95 129 178 215 262 330 384
#     4  11  24  41  69  94 132 168 221 268 319 383
#     4  10  23  38  68  91 129 165 215 271 315 379
#     4  11  23  43  61  99 128 169 215 267 325 378
#     4  10  23  40  67  95 128 170 219 265 316 385
#     4  12  25  40  67  95 133 170 213 267 326 389
#     4  11  23  41  66  98 125 167 222 263 321 387
#
# _framework density 22.271847000000001
#
# number of rings (size 3 to 8) (size 9 to 14) (size 15 to 20)
#    0.000    1.143    2.857    3.429   12.000    0.571 
#    0.000    0.714    3.143    0.000    0.000    0.000 
#    0.000    0.000    0.000    0.000    0.000    0.000 
#
# Total GULP energy -78335.931626 kJ/mol
# GULP energy per Si atom -5595.423688 kJ/mol
# Density = 2.222115 g / cm^3
# Si number density = 22.271847 Si / 1000 Ang^3
#
#
#
# Elastic Constant Matrix: (Units=GPa)
#
#
# Indices 1 2 3 4 5 6 
#
# 1 88.2834 29.7700 31.5872 -15.6920 6.8563 13.8720
# 2 29.7700 130.1741 18.3541 -0.0868 5.1762 17.5436
# 3 31.5872 18.3541 132.1126 -17.3717 7.2461 18.5115
# 4 -15.6920 -0.0868 -17.3717 36.0115 1.7211 7.3630
# 5 6.8563 5.1762 7.2461 1.7211 42.5709 -15.5145
# 6 13.8720 17.5436 18.5115 7.3630 -15.5145 38.5000
#
#
#
# Elastic Compliance Matrix: (Units=1/GPa)
#
#
# Indices 1 2 3 4 5 6 
#
# 1 0.015466 -0.002137 -0.000951 0.008122 -0.005243 -0.007807
# 2 -0.002137 0.008821 -0.000002 0.000048 -0.002248 -0.004164
# 3 -0.000951 -0.000002 0.009869 0.006063 -0.004452 -0.007355
# 4 0.008122 0.000048 0.006063 0.038254 -0.010193 -0.017287
# 5 -0.005243 -0.002248 -0.004452 -0.010193 0.033207 0.020385
# 6 -0.007807 -0.004164 -0.007355 -0.017287 0.020385 0.045742
#
#
# Mechanical properties :
#
#
# Convention : Reuss Voigt Hill
#
# Bulk Modulus (GPa) = 35.74387 56.66586 46.20486
# Shear Modulus (GPa) = 29.96455 41.47374 35.71915
#
# Velocity S-wave (km/s) = 3.67195 4.31996 4.00907
# Velocity P-wave (km/s) = 5.83621 7.09794 6.49777
#
# Compressibility (1/GPa) = 0.02797683
#
# Stress axis : x y z
#
# Youngs Moduli (GPa) = 64.65947 113.35943 101.32739
#
# Poissons Ratio (x) = 0.24221 0.09640
# Poissons Ratio (y) = 0.13816 0.00016
# Poissons Ratio (z) = 0.06152 0.00018
#
# Static dielectric constant tensor:
#      x y z
#    x 1.816880 -0.029160 0.003820 
#    y -0.029160 1.838370 -0.011110 
#    z 0.003820 -0.011110 1.861520 
# 
# From -- ./inp_files/158107.got.cif
#   From: 2010.05.17/outbox.cif.g08.bks.cpg/sg2_80_cif.got.tgz:158107.got - 2010.06.03 11:33:40.
