data_PCOD9036431
_publ_section_title
;
Structure prediction by ZEFSAII (Michael W. Deem and Ramdas Pophale) SiO2 
 PCOD9036431
Probable space group: P -1
;
_chemical_formula_sum "Si O2"
_cell_formula_units_Z 14
_cell_length_a 17.564857
_cell_length_b 8.980867
_cell_length_c 9.242051
_cell_angle_alpha 67.745752
_cell_angle_beta 58.208992
_cell_angle_gamma 31.904644
_cell_volume 647.257366
_symmetry_space_group_name_H-M "P -1"
_symmetry_group_IT_number 2
_symmetry_cell_setting 'triclinic'
loop_
_space_group_symop_operation_xyz
x,y,z
-x,-y,-z
loop_
_atom_site_type_symbol
_atom_site_label
_atom_site_fract_x
_atom_site_fract_y
_atom_site_fract_z
Si Si1 0.357074 0.262136 0.156293
Si Si2 0.457022 0.737528 0.881838
Si Si3 0.948404 0.594352 0.267083
Si Si4 0.816734 0.316683 0.069982
Si Si5 0.461934 0.526900 0.693295
Si Si6 0.227756 0.116052 0.388214
Si Si7 0.172346 0.395738 0.885069
O O1 0.414861 0.321115 0.176744
O O2 0.291121 0.202437 0.320815
O O3 0.217546 0.532419 0.095756
O O4 0.500000 0.000000 0.000000
O O5 0.450568 0.704253 0.731804
O O6 0.292428 0.080387 0.941190
O O7 0.500000 0.500000 0.000000
O O8 0.087892 0.322651 0.333414
O O9 0.835053 0.847179 0.405476
O O10 0.867781 0.579400 0.250851
O O11 0.020016 0.601936 0.067292
O O12 0.692467 0.354634 0.176923
O O13 0.771499 0.506489 0.175532
O O14 0.000000 0.000000 0.000000
O O15 0.500000 0.500000 0.500000
O O16 0.620065 0.200401 0.709117
#
# Coordination Sequence:
#
# PCOD9036431 Si02
#       7
#     2   2   2   2   2   2   2
#     4  12  21  44  69  97 130 184 227 280 339 412
#     4  12  23  40  73  99 130 180 233 275 336 412
#     4  10  23  36  71  99 132 179 228 276 339 404
#     4  12  27  43  68  99 139 179 225 283 343 403
#     4  12  27  43  68 103 142 174 230 288 341 402
#     4  11  22  44  68  96 140 183 223 279 348 402
#     4  11  23  43  67  97 140 179 230 274 344 410
#
# _framework density 21.629726999999999
#
# number of rings (size 3 to 8) (size 9 to 14) (size 15 to 20)
#    0.000    0.571    5.714    1.714    6.000    2.286 
#    0.000    2.857    0.000    5.143    0.000    0.000 
#    0.000    0.000    0.000    0.000    0.000    0.000 
#
# Total GULP energy -78178.230883 kJ/mol
# GULP energy per Si atom -5584.159349 kJ/mol
# Density = 2.158050 g / cm^3
# Si number density = 21.629727 Si / 1000 Ang^3
#
#
#
# Elastic Constant Matrix: (Units=GPa)
#
#
# Indices 1 2 3 4 5 6 
#
# 1 142.1789 34.7476 2.9864 10.8373 33.2380 5.8400
# 2 34.7476 124.1190 17.3929 20.9621 -2.4420 -4.1973
# 3 2.9864 17.3929 61.6528 14.6244 22.0808 0.0796
# 4 10.8373 20.9621 14.6244 27.0420 -1.3154 -1.6719
# 5 33.2380 -2.4420 22.0808 -1.3154 31.0501 2.0784
# 6 5.8400 -4.1973 0.0796 -1.6719 2.0784 33.3731
#
#
#
# Elastic Compliance Matrix: (Units=1/GPa)
#
#
# Indices 1 2 3 4 5 6 
#
# 1 0.014449 -0.004563 0.011677 -0.009886 -0.024408 -0.002105
# 2 -0.004563 0.010856 -0.005486 -0.003073 0.009413 0.001437
# 3 0.011677 -0.005486 0.036827 -0.022378 -0.039971 -0.001453
# 4 -0.009886 -0.003073 -0.022378 0.056965 0.028502 0.002476
# 5 -0.024408 0.009413 -0.039971 0.028502 0.088609 0.001460
# 6 -0.002105 0.001437 -0.001453 0.002476 0.001460 0.030550
#
#
# Mechanical properties :
#
#
# Convention : Reuss Voigt Hill
#
# Bulk Modulus (GPa) = 15.29332 48.68936 31.99134
# Shear Modulus (GPa) = 19.47064 36.48130 27.97597
#
# Velocity S-wave (km/s) = 3.00355 4.11131 3.60029
# Velocity P-wave (km/s) = 4.37199 6.71539 5.66616
#
# Compressibility (1/GPa) = 0.06538802
#
# Stress axis : x y z
#
# Youngs Moduli (GPa) = 69.20694 92.11692 27.15367
#
# Poissons Ratio (x) = 0.42036 -0.31707
# Poissons Ratio (y) = 0.31581 0.14896
# Poissons Ratio (z) = -0.80812 0.50534
#
# Static dielectric constant tensor:
#      x y z
#    x 1.866710 0.030190 0.018850 
#    y 0.030190 1.941020 0.031170 
#    z 0.018850 0.031170 1.804720 
# 
# From -- ./inp_files/216362.got.cif
#   From: 2010.05.17/outbox.cif.g08.bks.cpg/sg2_109_cif.got.tgz:216362.got - 2010.06.03 11:33:40.
