data_PCOD9036055
_publ_section_title
;
Structure prediction by ZEFSAII (Michael W. Deem and Ramdas Pophale) SiO2 
 PCOD9036055
Probable space group: P -1
;
_chemical_formula_sum "Si O2"
_cell_formula_units_Z 14
_cell_length_a 13.825304
_cell_length_b 7.004726
_cell_length_c 7.374928
_cell_angle_alpha 122.528849
_cell_angle_beta 95.990259
_cell_angle_gamma 100.240776
_cell_volume 575.102722
_symmetry_space_group_name_H-M "P -1"
_symmetry_group_IT_number 2
_symmetry_cell_setting 'triclinic'
loop_
_space_group_symop_operation_xyz
x,y,z
-x,-y,-z
loop_
_atom_site_type_symbol
_atom_site_label
_atom_site_fract_x
_atom_site_fract_y
_atom_site_fract_z
Si Si1 0.229397 0.650646 0.981806
Si Si2 0.259681 0.061905 0.909063
Si Si3 0.471031 0.185083 0.361190
Si Si4 0.689287 0.401247 0.664227
Si Si5 0.112476 0.151781 0.633848
Si Si6 0.516325 0.744682 0.026141
Si Si7 0.712202 0.630624 0.437255
O O1 0.127659 0.428266 0.833902
O O2 0.452453 0.909233 0.181378
O O3 0.304394 0.511004 0.829060
O O4 0.258098 0.708417 0.225512
O O5 0.168681 0.039144 0.740193
O O6 0.234132 0.871767 0.967776
O O7 0.285019 0.325629 0.130579
O O8 0.367314 0.086639 0.843777
O O9 0.570061 0.282498 0.552629
O O10 0.495536 0.279904 0.207343
O O11 0.376673 0.259805 0.463014
O O12 0.729501 0.439368 0.486654
O O13 0.182127 0.176941 0.480712
O O14 0.000000 0.000000 0.500000
O O15 0.500000 0.500000 0.000000
#
# Coordination Sequence:
#
# PCOD9036055 Si02
#       7
#     2   2   2   2   2   2   2
#     4   9  24  46  72 104 154 185 245 308 358 439
#     4  11  23  46  70 104 149 193 239 304 366 429
#     4  11  25  45  70 107 150 203 249 287 361 436
#     4  11  23  43  70 107 149 196 244 291 361 436
#     4   9  23  47  78 105 143 192 244 314 378 429
#     4  11  27  46  69 108 156 196 245 299 361 437
#     4  10  22  47  71 107 146 194 252 296 362 438
#
# _framework density 24.343477
#
# number of rings (size 3 to 8) (size 9 to 14) (size 15 to 20)
#    0.857    0.857    1.429    1.286    2.000    5.714 
#    5.143    5.000    0.000    1.714    0.000    0.000 
#    0.000    0.000    0.000    0.000    0.000    0.000 
#
# Total GULP energy -78299.986374 kJ/mol
# GULP energy per Si atom -5592.856170 kJ/mol
# Density = 2.428807 g / cm^3
# Si number density = 24.343477 Si / 1000 Ang^3
#
#
#
# Elastic Constant Matrix: (Units=GPa)
#
#
# Indices 1 2 3 4 5 6 
#
# 1 77.1699 55.7763 64.0861 7.9934 22.9606 20.8733
# 2 55.7763 225.9184 75.7210 -14.6640 24.0268 11.6269
# 3 64.0861 75.7210 146.6837 -10.4036 28.7877 20.9743
# 4 7.9934 -14.6640 -10.4036 52.4649 -2.0982 -2.2027
# 5 22.9606 24.0268 28.7877 -2.0982 44.2791 12.8707
# 6 20.8733 11.6269 20.9743 -2.2027 12.8707 32.9968
#
#
#
# Elastic Compliance Matrix: (Units=1/GPa)
#
#
# Indices 1 2 3 4 5 6 
#
# 1 0.026874 -0.003373 -0.008335 -0.007254 -0.004324 -0.009312
# 2 -0.003373 0.005890 -0.001479 0.001895 -0.000815 0.001443
# 3 -0.008335 -0.001479 0.012002 0.003113 -0.002321 -0.000722
# 4 -0.007254 0.001895 0.003113 0.021474 0.000841 0.003048
# 5 -0.004324 -0.000815 -0.002321 0.000841 0.028754 -0.006662
# 6 -0.009312 0.001443 -0.000722 0.003048 -0.006662 0.038949
#
#
# Mechanical properties :
#
#
# Convention : Reuss Voigt Hill
#
# Bulk Modulus (GPa) = 54.36792 93.43766 73.90279
# Shear Modulus (GPa) = 30.03944 42.89405 36.46675
#
# Velocity S-wave (km/s) = 3.51662 4.20221 3.87461
# Velocity P-wave (km/s) = 6.23466 7.87472 7.10219
#
# Compressibility (1/GPa) = 0.01839320
#
# Stress axis : x y z
#
# Youngs Moduli (GPa) = 37.21008 169.77096 83.32080
#
# Poissons Ratio (x) = 0.57268 0.69444
# Poissons Ratio (y) = 0.12552 0.12322
# Poissons Ratio (z) = 0.31013 0.25106
#
# Static dielectric constant tensor:
#      x y z
#    x 1.993210 0.001210 -0.043030 
#    y 0.001210 2.033630 0.017000 
#    z -0.043030 0.017000 2.036610 
# 
# From -- ./inp_files/235698.got.cif
#   From: 2010.05.17/outbox.cif.g08.bks.cpg/sg2_118_cif.got.tgz:235698.got - 2010.06.03 11:33:40.
