data_PCOD9036241
_publ_section_title
;
Structure prediction by ZEFSAII (Michael W. Deem and Ramdas Pophale) SiO2 
 PCOD9036241
Probable space group: P -1
;
_chemical_formula_sum "Si O2"
_cell_formula_units_Z 8
_cell_length_a 4.940704
_cell_length_b 13.727364
_cell_length_c 7.102461
_cell_angle_alpha 127.265727
_cell_angle_beta 110.068719
_cell_angle_gamma 48.575861
_cell_volume 286.120270
_symmetry_space_group_name_H-M "P -1"
_symmetry_group_IT_number 2
_symmetry_cell_setting 'triclinic'
loop_
_space_group_symop_operation_xyz
x,y,z
-x,-y,-z
loop_
_atom_site_type_symbol
_atom_site_label
_atom_site_fract_x
_atom_site_fract_y
_atom_site_fract_z
Si Si1 0.468552 0.128922 0.018215
Si Si2 0.374070 0.578889 0.856821
Si Si3 0.527936 0.788995 0.267782
Si Si4 0.219202 0.750206 0.512819
O O1 0.720872 0.166251 0.215380
O O2 0.044127 0.276877 0.095961
O O3 0.573021 0.088748 0.775761
O O4 0.500000 0.000000 0.000000
O O5 0.471008 0.433201 0.592994
O O6 0.500000 0.500000 0.000000
O O7 0.592778 0.650964 0.992271
O O8 0.263791 0.810142 0.393573
O O9 0.868353 0.755573 0.419283
#
# Coordination Sequence:
#
# PCOD9036241 Si02
#       4
#     2   2   2   2
#     4  12  28  47  72 108 145 188 236 288 354 425
#     4  10  22  48  73 105 140 184 236 296 345 417
#     4  11  24  48  72 107 144 179 239 297 344 417
#     4  11  26  45  78 104 138 190 236 290 355 410
#
# _framework density 27.960269
#
# number of rings (size 3 to 8) (size 9 to 14) (size 15 to 20)
#    0.000    1.000    5.000    1.500    7.000    4.000 
#    0.000    0.000    0.000    0.000    0.000    0.000 
#    0.000    0.000    0.000    0.000    0.000    0.000 
#
# Total GULP energy -44841.498372 kJ/mol
# GULP energy per Si atom -5605.187296 kJ/mol
# Density = 2.789663 g / cm^3
# Si number density = 27.960269 Si / 1000 Ang^3
#
#
#
# Elastic Constant Matrix: (Units=GPa)
#
#
# Indices 1 2 3 4 5 6 
#
# 1 138.7147 48.6128 48.4225 -1.5076 33.4867 12.3833
# 2 48.6128 187.8063 41.8914 -12.2507 9.5371 1.8463
# 3 48.4225 41.8914 169.8455 -1.5491 24.2630 -5.5526
# 4 -1.5076 -12.2507 -1.5491 44.4690 1.1044 -4.1612
# 5 33.4867 9.5371 24.2630 1.1044 53.7383 -23.2071
# 6 12.3833 1.8463 -5.5526 -4.1612 -23.2071 59.4843
#
#
#
# Elastic Compliance Matrix: (Units=1/GPa)
#
#
# Indices 1 2 3 4 5 6 
#
# 1 0.010948 -0.002037 -0.001647 -0.000567 -0.008112 -0.005574
# 2 -0.002037 0.006136 -0.001022 0.001619 0.000862 0.000588
# 3 -0.001647 -0.001022 0.006870 -0.000024 -0.001750 0.000331
# 4 -0.000567 0.001619 -0.000024 0.023075 0.000395 0.001834
# 5 -0.008112 0.000862 -0.001750 0.000395 0.030008 0.013234
# 6 -0.005574 0.000588 0.000331 0.001834 0.013234 0.023275
#
#
# Mechanical properties :
#
#
# Convention : Reuss Voigt Hill
#
# Bulk Modulus (GPa) = 68.76703 86.02444 77.39574
# Shear Modulus (GPa) = 43.64093 55.36763 49.50428
#
# Velocity S-wave (km/s) = 3.95501 4.45480 4.21232
# Velocity P-wave (km/s) = 6.74567 7.56927 7.16930
#
# Compressibility (1/GPa) = 0.01454185
#
# Stress axis : x y z
#
# Youngs Moduli (GPa) = 91.34387 162.97781 145.55887
#
# Poissons Ratio (x) = 0.33191 0.23979
# Poissons Ratio (y) = 0.18603 0.14875
# Poissons Ratio (z) = 0.15048 0.16655
#
# Static dielectric constant tensor:
#      x y z
#    x 2.200750 -0.019090 -0.156170 
#    y -0.019090 2.294740 0.139050 
#    z -0.156170 0.139050 2.234240 
# 
# From -- ./inp_files/16715.got.cif
#   From: 2010.05.17/outbox.cif.g08.bks.cpg/sg2_9_cif.got.tgz:16715.got - 2010.06.03 11:33:40.
