data_PCOD9036370
_publ_section_title
;
Structure prediction by ZEFSAII (Michael W. Deem and Ramdas Pophale) SiO2 
 PCOD9036370
Probable space group: P -1
;
_chemical_formula_sum "Si O2"
_cell_formula_units_Z 16
_cell_length_a 20.072208
_cell_length_b 14.258460
_cell_length_c 11.133278
_cell_angle_alpha 31.010561
_cell_angle_beta 151.245854
_cell_angle_gamma 150.835203
_cell_volume 687.682538
_symmetry_space_group_name_H-M "P -1"
_symmetry_group_IT_number 2
_symmetry_cell_setting 'triclinic'
loop_
_space_group_symop_operation_xyz
x,y,z
-x,-y,-z
loop_
_atom_site_type_symbol
_atom_site_label
_atom_site_fract_x
_atom_site_fract_y
_atom_site_fract_z
Si Si1 0.132696 0.807820 0.969730
Si Si2 0.481316 0.067361 0.030850
Si Si3 0.826046 0.963220 0.517086
Si Si4 0.089508 0.604259 0.371441
Si Si5 0.146280 0.215177 0.593265
Si Si6 0.676152 0.355799 0.674086
Si Si7 0.049946 0.823427 0.291620
Si Si8 0.265799 0.510810 0.107231
O O1 0.955542 0.766880 0.700231
O O2 0.210912 0.056004 0.844376
O O3 0.163243 0.715995 0.241139
O O4 0.177495 0.688281 0.071635
O O5 0.309197 0.052542 0.767589
O O6 0.610659 0.308679 0.982939
O O7 0.500000 0.000000 0.000000
O O8 0.467570 0.884392 0.298090
O O9 0.775698 0.724618 0.726124
O O10 0.825434 0.077519 0.512227
O O11 0.005076 0.102190 0.593394
O O12 0.118072 0.767260 0.343801
O O13 0.097084 0.402171 0.651863
O O14 0.902269 0.500421 0.159103
O O15 0.288505 0.452129 0.568412
O O16 0.672061 0.426884 0.726161
O O17 0.000000 0.000000 0.000000
#
# Coordination Sequence:
#
# PCOD9036370 Si02
#       8
#     2   2   2   2   2   2   2   2
#     4  11  20  34  53  86 119 149 181 243 295 349
#     4  10  23  35  53  83 120 161 189 230 287 351
#     4  12  21  38  59  87 122 151 192 240 292 348
#     4  11  22  37  59  86 119 151 196 236 291 348
#     4  11  20  31  56  85 119 147 183 237 295 349
#     4  11  21  32  53  81 118 153 182 225 296 340
#     4  11  22  37  57  82 116 157 193 244 287 332
#     4  11  21  38  55  85 122 154 194 230 286 360
#
# _framework density 23.266549999999999
#
# number of rings (size 3 to 8) (size 9 to 14) (size 15 to 20)
#    0.000    1.000    5.000    3.750    0.000    0.000 
#    0.000    0.000    0.000    0.000    0.000   22.750 
#    0.000    0.500    0.000    0.000    0.000    0.000 
#
# Total GULP energy -89186.082532 kJ/mol
# GULP energy per Si atom -5574.130158 kJ/mol
# Density = 2.321359 g / cm^3
# Si number density = 23.266550 Si / 1000 Ang^3
#
#
#
# Elastic Constant Matrix: (Units=GPa)
#
#
# Indices 1 2 3 4 5 6 
#
# 1 56.9507 37.0743 6.5842 -15.5772 -5.7089 -10.0048
# 2 37.0743 135.5133 42.5066 -63.7548 -5.8513 12.7814
# 3 6.5842 42.5066 70.1145 -49.0186 0.3861 -5.2982
# 4 -15.5772 -63.7548 -49.0186 58.0652 -0.2109 -3.7586
# 5 -5.7089 -5.8513 0.3861 -0.2109 21.7266 -9.1253
# 6 -10.0048 12.7814 -5.2982 -3.7586 -9.1253 37.4042
#
#
#
# Elastic Compliance Matrix: (Units=1/GPa)
#
#
# Indices 1 2 3 4 5 6 
#
# 1 0.026924 -0.007831 0.007145 0.005607 0.010811 0.014090
# 2 -0.007831 0.019186 0.004098 0.022063 0.000883 -0.005638
# 3 0.007145 0.004098 0.041715 0.042478 0.007956 0.012629
# 4 0.005607 0.022063 0.042478 0.079561 0.012012 0.010903
# 5 0.010811 0.000883 0.007956 0.012012 0.056988 0.018827
# 6 0.014090 -0.005638 0.012629 0.010903 0.018827 0.039908
#
#
# Mechanical properties :
#
#
# Convention : Reuss Voigt Hill
#
# Bulk Modulus (GPa) = 10.56552 48.32320 29.44436
# Shear Modulus (GPa) = 17.30049 35.20007 26.25028
#
# Velocity S-wave (km/s) = 2.72982 3.89383 3.36257
# Velocity P-wave (km/s) = 3.80616 6.40549 5.26864
#
# Compressibility (1/GPa) = 0.09464748
#
# Stress axis : x y z
#
# Youngs Moduli (GPa) = 37.14189 52.12044 23.97197
#
# Poissons Ratio (x) = 0.40816 -0.17127
# Poissons Ratio (y) = 0.29086 -0.09823
# Poissons Ratio (z) = -0.26536 -0.21356
#
# Static dielectric constant tensor:
#      x y z
#    x 2.011910 0.085860 -0.061610 
#    y 0.085860 1.975950 -0.058880 
#    z -0.061610 -0.058880 1.992620 
# 
# From -- ./inp_files/471868.got.cif
#   From: 2010.05.17/outbox.cif.g08.bks.cpg/sg2_236_cif.got.tgz:471868.got - 2010.06.03 11:33:40.
