data_PCOD9036443
_publ_section_title
;
Structure prediction by ZEFSAII (Michael W. Deem and Ramdas Pophale) SiO2 
 PCOD9036443
Probable space group: P -1
;
_chemical_formula_sum "Si O2"
_cell_formula_units_Z 16
_cell_length_a 12.999664
_cell_length_b 9.621691
_cell_length_c 13.704857
_cell_angle_alpha 71.273425
_cell_angle_beta 131.215796
_cell_angle_gamma 144.494284
_cell_volume 651.622305
_symmetry_space_group_name_H-M "P -1"
_symmetry_group_IT_number 2
_symmetry_cell_setting 'triclinic'
loop_
_space_group_symop_operation_xyz
x,y,z
-x,-y,-z
loop_
_atom_site_type_symbol
_atom_site_label
_atom_site_fract_x
_atom_site_fract_y
_atom_site_fract_z
Si Si1 0.840050 0.723565 0.825857
Si Si2 0.517588 0.859230 0.594990
Si Si3 0.629039 0.004719 0.191345
Si Si4 0.880741 0.546311 0.714447
Si Si5 0.945806 0.081487 0.699025
Si Si6 0.231006 0.613289 0.668131
Si Si7 0.044709 0.435302 0.949053
Si Si8 0.268085 0.186417 0.579187
O O1 0.973637 0.750652 0.988728
O O2 0.545238 0.508714 0.710152
O O3 0.794136 0.562293 0.747873
O O4 0.021927 0.012521 0.828813
O O5 0.443621 0.791422 0.676986
O O6 0.281360 0.563974 0.457222
O O7 0.500000 0.000000 0.500000
O O8 0.771335 0.015251 0.678576
O O9 0.826660 0.154963 0.195000
O O10 0.669912 0.199404 0.222330
O O11 0.341289 0.720595 0.042253
O O12 0.694395 0.945566 0.328928
O O13 0.878974 0.371712 0.780676
O O14 0.136684 0.370173 0.702908
O O15 0.779857 0.862841 0.555542
O O16 0.000000 0.500000 0.500000
O O17 0.000000 0.500000 0.000000
O O18 0.000000 0.000000 0.500000
#
# Coordination Sequence:
#
# PCOD9036443 Si02
#       8
#     2   2   2   2   2   2   2   2
#     4  10  23  37  57  92 127 160 205 253 314 364
#     4  12  23  37  63  94 125 163 204 252 311 368
#     4  11  21  39  60  90 125 154 212 253 304 372
#     4  11  20  39  63  92 120 160 206 253 311 364
#     4  12  23  38  57  88 135 161 200 250 314 376
#     4  12  23  38  57  93 125 164 203 248 305 376
#     4   9  22  39  63  89 115 161 208 260 303 359
#     4  11  21  33  58  90 129 163 192 258 322 372
#
# _framework density 24.554102
#
# number of rings (size 3 to 8) (size 9 to 14) (size 15 to 20)
#    0.000    1.000    5.000    1.500    7.000    0.000 
#    0.000    0.000    0.000    6.000    0.000    0.000 
#    0.000    0.000    0.000    0.000    0.000    0.000 
#
# Total GULP energy -89486.284116 kJ/mol
# GULP energy per Si atom -5592.892757 kJ/mol
# Density = 2.449822 g / cm^3
# Si number density = 24.554102 Si / 1000 Ang^3
#
#
#
# Elastic Constant Matrix: (Units=GPa)
#
#
# Indices 1 2 3 4 5 6 
#
# 1 105.2195 14.0685 11.7577 7.2053 11.7406 29.6246
# 2 14.0685 155.0983 29.1642 -29.4914 16.1899 16.4992
# 3 11.7577 29.1642 91.4502 -18.8805 6.4105 -0.4263
# 4 7.2053 -29.4914 -18.8805 31.8051 -5.3110 8.1233
# 5 11.7406 16.1899 6.4105 -5.3110 21.5554 1.5299
# 6 29.6246 16.4992 -0.4263 8.1233 1.5299 45.6341
#
#
#
# Elastic Compliance Matrix: (Units=1/GPa)
#
#
# Indices 1 2 3 4 5 6 
#
# 1 0.012798 0.000114 -0.001885 -0.003097 -0.006720 -0.007591
# 2 0.000114 0.009163 -0.000921 0.008427 -0.004256 -0.004753
# 3 -0.001885 -0.000921 0.012966 0.007091 -0.000421 0.000430
# 4 -0.003097 0.008427 0.007091 0.047569 0.005652 -0.009627
# 5 -0.006720 -0.004256 -0.000421 0.005652 0.054550 0.003062
# 6 -0.007591 -0.004753 0.000430 -0.009627 0.003062 0.030175
#
#
# Mechanical properties :
#
#
# Convention : Reuss Voigt Hill
#
# Bulk Modulus (GPa) = 33.84930 51.30541 42.57735
# Shear Modulus (GPa) = 27.40437 39.58410 33.49424
#
# Velocity S-wave (km/s) = 3.34440 4.01947 3.69738
# Velocity P-wave (km/s) = 5.35994 6.51780 5.96702
#
# Compressibility (1/GPa) = 0.02954271
#
# Stress axis : x y z
#
# Youngs Moduli (GPa) = 78.13444 109.14031 77.12275
#
# Poissons Ratio (x) = -0.01242 0.14541
# Poissons Ratio (y) = -0.00889 0.07100
# Poissons Ratio (z) = 0.14732 0.10048
#
# Static dielectric constant tensor:
#      x y z
#    x 1.936190 -0.106950 0.005610 
#    y -0.106950 2.136640 -0.001780 
#    z 0.005610 -0.001780 1.961190 
# 
# From -- ./inp_files/515430.got.cif
#   From: 2010.05.17/outbox.cif.g08.bks.cpg/sg2_258_cif.got.tgz:515430.got - 2010.06.03 11:33:40.
