data_PCOD9036824
_publ_section_title
;
Structure prediction by ZEFSAII (Michael W. Deem and Ramdas Pophale) SiO2 
 PCOD9036824
Probable space group: P -1
;
_chemical_formula_sum "Si O2"
_cell_formula_units_Z 16
_cell_length_a 21.485628
_cell_length_b 11.193812
_cell_length_c 11.801709
_cell_angle_alpha 63.775472
_cell_angle_beta 30.441783
_cell_angle_gamma 41.821029
_cell_volume 771.583467
_symmetry_space_group_name_H-M "P -1"
_symmetry_group_IT_number 2
_symmetry_cell_setting 'triclinic'
loop_
_space_group_symop_operation_xyz
x,y,z
-x,-y,-z
loop_
_atom_site_type_symbol
_atom_site_label
_atom_site_fract_x
_atom_site_fract_y
_atom_site_fract_z
Si Si1 0.876600 0.648138 0.801388
Si Si2 0.944950 0.946507 0.940938
Si Si3 0.122685 0.051287 0.705752
Si Si4 0.952564 0.846722 0.720121
Si Si5 0.323612 0.451598 0.802946
Si Si6 0.524028 0.460965 0.321143
Si Si7 0.732183 0.845298 0.698331
Si Si8 0.335628 0.654921 0.094532
O O1 0.102676 0.386784 0.534750
O O2 0.888792 0.751966 0.832463
O O3 0.815527 0.769307 0.727473
O O4 0.708804 0.678008 0.080855
O O5 0.003659 0.823576 0.783374
O O6 0.875979 0.927181 0.169903
O O7 0.110895 0.907736 0.746489
O O8 0.745067 0.203410 0.110875
O O9 0.273127 0.006726 0.413879
O O10 0.900111 0.302395 0.914125
O O11 0.149953 0.716153 0.389967
O O12 0.774629 0.105533 0.852038
O O13 0.373514 0.473155 0.593401
O O14 0.483548 0.395735 0.653783
O O15 0.541388 0.481148 0.155562
O O16 0.500000 0.000000 0.000000
O O17 0.500000 0.500000 0.000000
#
# Coordination Sequence:
#
# PCOD9036824 Si02
#       8
#     2   2   2   2   2   2   2   2
#     4  10  23  41  60  87 128 164 196 256 319 362
#     4   9  19  37  60  86 117 156 203 256 303 357
#     4   9  19  36  62  87 114 155 206 254 302 358
#     4  10  23  41  60  87 128 164 196 256 319 362
#     4   9  19  37  60  86 117 156 203 256 303 357
#     4   9  19  36  62  87 114 155 206 254 302 358
#     4  10  23  39  63  89 121 161 208 248 305 373
#     4  10  23  39  63  89 121 161 208 248 305 373
#
# _framework density 20.736578000000002
#
# number of rings (size 3 to 8) (size 9 to 14) (size 15 to 20)
#    0.000    2.500    0.000    0.000   14.000    1.000 
#    0.000    5.000    0.000    0.000    0.000    0.000 
#    0.000    0.000    0.000    0.000    0.000    0.000 
#
# Total GULP energy -89212.331445 kJ/mol
# GULP energy per Si atom -5575.770715 kJ/mol
# Density = 2.068938 g / cm^3
# Si number density = 20.736578 Si / 1000 Ang^3
#
#
#
# Elastic Constant Matrix: (Units=GPa)
#
#
# Indices 1 2 3 4 5 6 
#
# 1 114.5049 44.3919 51.6029 -30.5485 11.3697 7.8286
# 2 44.3919 74.5354 31.6157 -29.1557 6.4903 -2.8742
# 3 51.6029 31.6157 131.2875 -31.2113 15.1034 5.0325
# 4 -30.5485 -29.1557 -31.2113 42.0641 -8.1889 -3.0647
# 5 11.3697 6.4903 15.1034 -8.1889 24.3057 2.4559
# 6 7.8286 -2.8742 5.0325 -3.0647 2.4559 32.4753
#
#
#
# Elastic Compliance Matrix: (Units=1/GPa)
#
#
# Indices 1 2 3 4 5 6 
#
# 1 0.013360 -0.005418 -0.002867 0.003298 -0.001625 -0.002822
# 2 -0.005418 0.021229 -0.000656 0.010690 0.000444 0.004262
# 3 -0.002867 -0.000656 0.010366 0.004474 -0.003388 -0.000295
# 4 0.003298 0.010690 0.004474 0.038142 0.005406 0.002649
# 5 -0.001625 0.000444 -0.003388 0.005406 0.045913 -0.002006
# 6 -0.002822 0.004262 -0.000295 0.002649 -0.002006 0.032297
#
#
# Mechanical properties :
#
#
# Convention : Reuss Voigt Hill
#
# Bulk Modulus (GPa) = 36.93760 63.94985 50.44372
# Shear Modulus (GPa) = 26.56539 32.61685 29.59112
#
# Velocity S-wave (km/s) = 3.58311 3.97030 3.78166
# Velocity P-wave (km/s) = 5.91352 7.20582 6.59142
#
# Compressibility (1/GPa) = 0.02707268
#
# Stress axis : x y z
#
# Youngs Moduli (GPa) = 74.85025 47.10629 96.46485
#
# Poissons Ratio (x) = 0.25523 0.27660
# Poissons Ratio (y) = 0.40555 0.06325
# Poissons Ratio (z) = 0.21463 0.03089
#
# Static dielectric constant tensor:
#      x y z
#    x 1.764360 -0.004930 -0.017420 
#    y -0.004930 1.813720 0.035440 
#    z -0.017420 0.035440 1.783160 
# 
# From -- ./inp_files/470996.got.cif
#   From: 2010.05.17/outbox.cif.g08.bks.cpg/sg2_236_cif.got.tgz:470996.got - 2010.06.03 11:33:40.
