data_PCOD9036341
_publ_section_title
;
Structure prediction by ZEFSAII (Michael W. Deem and Ramdas Pophale) SiO2 
 PCOD9036341
Probable space group: P -1
;
_chemical_formula_sum "Si O2"
_cell_formula_units_Z 15
_cell_length_a 5.943817
_cell_length_b 20.671224
_cell_length_c 6.207479
_cell_angle_alpha 125.431166
_cell_angle_beta 73.841747
_cell_angle_gamma 106.466883
_cell_volume 589.585965
_symmetry_space_group_name_H-M "P -1"
_symmetry_group_IT_number 2
_symmetry_cell_setting 'triclinic'
loop_
_space_group_symop_operation_xyz
x,y,z
-x,-y,-z
loop_
_atom_site_type_symbol
_atom_site_label
_atom_site_fract_x
_atom_site_fract_y
_atom_site_fract_z
Si Si1 0.144250 0.626073 0.890069
Si Si2 0.500000 0.500000 0.500000
Si Si3 0.519364 0.745497 0.238089
Si Si4 0.717726 0.115412 0.618816
Si Si5 0.070766 0.295614 0.264400
Si Si6 0.143048 0.184680 0.393154
Si Si7 0.402460 0.044743 0.915758
Si Si8 0.796134 0.556113 0.162167
O O1 0.282725 0.554244 0.647242
O O2 0.129901 0.685704 0.809017
O O3 0.293457 0.677281 0.136611
O O4 0.875472 0.601364 0.003415
O O5 0.553467 0.509475 0.235625
O O6 0.453214 0.832493 0.360703
O O7 0.632334 0.754737 0.462125
O O8 0.705977 0.723428 0.969972
O O9 0.621460 0.101456 0.855659
O O10 0.975900 0.163542 0.602999
O O11 0.705738 0.026456 0.352750
O O12 0.014093 0.225226 0.317084
O O13 0.153309 0.377862 0.531317
O O14 0.217567 0.102347 0.135872
O O15 0.500000 0.000000 0.000000
O O16 0.000000 0.500000 0.000000
#
# Coordination Sequence:
#
# PCOD9036341 Si02
#       8
#     2   1   2   2   2   2   2   2
#     4  11  26  49  75 109 146 195 244 304 367 446
#     4  10  22  50  76 106 146 192 240 304 364 436
#     4  12  24  47  74 107 149 193 249 302 369 438
#     4  11  25  46  73 109 145 195 250 300 367 444
#     4  12  25  47  74 108 149 189 247 302 372 437
#     4  12  27  48  76 111 146 197 245 309 368 435
#     4  11  24  48  73 105 150 197 244 303 370 437
#     4  10  23  47  74 107 143 189 242 301 367 436
#
# _framework density 25.441583000000001
#
# number of rings (size 3 to 8) (size 9 to 14) (size 15 to 20)
#    0.000    0.800    4.000    2.800    0.000    6.933 
#    9.600    2.000    0.000    0.000    0.000    0.000 
#    0.000    0.000    0.000    0.000    0.000    0.000 
#
# Total GULP energy -83736.149729 kJ/mol
# GULP energy per Si atom -5582.409982 kJ/mol
# Density = 2.538368 g / cm^3
# Si number density = 25.441583 Si / 1000 Ang^3
#
#
#
# Elastic Constant Matrix: (Units=GPa)
#
#
# Indices 1 2 3 4 5 6 
#
# 1 86.0046 48.0432 45.6442 -0.9423 -8.7950 3.2540
# 2 48.0432 120.2176 42.8694 -14.3414 -8.3772 -18.9319
# 3 45.6442 42.8694 123.4456 14.8781 -41.6884 -9.3462
# 4 -0.9423 -14.3414 14.8781 63.2964 -2.6556 -10.9069
# 5 -8.7950 -8.3772 -41.6884 -2.6556 42.6210 3.9061
# 6 3.2540 -18.9319 -9.3462 -10.9069 3.9061 46.1585
#
#
#
# Elastic Compliance Matrix: (Units=1/GPa)
#
#
# Indices 1 2 3 4 5 6 
#
# 1 0.018031 -0.006235 -0.005679 -0.000771 -0.002655 -0.004936
# 2 -0.006235 0.013366 -0.003072 0.004708 -0.001974 0.006579
# 3 -0.005679 -0.003072 0.016550 -0.004018 0.014130 0.000346
# 4 -0.000771 0.004708 -0.004018 0.018692 -0.002531 0.005803
# 5 -0.002655 -0.001974 0.014130 -0.002531 0.036321 -0.001433
# 6 -0.004936 0.006579 0.000346 0.005803 -0.001433 0.026273
#
#
# Mechanical properties :
#
#
# Convention : Reuss Voigt Hill
#
# Bulk Modulus (GPa) = 55.63714 66.97571 61.30642
# Shear Modulus (GPa) = 30.26686 43.28924 36.77805
#
# Velocity S-wave (km/s) = 3.45289 4.12942 3.80621
# Velocity P-wave (km/s) = 6.14920 7.00846 6.59284
#
# Compressibility (1/GPa) = 0.01797361
#
# Stress axis : x y z
#
# Youngs Moduli (GPa) = 55.45985 74.81827 60.42388
#
# Poissons Ratio (x) = 0.46649 0.34316
# Poissons Ratio (y) = 0.34579 0.18564
# Poissons Ratio (z) = 0.31497 0.22986
#
# Static dielectric constant tensor:
#      x y z
#    x 2.178370 0.088700 0.040710 
#    y 0.088700 2.122220 -0.031680 
#    z 0.040710 -0.031680 1.998190 
# 
# From -- ./inp_files/10225.got.cif
#   From: 2010.05.17/outbox.cif.g08.bks.cpg/sg2_6_cif.got.tgz:10225.got - 2010.06.03 11:33:40.
