data_PCOD9036236
_publ_section_title
;
Structure prediction by ZEFSAII (Michael W. Deem and Ramdas Pophale) SiO2 
 PCOD9036236
Probable space group: P -1
;
_chemical_formula_sum "Si O2"
_cell_formula_units_Z 16
_cell_length_a 21.242903
_cell_length_b 21.123282
_cell_length_c 8.596379
_cell_angle_alpha 27.170164
_cell_angle_beta 145.372516
_cell_angle_gamma 159.673049
_cell_volume 610.293127
_symmetry_space_group_name_H-M "P -1"
_symmetry_group_IT_number 2
_symmetry_cell_setting 'triclinic'
loop_
_space_group_symop_operation_xyz
x,y,z
-x,-y,-z
loop_
_atom_site_type_symbol
_atom_site_label
_atom_site_fract_x
_atom_site_fract_y
_atom_site_fract_z
Si Si1 0.273099 0.038362 0.617407
Si Si2 0.490527 0.305326 0.063596
Si Si3 0.809503 0.185790 0.367229
Si Si4 0.832105 0.572282 0.313654
Si Si5 0.465543 0.598505 0.413963
Si Si6 0.203654 0.248689 0.877085
Si Si7 0.998586 0.278930 0.982920
Si Si8 0.289936 0.781124 0.606322
O O1 0.443386 0.202358 0.719261
O O2 0.230396 0.874304 0.766444
O O3 0.312746 0.219177 0.209594
O O4 0.104696 0.896548 0.701840
O O5 0.541597 0.514936 0.752709
O O6 0.510880 0.326326 0.874789
O O7 0.630698 0.336197 0.359778
O O8 0.289650 0.052439 0.247026
O O9 0.725881 0.219256 0.236958
O O10 0.023233 0.389434 0.399294
O O11 0.790350 0.635942 0.226274
O O12 0.928775 0.723530 0.020488
O O13 0.268932 0.375242 0.571494
O O14 0.000000 0.000000 0.000000
O O15 0.839517 0.224845 0.714542
O O16 0.171221 0.533942 0.843919
O O17 0.500000 0.000000 0.500000
#
# Coordination Sequence:
#
# PCOD9036236 Si02
#       8
#     2   2   2   2   2   2   2   2
#     4  12  23  41  63  95 140 169 210 270 313 383
#     4  11  22  39  60  90 129 175 223 260 308 372
#     4  11  23  42  66  97 128 166 218 270 326 383
#     4  11  22  39  64  91 129 175 214 258 316 376
#     4  11  23  38  58  89 132 181 222 255 303 380
#     4  12  23  39  59  94 140 183 213 253 318 378
#     4  10  25  42  66 101 124 163 222 272 322 388
#     4  10  22  48  72  89 123 164 215 277 338 384
#
# _framework density 26.216909000000001
#
# number of rings (size 3 to 8) (size 9 to 14) (size 15 to 20)
#    0.000    1.000    3.750    3.375    1.750    2.000 
#    0.000    0.625    0.000    0.000    0.000    0.000 
#    0.000    0.000    0.000    0.000    0.000    0.000 
#
# Total GULP energy -89430.562510 kJ/mol
# GULP energy per Si atom -5589.410157 kJ/mol
# Density = 2.615724 g / cm^3
# Si number density = 26.216909 Si / 1000 Ang^3
#
#
#
# Elastic Constant Matrix: (Units=GPa)
#
#
# Indices 1 2 3 4 5 6 
#
# 1 138.8696 25.4428 11.9192 1.4240 -16.6404 -14.2447
# 2 25.4428 132.2734 9.0509 -13.9758 7.1256 -5.9567
# 3 11.9192 9.0509 58.5343 -5.6492 -5.4646 0.2869
# 4 1.4240 -13.9758 -5.6492 35.3157 6.7257 -2.7130
# 5 -16.6404 7.1256 -5.4646 6.7257 35.7011 4.5315
# 6 -14.2447 -5.9567 0.2869 -2.7130 4.5315 46.6591
#
#
#
# Elastic Compliance Matrix: (Units=1/GPa)
#
#
# Indices 1 2 3 4 5 6 
#
# 1 0.008359 -0.001876 -0.001214 -0.001940 0.004222 0.001797
# 2 -0.001876 0.008670 -0.000906 0.004148 -0.003670 0.001137
# 3 -0.001214 -0.000906 0.017868 0.002109 0.002038 -0.000671
# 4 -0.001940 0.004148 0.002109 0.032048 -0.007769 0.002542
# 5 0.004222 -0.003670 0.002038 -0.007769 0.032846 -0.002834
# 6 0.001797 0.001137 -0.000671 0.002542 -0.002834 0.022553
#
#
# Mechanical properties :
#
#
# Convention : Reuss Voigt Hill
#
# Bulk Modulus (GPa) = 37.16837 46.94480 42.05658
# Shear Modulus (GPa) = 35.89218 42.41948 39.15583
#
# Velocity S-wave (km/s) = 3.70408 4.02683 3.86882
# Velocity P-wave (km/s) = 5.70102 6.29012 6.00280
#
# Compressibility (1/GPa) = 0.02690460
#
# Stress axis : x y z
#
# Youngs Moduli (GPa) = 119.62993 115.33781 55.96469
#
# Poissons Ratio (x) = 0.21641 0.06793
# Poissons Ratio (y) = 0.22446 0.05073
# Poissons Ratio (z) = 0.14521 0.10454
#
# Static dielectric constant tensor:
#      x y z
#    x 2.038510 0.004640 -0.033420 
#    y 0.004640 2.113410 0.095990 
#    z -0.033420 0.095990 2.031170 
# 
# From -- ./inp_files/349430.got.cif
#   From: 2010.05.17/outbox.cif.g08.bks.cpg/sg2_175_cif.got.tgz:349430.got - 2010.06.03 11:33:40.
