data_PCOD9036350
_publ_section_title
;
Structure prediction by ZEFSAII (Michael W. Deem and Ramdas Pophale) SiO2 
 PCOD9036350
Probable space group: P -1
;
_chemical_formula_sum "Si O2"
_cell_formula_units_Z 14
_cell_length_a 5.006280
_cell_length_b 12.878871
_cell_length_c 9.783787
_cell_angle_alpha 115.166099
_cell_angle_beta 73.180723
_cell_angle_gamma 107.173923
_cell_volume 535.603589
_symmetry_space_group_name_H-M "P -1"
_symmetry_group_IT_number 2
_symmetry_cell_setting 'triclinic'
loop_
_space_group_symop_operation_xyz
x,y,z
-x,-y,-z
loop_
_atom_site_type_symbol
_atom_site_label
_atom_site_fract_x
_atom_site_fract_y
_atom_site_fract_z
Si Si1 0.746049 0.366549 0.053673
Si Si2 0.412297 0.790073 0.448983
Si Si3 0.216012 0.371699 0.789840
Si Si4 0.140871 0.002527 0.626595
Si Si5 0.328179 0.365393 0.475630
Si Si6 0.182114 0.936554 0.033986
Si Si7 0.896538 0.696636 0.822790
O O1 0.704248 0.496528 0.095997
O O2 0.422959 0.297119 0.075948
O O3 0.945240 0.394616 0.175833
O O4 0.946425 0.315821 0.889329
O O5 0.504110 0.684855 0.286183
O O6 0.497538 0.733534 0.551636
O O7 0.189587 0.871177 0.574816
O O8 0.585882 0.894690 0.381668
O O9 0.128713 0.362077 0.636840
O O10 0.000000 0.000000 0.500000
O O11 0.932943 0.044538 0.788936
O O12 0.500000 0.500000 0.500000
O O13 0.159498 0.331024 0.342518
O O14 0.114495 0.807648 0.910987
O O15 0.500000 0.000000 0.000000
O O16 0.000000 0.000000 0.000000
#
# Coordination Sequence:
#
# PCOD9036350 Si02
#       7
#     2   2   2   2   2   2   2
#     4  11  24  48  79 121 165 223 276 347 421 518
#     4   9  23  49  78 120 164 215 283 345 412 509
#     4   9  22  47  76 124 167 218 281 343 424 506
#     4  11  26  51  84 114 158 223 291 346 421 500
#     4  10  22  51  81 125 167 225 269 349 421 517
#     4  12  31  53  82 121 164 214 282 365 429 494
#     4  12  26  51  81 116 171 220 279 345 437 503
#
# _framework density 26.138735
#
# number of rings (size 3 to 8) (size 9 to 14) (size 15 to 20)
#    0.857    0.571    1.429    1.714    6.000    4.000 
#   10.286    1.429    0.000    0.000    0.000    0.000 
#    0.000    0.000    0.000    0.000    0.000    0.000 
#
# Total GULP energy -78007.556640 kJ/mol
# GULP energy per Si atom -5571.968331 kJ/mol
# Density = 2.607924 g / cm^3
# Si number density = 26.138735 Si / 1000 Ang^3
#
#
#
# Elastic Constant Matrix: (Units=GPa)
#
#
# Indices 1 2 3 4 5 6 
#
# 1 173.1987 69.1636 57.4986 5.9864 -1.4541 -10.8633
# 2 69.1636 120.1044 71.6275 1.1453 -7.1999 -11.2004
# 3 57.4986 71.6275 178.3092 3.6625 8.6774 6.6383
# 4 5.9864 1.1453 3.6625 35.9976 -12.3782 -16.0583
# 5 -1.4541 -7.1999 8.6774 -12.3782 42.2868 -6.1971
# 6 -10.8633 -11.2004 6.6383 -16.0583 -6.1971 58.9567
#
#
#
# Elastic Compliance Matrix: (Units=1/GPa)
#
#
# Indices 1 2 3 4 5 6 
#
# 1 0.007672 -0.003853 -0.000902 -0.001003 -0.000433 0.000464
# 2 -0.003853 0.014169 -0.004953 0.004397 0.005211 0.004285
# 3 -0.000902 -0.004953 0.008286 -0.003464 -0.004089 -0.003413
# 4 -0.001003 0.004397 -0.003464 0.039183 0.014840 0.013273
# 5 -0.000433 0.005211 -0.004089 0.014840 0.030974 0.008668
# 6 0.000464 0.004285 -0.003413 0.013273 0.008668 0.022772
#
#
# Mechanical properties :
#
#
# Convention : Reuss Voigt Hill
#
# Bulk Modulus (GPa) = 93.35951 96.46576 94.91264
# Shear Modulus (GPa) = 34.23720 45.66973 39.95347
#
# Velocity S-wave (km/s) = 3.62308 4.18449 3.91386
# Velocity P-wave (km/s) = 7.30046 7.76737 7.53753
#
# Compressibility (1/GPa) = 0.01071128
#
# Stress axis : x y z
#
# Youngs Moduli (GPa) = 130.34451 70.57811 120.69087
#
# Poissons Ratio (x) = 0.27196 0.10882
# Poissons Ratio (y) = 0.50226 0.59772
# Poissons Ratio (z) = 0.11753 0.34954
#
# Static dielectric constant tensor:
#      x y z
#    x 1.982980 0.757820 0.379750 
#    y 0.757820 -1.126690 -1.861770 
#    z 0.379750 -1.861770 1.093480 
# 
# From -- ./inp_files/367048.got.cif
#   From: 2010.05.17/outbox.cif.g08.bks.cpg/sg2_184_cif.got.tgz:367048.got - 2010.06.03 11:33:40.
