data_PCOD9036199
_publ_section_title
;
Structure prediction by ZEFSAII (Michael W. Deem and Ramdas Pophale) SiO2 
 PCOD9036199
Probable space group: P -1
;
_chemical_formula_sum "Si O2"
_cell_formula_units_Z 15
_cell_length_a 8.327903
_cell_length_b 9.076094
_cell_length_c 17.803933
_cell_angle_alpha 63.171679
_cell_angle_beta 55.254842
_cell_angle_gamma 33.662067
_cell_volume 612.131191
_symmetry_space_group_name_H-M "P -1"
_symmetry_group_IT_number 2
_symmetry_cell_setting 'triclinic'
loop_
_space_group_symop_operation_xyz
x,y,z
-x,-y,-z
loop_
_atom_site_type_symbol
_atom_site_label
_atom_site_fract_x
_atom_site_fract_y
_atom_site_fract_z
Si Si1 0.532663 0.588133 0.397143
Si Si2 0.398610 0.091765 0.678588
Si Si3 0.929070 0.044180 0.358173
Si Si4 0.500000 0.000000 0.500000
Si Si5 0.821352 0.221696 0.804196
Si Si6 0.771545 0.239513 0.089910
Si Si7 0.601558 0.837415 0.840252
Si Si8 0.943787 0.621820 0.067539
O O1 0.500000 0.500000 0.500000
O O2 0.690871 0.657314 0.355910
O O3 0.189707 0.861947 0.395038
O O4 0.723625 0.345208 0.345752
O O5 0.559509 0.950737 0.588234
O O6 0.080355 0.195957 0.746112
O O7 0.600189 0.912514 0.739609
O O8 0.116774 0.901543 0.263538
O O9 0.700644 0.039404 0.431765
O O10 0.479562 0.524484 0.837202
O O11 0.918823 0.031745 0.887845
O O12 0.600695 0.198687 0.105552
O O13 0.862287 0.334619 0.993491
O O14 0.922759 0.578239 0.855095
O O15 0.410321 0.090351 0.886020
O O16 0.000000 0.500000 0.000000
#
# Coordination Sequence:
#
# PCOD9036199 Si02
#       8
#     2   2   2   1   2   2   2   2
#     4  12  25  44  66 100 134 183 233 283 354 409
#     4  10  24  44  72 100 143 178 237 283 345 412
#     4  11  25  44  68 100 136 182 232 285 350 409
#     4  10  22  48  70 102 134 190 228 292 334 420
#     4  10  23  43  67 103 134 181 231 285 339 404
#     4  11  22  44  71  98 138 178 230 277 342 421
#     4  11  24  45  69 103 135 186 227 282 343 411
#     4  12  26  44  71 104 140 178 229 285 351 413
#
# _framework density 24.504553999999999
#
# number of rings (size 3 to 8) (size 9 to 14) (size 15 to 20)
#    0.000    1.067    1.333    4.800    0.000    6.933 
#    2.400    0.000    0.000    0.000    0.000    0.000 
#    0.000    0.000    0.000    0.000    0.000    0.000 
#
# Total GULP energy -83839.201367 kJ/mol
# GULP energy per Si atom -5589.280091 kJ/mol
# Density = 2.444878 g / cm^3
# Si number density = 24.504554 Si / 1000 Ang^3
#
#
#
# Elastic Constant Matrix: (Units=GPa)
#
#
# Indices 1 2 3 4 5 6 
#
# 1 50.5966 24.0085 33.7620 -6.2416 -1.7314 10.0376
# 2 24.0085 92.7172 26.4144 -3.3837 -2.5858 19.2796
# 3 33.7620 26.4144 141.3211 -19.9554 7.4710 18.6031
# 4 -6.2416 -3.3837 -19.9554 35.7386 8.5235 9.0551
# 5 -1.7314 -2.5858 7.4710 8.5235 36.5075 3.6173
# 6 10.0376 19.2796 18.6031 9.0551 3.6173 17.1906
#
#
#
# Elastic Compliance Matrix: (Units=1/GPa)
#
#
# Indices 1 2 3 4 5 6 
#
# 1 0.026582 -0.003484 -0.003868 0.004271 0.001805 -0.010059
# 2 -0.003484 0.016005 0.001611 0.007005 0.001143 -0.021590
# 3 -0.003868 0.001611 0.011785 0.011310 -0.003383 -0.017548
# 4 0.004271 0.007005 0.011310 0.049638 -0.008554 -0.046936
# 5 0.001805 0.001143 -0.003383 -0.008554 0.030302 -0.000544
# 6 -0.010059 -0.021590 -0.017548 -0.046936 -0.000544 0.132087
#
#
# Mechanical properties :
#
#
# Convention : Reuss Voigt Hill
#
# Bulk Modulus (GPa) = 23.31399 50.33387 36.82393
# Shear Modulus (GPa) = 17.11299 31.25066 24.18183
#
# Velocity S-wave (km/s) = 2.64552 3.57501 3.14479
# Velocity P-wave (km/s) = 4.34356 6.13401 5.31473
#
# Compressibility (1/GPa) = 0.04289271
#
# Stress axis : x y z
#
# Youngs Moduli (GPa) = 37.61934 62.47898 84.85524
#
# Poissons Ratio (x) = 0.21765 0.32819
# Poissons Ratio (y) = 0.13105 -0.13674
# Poissons Ratio (z) = 0.14550 -0.10068
#
# Static dielectric constant tensor:
#      x y z
#    x 1.951020 0.022030 -0.007160 
#    y 0.022030 1.907470 0.040710 
#    z -0.007160 0.040710 1.920320 
# 
# From -- ./inp_files/556980.got.cif
#   From: 2010.05.17/outbox.cif.g08.bks.cpg/sg2_279_cif.got.tgz:556980.got - 2010.06.03 11:33:40.
