data_PCOD9036623
_publ_section_title
;
Structure prediction by ZEFSAII (Michael W. Deem and Ramdas Pophale) SiO2 
 PCOD9036623
Probable space group: P -1
;
_chemical_formula_sum "Si O2"
_cell_formula_units_Z 16
_cell_length_a 9.618558
_cell_length_b 12.184546
_cell_length_c 22.107795
_cell_angle_alpha 26.452795
_cell_angle_beta 68.307267
_cell_angle_gamma 85.333433
_cell_volume 855.563340
_symmetry_space_group_name_H-M "P -1"
_symmetry_group_IT_number 2
_symmetry_cell_setting 'triclinic'
loop_
_space_group_symop_operation_xyz
x,y,z
-x,-y,-z
loop_
_atom_site_type_symbol
_atom_site_label
_atom_site_fract_x
_atom_site_fract_y
_atom_site_fract_z
Si Si1 0.271661 0.033912 0.544596
Si Si2 0.815416 0.301662 0.465919
Si Si3 0.512896 0.137096 0.337668
Si Si4 0.856341 0.746863 0.710060
Si Si5 0.789216 0.302974 0.836232
Si Si6 0.423908 0.691460 0.246677
Si Si7 0.468594 0.400693 0.985359
Si Si8 0.214098 0.705887 0.382938
O O1 0.387928 0.115116 0.423871
O O2 0.367311 0.359634 0.401443
O O3 0.312872 0.834461 0.676692
O O4 0.052481 0.854774 0.653479
O O5 0.782612 0.326164 0.529426
O O6 0.005723 0.601171 0.259595
O O7 0.629691 0.183246 0.517114
O O8 0.837251 0.022810 0.590222
O O9 0.559920 0.403156 0.152911
O O10 0.834806 0.604597 0.716708
O O11 0.662195 0.453916 0.912872
O O12 0.693630 0.266028 0.805214
O O13 0.639765 0.987541 0.052914
O O14 0.341753 0.660361 0.341991
O O15 0.500000 0.500000 0.000000
O O16 0.293557 0.051818 0.183547
O O17 0.000000 0.500000 0.500000
#
# Coordination Sequence:
#
# PCOD9036623 Si02
#       8
#     2   2   2   2   2   2   2   2
#     4  11  22  40  60  90 121 154 195 246 307 348
#     4  11  20  36  61  88 116 156 202 243 292 346
#     4  10  23  38  64  87 119 154 199 251 295 348
#     4  11  19  34  64  85 112 151 205 251 277 345
#     4  11  20  33  58  90 114 152 201 248 289 338
#     4  11  23  34  56  91 124 151 194 250 295 355
#     4  11  22  38  63  88 115 154 208 247 287 345
#     4  12  22  35  59  90 123 149 193 247 302 346
#
# _framework density 18.701128000000001
#
# number of rings (size 3 to 8) (size 9 to 14) (size 15 to 20)
#    0.000    1.000    7.500    1.875    1.750    0.000 
#    0.000    1.875    2.750    0.000    0.000    0.000 
#    0.000    0.000    0.000    0.000    0.000    0.000 
#
# Total GULP energy -89131.008700 kJ/mol
# GULP energy per Si atom -5570.688044 kJ/mol
# Density = 1.865856 g / cm^3
# Si number density = 18.701128 Si / 1000 Ang^3
#
#
#
# Elastic Constant Matrix: (Units=GPa)
#
#
# Indices 1 2 3 4 5 6 
#
# 1 63.0365 -7.0346 45.2890 -0.4934 -10.0299 13.6292
# 2 -7.0346 110.0986 47.0965 17.5639 0.3654 11.2933
# 3 45.2890 47.0965 117.2923 2.3865 -23.4283 6.2589
# 4 -0.4934 17.5639 2.3865 33.7558 1.8271 -4.6698
# 5 -10.0299 0.3654 -23.4283 1.8271 24.4017 -0.3774
# 6 13.6292 11.2933 6.2589 -4.6698 -0.3774 14.5777
#
#
#
# Elastic Compliance Matrix: (Units=1/GPa)
#
#
# Indices 1 2 3 4 5 6 
#
# 1 0.047283 0.021918 -0.024549 -0.016509 -0.004094 -0.056041
# 2 0.021918 0.024276 -0.017398 -0.015808 -0.007448 -0.037085
# 3 -0.024549 -0.017398 0.026266 0.009997 0.015084 0.028745
# 4 -0.016509 -0.015808 0.009997 0.041973 0.000476 0.036847
# 5 -0.004094 -0.007448 0.015084 0.000476 0.053929 0.004669
# 6 -0.056041 -0.037085 0.028745 0.036847 0.004669 0.149305
#
#
# Mechanical properties :
#
#
# Convention : Reuss Voigt Hill
#
# Bulk Modulus (GPa) = 17.31075 51.23657 34.27366
# Shear Modulus (GPa) = 12.42713 28.21880 20.32296
#
# Velocity S-wave (km/s) = 2.58061 3.88872 3.30013
# Velocity P-wave (km/s) = 4.26099 6.90072 5.73480
#
# Compressibility (1/GPa) = 0.05776758
#
# Stress axis : x y z
#
# Youngs Moduli (GPa) = 21.14913 41.19316 38.07200
#
# Poissons Ratio (x) = -0.90287 0.93464
# Poissons Ratio (y) = -0.46355 0.66236
# Poissons Ratio (z) = 0.51919 0.71666
#
# Static dielectric constant tensor:
#      x y z
#    x 1.640190 -0.011810 -0.003490 
#    y -0.011810 1.677820 0.002640 
#    z -0.003490 0.002640 1.646130 
# 
# From -- ./inp_files/208909.got.cif
#   From: 2010.05.17/outbox.cif.g08.bks.cpg/sg2_105_cif.got.tgz:208909.got - 2010.06.03 11:33:40.
