data_PCOD9036372
_publ_section_title
;
Structure prediction by ZEFSAII (Michael W. Deem and Ramdas Pophale) SiO2 
 PCOD9036372
Probable space group: P -1
;
_chemical_formula_sum "Si O2"
_cell_formula_units_Z 16
_cell_length_a 19.822183
_cell_length_b 5.368469
_cell_length_c 9.291552
_cell_angle_alpha 101.655039
_cell_angle_beta 57.708687
_cell_angle_gamma 74.626142
_cell_volume 730.800072
_symmetry_space_group_name_H-M "P -1"
_symmetry_group_IT_number 2
_symmetry_cell_setting 'triclinic'
loop_
_space_group_symop_operation_xyz
x,y,z
-x,-y,-z
loop_
_atom_site_type_symbol
_atom_site_label
_atom_site_fract_x
_atom_site_fract_y
_atom_site_fract_z
Si Si1 0.631729 0.612609 0.732965
Si Si2 0.102128 0.886086 0.825358
Si Si3 0.761985 0.248086 0.092336
Si Si4 0.420731 0.808476 0.655605
Si Si5 0.823766 0.784586 0.410331
Si Si6 0.739041 0.202507 0.793960
Si Si7 0.672479 0.793548 0.416147
Si Si8 0.442297 0.800748 0.948138
O O1 0.716002 0.427459 0.715484
O O2 0.657205 0.613551 0.538930
O O3 0.543358 0.562565 0.832468
O O4 0.590315 0.937530 0.873862
O O5 0.158533 0.902429 0.901884
O O6 0.138332 0.554587 0.695918
O O7 0.114899 0.083179 0.711694
O O8 0.000000 0.000000 0.000000
O O9 0.676390 0.191129 0.217546
O O10 0.729230 0.579626 0.201961
O O11 0.785043 0.202134 0.891998
O O12 0.500000 0.500000 0.500000
O O13 0.438595 0.912031 0.801630
O O14 0.413485 0.987445 0.542295
O O15 0.730523 0.924936 0.443211
O O16 0.794137 0.899200 0.618453
O O17 0.636772 0.288321 0.965640
#
# Coordination Sequence:
#
# PCOD9036372 Si02
#       8
#     2   2   2   2   2   2   2   2
#     4  11  22  36  58  84 128 179 237 277 326 386
#     4  11  24  48  75 105 132 172 220 278 341 417
#     4  10  23  41  63  94 129 174 218 279 331 397
#     4  11  23  37  58  87 129 172 226 280 327 383
#     4  11  23  42  72 101 133 173 221 273 341 411
#     4  11  22  40  61  90 131 174 221 278 338 394
#     4  11  22  39  61  90 127 176 227 276 330 392
#     4  10  23  35  53  85 123 179 230 277 330 376
#
# _framework density 21.893810999999999
#
# number of rings (size 3 to 8) (size 9 to 14) (size 15 to 20)
#    0.000    1.250    2.500    3.750    1.750    6.000 
#    0.000    1.250    0.000    0.000    0.000    0.000 
#    0.000    0.000    0.000    0.000    0.000    0.000 
#
# Total GULP energy -89345.059752 kJ/mol
# GULP energy per Si atom -5584.066234 kJ/mol
# Density = 2.184398 g / cm^3
# Si number density = 21.893811 Si / 1000 Ang^3
#
#
#
# Elastic Constant Matrix: (Units=GPa)
#
#
# Indices 1 2 3 4 5 6 
#
# 1 87.5360 11.9231 58.1186 -1.7942 4.9179 -4.6102
# 2 11.9231 69.9332 38.3385 -11.7022 6.7663 -4.3884
# 3 58.1186 38.3385 135.3641 -5.9077 24.9874 -5.6019
# 4 -1.7942 -11.7022 -5.9077 30.7601 3.8737 -2.6987
# 5 4.9179 6.7663 24.9874 3.8737 56.2356 -4.6398
# 6 -4.6102 -4.3884 -5.6019 -2.6987 -4.6398 26.4431
#
#
#
# Elastic Compliance Matrix: (Units=1/GPa)
#
#
# Indices 1 2 3 4 5 6 
#
# 1 0.016323 0.001330 -0.007682 -0.000111 0.001980 0.001775
# 2 0.001330 0.018220 -0.005317 0.006247 -0.000150 0.002740
# 3 -0.007682 -0.005317 0.013048 0.000590 -0.004543 -0.000194
# 4 -0.000111 0.006247 0.000590 0.035758 -0.003117 0.004245
# 5 0.001980 -0.000150 -0.004543 -0.003117 0.020072 0.002562
# 6 0.001775 0.002740 -0.000194 0.004245 0.002562 0.039423
#
#
# Mechanical properties :
#
#
# Convention : Reuss Voigt Hill
#
# Bulk Modulus (GPa) = 41.23475 56.62151 48.92813
# Shear Modulus (GPa) = 28.69184 34.98464 31.83824
#
# Velocity S-wave (km/s) = 3.62401 4.00174 3.81755
# Velocity P-wave (km/s) = 6.03209 6.87531 6.46746
#
# Compressibility (1/GPa) = 0.02425139
#
# Stress axis : x y z
#
# Youngs Moduli (GPa) = 61.26356 54.88616 76.64085
#
# Poissons Ratio (x) = -0.07297 0.58873
# Poissons Ratio (y) = -0.08145 0.40752
# Poissons Ratio (z) = 0.47061 0.29185
#
# Static dielectric constant tensor:
#      x y z
#    x 1.837510 0.037620 -0.010240 
#    y 0.037620 1.911300 -0.065840 
#    z -0.010240 -0.065840 1.818420 
# 
# From -- ./inp_files/39952.got.cif
#   From: 2010.05.17/outbox.cif.g08.bks.cpg/sg2_20_cif.got.tgz:39952.got - 2010.06.03 11:33:40.
