data_PCOD9036733
_publ_section_title
;
Structure prediction by ZEFSAII (Michael W. Deem and Ramdas Pophale) SiO2 
 PCOD9036733
Probable space group: P -1
;
_chemical_formula_sum "Si O2"
_cell_formula_units_Z 16
_cell_length_a 9.250201
_cell_length_b 23.876777
_cell_length_c 16.715096
_cell_angle_alpha 161.653959
_cell_angle_beta 46.361100
_cell_angle_gamma 139.546394
_cell_volume 744.549613
_symmetry_space_group_name_H-M "P -1"
_symmetry_group_IT_number 2
_symmetry_cell_setting 'triclinic'
loop_
_space_group_symop_operation_xyz
x,y,z
-x,-y,-z
loop_
_atom_site_type_symbol
_atom_site_label
_atom_site_fract_x
_atom_site_fract_y
_atom_site_fract_z
Si Si1 0.037283 0.082105 0.007079
Si Si2 0.799528 0.285138 0.930400
Si Si3 0.663098 0.005649 0.753786
Si Si4 0.125369 0.246111 0.956972
Si Si5 0.834429 0.315698 0.468149
Si Si6 0.024911 0.288528 0.534718
Si Si7 0.265064 0.305626 0.806397
Si Si8 0.647088 0.931921 0.254947
O O1 0.888335 0.877294 0.736267
O O2 0.279065 0.131143 0.943780
O O3 0.986676 0.268966 0.283628
O O4 0.000000 0.000000 0.000000
O O5 0.058936 0.334711 0.888312
O O6 0.719747 0.187417 0.916256
O O7 0.614293 0.131005 0.732163
O O8 0.799550 0.497482 0.211174
O O9 0.691869 0.840083 0.465334
O O10 0.407378 0.882825 0.713553
O O11 0.858664 0.101086 0.874546
O O12 0.171583 0.210412 0.799294
O O13 0.176753 0.477499 0.260186
O O14 0.276112 0.181319 0.864911
O O15 0.931832 0.324350 0.533100
O O16 0.808598 0.170644 0.514800
O O17 0.500000 0.500000 0.000000
#
# Coordination Sequence:
#
# PCOD9036733 Si02
#       8
#     2   2   2   2   2   2   2   2
#     4   8  18  37  60  88 124 161 198 249 288 361
#     4  11  19  37  67  84 115 171 194 239 308 360
#     4  11  21  39  64  90 114 160 212 244 291 370
#     4  11  23  38  62  91 123 157 200 258 305 342
#     4  11  18  39  64  85 122 164 206 245 293 353
#     4   9  18  37  58  88 122 152 204 242 293 357
#     4  11  22  41  66  90 118 157 208 250 292 368
#     4  10  23  39  58  92 130 153 195 259 299 353
#
# _framework density 21.489502000000002
#
# number of rings (size 3 to 8) (size 9 to 14) (size 15 to 20)
#    0.750    1.000    5.000    1.500    0.000    1.500 
#    2.250    5.625    0.000    0.000    0.000    0.000 
#    0.000    0.000    0.000    0.000    0.000    0.000 
#
# Total GULP energy -89141.242827 kJ/mol
# GULP energy per Si atom -5571.327677 kJ/mol
# Density = 2.144059 g / cm^3
# Si number density = 21.489502 Si / 1000 Ang^3
#
#
#
# Elastic Constant Matrix: (Units=GPa)
#
#
# Indices 1 2 3 4 5 6 
#
# 1 72.4236 6.9367 7.1901 13.1882 -12.5522 7.3666
# 2 6.9367 45.6565 11.7532 3.6658 2.6553 16.7889
# 3 7.1901 11.7532 99.7248 15.7627 -11.2504 6.5221
# 4 13.1882 3.6658 15.7627 29.9753 10.4408 3.4746
# 5 -12.5522 2.6553 -11.2504 10.4408 20.0222 8.7026
# 6 7.3666 16.7889 6.5221 3.4746 8.7026 23.4948
#
#
#
# Elastic Compliance Matrix: (Units=1/GPa)
#
#
# Indices 1 2 3 4 5 6 
#
# 1 0.034821 0.003914 0.013442 -0.041779 0.066206 -0.035791
# 2 0.003914 0.031231 0.000885 -0.008059 0.015297 -0.028264
# 3 0.013442 0.000885 0.020222 -0.029712 0.045056 -0.022755
# 4 -0.041779 -0.008059 -0.029712 0.103765 -0.120427 0.056367
# 5 0.066206 0.015297 0.045056 -0.120427 0.225273 -0.109829
# 6 -0.035791 -0.028264 -0.022755 0.056367 -0.109829 0.112643
#
#
# Mechanical properties :
#
#
# Convention : Reuss Voigt Hill
#
# Bulk Modulus (GPa) = 8.14627 29.95166 19.04897
# Shear Modulus (GPa) = 9.39158 27.49346 18.44252
#
# Velocity S-wave (km/s) = 2.09280 3.58074 2.93270
# Velocity P-wave (km/s) = 3.10464 5.57348 4.51123
#
# Compressibility (1/GPa) = 0.12275551
#
# Stress axis : x y z
#
# Youngs Moduli (GPa) = 28.71800 32.01966 49.45219
#
# Poissons Ratio (x) = -0.12534 -0.66471
# Poissons Ratio (y) = -0.11241 -0.04376
# Poissons Ratio (z) = -0.38601 -0.02834
#
# Static dielectric constant tensor:
#      x y z
#    x 1.829250 0.026980 0.001330 
#    y 0.026980 1.837630 0.000500 
#    z 0.001330 0.000500 1.814620 
# 
# From -- ./inp_files/563184.got.cif
#   From: 2010.05.17/outbox.cif.g08.bks.cpg/sg2_282_cif.got.tgz:563184.got - 2010.06.03 11:33:40.
