data_PCOD9036540
_publ_section_title
;
Structure prediction by ZEFSAII (Michael W. Deem and Ramdas Pophale) SiO2 
 PCOD9036540
Probable space group: P -1
;
_chemical_formula_sum "Si O2"
_cell_formula_units_Z 16
_cell_length_a 12.863623
_cell_length_b 12.637174
_cell_length_c 15.391002
_cell_angle_alpha 127.568910
_cell_angle_beta 25.736270
_cell_angle_gamma 134.540189
_cell_volume 772.378651
_symmetry_space_group_name_H-M "P -1"
_symmetry_group_IT_number 2
_symmetry_cell_setting 'triclinic'
loop_
_space_group_symop_operation_xyz
x,y,z
-x,-y,-z
loop_
_atom_site_type_symbol
_atom_site_label
_atom_site_fract_x
_atom_site_fract_y
_atom_site_fract_z
Si Si1 0.790550 0.602820 0.871830
Si Si2 0.556214 0.867015 0.780444
Si Si3 0.054705 0.374553 0.050454
Si Si4 0.063596 0.868051 0.470945
Si Si5 0.993405 0.160254 0.828739
Si Si6 0.507864 0.660318 0.572883
Si Si7 0.225808 0.653823 0.151106
Si Si8 0.132473 0.173931 0.219350
O O1 0.891280 0.477202 0.752804
O O2 0.920887 0.739482 0.776984
O O3 0.804584 0.659248 0.988947
O O4 0.500000 0.500000 0.000000
O O5 0.490467 0.709599 0.708454
O O6 0.813292 0.905824 0.665018
O O7 0.664029 0.986016 0.679873
O O8 0.288858 0.867027 0.015636
O O9 0.744725 0.332871 0.279822
O O10 0.181526 0.556114 0.047929
O O11 0.061066 0.283496 0.915776
O O12 0.077138 0.754532 0.332164
O O13 0.018810 0.808590 0.572445
O O14 0.224925 0.227168 0.618324
O O15 0.960951 0.002006 0.809694
O O16 0.500000 0.500000 0.500000
O O17 0.544530 0.749359 0.970838
#
# Coordination Sequence:
#
# PCOD9036540 Si02
#       8
#     2   2   2   2   2   2   2   2
#     4   8  19  42  62  95 123 155 211 259 306 362
#     4  10  23  38  57  94 124 160 206 257 306 364
#     4   9  22  41  63  91 129 158 211 246 311 374
#     4  11  21  36  63  91 124 159 209 258 307 361
#     4  11  23  41  63  90 128 167 200 252 316 369
#     4  11  23  41  62  89 130 164 207 249 306 376
#     4   9  20  40  61  89 124 158 198 263 297 359
#     4  11  21  38  67  91 121 163 208 254 312 363
#
# _framework density 20.715228
#
# number of rings (size 3 to 8) (size 9 to 14) (size 15 to 20)
#    0.750    1.250    2.500    0.750    0.000    7.500 
#    0.000    1.875    0.000    0.000    0.000    0.000 
#    0.000    0.000    0.000    0.000    0.000    0.000 
#
# Total GULP energy -89104.830662 kJ/mol
# GULP energy per Si atom -5569.051916 kJ/mol
# Density = 2.066808 g / cm^3
# Si number density = 20.715228 Si / 1000 Ang^3
#
#
#
# Elastic Constant Matrix: (Units=GPa)
#
#
# Indices 1 2 3 4 5 6 
#
# 1 49.1151 11.0099 28.9890 -3.8336 3.1214 5.9790
# 2 11.0099 128.0214 33.6037 14.4162 15.2946 1.2684
# 3 28.9890 33.6037 82.3090 2.7101 6.4510 -0.3672
# 4 -3.8336 14.4162 2.7101 20.0231 6.1541 8.1871
# 5 3.1214 15.2946 6.4510 6.1541 25.2168 -5.1669
# 6 5.9790 1.2684 -0.3672 8.1871 -5.1669 33.3202
#
#
#
# Elastic Compliance Matrix: (Units=1/GPa)
#
#
# Indices 1 2 3 4 5 6 
#
# 1 0.028858 -0.000534 -0.009960 0.012828 -0.005738 -0.009309
# 2 -0.000534 0.009807 -0.003347 -0.005888 -0.003467 0.000595
# 3 -0.009960 -0.003347 0.017120 -0.003065 0.000224 0.002891
# 4 0.012828 -0.005888 -0.003065 0.072472 -0.019624 -0.022962
# 5 -0.005738 -0.003467 0.000224 -0.019624 0.050017 0.013742
# 6 -0.009309 0.000595 0.002891 -0.022962 0.013742 0.039464
#
#
# Mechanical properties :
#
#
# Convention : Reuss Voigt Hill
#
# Bulk Modulus (GPa) = 35.58454 45.18342 40.38398
# Shear Modulus (GPa) = 19.62412 28.10154 23.86283
#
# Velocity S-wave (km/s) = 3.08121 3.68715 3.39772
# Velocity P-wave (km/s) = 5.46569 6.32344 5.91014
#
# Compressibility (1/GPa) = 0.02810209
#
# Stress axis : x y z
#
# Youngs Moduli (GPa) = 34.65275 101.96680 58.41117
#
# Poissons Ratio (x) = 0.05448 0.58176
# Poissons Ratio (y) = 0.01851 0.19553
# Poissons Ratio (z) = 0.34513 0.34133
#
# Static dielectric constant tensor:
#      x y z
#    x 1.797580 0.019270 -0.001020 
#    y 0.019270 1.806110 0.009480 
#    z -0.001020 0.009480 1.727450 
# 
# From -- ./inp_files/519024.got.cif
#   From: 2010.05.17/outbox.cif.g08.bks.cpg/sg2_260_cif.got.tgz:519024.got - 2010.06.03 11:33:40.
