data_PCOD9036332
_publ_section_title
;
Structure prediction by ZEFSAII (Michael W. Deem and Ramdas Pophale) SiO2 
 PCOD9036332
Probable space group: P -1
;
_chemical_formula_sum "Si O2"
_cell_formula_units_Z 14
_cell_length_a 11.053837
_cell_length_b 10.207884
_cell_length_c 9.959466
_cell_angle_alpha 95.001655
_cell_angle_beta 112.047173
_cell_angle_gamma 139.282643
_cell_volume 535.917921
_symmetry_space_group_name_H-M "P -1"
_symmetry_group_IT_number 2
_symmetry_cell_setting 'triclinic'
loop_
_space_group_symop_operation_xyz
x,y,z
-x,-y,-z
loop_
_atom_site_type_symbol
_atom_site_label
_atom_site_fract_x
_atom_site_fract_y
_atom_site_fract_z
Si Si1 0.681189 0.191913 0.970074
Si Si2 0.461275 0.174926 0.538491
Si Si3 0.715254 0.280106 0.408428
Si Si4 0.895601 0.662595 0.888223
Si Si5 0.420377 0.551256 0.743391
Si Si6 0.079825 0.319419 0.810248
Si Si7 0.000000 0.000000 0.000000
Si Si8 0.500000 0.500000 0.500000
O O1 0.491448 0.005461 0.749326
O O2 0.810635 0.443937 0.076622
O O3 0.898559 0.268176 0.053166
O O4 0.500000 0.000000 0.000000
O O5 0.655621 0.257628 0.536786
O O6 0.623280 0.362819 0.748395
O O7 0.431990 0.284405 0.453618
O O8 0.179045 0.878327 0.394782
O O9 0.644491 0.353405 0.309231
O O10 0.000000 0.500000 0.500000
O O11 0.966008 0.791897 0.072710
O O12 0.865904 0.772717 0.804761
O O13 0.265942 0.397765 0.803031
O O14 0.350690 0.395319 0.579507
O O15 0.718199 0.799553 0.913501
#
# Coordination Sequence:
#
# PCOD9036332 Si02
#       8
#     2   2   2   2   2   2   1   1
#     4  12  23  47  72 103 152 196 246 301 365 443
#     4  11  25  44  74 106 145 199 241 306 372 437
#     4  11  23  44  74 110 141 199 252 295 363 449
#     4  12  25  45  74 109 148 199 241 308 373 436
#     4  11  24  46  74 104 143 193 243 315 361 447
#     4  12  27  46  70 113 156 180 252 314 371 437
#     4  12  22  50  74 100 142 198 260 286 370 448
#     4  10  22  50  70  98 142 190 254 288 366 448
#
# _framework density 26.123405000000002
#
# number of rings (size 3 to 8) (size 9 to 14) (size 15 to 20)
#    0.000    0.571    5.714    2.143    0.000    2.857 
#    2.571    0.000    0.000    0.000    0.000    0.000 
#    0.000    0.000    0.000    0.000    0.000    0.000 
#
# Total GULP energy -77982.013822 kJ/mol
# GULP energy per Si atom -5570.143844 kJ/mol
# Density = 2.606395 g / cm^3
# Si number density = 26.123405 Si / 1000 Ang^3
#
#
#
# Elastic Constant Matrix: (Units=GPa)
#
#
# Indices 1 2 3 4 5 6 
#
# 1 201.9016 45.7625 63.4280 17.2399 14.3526 22.2926
# 2 45.7625 76.0078 26.3428 14.4840 -2.2113 19.6133
# 3 63.4280 26.3428 168.5658 36.7948 -5.8363 15.6185
# 4 17.2399 14.4840 36.7948 43.8100 8.3947 -9.4006
# 5 14.3526 -2.2113 -5.8363 8.3947 58.9583 4.3776
# 6 22.2926 19.6133 15.6185 -9.4006 4.3776 57.6592
#
#
#
# Elastic Compliance Matrix: (Units=1/GPa)
#
#
# Indices 1 2 3 4 5 6 
#
# 1 0.006484 -0.003164 -0.002046 0.000438 -0.001913 -0.000660
# 2 -0.003164 0.017965 0.000663 -0.007219 0.003018 -0.006474
# 3 -0.002046 0.000663 0.008751 -0.008008 0.002776 -0.003321
# 4 0.000438 -0.007219 -0.008008 0.035419 -0.007012 0.010762
# 5 -0.001913 0.003018 0.002776 -0.007012 0.019083 -0.003631
# 6 -0.000660 -0.006474 -0.003321 0.010762 -0.003631 0.022730
#
#
# Mechanical properties :
#
#
# Convention : Reuss Voigt Hill
#
# Bulk Modulus (GPa) = 41.48278 79.72689 60.60484
# Shear Modulus (GPa) = 39.19682 52.81495 46.00588
#
# Velocity S-wave (km/s) = 3.87776 4.50126 4.20110
# Velocity P-wave (km/s) = 5.99695 7.58952 6.83974
#
# Compressibility (1/GPa) = 0.02410639
#
# Stress axis : x y z
#
# Youngs Moduli (GPa) = 154.21972 55.66250 114.27917
#
# Poissons Ratio (x) = 0.17610 0.23383
# Poissons Ratio (y) = 0.48789 -0.07575
# Poissons Ratio (z) = 0.31555 -0.03690
#
# Static dielectric constant tensor:
#      x y z
#    x 1.696760 0.349070 -0.116670 
#    y 0.349070 1.610360 0.062310 
#    z -0.116670 0.062310 1.756140 
# 
# From -- ./inp_files/426368.got.cif
#   From: 2010.05.17/outbox.cif.g08.bks.cpg/sg2_214_cif.got.tgz:426368.got - 2010.06.03 11:33:40.
