data_PCOD9036414
_publ_section_title
;
Structure prediction by ZEFSAII (Michael W. Deem and Ramdas Pophale) SiO2 
 PCOD9036414
Probable space group: P -1
;
_chemical_formula_sum "Si O2"
_cell_formula_units_Z 12
_cell_length_a 19.841351
_cell_length_b 8.798626
_cell_length_c 8.080131
_cell_angle_alpha 48.333344
_cell_angle_beta 139.310398
_cell_angle_gamma 150.626430
_cell_volume 451.057830
_symmetry_space_group_name_H-M "P -1"
_symmetry_group_IT_number 2
_symmetry_cell_setting 'triclinic'
loop_
_space_group_symop_operation_xyz
x,y,z
-x,-y,-z
loop_
_atom_site_type_symbol
_atom_site_label
_atom_site_fract_x
_atom_site_fract_y
_atom_site_fract_z
Si Si1 0.058307 0.687498 0.761024
Si Si2 0.840421 0.609470 0.816059
Si Si3 0.697718 0.035782 0.541172
Si Si4 0.617073 0.309651 0.327578
Si Si5 0.689400 0.091471 0.124234
Si Si6 0.168090 0.152520 0.910907
O O1 0.165910 0.847181 0.682632
O O2 0.877499 0.384351 0.606784
O O3 0.098306 0.927710 0.783128
O O4 0.117354 0.560707 0.042034
O O5 0.712485 0.507184 0.526146
O O6 0.009229 0.969132 0.851052
O O7 0.760525 0.423338 0.975987
O O8 0.606683 0.048815 0.486900
O O9 0.624742 0.956365 0.282423
O O10 0.724234 0.846550 0.788436
O O11 0.722271 0.523277 0.209204
O O12 0.446449 0.146541 0.091628
#
# Coordination Sequence:
#
# PCOD9036414 Si02
#       6
#     2   2   2   2   2   2
#     4   9  19  38  62  83 105 159 192 227 281 333
#     4   9  19  38  59  85 109 153 193 227 281 338
#     4  11  20  41  61  80 121 153 191 229 286 352
#     4  12  22  37  62  88 115 149 193 238 285 338
#     4  10  23  36  61  87 117 154 182 240 297 326
#     4  11  21  37  65  85 110 154 198 233 277 343
#
# _framework density 26.604126000000001
#
# number of rings (size 3 to 8) (size 9 to 14) (size 15 to 20)
#    1.000    0.667    3.333    3.000    0.000    1.333 
#    0.000    2.500    0.000    0.000    0.000    0.000 
#    0.000    0.000    0.000    0.000    0.000    0.000 
#
# Total GULP energy -67070.573368 kJ/mol
# GULP energy per Si atom -5589.214447 kJ/mol
# Density = 2.654357 g / cm^3
# Si number density = 26.604126 Si / 1000 Ang^3
#
#
#
# Elastic Constant Matrix: (Units=GPa)
#
#
# Indices 1 2 3 4 5 6 
#
# 1 25.3916 4.9114 1.6154 -4.6986 -12.5874 1.1850
# 2 4.9114 102.4228 39.0567 -3.8214 2.7328 17.3302
# 3 1.6154 39.0567 118.9189 -6.5270 -9.4187 -4.8623
# 4 -4.6986 -3.8214 -6.5270 33.5726 12.5849 -9.6111
# 5 -12.5874 2.7328 -9.4187 12.5849 42.5638 0.1586
# 6 1.1850 17.3302 -4.8623 -9.6111 0.1586 23.9564
#
#
#
# Elastic Compliance Matrix: (Units=1/GPa)
#
#
# Indices 1 2 3 4 5 6 
#
# 1 0.047153 -0.003406 0.001720 0.001558 0.014080 0.001012
# 2 -0.003406 0.013968 -0.005352 -0.002502 -0.002304 -0.012011
# 3 0.001720 -0.005352 0.010779 0.002879 0.002360 0.007114
# 4 0.001558 -0.002502 0.002879 0.039411 -0.010462 0.018198
# 5 0.014080 -0.002304 0.002360 -0.010462 0.031432 -0.002956
# 6 0.001012 -0.012011 0.007114 0.018198 -0.002956 0.059146
#
#
# Mechanical properties :
#
#
# Convention : Reuss Voigt Hill
#
# Bulk Modulus (GPa) = 17.29362 37.54447 27.41904
# Shear Modulus (GPa) = 21.25487 33.42853 27.34170
#
# Velocity S-wave (km/s) = 2.82960 3.54858 3.20929
# Velocity P-wave (km/s) = 4.14608 5.56173 4.90524
#
# Compressibility (1/GPa) = 0.05782480
#
# Stress axis : x y z
#
# Youngs Moduli (GPa) = 21.20747 71.59139 92.76969
#
# Poissons Ratio (x) = 0.24383 -0.15957
# Poissons Ratio (y) = 0.07223 0.49653
# Poissons Ratio (z) = -0.03648 0.38317
#
# Static dielectric constant tensor:
#      x y z
#    x 2.127970 0.056680 0.002080 
#    y 0.056680 2.105590 -0.049320 
#    z 0.002080 -0.049320 2.087610 
# 
# From -- ./inp_files/260410.got.cif
#   From: 2010.05.17/outbox.cif.g08.bks.cpg/sg2_131_cif.got.tgz:260410.got - 2010.06.03 11:33:40.
