data_PCOD9036565
_publ_section_title
;
Structure prediction by ZEFSAII (Michael W. Deem and Ramdas Pophale) SiO2 
 PCOD9036565
Probable space group: P -1
;
_chemical_formula_sum "Si O2"
_cell_formula_units_Z 16
_cell_length_a 8.585952
_cell_length_b 12.236910
_cell_length_c 9.440346
_cell_angle_alpha 128.801338
_cell_angle_beta 73.916037
_cell_angle_gamma 119.383738
_cell_volume 672.859010
_symmetry_space_group_name_H-M "P -1"
_symmetry_group_IT_number 2
_symmetry_cell_setting 'triclinic'
loop_
_space_group_symop_operation_xyz
x,y,z
-x,-y,-z
loop_
_atom_site_type_symbol
_atom_site_label
_atom_site_fract_x
_atom_site_fract_y
_atom_site_fract_z
Si Si1 0.179933 0.970092 0.426613
Si Si2 0.182567 0.050678 0.808333
Si Si3 0.222614 0.662695 0.158857
Si Si4 0.406601 0.281249 0.497705
Si Si5 0.245388 0.413348 0.408610
Si Si6 0.929345 0.166616 0.095362
Si Si7 0.566137 0.672630 0.167198
Si Si8 0.135362 0.576434 0.817932
O O1 0.220877 0.989840 0.600868
O O2 0.335099 0.095313 0.389219
O O3 0.157028 0.797601 0.260517
O O4 0.000000 0.000000 0.500000
O O5 0.318397 0.227519 0.909263
O O6 0.195727 0.949196 0.850064
O O7 0.996648 0.066179 0.894015
O O8 0.397954 0.716166 0.254055
O O9 0.065949 0.515860 0.149973
O O10 0.258181 0.608555 0.951623
O O11 0.329588 0.315658 0.399022
O O12 0.605329 0.425902 0.563918
O O13 0.333683 0.304790 0.689894
O O14 0.158636 0.473835 0.604796
O O15 0.097491 0.298085 0.245513
O O16 0.836870 0.259300 0.115739
O O17 0.500000 0.500000 0.000000
#
# Coordination Sequence:
#
# PCOD9036565 Si02
#       8
#     2   2   2   2   2   2   2   2
#     4  11  22  41  63  87 123 161 200 254 301 349
#     4  10  23  38  61  89 118 158 205 242 299 365
#     4  11  24  40  63  91 117 159 207 246 300 365
#     4  10  23  38  61  89 118 158 205 242 299 365
#     4  11  22  39  61  89 122 158 199 249 302 359
#     4  11  22  39  61  89 122 158 199 249 302 359
#     4  11  22  41  63  87 123 161 200 254 301 349
#     4  11  23  39  61  88 120 155 203 252 300 359
#
# _framework density 23.779128
#
# number of rings (size 3 to 8) (size 9 to 14) (size 15 to 20)
#    0.000    1.250    0.000    6.375    0.000   10.000 
#    0.000    1.250    0.000    0.000    0.000    0.000 
#    0.000    0.000    0.000    0.000    0.000    0.000 
#
# Total GULP energy -89275.124522 kJ/mol
# GULP energy per Si atom -5579.695283 kJ/mol
# Density = 2.372501 g / cm^3
# Si number density = 23.779128 Si / 1000 Ang^3
#
#
#
# Elastic Constant Matrix: (Units=GPa)
#
#
# Indices 1 2 3 4 5 6 
#
# 1 23.2777 12.7425 4.4325 -9.8843 7.1091 -5.7786
# 2 12.7425 177.4563 10.1309 -15.0468 5.6554 5.2151
# 3 4.4325 10.1309 76.3440 -2.6306 -0.9511 1.7907
# 4 -9.8843 -15.0468 -2.6306 31.7224 -0.6460 -5.3992
# 5 7.1091 5.6554 -0.9511 -0.6460 22.1288 7.6465
# 6 -5.7786 5.2151 1.7907 -5.3992 7.6465 27.2556
#
#
#
# Elastic Compliance Matrix: (Units=1/GPa)
#
#
# Indices 1 2 3 4 5 6 
#
# 1 0.074191 -0.002728 -0.004189 0.026079 -0.033278 0.031029
# 2 -0.002728 0.006056 -0.000557 0.001751 -0.000195 -0.001299
# 3 -0.004189 -0.000557 0.013486 -0.000845 0.002965 -0.002667
# 4 0.026079 0.001751 -0.000845 0.043133 -0.013697 0.017637
# 5 -0.033278 -0.000195 0.002965 -0.013697 0.065431 -0.028283
# 6 0.031029 -0.001299 -0.002667 0.017637 -0.028283 0.055121
#
#
# Mechanical properties :
#
#
# Convention : Reuss Voigt Hill
#
# Bulk Modulus (GPa) = 12.69295 36.85444 24.77370
# Shear Modulus (GPa) = 16.74326 32.87282 24.80804
#
# Velocity S-wave (km/s) = 2.65640 3.72213 3.23347
# Velocity P-wave (km/s) = 3.84162 5.83135 4.93775
#
# Compressibility (1/GPa) = 0.07878387
#
# Stress axis : x y z
#
# Youngs Moduli (GPa) = 13.47877 165.13213 74.15034
#
# Poissons Ratio (x) = 0.45053 0.31064
# Poissons Ratio (y) = 0.03677 0.04129
# Poissons Ratio (z) = 0.05647 0.09195
#
# Static dielectric constant tensor:
#      x y z
#    x 1.955080 0.031580 0.022370 
#    y 0.031580 1.928830 0.029940 
#    z 0.022370 0.029940 1.919590 
# 
# From -- ./inp_files/190022.got.cif
#   From: 2010.05.17/outbox.cif.g08.bks.cpg/sg2_96_cif.got.tgz:190022.got - 2010.06.03 11:33:40.
