data_PCOD9036714
_publ_section_title
;
Structure prediction by ZEFSAII (Michael W. Deem and Ramdas Pophale) SiO2 
 PCOD9036714
Probable space group: P -1
;
_chemical_formula_sum "Si O2"
_cell_formula_units_Z 16
_cell_length_a 12.992511
_cell_length_b 6.083173
_cell_length_c 11.316712
_cell_angle_alpha 77.368901
_cell_angle_beta 78.581028
_cell_angle_gamma 52.730923
_cell_volume 692.076788
_symmetry_space_group_name_H-M "P -1"
_symmetry_group_IT_number 2
_symmetry_cell_setting 'triclinic'
loop_
_space_group_symop_operation_xyz
x,y,z
-x,-y,-z
loop_
_atom_site_type_symbol
_atom_site_label
_atom_site_fract_x
_atom_site_fract_y
_atom_site_fract_z
Si Si1 0.354329 0.161689 0.562502
Si Si2 0.280829 0.918168 0.251336
Si Si3 0.102724 0.810600 0.171935
Si Si4 0.679615 0.601907 0.229999
Si Si5 0.543197 0.355159 0.237050
Si Si6 0.906685 0.405442 0.053144
Si Si7 0.125051 0.382840 0.404630
Si Si8 0.444567 0.122077 0.126317
O O1 0.296847 0.427714 0.632375
O O2 0.251950 0.274450 0.467168
O O3 0.500000 0.000000 0.500000
O O4 0.372510 0.912636 0.665769
O O5 0.170939 0.107886 0.350933
O O6 0.319757 0.119933 0.171773
O O7 0.215327 0.842836 0.177491
O O8 0.413198 0.624414 0.297005
O O9 0.095052 0.627703 0.294153
O O10 0.123498 0.671015 0.056129
O O11 0.975875 0.125838 0.149108
O O12 0.648676 0.417654 0.184451
O O13 0.779530 0.625528 0.130988
O O14 0.538949 0.890682 0.227448
O O15 0.476019 0.335060 0.136964
O O16 0.000000 0.500000 0.000000
O O17 0.000000 0.500000 0.500000
O O18 0.500000 0.000000 0.000000
#
# Coordination Sequence:
#
# PCOD9036714 Si02
#       8
#     2   2   2   2   2   2   2   2
#     4  11  24  46  73 101 150 194 243 305 361 437
#     4  11  24  45  70 105 146 185 244 297 368 440
#     4  11  27  46  73 104 145 193 245 293 377 432
#     4  10  25  41  70 105 138 187 243 294 366 439
#     4  10  23  43  69 108 142 186 243 289 371 433
#     4  11  27  47  74 101 148 193 244 304 360 447
#     4  12  29  47  74 109 150 193 248 313 365 439
#     4  10  23  38  70 104 145 181 231 304 363 433
#
# _framework density 23.118822999999999
#
# number of rings (size 3 to 8) (size 9 to 14) (size 15 to 20)
#    0.000    1.250    0.000    4.500   12.250    6.500 
#    0.000    0.000    0.000    0.000    0.000    0.000 
#    0.000    0.000    0.000    0.000    0.000    0.000 
#
# Total GULP energy -89171.710566 kJ/mol
# GULP energy per Si atom -5573.231910 kJ/mol
# Density = 2.306620 g / cm^3
# Si number density = 23.118823 Si / 1000 Ang^3
#
#
#
# Elastic Constant Matrix: (Units=GPa)
#
#
# Indices 1 2 3 4 5 6 
#
# 1 134.1508 26.8135 65.9808 16.7307 -0.5645 6.7391
# 2 26.8135 73.9967 36.3314 -4.7842 8.4450 -2.9392
# 3 65.9808 36.3314 113.2638 11.9559 8.3007 6.0275
# 4 16.7307 -4.7842 11.9559 48.1183 -7.8877 7.4085
# 5 -0.5645 8.4450 8.3007 -7.8877 41.4400 3.4809
# 6 6.7391 -2.9392 6.0275 7.4085 3.4809 34.0035
#
#
#
# Elastic Compliance Matrix: (Units=1/GPa)
#
#
# Indices 1 2 3 4 5 6 
#
# 1 0.010857 -0.001472 -0.005666 -0.002166 0.001249 -0.000931
# 2 -0.001472 0.016923 -0.004814 0.002687 -0.002182 0.002246
# 3 -0.005666 -0.004814 0.014132 -0.002224 -0.002259 -0.001082
# 4 -0.002166 0.002687 -0.002224 0.023854 0.004798 -0.004633
# 5 0.001249 -0.002182 -0.002259 0.004798 0.026275 -0.003771
# 6 -0.000931 0.002246 -0.001082 -0.004633 -0.003771 0.031375
#
#
# Mechanical properties :
#
#
# Convention : Reuss Voigt Hill
#
# Bulk Modulus (GPa) = 55.53125 64.40696 59.96911
# Shear Modulus (GPa) = 32.61069 37.53141 35.07105
#
# Velocity S-wave (km/s) = 3.75983 4.03353 3.89908
# Velocity P-wave (km/s) = 6.55137 7.04358 6.80193
#
# Compressibility (1/GPa) = 0.01800788
#
# Stress axis : x y z
#
# Youngs Moduli (GPa) = 92.10292 59.09086 70.76196
#
# Poissons Ratio (x) = 0.08697 0.40095
# Poissons Ratio (y) = 0.13555 0.34067
# Poissons Ratio (z) = 0.52187 0.28448
#
# Static dielectric constant tensor:
#      x y z
#    x 2.026380 0.052580 0.002800 
#    y 0.052580 2.049810 0.041260 
#    z 0.002800 0.041260 1.941360 
# 
# From -- ./inp_files/410534.got.cif
#   From: 2010.05.17/outbox.cif.g08.bks.cpg/sg2_206_cif.got.tgz:410534.got - 2010.06.03 11:33:40.
