data_PCOD9036805
_publ_section_title
;
Structure prediction by ZEFSAII (Michael W. Deem and Ramdas Pophale) SiO2 
 PCOD9036805
Probable space group: P -1
;
_chemical_formula_sum "Si O2"
_cell_formula_units_Z 14
_cell_length_a 16.192156
_cell_length_b 9.410424
_cell_length_c 9.740356
_cell_angle_alpha 75.420930
_cell_angle_beta 42.478849
_cell_angle_gamma 44.864671
_cell_volume 581.482704
_symmetry_space_group_name_H-M "P -1"
_symmetry_group_IT_number 2
_symmetry_cell_setting 'triclinic'
loop_
_space_group_symop_operation_xyz
x,y,z
-x,-y,-z
loop_
_atom_site_type_symbol
_atom_site_label
_atom_site_fract_x
_atom_site_fract_y
_atom_site_fract_z
Si Si1 0.851422 0.639297 0.461269
Si Si2 0.331013 0.885409 0.329219
Si Si3 0.189900 0.336340 0.909486
Si Si4 0.988017 0.804215 0.559406
Si Si5 0.549399 0.762297 0.593518
Si Si6 0.420502 0.575151 0.733408
Si Si7 0.983339 0.006361 0.752093
O O1 0.919860 0.442707 0.525561
O O2 0.696971 0.704496 0.531397
O O3 0.066394 0.479953 0.166186
O O4 0.726368 0.898751 0.602875
O O5 0.540009 0.615109 0.187825
O O6 0.250339 0.960873 0.252403
O O7 0.178791 0.911219 0.578862
O O8 0.342252 0.313735 0.669092
O O9 0.333115 0.054568 0.797660
O O10 0.000000 0.500000 0.000000
O O11 0.092980 0.822172 0.327070
O O12 0.018173 0.819524 0.676823
O O13 0.517850 0.620164 0.684456
O O14 0.500000 0.500000 0.500000
O O15 0.181216 0.840015 0.966753
#
# Coordination Sequence:
#
# PCOD9036805 Si02
#       7
#     2   2   2   2   2   2   2
#     4  11  21  40  67  91 130 163 208 267 322 371
#     4  10  24  41  63  98 126 164 216 262 313 382
#     4   9  21  39  64  88 124 167 212 259 306 376
#     4   9  20  45  67  93 125 170 216 255 324 373
#     4  10  23  39  62  93 126 169 217 251 320 382
#     4  12  27  41  64  93 132 168 213 263 321 373
#     4   9  22  44  66  91 129 162 217 261 312 379
#
# _framework density 24.076381000000001
#
# number of rings (size 3 to 8) (size 9 to 14) (size 15 to 20)
#    0.857    1.143    0.000    2.143    8.000    2.286 
#    2.571    0.714    0.000    0.000    0.000    0.000 
#    0.000    0.000    0.000    0.000    0.000    0.000 
#
# Total GULP energy -78080.921981 kJ/mol
# GULP energy per Si atom -5577.208713 kJ/mol
# Density = 2.402158 g / cm^3
# Si number density = 24.076381 Si / 1000 Ang^3
#
#
#
# Elastic Constant Matrix: (Units=GPa)
#
#
# Indices 1 2 3 4 5 6 
#
# 1 64.5947 17.3362 1.9539 12.6309 0.5677 7.2829
# 2 17.3362 124.8098 -4.7163 28.6619 0.2229 12.8461
# 3 1.9539 -4.7163 71.2741 12.9293 4.5922 0.6938
# 4 12.6309 28.6619 12.9293 29.3605 -0.2797 -1.4240
# 5 0.5677 0.2229 4.5922 -0.2797 22.6662 5.0635
# 6 7.2829 12.8461 0.6938 -1.4240 5.0635 34.1049
#
#
#
# Elastic Compliance Matrix: (Units=1/GPa)
#
#
# Indices 1 2 3 4 5 6 
#
# 1 0.017517 -0.000129 0.001000 -0.008046 0.000171 -0.004074
# 2 -0.000129 0.011631 0.003154 -0.012928 0.000205 -0.004988
# 3 0.001000 0.003154 0.016397 -0.010843 -0.003127 -0.001723
# 4 -0.008046 -0.012928 -0.010843 0.055361 0.001211 0.008940
# 5 0.000171 0.000205 -0.003127 0.001211 0.046296 -0.006873
# 6 -0.004074 -0.004988 -0.001723 0.008940 -0.006873 0.033499
#
#
# Mechanical properties :
#
#
# Convention : Reuss Voigt Hill
#
# Bulk Modulus (GPa) = 18.65891 32.20293 25.43092
# Shear Modulus (GPa) = 26.24467 33.63333 29.93900
#
# Velocity S-wave (km/s) = 3.30519 3.74162 3.53016
# Velocity P-wave (km/s) = 4.72571 5.66310 5.21551
#
# Compressibility (1/GPa) = 0.05359370
#
# Stress axis : x y z
#
# Youngs Moduli (GPa) = 57.08873 85.97712 60.98785
#
# Poissons Ratio (x) = 0.01105 -0.06096
# Poissons Ratio (y) = 0.00734 -0.19233
# Poissons Ratio (z) = -0.05706 -0.27114
#
# Static dielectric constant tensor:
#      x y z
#    x 1.987380 -0.018770 -0.001280 
#    y -0.018770 1.954170 -0.011400 
#    z -0.001280 -0.011400 1.936570 
# 
# From -- ./inp_files/461202.got.cif
#   From: 2010.05.17/outbox.cif.g08.bks.cpg/sg2_231_cif.got.tgz:461202.got - 2010.06.03 11:33:40.
