data_PCOD9036354
_publ_section_title
;
Structure prediction by ZEFSAII (Michael W. Deem and Ramdas Pophale) SiO2 
 PCOD9036354
Probable space group: P -1
;
_chemical_formula_sum "Si O2"
_cell_formula_units_Z 16
_cell_length_a 8.592614
_cell_length_b 19.712723
_cell_length_c 19.927221
_cell_angle_alpha 17.042966
_cell_angle_beta 142.577928
_cell_angle_gamma 141.159388
_cell_volume 597.518228
_symmetry_space_group_name_H-M "P -1"
_symmetry_group_IT_number 2
_symmetry_cell_setting 'triclinic'
loop_
_space_group_symop_operation_xyz
x,y,z
-x,-y,-z
loop_
_atom_site_type_symbol
_atom_site_label
_atom_site_fract_x
_atom_site_fract_y
_atom_site_fract_z
Si Si1 0.969423 0.593725 0.206153
Si Si2 0.731856 0.506994 0.941975
Si Si3 0.770400 0.614026 0.395740
Si Si4 0.161200 0.027622 0.099141
Si Si5 0.343666 0.923720 0.952663
Si Si6 0.905637 0.351647 0.278596
Si Si7 0.728628 0.005112 0.441913
Si Si8 0.540834 0.749029 0.438305
O O1 0.209129 0.496224 0.419215
O O2 0.067966 0.807662 0.988960
O O3 0.864208 0.408358 0.288706
O O4 0.849198 0.719968 0.109205
O O5 0.788547 0.531908 0.017575
O O6 0.606199 0.236204 0.155073
O O7 0.610305 0.734633 0.658322
O O8 0.000000 0.500000 0.000000
O O9 0.518872 0.726664 0.178003
O O10 0.728182 0.404891 0.525730
O O11 0.001772 0.819307 0.282912
O O12 0.445972 0.952854 0.257703
O O13 0.000000 0.000000 0.000000
O O14 0.500000 0.000000 0.000000
O O15 0.358755 0.125914 0.714022
O O16 0.207989 0.366015 0.345957
O O17 0.794330 0.096925 0.453792
O O18 0.000000 0.000000 0.500000
#
# Coordination Sequence:
#
# PCOD9036354 Si02
#       8
#     2   2   2   2   2   2   2   2
#     4  12  24  35  54  84 108 153 196 245 291 328
#     4   8  16  33  55  81 117 146 176 226 299 363
#     4  12  21  36  56  68 110 154 205 230 290 332
#     4  12  24  40  53  71 109 164 205 235 283 345
#     4  12  20  35  54  73 106 143 198 247 283 341
#     4  10  23  32  57  87 116 137 192 247 289 341
#     4   8  16  32  54  82 117 144 174 226 300 359
#     4  12  24  36  53  83 109 152 196 244 290 331
#
# _framework density 26.777425999999998
#
# number of rings (size 3 to 8) (size 9 to 14) (size 15 to 20)
#    0.750    0.500    6.250    1.500    1.750    0.000 
#    0.000    0.000    0.000    0.000    0.000    1.750 
#    0.000    0.000    0.000    0.000    0.000    0.000 
#
# Total GULP energy -89135.595074 kJ/mol
# GULP energy per Si atom -5570.974692 kJ/mol
# Density = 2.671648 g / cm^3
# Si number density = 26.777426 Si / 1000 Ang^3
#
#
#
# Elastic Constant Matrix: (Units=GPa)
#
#
# Indices 1 2 3 4 5 6 
#
# 1 70.3956 19.1505 13.7499 -5.6089 11.9316 -12.3274
# 2 19.1505 115.9320 38.8266 -10.2967 15.9615 -31.8532
# 3 13.7499 38.8266 152.8707 -12.2278 6.3782 -7.7175
# 4 -5.6089 -10.2967 -12.2278 40.6790 -11.7652 14.3203
# 5 11.9316 15.9615 6.3782 -11.7652 30.4006 -6.5287
# 6 -12.3274 -31.8532 -7.7175 14.3203 -6.5287 37.1362
#
#
#
# Elastic Compliance Matrix: (Units=1/GPa)
#
#
# Indices 1 2 3 4 5 6 
#
# 1 0.016097 -0.000544 -0.000972 -0.001257 -0.005411 0.004208
# 2 -0.000544 0.012951 -0.002724 -0.002724 -0.004799 0.010568
# 3 -0.000972 -0.002724 0.007377 0.002266 0.000740 -0.001870
# 4 -0.001257 -0.002724 0.002266 0.032094 0.011141 -0.012700
# 5 -0.005411 -0.004799 0.000740 0.011141 0.041086 -0.002832
# 6 0.004208 0.010568 -0.001870 -0.012700 -0.002832 0.041401
#
#
# Mechanical properties :
#
#
# Convention : Reuss Voigt Hill
#
# Bulk Modulus (GPa) = 35.78605 53.62803 44.70704
# Shear Modulus (GPa) = 29.62075 39.47458 34.54766
#
# Velocity S-wave (km/s) = 3.32954 3.84366 3.59580
# Velocity P-wave (km/s) = 5.30796 6.30628 5.82853
#
# Compressibility (1/GPa) = 0.02794385
#
# Stress axis : x y z
#
# Youngs Moduli (GPa) = 62.12271 77.21684 135.55918
#
# Poissons Ratio (x) = 0.04200 0.13177
# Poissons Ratio (y) = 0.03379 0.36932
# Poissons Ratio (z) = 0.06039 0.21037
#
# Static dielectric constant tensor:
#      x y z
#    x 2.377030 -0.137150 0.273330 
#    y -0.137150 2.195440 -0.160220 
#    z 0.273330 -0.160220 2.441470 
# 
# From -- ./inp_files/561882.got.cif
#   From: 2010.05.17/outbox.cif.g08.bks.cpg/sg2_281_cif.got.tgz:561882.got - 2010.06.03 11:33:40.
