data_PCOD9036879
_publ_section_title
;
Structure prediction by ZEFSAII (Michael W. Deem and Ramdas Pophale) SiO2 
 PCOD9036879
Probable space group: P -1
;
_chemical_formula_sum "Si O2"
_cell_formula_units_Z 16
_cell_length_a 14.057540
_cell_length_b 12.308083
_cell_length_c 17.862147
_cell_angle_alpha 148.296959
_cell_angle_beta 152.539316
_cell_angle_gamma 47.825966
_cell_volume 703.043024
_symmetry_space_group_name_H-M "P -1"
_symmetry_group_IT_number 2
_symmetry_cell_setting 'triclinic'
loop_
_space_group_symop_operation_xyz
x,y,z
-x,-y,-z
loop_
_atom_site_type_symbol
_atom_site_label
_atom_site_fract_x
_atom_site_fract_y
_atom_site_fract_z
Si Si1 0.044907 0.894966 0.309057
Si Si2 0.771470 0.004696 0.879616
Si Si3 0.587684 0.817793 0.492400
Si Si4 0.951325 0.869309 0.053907
Si Si5 0.344198 0.985698 0.811647
Si Si6 0.081304 0.611010 0.301084
Si Si7 0.502279 0.718873 0.169089
Si Si8 0.606816 0.575301 0.950615
O O1 0.088668 0.706451 0.278369
O O2 0.959689 0.844716 0.134613
O O3 0.869622 0.972844 0.278392
O O4 0.279567 0.086582 0.584980
O O5 0.718236 0.229678 0.972094
O O6 0.596309 0.866935 0.616329
O O7 0.753996 0.915782 0.899704
O O8 0.000000 0.000000 0.000000
O O9 0.443619 0.556286 0.239432
O O10 0.500000 0.000000 0.500000
O O11 0.841113 0.914627 0.697678
O O12 0.953046 0.645270 0.883469
O O13 0.266504 0.766470 0.577425
O O14 0.450438 0.205568 0.963442
O O15 0.500000 0.000000 0.000000
O O16 0.852838 0.629532 0.182116
O O17 0.523629 0.647848 0.227137
O O18 0.500000 0.500000 0.000000
#
# Coordination Sequence:
#
# PCOD9036879 Si02
#       8
#     2   2   2   2   2   2   2   2
#     4  11  24  44  68 100 138 177 236 284 349 412
#     4  10  23  39  65 101 146 172 225 282 349 405
#     4  11  18  38  67 101 130 179 232 271 337 427
#     4  11  22  40  66 104 139 169 224 300 349 390
#     4  11  27  48  67  96 138 187 236 280 347 420
#     4  11  23  44  70  94 136 190 232 271 343 436
#     4  12  23  42  70 102 138 182 231 287 343 413
#     4  11  21  41  71  94 132 185 235 268 338 431
#
# _framework density 22.758209999999998
#
# number of rings (size 3 to 8) (size 9 to 14) (size 15 to 20)
#    0.000    1.000    3.750    4.125    1.750    2.000 
#    2.250    2.500    0.000    0.000    0.000    0.000 
#    0.000    0.000    0.000    0.000    0.000    0.000 
#
# Total GULP energy -89108.950601 kJ/mol
# GULP energy per Si atom -5569.309413 kJ/mol
# Density = 2.270641 g / cm^3
# Si number density = 22.758210 Si / 1000 Ang^3
#
#
#
# Elastic Constant Matrix: (Units=GPa)
#
#
# Indices 1 2 3 4 5 6 
#
# 1 42.7785 22.1771 11.1438 -2.3356 -2.4565 1.9963
# 2 22.1771 125.4530 45.0356 -2.4737 -7.7850 10.4201
# 3 11.1438 45.0356 118.0544 7.1818 -20.7547 5.6696
# 4 -2.3356 -2.4737 7.1818 32.0491 7.5501 -10.1729
# 5 -2.4565 -7.7850 -20.7547 7.5501 42.1643 0.8392
# 6 1.9963 10.4201 5.6696 -10.1729 0.8392 42.6409
#
#
#
# Elastic Compliance Matrix: (Units=1/GPa)
#
#
# Indices 1 2 3 4 5 6 
#
# 1 0.025906 -0.004227 -0.000991 0.001944 -0.000116 0.000418
# 2 -0.004227 0.010097 -0.003455 0.000776 -0.000190 -0.001621
# 3 -0.000991 -0.003455 0.011277 -0.004815 0.005755 -0.001871
# 4 0.001944 0.000776 -0.004815 0.037633 -0.009042 0.009516
# 5 -0.000116 -0.000190 0.005755 -0.009042 0.028195 -0.003425
# 6 0.000418 -0.001621 -0.001871 0.009516 -0.003425 0.026415
#
#
# Mechanical properties :
#
#
# Convention : Reuss Voigt Hill
#
# Bulk Modulus (GPa) = 33.40938 49.22210 41.31574
# Shear Modulus (GPa) = 29.96736 37.23280 33.60008
#
# Velocity S-wave (km/s) = 3.63267 4.04916 3.84656
# Velocity P-wave (km/s) = 5.68393 6.59819 6.15805
#
# Compressibility (1/GPa) = 0.02993172
#
# Stress axis : x y z
#
# Youngs Moduli (GPa) = 38.60124 99.03906 88.67660
#
# Poissons Ratio (x) = 0.41866 0.08792
# Poissons Ratio (y) = 0.16317 0.30642
# Poissons Ratio (z) = 0.03827 0.34222
#
# Static dielectric constant tensor:
#      x y z
#    x 2.587310 -0.521900 -0.119880 
#    y -0.521900 2.074930 0.167690 
#    z -0.119880 0.167690 2.010630 
# 
# From -- ./inp_files/573658.got.cif
#   From: 2010.05.17/outbox.cif.g08.bks.cpg/sg2_287_cif.got.tgz:573658.got - 2010.06.03 11:33:40.
