data_PCOD9036060
_publ_section_title
;
Structure prediction by ZEFSAII (Michael W. Deem and Ramdas Pophale) SiO2 
 PCOD9036060
Probable space group: P -1
;
_chemical_formula_sum "Si O2"
_cell_formula_units_Z 14
_cell_length_a 11.229037
_cell_length_b 12.686054
_cell_length_c 9.029664
_cell_angle_alpha 145.791122
_cell_angle_beta 106.126132
_cell_angle_gamma 69.101801
_cell_volume 675.232597
_symmetry_space_group_name_H-M "P -1"
_symmetry_group_IT_number 2
_symmetry_cell_setting 'triclinic'
loop_
_space_group_symop_operation_xyz
x,y,z
-x,-y,-z
loop_
_atom_site_type_symbol
_atom_site_label
_atom_site_fract_x
_atom_site_fract_y
_atom_site_fract_z
Si Si1 0.736629 0.200596 0.985209
Si Si2 0.554347 0.591476 0.398105
Si Si3 0.354298 0.365471 0.190653
Si Si4 0.990682 0.091898 0.763709
Si Si5 0.084701 0.835595 0.737049
Si Si6 0.480372 0.015399 0.334585
Si Si7 0.054550 0.480665 0.162978
O O1 0.648671 0.404224 0.138459
O O2 0.795071 0.247536 0.216666
O O3 0.851908 0.109894 0.809633
O O4 0.651675 0.049329 0.812042
O O5 0.432954 0.511196 0.315528
O O6 0.618668 0.641866 0.632004
O O7 0.523993 0.776274 0.495457
O O8 0.207822 0.432916 0.169452
O O9 0.412576 0.151892 0.899160
O O10 0.000000 0.000000 0.500000
O O11 0.102572 0.952477 0.733441
O O12 0.009935 0.305640 0.017887
O O13 0.013688 0.675518 0.470556
O O14 0.000000 0.000000 0.000000
O O15 0.500000 0.000000 0.500000
O O16 0.000000 0.500000 0.000000
#
# Coordination Sequence:
#
# PCOD9036060 Si02
#       7
#     2   2   2   2   2   2   2
#     4  10  24  43  66  99 132 177 236 279 344 415
#     4  10  22  47  71  96 135 178 230 293 338 406
#     4  10  24  43  70 103 130 177 237 278 345 415
#     4  11  25  42  66  99 141 185 223 287 346 408
#     4  10  23  43  64  97 137 176 233 277 336 418
#     4  11  26  42  68 101 136 181 224 290 356 408
#     4  12  25  42  70 104 139 182 227 286 350 408
#
# _framework density 20.733597
#
# number of rings (size 3 to 8) (size 9 to 14) (size 15 to 20)
#    0.000    1.429    2.857    0.429    4.000   10.286 
#    0.000    0.000    0.000    0.000    0.000    0.000 
#    0.000    0.000    0.000    0.000    0.000    0.000 
#
# Total GULP energy -78181.962319 kJ/mol
# GULP energy per Si atom -5584.425880 kJ/mol
# Density = 2.068641 g / cm^3
# Si number density = 20.733597 Si / 1000 Ang^3
#
#
#
# Elastic Constant Matrix: (Units=GPa)
#
#
# Indices 1 2 3 4 5 6 
#
# 1 79.6251 20.9153 16.5985 -0.2381 -10.7096 -10.5652
# 2 20.9153 132.0545 45.6039 14.6968 0.2223 1.9665
# 3 16.5985 45.6039 104.9271 15.1048 -3.1371 4.4941
# 4 -0.2381 14.6968 15.1048 49.3884 1.3164 4.0733
# 5 -10.7096 0.2223 -3.1371 1.3164 32.7517 -1.7768
# 6 -10.5652 1.9665 4.4941 4.0733 -1.7768 19.7369
#
#
#
# Elastic Compliance Matrix: (Units=1/GPa)
#
#
# Indices 1 2 3 4 5 6 
#
# 1 0.015425 -0.001983 -0.001862 0.000324 0.005370 0.009295
# 2 -0.001983 0.009283 -0.003480 -0.001601 -0.001032 -0.000957
# 3 -0.001862 -0.003480 0.011813 -0.002368 0.000489 -0.002807
# 4 0.000324 -0.001601 -0.002368 0.021789 -0.001188 -0.003732
# 5 0.005370 -0.001032 0.000489 -0.001188 0.032719 0.006057
# 6 0.009295 -0.000957 -0.002807 -0.003732 0.006057 0.057692
#
#
# Mechanical properties :
#
#
# Convention : Reuss Voigt Hill
#
# Bulk Modulus (GPa) = 45.72684 53.64912 49.68798
# Shear Modulus (GPa) = 29.29760 35.94133 32.61947
#
# Velocity S-wave (km/s) = 3.76313 4.16803 3.97074
# Velocity P-wave (km/s) = 6.40187 7.00678 6.71114
#
# Compressibility (1/GPa) = 0.02186900
#
# Stress axis : x y z
#
# Youngs Moduli (GPa) = 64.83145 107.72602 84.65032
#
# Poissons Ratio (x) = 0.21367 0.15764
# Poissons Ratio (y) = 0.12859 0.29460
# Poissons Ratio (z) = 0.12073 0.37491
#
# Static dielectric constant tensor:
#      x y z
#    x 1.749580 -0.031740 -0.026140 
#    y -0.031740 1.772270 0.008320 
#    z -0.026140 0.008320 1.753790 
# 
# From -- ./inp_files/68116.got.cif
#   From: 2010.05.17/outbox.cif.g08.bks.cpg/sg2_35_cif.got.tgz:68116.got - 2010.06.03 11:33:40.
