data_PCOD9036936
_publ_section_title
;
Structure prediction by ZEFSAII (Michael W. Deem and Ramdas Pophale) SiO2 
 PCOD9036936
Probable space group: P -1
;
_chemical_formula_sum "Si O2"
_cell_formula_units_Z 12
_cell_length_a 8.769369
_cell_length_b 9.544606
_cell_length_c 6.891892
_cell_angle_alpha 73.210081
_cell_angle_beta 80.780549
_cell_angle_gamma 59.599246
_cell_volume 476.260586
_symmetry_space_group_name_H-M "P -1"
_symmetry_group_IT_number 2
_symmetry_cell_setting 'triclinic'
loop_
_space_group_symop_operation_xyz
x,y,z
-x,-y,-z
loop_
_atom_site_type_symbol
_atom_site_label
_atom_site_fract_x
_atom_site_fract_y
_atom_site_fract_z
Si Si1 0.448413 0.324547 0.553590
Si Si2 0.346777 0.080068 0.837328
Si Si3 0.178133 0.851652 0.340057
Si Si4 0.976355 0.773737 0.914367
Si Si5 0.932276 0.392060 0.442375
Si Si6 0.699453 0.212127 0.228571
O O1 0.406472 0.170888 0.628727
O O2 0.612961 0.269830 0.688623
O O3 0.277286 0.488465 0.592040
O O4 0.514747 0.338578 0.319460
O O5 0.321383 0.930376 0.818388
O O6 0.165696 0.226940 0.909487
O O7 0.500000 0.000000 0.000000
O O8 0.061348 0.761424 0.374950
O O9 0.187322 0.871618 0.563516
O O10 0.110491 0.025964 0.180934
O O11 0.976839 0.680219 0.753192
O O12 0.182084 0.721555 0.932687
O O13 0.000000 0.500000 0.500000
#
# Coordination Sequence:
#
# PCOD9036936 Si02
#       6
#     2   2   2   2   2   2
#     4  10  23  39  66  89 129 165 207 260 315 367
#     4  12  23  38  63  98 130 161 214 261 311 367
#     4   9  21  41  67  89 120 167 218 245 310 372
#     4  11  23  41  66  94 127 168 206 262 313 375
#     4  11  24  38  67  97 126 159 217 261 313 369
#     4   9  21  38  64  89 122 166 215 245 307 371
#
# _framework density 25.196290000000001
#
# number of rings (size 3 to 8) (size 9 to 14) (size 15 to 20)
#    1.000    0.667    1.667    3.500    7.000    0.667 
#    0.000    0.000    0.000    6.000    0.000    0.000 
#    0.000    0.000    0.000    0.000    0.000    0.000 
#
# Total GULP energy -67068.892167 kJ/mol
# GULP energy per Si atom -5589.074347 kJ/mol
# Density = 2.513894 g / cm^3
# Si number density = 25.196290 Si / 1000 Ang^3
#
#
#
# Elastic Constant Matrix: (Units=GPa)
#
#
# Indices 1 2 3 4 5 6 
#
# 1 138.3839 49.9347 45.3809 26.7267 -12.3057 20.9292
# 2 49.9347 113.1700 27.3814 25.5704 0.5813 10.3885
# 3 45.3809 27.3814 65.4399 23.2810 -15.7693 -2.9180
# 4 26.7267 25.5704 23.2810 31.1266 -7.3606 0.9580
# 5 -12.3057 0.5813 -15.7693 -7.3606 37.9677 6.9176
# 6 20.9292 10.3885 -2.9180 0.9580 6.9176 65.0105
#
#
#
# Elastic Compliance Matrix: (Units=1/GPa)
#
#
# Indices 1 2 3 4 5 6 
#
# 1 0.011189 -0.002652 -0.005407 -0.002921 0.001500 -0.003538
# 2 -0.002652 0.012058 -0.001341 -0.007285 -0.002882 -0.000719
# 3 -0.005407 -0.001341 0.025398 -0.011907 0.006030 0.002629
# 4 -0.002921 -0.007285 -0.011907 0.050441 0.003923 0.000409
# 5 0.001500 -0.002882 0.006030 0.003923 0.030693 -0.003075
# 6 -0.003538 -0.000719 0.002629 0.000409 -0.003075 0.017075
#
#
# Mechanical properties :
#
#
# Convention : Reuss Voigt Hill
#
# Bulk Modulus (GPa) = 33.50621 62.48755 47.99688
# Shear Modulus (GPa) = 28.47358 39.77409 34.12384
#
# Velocity S-wave (km/s) = 3.36530 3.97743 3.68410
# Velocity P-wave (km/s) = 5.33172 6.77845 6.09814
#
# Compressibility (1/GPa) = 0.02984522
#
# Stress axis : x y z
#
# Youngs Moduli (GPa) = 89.37580 82.93551 39.37302
#
# Poissons Ratio (x) = 0.21991 0.21288
# Poissons Ratio (y) = 0.23699 0.05281
# Poissons Ratio (z) = 0.48322 0.11124
#
# Static dielectric constant tensor:
#      x y z
#    x 2.102290 -0.047470 -0.076090 
#    y -0.047470 1.979600 0.024340 
#    z -0.076090 0.024340 2.068950 
# 
# From -- ./inp_files/157999.got.cif
#   From: 2010.05.17/outbox.cif.g08.bks.cpg/sg2_79_cif.got.tgz:157999.got - 2010.06.03 11:33:40.
