data_PCOD9036777
_publ_section_title
;
Structure prediction by ZEFSAII (Michael W. Deem and Ramdas Pophale) SiO2 
 PCOD9036777
Probable space group: P -1
;
_chemical_formula_sum "Si O2"
_cell_formula_units_Z 10
_cell_length_a 9.461433
_cell_length_b 7.338014
_cell_length_c 19.547642
_cell_angle_alpha 119.378627
_cell_angle_beta 26.168806
_cell_angle_gamma 116.684172
_cell_volume 521.420505
_symmetry_space_group_name_H-M "P -1"
_symmetry_group_IT_number 2
_symmetry_cell_setting 'triclinic'
loop_
_space_group_symop_operation_xyz
x,y,z
-x,-y,-z
loop_
_atom_site_type_symbol
_atom_site_label
_atom_site_fract_x
_atom_site_fract_y
_atom_site_fract_z
Si Si1 0.927608 0.676201 0.619778
Si Si2 0.830245 0.284771 0.061562
Si Si3 0.157973 0.070721 0.515627
Si Si4 0.881871 0.484840 0.345021
Si Si5 0.889388 0.162129 0.171613
O O1 0.546747 0.704424 0.788061
O O2 0.000000 0.500000 0.500000
O O3 0.050056 0.613173 0.629063
O O4 0.112825 0.884105 0.553512
O O5 0.888020 0.255066 0.112534
O O6 0.000000 0.500000 0.000000
O O7 0.952335 0.065256 0.937354
O O8 0.999936 0.275463 0.654276
O O9 0.475759 0.880105 0.653645
O O10 0.000000 0.000000 0.500000
O O11 0.500000 0.500000 0.500000
O O12 0.024232 0.338540 0.197548
#
# Coordination Sequence:
#
# PCOD9036777 Si02
#       5
#     2   2   2   2   2
#     4  12  22  38  67  93 118 165 211 246 305 369
#     4  11  24  40  64  87 126 167 205 248 310 368
#     4  11  20  39  68  90 120 160 207 253 299 364
#     4  10  23  39  61  95 127 155 204 260 303 358
#     4  10  23  42  59  92 129 157 201 260 306 355
#
# _framework density 19.178379
#
# number of rings (size 3 to 8) (size 9 to 14) (size 15 to 20)
#    0.000    1.200    4.000    2.400    0.000    5.600 
#    0.000    2.000    0.000    0.000    0.000    0.000 
#    0.000    0.000    0.000    0.000    0.000    0.000 
#
# Total GULP energy -55824.830160 kJ/mol
# GULP energy per Si atom -5582.483016 kJ/mol
# Density = 1.913473 g / cm^3
# Si number density = 19.178379 Si / 1000 Ang^3
#
#
#
# Elastic Constant Matrix: (Units=GPa)
#
#
# Indices 1 2 3 4 5 6 
#
# 1 102.1708 59.1451 36.1578 25.6915 28.5472 -5.2094
# 2 59.1451 199.2824 75.7800 7.0415 31.6232 5.0248
# 3 36.1578 75.7800 90.0941 15.1839 12.0707 2.2431
# 4 25.6915 7.0415 15.1839 42.6975 3.2581 7.2244
# 5 28.5472 31.6232 12.0707 3.2581 35.5345 3.9169
# 6 -5.2094 5.0248 2.2431 7.2244 3.9169 37.8187
#
#
#
# Elastic Compliance Matrix: (Units=1/GPa)
#
#
# Indices 1 2 3 4 5 6 
#
# 1 0.017856 -0.002572 -0.002015 -0.009759 -0.011132 0.005938
# 2 -0.002572 0.008649 -0.006198 0.002823 -0.003641 -0.001298
# 3 -0.002015 -0.006198 0.017618 -0.004170 0.001517 0.000141
# 4 -0.009759 0.002823 -0.004170 0.031291 0.004751 -0.007942
# 5 -0.011132 -0.003641 0.001517 0.004751 0.040057 -0.006196
# 6 0.005938 -0.001298 0.000141 -0.007942 -0.006196 0.029583
#
#
# Mechanical properties :
#
#
# Convention : Reuss Voigt Hill
#
# Bulk Modulus (GPa) = 44.33967 81.52365 62.93166
# Shear Modulus (GPa) = 28.71219 37.90777 33.30998
#
# Velocity S-wave (km/s) = 3.87345 4.45071 4.17208
# Velocity P-wave (km/s) = 6.57074 8.30735 7.48955
#
# Compressibility (1/GPa) = 0.02255317
#
# Stress axis : x y z
#
# Youngs Moduli (GPa) = 56.00229 115.61882 56.76099
#
# Poissons Ratio (x) = 0.29736 0.11436
# Poissons Ratio (y) = 0.14403 0.35182
# Poissons Ratio (z) = 0.11283 0.71664
#
# Static dielectric constant tensor:
#      x y z
#    x 1.652370 0.033000 -0.004990 
#    y 0.033000 1.683410 0.037680 
#    z -0.004990 0.037680 1.655450 
# 
# From -- ./inp_files/487061.got.cif
#   From: 2010.05.17/outbox.cif.g08.bks.cpg/sg2_244_cif.got.tgz:487061.got - 2010.06.03 11:33:40.
