data_PCOD9036068
_publ_section_title
;
Structure prediction by ZEFSAII (Michael W. Deem and Ramdas Pophale) SiO2 
 PCOD9036068
Probable space group: P -1
;
_chemical_formula_sum "Si O2"
_cell_formula_units_Z 14
_cell_length_a 5.325660
_cell_length_b 9.490536
_cell_length_c 14.989405
_cell_angle_alpha 71.876848
_cell_angle_beta 84.653673
_cell_angle_gamma 50.525644
_cell_volume 550.121734
_symmetry_space_group_name_H-M "P -1"
_symmetry_group_IT_number 2
_symmetry_cell_setting 'triclinic'
loop_
_space_group_symop_operation_xyz
x,y,z
-x,-y,-z
loop_
_atom_site_type_symbol
_atom_site_label
_atom_site_fract_x
_atom_site_fract_y
_atom_site_fract_z
Si Si1 0.644873 0.714801 0.970950
Si Si2 0.916868 0.593197 0.692562
Si Si3 0.429233 0.734146 0.167153
Si Si4 0.318099 0.015300 0.414178
Si Si5 0.754710 0.931724 0.790862
Si Si6 0.375057 0.399798 0.475421
Si Si7 0.513751 0.390734 0.162731
O O1 0.626023 0.873405 0.884666
O O2 0.444738 0.668725 0.929872
O O3 0.539308 0.772526 0.064585
O O4 0.000000 0.500000 0.000000
O O5 0.945804 0.750186 0.624311
O O6 0.705626 0.576410 0.631875
O O7 0.688162 0.663837 0.773594
O O8 0.265687 0.400705 0.748697
O O9 0.333847 0.609074 0.156032
O O10 0.191836 0.926750 0.193718
O O11 0.441937 0.979230 0.313700
O O12 0.500000 0.000000 0.500000
O O13 0.342516 0.829683 0.466080
O O14 0.116846 0.739471 0.791098
O O15 0.500000 0.500000 0.500000
O O16 0.000000 0.500000 0.500000
#
# Coordination Sequence:
#
# PCOD9036068 Si02
#       7
#     2   2   2   2   2   2   2
#     4  12  23  48  70  99 148 196 240 312 378 453
#     4  11  24  47  72 104 149 197 244 310 380 455
#     4  12  26  45  72 105 147 191 254 305 379 452
#     4  10  22  47  72 101 146 195 239 305 381 449
#     4  12  26  44  71 107 143 188 254 306 372 451
#     4  11  27  47  75 114 152 194 259 320 382 457
#     4  12  24  44  73 100 148 189 248 303 383 442
#
# _framework density 25.448910999999999
#
# number of rings (size 3 to 8) (size 9 to 14) (size 15 to 20)
#    0.000    0.571    5.714    1.714    4.000    2.857 
#    0.000    3.571    0.000    0.000    0.000    0.000 
#    0.000    0.000    0.000    0.000    0.000    0.000 
#
# Total GULP energy -78064.426470 kJ/mol
# GULP energy per Si atom -5576.030462 kJ/mol
# Density = 2.539099 g / cm^3
# Si number density = 25.448911 Si / 1000 Ang^3
#
#
#
# Elastic Constant Matrix: (Units=GPa)
#
#
# Indices 1 2 3 4 5 6 
#
# 1 84.9104 24.4207 21.4540 -13.5804 12.8924 24.0977
# 2 24.4207 118.7772 41.3108 16.9651 5.5542 47.8796
# 3 21.4540 41.3108 139.6829 -10.1222 28.2777 12.2428
# 4 -13.5804 16.9651 -10.1222 30.5015 7.6751 -2.9485
# 5 12.8924 5.5542 28.2777 7.6751 39.0491 8.3840
# 6 24.0977 47.8796 12.2428 -2.9485 8.3840 42.6681
#
#
#
# Elastic Compliance Matrix: (Units=1/GPa)
#
#
# Indices 1 2 3 4 5 6 
#
# 1 0.016369 -0.003796 0.001173 0.011318 -0.007271 -0.003111
# 2 -0.003796 0.030741 -0.011459 -0.030664 0.018690 -0.034856
# 3 0.001173 -0.011459 0.013334 0.016083 -0.014210 0.012274
# 4 0.011318 -0.030664 0.016083 0.071780 -0.032595 0.034767
# 5 -0.007271 0.018690 -0.014210 -0.032595 0.047271 -0.024330
# 6 -0.003111 -0.034856 0.012274 0.034767 -0.024330 0.067968
#
#
# Mechanical properties :
#
#
# Convention : Reuss Voigt Hill
#
# Bulk Modulus (GPa) = 30.97794 57.52683 44.25239
# Shear Modulus (GPa) = 17.45878 39.52275 28.49076
#
# Velocity S-wave (km/s) = 2.62206 3.94512 3.34956
# Velocity P-wave (km/s) = 4.62234 6.58831 5.69086
#
# Compressibility (1/GPa) = 0.03228103
#
# Stress axis : x y z
#
# Youngs Moduli (GPa) = 61.08924 32.52944 74.99435
#
# Poissons Ratio (x) = 0.12348 -0.08798
# Poissons Ratio (y) = 0.23189 0.85938
# Poissons Ratio (z) = -0.07167 0.37276
#
# Static dielectric constant tensor:
#      x y z
#    x 2.146950 0.032340 -0.029030 
#    y 0.032340 2.095710 0.062090 
#    z -0.029030 0.062090 2.174180 
# 
# From -- ./inp_files/46932.got.cif
#   From: 2010.05.17/outbox.cif.g08.bks.cpg/sg2_24_cif.got.tgz:46932.got - 2010.06.03 11:33:40.
