data_PCOD9036234
_publ_section_title
;
Structure prediction by ZEFSAII (Michael W. Deem and Ramdas Pophale) SiO2 
 PCOD9036234
Probable space group: P -1
;
_chemical_formula_sum "Si O2"
_cell_formula_units_Z 15
_cell_length_a 5.119131
_cell_length_b 12.010176
_cell_length_c 11.601326
_cell_angle_alpha 77.462945
_cell_angle_beta 119.066686
_cell_angle_gamma 113.289975
_cell_volume 572.358439
_symmetry_space_group_name_H-M "P -1"
_symmetry_group_IT_number 2
_symmetry_cell_setting 'triclinic'
loop_
_space_group_symop_operation_xyz
x,y,z
-x,-y,-z
loop_
_atom_site_type_symbol
_atom_site_label
_atom_site_fract_x
_atom_site_fract_y
_atom_site_fract_z
Si Si1 0.551254 0.738392 0.794858
Si Si2 0.690555 0.384235 0.660830
Si Si3 0.400862 0.695509 0.082462
Si Si4 0.210582 0.054882 0.641869
Si Si5 0.184928 0.334334 0.365353
Si Si6 0.057593 0.794813 0.290003
Si Si7 0.500000 0.500000 0.000000
Si Si8 0.596327 0.098846 0.102199
O O1 0.694204 0.721525 0.705651
O O2 0.540165 0.622826 0.897857
O O3 0.637967 0.860253 0.868233
O O4 0.188956 0.726874 0.687483
O O5 0.691557 0.323037 0.799510
O O6 0.393224 0.336157 0.522874
O O7 0.763962 0.523401 0.671317
O O8 0.956573 0.343723 0.661212
O O9 0.775506 0.777872 0.142010
O O10 0.362456 0.565109 0.055234
O O11 0.235230 0.774368 0.958303
O O12 0.583321 0.123374 0.679898
O O13 0.049457 0.144136 0.641415
O O14 0.205191 0.956652 0.759177
O O15 0.000000 0.000000 0.500000
O O16 0.500000 0.000000 0.000000
#
# Coordination Sequence:
#
# PCOD9036234 Si02
#       8
#     2   2   2   2   2   2   1   2
#     4  11  26  47  74 109 147 198 249 315 368 460
#     4  11  25  44  77 108 155 192 247 308 383 455
#     4  11  23  49  74 115 148 207 245 321 371 467
#     4  12  29  50  76 110 149 199 258 322 372 454
#     4  11  27  45  74 111 152 192 250 308 380 453
#     4  12  25  48  79 105 148 198 254 309 387 448
#     4  10  22  48  72 108 154 194 254 308 384 444
#     4  11  25  52  75 113 152 203 255 317 383 456
#
# _framework density 26.207355
#
# number of rings (size 3 to 8) (size 9 to 14) (size 15 to 20)
#    0.000    0.800    4.000    1.200    5.600    3.200 
#   16.800    0.000    0.000    0.000    0.000    0.000 
#    0.000    0.000    0.000    0.000    0.000    0.000 
#
# Total GULP energy -83663.789224 kJ/mol
# GULP energy per Si atom -5577.585948 kJ/mol
# Density = 2.614771 g / cm^3
# Si number density = 26.207355 Si / 1000 Ang^3
#
#
#
# Elastic Constant Matrix: (Units=GPa)
#
#
# Indices 1 2 3 4 5 6 
#
# 1 145.0113 65.8698 37.1888 25.7214 -9.7556 -30.2885
# 2 65.8698 169.1879 63.5428 12.6819 -20.2099 -60.6439
# 3 37.1888 63.5428 146.8045 10.4202 -14.9397 -16.8742
# 4 25.7214 12.6819 10.4202 50.7500 -3.4049 -8.3056
# 5 -9.7556 -20.2099 -14.9397 -3.4049 23.3586 17.1662
# 6 -30.2885 -60.6439 -16.8742 -8.3056 17.1662 47.6608
#
#
#
# Elastic Compliance Matrix: (Units=1/GPa)
#
#
# Indices 1 2 3 4 5 6 
#
# 1 0.009223 -0.002207 -0.000945 -0.003595 -0.000984 0.002446
# 2 -0.002207 0.013291 -0.003795 0.000896 -0.003052 0.015420
# 3 -0.000945 -0.003795 0.008761 -0.000733 0.004927 -0.004230
# 4 -0.003595 0.000896 -0.000733 0.021849 0.000304 0.002294
# 5 -0.000984 -0.003052 0.004927 0.000304 0.061127 -0.024727
# 6 0.002446 0.015420 -0.004230 0.002294 -0.024727 0.049965
#
#
# Mechanical properties :
#
#
# Convention : Reuss Voigt Hill
#
# Bulk Modulus (GPa) = 57.53589 88.24518 72.89053
# Shear Modulus (GPa) = 27.18796 43.98070 35.58433
#
# Velocity S-wave (km/s) = 3.22439 4.10101 3.68883
# Velocity P-wave (km/s) = 5.98866 7.49462 6.78356
#
# Compressibility (1/GPa) = 0.01738046
#
# Stress axis : x y z
#
# Youngs Moduli (GPa) = 108.42063 75.23893 114.14051
#
# Poissons Ratio (x) = 0.16607 0.10785
# Poissons Ratio (y) = 0.23931 0.43321
# Poissons Ratio (z) = 0.10244 0.28556
#
# Static dielectric constant tensor:
#      x y z
#    x 2.159450 0.049600 0.049860 
#    y 0.049600 2.094350 0.007680 
#    z 0.049860 0.007680 2.113070 
# 
# From -- ./inp_files/364400.got.cif
#   From: 2010.05.17/outbox.cif.g08.bks.cpg/sg2_183_cif.got.tgz:364400.got - 2010.06.03 11:33:40.
