data_PCOD9036794
_publ_section_title
;
Structure prediction by ZEFSAII (Michael W. Deem and Ramdas Pophale) SiO2 
 PCOD9036794
Probable space group: P -1
;
_chemical_formula_sum "Si O2"
_cell_formula_units_Z 14
_cell_length_a 10.924589
_cell_length_b 11.985475
_cell_length_c 9.269042
_cell_angle_alpha 88.469713
_cell_angle_beta 28.547371
_cell_angle_gamma 86.638901
_cell_volume 578.207464
_symmetry_space_group_name_H-M "P -1"
_symmetry_group_IT_number 2
_symmetry_cell_setting 'triclinic'
loop_
_space_group_symop_operation_xyz
x,y,z
-x,-y,-z
loop_
_atom_site_type_symbol
_atom_site_label
_atom_site_fract_x
_atom_site_fract_y
_atom_site_fract_z
Si Si1 0.947772 0.270857 0.756942
Si Si2 0.098054 0.390131 0.321183
Si Si3 0.504596 0.873299 0.180961
Si Si4 0.199218 0.396056 0.770986
Si Si5 0.409940 0.508168 0.809466
Si Si6 0.468745 0.139383 0.193075
Si Si7 0.016053 0.757322 0.798688
O O1 0.025188 0.297203 0.510873
O O2 0.213042 0.200742 0.525035
O O3 0.822709 0.391222 0.944409
O O4 0.716829 0.190603 0.001586
O O5 0.967380 0.357007 0.309090
O O6 0.000000 0.500000 0.500000
O O7 0.379151 0.426085 0.980176
O O8 0.270998 0.819440 0.506755
O O9 0.471066 0.007128 0.220348
O O10 0.509154 0.844716 0.005472
O O11 0.772302 0.827841 0.977895
O O12 0.403959 0.419638 0.686122
O O13 0.348673 0.419300 0.468379
O O14 0.063359 0.284806 0.959530
O O15 0.000000 0.500000 0.000000
#
# Coordination Sequence:
#
# PCOD9036794 Si02
#       7
#     2   2   2   2   2   2   2
#     4  11  21  38  60  91 122 159 187 245 304 352
#     4   9  18  36  54  88 121 155 183 235 295 362
#     4  11  22  39  60  91 119 157 197 249 290 356
#     4  10  23  39  62  87 115 163 204 242 284 354
#     4   9  22  39  56  87 123 155 199 241 291 358
#     4  11  22  37  62  89 123 152 200 240 302 356
#     4  11  22  38  62  85 122 154 199 243 296 345
#
# _framework density 24.212762999999999
#
# number of rings (size 3 to 8) (size 9 to 14) (size 15 to 20)
#    0.000    1.714    2.857    0.857    8.000    2.286 
#    0.000    2.857    0.000    5.143    0.000    0.000 
#    0.000    0.000    0.000    0.000    0.000    0.000 
#
# Total GULP energy -78102.998035 kJ/mol
# GULP energy per Si atom -5578.785574 kJ/mol
# Density = 2.415765 g / cm^3
# Si number density = 24.212763 Si / 1000 Ang^3
#
#
#
# Elastic Constant Matrix: (Units=GPa)
#
#
# Indices 1 2 3 4 5 6 
#
# 1 34.4085 22.6870 33.5792 -1.1127 -4.9037 3.2466
# 2 22.6870 112.9838 74.8141 -22.4705 -12.1047 7.8299
# 3 33.5792 74.8141 216.0808 -23.4698 -18.0512 -5.4732
# 4 -1.1127 -22.4705 -23.4698 41.0631 -4.5454 1.2006
# 5 -4.9037 -12.1047 -18.0512 -4.5454 41.8024 -1.9919
# 6 3.2466 7.8299 -5.4732 1.2006 -1.9919 39.8079
#
#
#
# Elastic Compliance Matrix: (Units=1/GPa)
#
#
# Indices 1 2 3 4 5 6 
#
# 1 0.036925 -0.005086 -0.004470 -0.004226 0.000351 -0.002481
# 2 -0.005086 0.013566 -0.003133 0.005850 0.002484 -0.002736
# 3 -0.004470 -0.003133 0.006855 0.002232 0.001864 0.001949
# 4 -0.004226 0.005850 0.002232 0.029334 0.005298 -0.001119
# 5 0.000351 0.002484 0.001864 0.005298 0.026106 0.000885
# 6 -0.002481 -0.002736 0.001949 -0.001119 0.000885 0.026207
#
#
# Mechanical properties :
#
#
# Convention : Reuss Voigt Hill
#
# Bulk Modulus (GPa) = 31.28040 69.51486 50.39763
# Shear Modulus (GPa) = 28.56707 40.02754 34.29731
#
# Velocity S-wave (km/s) = 3.43860 4.07032 3.76772
# Velocity P-wave (km/s) = 5.35839 7.13178 6.30772
#
# Compressibility (1/GPa) = 0.03196890
#
# Stress axis : x y z
#
# Youngs Moduli (GPa) = 27.08164 73.71455 145.88429
#
# Poissons Ratio (x) = 0.37489 0.65209
# Poissons Ratio (y) = 0.13773 0.45705
# Poissons Ratio (z) = 0.12105 0.23095
#
# Static dielectric constant tensor:
#      x y z
#    x 2.085650 -0.003440 -0.024260 
#    y -0.003440 1.936590 0.008030 
#    z -0.024260 0.008030 1.980480 
# 
# From -- ./inp_files/77997.got.cif
#   From: 2010.05.17/outbox.cif.g08.bks.cpg/sg2_39_cif.got.tgz:77997.got - 2010.06.03 11:33:40.
