data_PCOD9036536
_publ_section_title
;
Structure prediction by ZEFSAII (Michael W. Deem and Ramdas Pophale) SiO2 
 PCOD9036536
Probable space group: P -1
;
_chemical_formula_sum "Si O2"
_cell_formula_units_Z 14
_cell_length_a 15.181189
_cell_length_b 10.076763
_cell_length_c 14.303846
_cell_angle_alpha 123.508951
_cell_angle_beta 37.674328
_cell_angle_gamma 143.870070
_cell_volume 765.082940
_symmetry_space_group_name_H-M "P -1"
_symmetry_group_IT_number 2
_symmetry_cell_setting 'triclinic'
loop_
_space_group_symop_operation_xyz
x,y,z
-x,-y,-z
loop_
_atom_site_type_symbol
_atom_site_label
_atom_site_fract_x
_atom_site_fract_y
_atom_site_fract_z
Si Si1 0.586576 0.712826 0.114630
Si Si2 0.249650 0.466155 0.139128
Si Si3 0.580735 0.238023 0.551875
Si Si4 0.856677 0.947815 0.516544
Si Si5 0.962855 0.401400 0.597920
Si Si6 0.017531 0.026415 0.787225
Si Si7 0.531559 0.552102 0.384088
O O1 0.384857 0.564116 0.159338
O O2 0.553907 0.792596 0.262906
O O3 0.625257 0.555384 0.041783
O O4 0.796923 0.927558 0.964035
O O5 0.197688 0.606071 0.219529
O O6 0.029370 0.196236 0.234198
O O7 0.552639 0.342028 0.532887
O O8 0.818172 0.423416 0.462263
O O9 0.500000 0.000000 0.500000
O O10 0.937858 0.936399 0.346131
O O11 0.619062 0.697275 0.634491
O O12 0.877338 0.153773 0.569743
O O13 0.000000 0.000000 0.500000
O O14 0.000000 0.500000 0.500000
O O15 0.217639 0.250412 0.762667
O O16 0.500000 0.500000 0.500000
#
# Coordination Sequence:
#
# PCOD9036536 Si02
#       7
#     2   2   2   2   2   2   2
#     4   9  19  36  62  94 120 159 199 261 308 354
#     4   9  18  34  63  93 117 151 199 256 307 345
#     4  12  24  37  63  97 118 153 214 260 299 358
#     4  11  21  36  63  89 124 164 203 244 302 373
#     4  12  20  37  63  95 116 151 213 259 292 357
#     4   9  18  37  59  86 119 160 199 246 306 357
#     4  10  23  38  56  87 124 165 195 243 311 367
#
# _framework density 18.298670000000001
#
# number of rings (size 3 to 8) (size 9 to 14) (size 15 to 20)
#    0.857    0.857    4.286    0.857    2.000    0.571 
#    0.000    0.000    0.000   12.857    0.000    0.000 
#    0.000    0.000    0.000    0.000    0.000    0.000 
#
# Total GULP energy -77962.706016 kJ/mol
# GULP energy per Si atom -5568.764715 kJ/mol
# Density = 1.825702 g / cm^3
# Si number density = 18.298670 Si / 1000 Ang^3
#
#
#
# Elastic Constant Matrix: (Units=GPa)
#
#
# Indices 1 2 3 4 5 6 
#
# 1 91.5294 60.6712 35.8180 -0.4034 -9.6376 2.3852
# 2 60.6712 155.9095 46.2039 2.4486 -11.6705 9.2853
# 3 35.8180 46.2039 93.8838 22.2164 -13.9892 1.1944
# 4 -0.4034 2.4486 22.2164 32.9204 6.7390 -8.0889
# 5 -9.6376 -11.6705 -13.9892 6.7390 22.6722 -2.5628
# 6 2.3852 9.2853 1.1944 -8.0889 -2.5628 34.1171
#
#
#
# Elastic Compliance Matrix: (Units=1/GPa)
#
#
# Indices 1 2 3 4 5 6 
#
# 1 0.016045 -0.005012 -0.004515 0.003853 0.000462 0.001349
# 2 -0.005012 0.009307 -0.002636 0.000406 0.000693 -0.001942
# 3 -0.004515 -0.002636 0.019598 -0.016458 0.013420 -0.002547
# 4 0.003853 0.000406 -0.016458 0.048381 -0.021553 0.010048
# 5 0.000462 0.000693 0.013420 -0.021553 0.059194 -0.001354
# 6 0.001349 -0.001942 -0.002547 0.010048 -0.001354 0.032115
#
#
# Mechanical properties :
#
#
# Convention : Reuss Voigt Hill
#
# Bulk Modulus (GPa) = 48.48847 69.63431 59.06139
# Shear Modulus (GPa) = 23.16530 31.18392 27.17461
#
# Velocity S-wave (km/s) = 3.56189 4.13263 3.85783
# Velocity P-wave (km/s) = 6.59332 7.80438 7.22428
#
# Compressibility (1/GPa) = 0.02062346
#
# Stress axis : x y z
#
# Youngs Moduli (GPa) = 62.32458 107.44829 51.02561
#
# Poissons Ratio (x) = 0.53854 0.23037
# Poissons Ratio (y) = 0.31238 0.13452
# Poissons Ratio (z) = 0.28139 0.28326
#
# Static dielectric constant tensor:
#      x y z
#    x 1.628070 0.014120 0.002920 
#    y 0.014120 1.654350 -0.020290 
#    z 0.002920 -0.020290 1.673150 
# 
# From -- ./inp_files/252015.got.cif
#   From: 2010.05.17/outbox.cif.g08.bks.cpg/sg2_127_cif.got.tgz:252015.got - 2010.06.03 11:33:40.
