data_PCOD9036594
_publ_section_title
;
Structure prediction by ZEFSAII (Michael W. Deem and Ramdas Pophale) SiO2 
 PCOD9036594
Probable space group: P -1
;
_chemical_formula_sum "Si O2"
_cell_formula_units_Z 16
_cell_length_a 11.750886
_cell_length_b 11.180212
_cell_length_c 12.211637
_cell_angle_alpha 119.435406
_cell_angle_beta 136.971218
_cell_angle_gamma 93.541303
_cell_volume 672.887303
_symmetry_space_group_name_H-M "P -1"
_symmetry_group_IT_number 2
_symmetry_cell_setting 'triclinic'
loop_
_space_group_symop_operation_xyz
x,y,z
-x,-y,-z
loop_
_atom_site_type_symbol
_atom_site_label
_atom_site_fract_x
_atom_site_fract_y
_atom_site_fract_z
Si Si1 0.136496 0.707067 0.397853
Si Si2 0.677972 0.731272 0.842093
Si Si3 0.969155 0.910210 0.321349
Si Si4 0.353247 0.320324 0.665819
Si Si5 0.605301 0.088472 0.994207
Si Si6 0.737137 0.457365 0.158103
Si Si7 0.831423 0.564079 0.756163
Si Si8 0.990047 0.154131 0.176102
O O1 0.095163 0.549354 0.223817
O O2 0.022920 0.782585 0.313776
O O3 0.008672 0.598838 0.375825
O O4 0.411003 0.903766 0.695907
O O5 0.767595 0.629018 0.837956
O O6 0.412281 0.593716 0.554857
O O7 0.727044 0.791997 0.031444
O O8 0.843002 0.926980 0.971055
O O9 0.000000 0.000000 0.500000
O O10 0.165680 0.096983 0.470887
O O11 0.308961 0.435429 0.753019
O O12 0.263474 0.291488 0.466241
O O13 0.597493 0.403746 0.921204
O O14 0.637908 0.265530 0.062296
O O15 0.854212 0.160146 0.178277
O O16 0.500000 0.000000 0.000000
O O17 0.012622 0.752831 0.890889
#
# Coordination Sequence:
#
# PCOD9036594 Si02
#       8
#     2   2   2   2   2   2   2   2
#     4  12  24  40  66  95 135 176 221 279 336 402
#     4  10  25  45  67  99 134 177 228 285 330 399
#     4  11  23  42  67  98 138 174 219 278 341 400
#     4  10  23  38  62  94 131 177 219 269 333 404
#     4  12  26  39  62  99 141 173 219 285 339 400
#     4  11  23  41  59  93 138 178 221 267 337 413
#     4  11  24  44  70  96 133 181 231 275 336 399
#     4  11  23  42  67  94 129 174 227 277 336 399
#
# _framework density 23.778129
#
# number of rings (size 3 to 8) (size 9 to 14) (size 15 to 20)
#    0.000    1.000    5.000    1.125    5.250    1.500 
#    0.000    0.000    0.000    2.250    0.000    0.000 
#    0.000    0.000    0.000    0.000    0.000    0.000 
#
# Total GULP energy -89461.096383 kJ/mol
# GULP energy per Si atom -5591.318524 kJ/mol
# Density = 2.372401 g / cm^3
# Si number density = 23.778129 Si / 1000 Ang^3
#
#
#
# Elastic Constant Matrix: (Units=GPa)
#
#
# Indices 1 2 3 4 5 6 
#
# 1 70.8201 38.8001 9.2554 14.2712 1.2572 -18.1795
# 2 38.8001 138.7506 29.3002 37.2911 -8.3414 -24.7106
# 3 9.2554 29.3002 94.4381 5.9556 3.7743 3.8352
# 4 14.2712 37.2911 5.9556 40.7072 -0.8145 -8.5533
# 5 1.2572 -8.3414 3.7743 -0.8145 23.1799 8.5281
# 6 -18.1795 -24.7106 3.8352 -8.5533 8.5281 38.3926
#
#
#
# Elastic Compliance Matrix: (Units=1/GPa)
#
#
# Indices 1 2 3 4 5 6 
#
# 1 0.018443 -0.003569 -0.000692 -0.001676 -0.004886 0.007217
# 2 -0.003569 0.011995 -0.003125 -0.008432 0.003354 0.003719
# 3 -0.000692 -0.003125 0.011775 0.000729 -0.001900 -0.002931
# 4 -0.001676 -0.008432 0.000729 0.033063 -0.002499 0.001628
# 5 -0.004886 0.003354 -0.001900 -0.002499 0.049034 -0.011413
# 6 0.007217 0.003719 -0.002931 0.001628 -0.011413 0.035048
#
#
# Mechanical properties :
#
#
# Convention : Reuss Voigt Hill
#
# Bulk Modulus (GPa) = 36.44214 50.96890 43.70552
# Shear Modulus (GPa) = 27.28079 35.56615 31.42347
#
# Velocity S-wave (km/s) = 3.39087 3.87169 3.63923
# Velocity P-wave (km/s) = 5.53984 6.43959 6.00659
#
# Compressibility (1/GPa) = 0.02744076
#
# Stress axis : x y z
#
# Youngs Moduli (GPa) = 54.22002 83.36556 84.92256
#
# Poissons Ratio (x) = 0.29755 0.05879
# Poissons Ratio (y) = 0.19352 0.26540
# Poissons Ratio (z) = 0.03753 0.26054
#
# Static dielectric constant tensor:
#      x y z
#    x 1.910680 0.007370 -0.021310 
#    y 0.007370 1.944760 -0.037230 
#    z -0.021310 -0.037230 1.953830 
# 
# From -- ./inp_files/346428.got.cif
#   From: 2010.05.17/outbox.cif.g08.bks.cpg/sg2_174_cif.got.tgz:346428.got - 2010.06.03 11:33:40.
