data_PCOD9036059
_publ_section_title
;
Structure prediction by ZEFSAII (Michael W. Deem and Ramdas Pophale) SiO2 
 PCOD9036059
Probable space group: P -1
;
_chemical_formula_sum "Si O2"
_cell_formula_units_Z 16
_cell_length_a 17.871026
_cell_length_b 8.383499
_cell_length_c 9.065245
_cell_angle_alpha 49.150271
_cell_angle_beta 141.519710
_cell_angle_gamma 116.403680
_cell_volume 632.693631
_symmetry_space_group_name_H-M "P -1"
_symmetry_group_IT_number 2
_symmetry_cell_setting 'triclinic'
loop_
_space_group_symop_operation_xyz
x,y,z
-x,-y,-z
loop_
_atom_site_type_symbol
_atom_site_label
_atom_site_fract_x
_atom_site_fract_y
_atom_site_fract_z
Si Si1 0.755650 0.261212 0.170724
Si Si2 0.455588 0.939348 0.125115
Si Si3 0.155857 0.844823 0.319445
Si Si4 0.111989 0.413690 0.390305
Si Si5 0.801235 0.904868 0.016277
Si Si6 0.435491 0.728712 0.714900
Si Si7 0.152336 0.648514 0.047519
Si Si8 0.582348 0.677020 0.702354
O O1 0.653370 0.441296 0.971760
O O2 0.683250 0.088442 0.089575
O O3 0.839898 0.157675 0.495298
O O4 0.811921 0.378715 0.052016
O O5 0.484080 0.110920 0.182712
O O6 0.539928 0.727437 0.440333
O O7 0.500000 0.000000 0.000000
O O8 0.087142 0.654545 0.271238
O O9 0.298508 0.775797 0.533240
O O10 0.124467 0.059680 0.043506
O O11 0.156979 0.268575 0.687732
O O12 0.993804 0.327066 0.198197
O O13 0.192051 0.457747 0.341898
O O14 0.806916 0.133035 0.963670
O O15 0.675985 0.833322 0.807531
O O16 0.460569 0.724334 0.581988
O O17 0.500000 0.500000 0.000000
#
# Coordination Sequence:
#
# PCOD9036059 Si02
#       8
#     2   2   2   2   2   2   2   2
#     4  12  24  45  61 103 136 174 219 283 327 389
#     4  12  24  42  62  96 139 172 223 275 320 392
#     4  11  23  41  67  94 136 170 223 269 333 395
#     4  10  22  47  71  96 126 176 224 275 338 405
#     4  11  21  45  69  95 130 175 222 272 328 412
#     4  12  22  40  64  90 127 183 218 262 322 393
#     4  10  25  43  73  98 130 166 227 286 333 385
#     4  12  24  41  64  93 134 179 218 257 335 398
#
# _framework density 25.288703999999999
#
# number of rings (size 3 to 8) (size 9 to 14) (size 15 to 20)
#    0.000    0.750    5.000    1.875    3.500    0.500 
#    6.750    0.625    0.000    0.000    0.000    0.000 
#    0.000    0.000    0.000    0.000    0.000    0.000 
#
# Total GULP energy -89447.392048 kJ/mol
# GULP energy per Si atom -5590.462003 kJ/mol
# Density = 2.523115 g / cm^3
# Si number density = 25.288704 Si / 1000 Ang^3
#
#
#
# Elastic Constant Matrix: (Units=GPa)
#
#
# Indices 1 2 3 4 5 6 
#
# 1 87.4350 25.3085 59.8744 -8.1986 -41.4140 0.3103
# 2 25.3085 97.0248 26.7683 12.9579 2.8393 20.9987
# 3 59.8744 26.7683 169.1485 1.9063 -58.9561 17.6875
# 4 -8.1986 12.9579 1.9063 47.3310 8.9437 -6.1842
# 5 -41.4140 2.8393 -58.9561 8.9437 57.7788 -3.7959
# 6 0.3103 20.9987 17.6875 -6.1842 -3.7959 25.3899
#
#
#
# Elastic Compliance Matrix: (Units=1/GPa)
#
#
# Indices 1 2 3 4 5 6 
#
# 1 0.023503 -0.009207 -0.003574 0.005900 0.013611 0.013289
# 2 -0.009207 0.017740 -0.000434 -0.007181 -0.007932 -0.017192
# 3 -0.003574 -0.000434 0.011097 -0.003520 0.008876 -0.006858
# 4 0.005900 -0.007181 -0.003520 0.026558 -0.002171 0.014464
# 5 0.013611 -0.007932 0.008876 -0.002171 0.037191 0.005242
# 6 0.013289 -0.017192 -0.006858 0.014464 0.005242 0.062526
#
#
# Mechanical properties :
#
#
# Convention : Reuss Voigt Hill
#
# Bulk Modulus (GPa) = 38.59853 64.16786 51.38319
# Shear Modulus (GPa) = 23.39938 42.21042 32.80490
#
# Velocity S-wave (km/s) = 3.04516 4.08994 3.60560
# Velocity P-wave (km/s) = 5.25930 6.90889 6.13975
#
# Compressibility (1/GPa) = 0.02590773
#
# Stress axis : x y z
#
# Youngs Moduli (GPa) = 42.54827 56.36964 90.11760
#
# Poissons Ratio (x) = 0.51899 0.32212
# Poissons Ratio (y) = 0.39174 0.03916
# Poissons Ratio (z) = 0.15209 0.02449
#
# Static dielectric constant tensor:
#      x y z
#    x 2.067610 -0.012970 -0.021340 
#    y -0.012970 2.004170 -0.092090 
#    z -0.021340 -0.092090 2.120850 
# 
# From -- ./inp_files/343352.got.cif
#   From: 2010.05.17/outbox.cif.g08.bks.cpg/sg2_172_cif.got.tgz:343352.got - 2010.06.03 11:33:40.
