data_PCOD9036572
_publ_section_title
;
Structure prediction by ZEFSAII (Michael W. Deem and Ramdas Pophale) SiO2 
 PCOD9036572
Probable space group: P -1
;
_chemical_formula_sum "Si O2"
_cell_formula_units_Z 16
_cell_length_a 11.870804
_cell_length_b 14.423675
_cell_length_c 8.621853
_cell_angle_alpha 31.575427
_cell_angle_beta 98.931588
_cell_angle_gamma 85.998917
_cell_volume 702.955567
_symmetry_space_group_name_H-M "P -1"
_symmetry_group_IT_number 2
_symmetry_cell_setting 'triclinic'
loop_
_space_group_symop_operation_xyz
x,y,z
-x,-y,-z
loop_
_atom_site_type_symbol
_atom_site_label
_atom_site_fract_x
_atom_site_fract_y
_atom_site_fract_z
Si Si1 0.488243 0.920025 0.442113
Si Si2 0.754299 0.356275 0.609927
Si Si3 0.968888 0.921080 0.948014
Si Si4 0.691534 0.044376 0.193866
Si Si5 0.262880 0.873421 0.562700
Si Si6 0.322888 0.504670 0.944231
Si Si7 0.137387 0.372684 0.265287
Si Si8 0.131596 0.393887 0.589169
O O1 0.564074 0.006398 0.222317
O O2 0.344898 0.953273 0.356057
O O3 0.500000 0.000000 0.500000
O O4 0.558902 0.689487 0.778417
O O5 0.721385 0.375021 0.394806
O O6 0.759544 0.561276 0.366945
O O7 0.895689 0.217076 0.884201
O O8 0.675544 0.248667 0.825499
O O9 0.879621 0.074227 0.591072
O O10 0.881750 0.808460 0.130129
O O11 0.000000 0.000000 0.000000
O O12 0.801781 0.861423 0.398997
O O13 0.730165 0.053012 0.368666
O O14 0.329253 0.644153 0.883118
O O15 0.219527 0.429589 0.080543
O O16 0.141980 0.439654 0.346634
O O17 0.000000 0.500000 0.000000
O O18 0.000000 0.500000 0.500000
#
# Coordination Sequence:
#
# PCOD9036572 Si02
#       8
#     2   2   2   2   2   2   2   2
#     4   9  22  45  69  94 129 180 231 276 333 395
#     4  11  23  40  63 102 136 171 221 272 341 400
#     4  11  22  38  64  99 136 175 213 273 339 398
#     4  10  24  42  67  97 137 175 226 280 333 400
#     4  11  23  41  71  94 134 179 229 271 339 398
#     4  11  23  41  70  96 133 178 222 280 331 399
#     4  11  23  38  62  96 135 177 222 272 334 404
#     4  10  23  38  61  92 139 175 218 265 329 399
#
# _framework density 22.761040999999999
#
# number of rings (size 3 to 8) (size 9 to 14) (size 15 to 20)
#    0.000    1.500    1.250    3.375   10.500    0.500 
#    0.000    3.125    2.750    0.000    0.000    0.000 
#    0.000    0.000    0.000    0.000    0.000    0.000 
#
# Total GULP energy -89165.420113 kJ/mol
# GULP energy per Si atom -5572.838757 kJ/mol
# Density = 2.270924 g / cm^3
# Si number density = 22.761041 Si / 1000 Ang^3
#
#
#
# Elastic Constant Matrix: (Units=GPa)
#
#
# Indices 1 2 3 4 5 6 
#
# 1 74.2840 5.0160 35.3885 0.7748 3.2910 -6.8112
# 2 5.0160 105.8077 14.4342 -12.1132 11.7136 -6.9002
# 3 35.3885 14.4342 51.3656 -5.0913 -16.6550 -5.3916
# 4 0.7748 -12.1132 -5.0913 25.0666 10.5291 -14.6442
# 5 3.2910 11.7136 -16.6550 10.5291 28.1281 -1.7950
# 6 -6.8112 -6.9002 -5.3916 -14.6442 -1.7950 27.1183
#
#
#
# Elastic Compliance Matrix: (Units=1/GPa)
#
#
# Indices 1 2 3 4 5 6 
#
# 1 0.028680 0.008105 -0.028881 0.014908 -0.028795 0.009668
# 2 0.008105 0.017786 -0.014729 0.025122 -0.025490 0.015512
# 3 -0.028881 -0.014729 0.057110 -0.019883 0.050321 -0.007053
# 4 0.014908 0.025122 -0.019883 0.108558 -0.060736 0.060786
# 5 -0.028795 -0.025490 0.050321 -0.060736 0.100159 -0.029882
# 6 0.009668 0.015512 -0.007053 0.060786 -0.029882 0.072695
#
#
# Mechanical properties :
#
#
# Convention : Reuss Voigt Hill
#
# Bulk Modulus (GPa) = 30.70638 37.90386 34.30512
# Shear Modulus (GPa) = 10.71001 27.83718 19.27359
#
# Velocity S-wave (km/s) = 2.17155 3.50096 2.91311
# Velocity P-wave (km/s) = 4.45057 5.74730 5.13999
#
# Compressibility (1/GPa) = 0.03256652
#
# Stress axis : x y z
#
# Youngs Moduli (GPa) = 34.86752 56.22496 17.51004
#
# Poissons Ratio (x) = -0.45572 0.50571
# Poissons Ratio (y) = -0.28261 0.25790
# Poissons Ratio (z) = 1.00701 0.82813
#
# Static dielectric constant tensor:
#      x y z
#    x 1.857500 -0.011750 -0.017690 
#    y -0.011750 1.940430 -0.125070 
#    z -0.017690 -0.125070 1.797220 
# 
# From -- ./inp_files/271381.got.cif
#   From: 2010.05.17/outbox.cif.g08.bks.cpg/sg2_136_cif.got.tgz:271381.got - 2010.06.03 11:33:40.
