data_PCOD9036093
_publ_section_title
;
Structure prediction by ZEFSAII (Michael W. Deem and Ramdas Pophale) SiO2 
 PCOD9036093
Probable space group: P -1
;
_chemical_formula_sum "Si O2"
_cell_formula_units_Z 12
_cell_length_a 23.727155
_cell_length_b 8.495742
_cell_length_c 5.126164
_cell_angle_alpha 57.632473
_cell_angle_beta 135.354947
_cell_angle_gamma 138.327961
_cell_volume 482.765466
_symmetry_space_group_name_H-M "P -1"
_symmetry_group_IT_number 2
_symmetry_cell_setting 'triclinic'
loop_
_space_group_symop_operation_xyz
x,y,z
-x,-y,-z
loop_
_atom_site_type_symbol
_atom_site_label
_atom_site_fract_x
_atom_site_fract_y
_atom_site_fract_z
Si Si1 0.293015 0.391114 0.862771
Si Si2 0.404291 0.846756 0.024213
Si Si3 0.891348 0.822253 0.937003
Si Si4 0.182848 0.959068 0.189603
Si Si5 0.484795 0.682670 0.877997
Si Si6 0.120759 0.635553 0.764002
O O1 0.201779 0.237954 0.496385
O O2 0.403948 0.542365 0.967741
O O3 0.298644 0.613416 0.782220
O O4 0.281280 0.217933 0.195956
O O5 0.434026 0.747463 0.440612
O O6 0.407571 0.061676 0.942021
O O7 0.500000 0.000000 0.000000
O O8 0.889569 0.959653 0.059596
O O9 0.869000 0.568615 0.095706
O O10 0.000000 0.000000 0.000000
O O11 0.173232 0.826059 0.536149
O O12 0.158146 0.781879 0.029130
O O13 0.500000 0.500000 0.000000
O O14 0.000000 0.500000 0.500000
#
# Coordination Sequence:
#
# PCOD9036093 Si02
#       6
#     2   2   2   2   2   2
#     4  11  24  47  69 111 152 195 255 316 376 458
#     4   9  21  43  69 101 144 183 245 307 376 450
#     4  12  27  49  78 107 158 208 251 325 379 445
#     4  12  26  50  69 113 150 197 261 317 374 460
#     4  10  22  47  73 104 145 196 244 313 386 458
#     4  12  27  47  76 107 148 207 266 312 383 451
#
# _framework density 24.856791000000001
#
# number of rings (size 3 to 8) (size 9 to 14) (size 15 to 20)
#    0.000    1.000    3.333    1.500    2.333    4.000 
#   18.000    0.000    0.000    0.000    0.000    0.000 
#    0.000    0.000    0.000    0.000    0.000    0.000 
#
# Total GULP energy -66993.941333 kJ/mol
# GULP energy per Si atom -5582.828444 kJ/mol
# Density = 2.480022 g / cm^3
# Si number density = 24.856791 Si / 1000 Ang^3
#
#
#
# Elastic Constant Matrix: (Units=GPa)
#
#
# Indices 1 2 3 4 5 6 
#
# 1 124.9854 80.5930 43.2825 -34.1962 -21.0556 -12.4963
# 2 80.5930 236.5793 53.4153 -30.2913 -8.0933 -19.5909
# 3 43.2825 53.4153 48.2755 -23.0683 -8.6171 -1.2736
# 4 -34.1962 -30.2913 -23.0683 51.9172 -4.9214 3.6265
# 5 -21.0556 -8.0933 -8.6171 -4.9214 38.3769 -12.2151
# 6 -12.4963 -19.5909 -1.2736 3.6265 -12.2151 60.3658
#
#
#
# Elastic Compliance Matrix: (Units=1/GPa)
#
#
# Indices 1 2 3 4 5 6 
#
# 1 0.015256 -0.002342 -0.006459 0.006357 0.008379 0.003576
# 2 -0.002342 0.006196 -0.004999 -0.000308 -0.000729 0.001291
# 3 -0.006459 -0.004999 0.037634 0.010112 0.004560 -0.001850
# 4 0.006357 -0.000308 0.010112 0.028581 0.009905 0.001717
# 5 0.008379 -0.000729 0.004560 0.009905 0.035393 0.008161
# 6 0.003576 0.001291 -0.001850 0.001717 0.008161 0.019234
#
#
# Mechanical properties :
#
#
# Convention : Reuss Voigt Hill
#
# Bulk Modulus (GPa) = 31.76064 84.93574 58.34819
# Shear Modulus (GPa) = 27.71755 45.63527 36.67641
#
# Velocity S-wave (km/s) = 3.34292 4.28942 3.84540
# Velocity P-wave (km/s) = 5.26358 7.66658 6.57578
#
# Compressibility (1/GPa) = 0.03148552
#
# Stress axis : x y z
#
# Youngs Moduli (GPa) = 65.54592 161.39287 26.57142
#
# Poissons Ratio (x) = 0.37801 0.17163
# Poissons Ratio (y) = 0.15352 0.13284
# Poissons Ratio (z) = 0.42338 0.80684
#
# Static dielectric constant tensor:
#      x y z
#    x 2.086250 -0.026110 0.074680 
#    y -0.026110 1.843900 -0.039420 
#    z 0.074680 -0.039420 1.993330 
# 
# From -- ./inp_files/121972.got.cif
#   From: 2010.05.17/outbox.cif.g08.bks.cpg/sg2_61_cif.got.tgz:121972.got - 2010.06.03 11:33:40.
