data_PCOD9036787
_publ_section_title
;
Structure prediction by ZEFSAII (Michael W. Deem and Ramdas Pophale) SiO2 
 PCOD9036787
Probable space group: P -1
;
_chemical_formula_sum "Si O2"
_cell_formula_units_Z 16
_cell_length_a 22.281987
_cell_length_b 22.467786
_cell_length_c 5.212080
_cell_angle_alpha 77.364522
_cell_angle_beta 84.238323
_cell_angle_gamma 18.816976
_cell_volume 772.638570
_symmetry_space_group_name_H-M "P -1"
_symmetry_group_IT_number 2
_symmetry_cell_setting 'triclinic'
loop_
_space_group_symop_operation_xyz
x,y,z
-x,-y,-z
loop_
_atom_site_type_symbol
_atom_site_label
_atom_site_fract_x
_atom_site_fract_y
_atom_site_fract_z
Si Si1 0.079695 0.491813 0.926520
Si Si2 0.997229 0.234484 0.816800
Si Si3 0.274526 0.739425 0.376866
Si Si4 0.504298 0.038782 0.212627
Si Si5 0.085107 0.290211 0.707443
Si Si6 0.045814 0.031568 0.583322
Si Si7 0.208244 0.615966 0.754782
Si Si8 0.320721 0.825771 0.013891
O O1 0.040051 0.552153 0.598950
O O2 0.000000 0.500000 0.000000
O O3 0.977075 0.632595 0.050250
O O4 0.311554 0.265848 0.086185
O O5 0.872742 0.327232 0.542228
O O6 0.057856 0.244919 0.721090
O O7 0.866005 0.356303 0.013957
O O8 0.193085 0.005140 0.001923
O O9 0.500000 0.500000 0.500000
O O10 0.181602 0.845752 0.593689
O O11 0.271131 0.808357 0.180124
O O12 0.113698 0.843470 0.263229
O O13 0.695227 0.897009 0.255378
O O14 0.500000 0.000000 0.500000
O O15 0.500000 0.000000 0.000000
O O16 0.216879 0.914416 0.700965
O O17 0.894402 0.219008 0.305870
O O18 0.445348 0.391328 0.871197
#
# Coordination Sequence:
#
# PCOD9036787 Si02
#       8
#     2   2   2   2   2   2   2   2
#     4  12  23  42  72 101 138 171 214 270 337 387
#     4  11  27  45  67  94 135 179 230 271 325 394
#     4  11  21  39  64 100 129 169 221 280 345 404
#     4  12  23  40  69 103 133 173 213 264 334 395
#     4  12  25  44  66 102 137 176 221 275 324 401
#     4  10  23  39  62 100 131 167 221 281 342 402
#     4  11  24  45  69  94 129 181 231 273 333 394
#     4  11  24  42  68  90 137 177 221 281 339 388
#
# _framework density 20.708259999999999
#
# number of rings (size 3 to 8) (size 9 to 14) (size 15 to 20)
#    0.000    0.750    5.000    2.250    1.750    2.500 
#    0.000    0.000    0.000    0.000    0.000    0.000 
#    0.000    0.000    0.000    0.000    0.000    0.000 
#
# Total GULP energy -89283.421004 kJ/mol
# GULP energy per Si atom -5580.213813 kJ/mol
# Density = 2.066113 g / cm^3
# Si number density = 20.708260 Si / 1000 Ang^3
#
#
#
# Elastic Constant Matrix: (Units=GPa)
#
#
# Indices 1 2 3 4 5 6 
#
# 1 107.8150 38.6032 26.3402 -16.9869 -9.9238 -19.8961
# 2 38.6032 120.3568 25.3024 -28.9682 15.6365 -32.0671
# 3 26.3402 25.3024 76.3133 -8.0136 -0.3668 -22.6852
# 4 -16.9869 -28.9682 -8.0136 44.5003 -5.5658 8.0030
# 5 -9.9238 15.6365 -0.3668 -5.5658 32.3821 0.3831
# 6 -19.8961 -32.0671 -22.6852 8.0030 0.3831 35.1640
#
#
#
# Elastic Compliance Matrix: (Units=1/GPa)
#
#
# Indices 1 2 3 4 5 6 
#
# 1 0.012213 -0.002977 -0.002319 0.002638 0.005584 0.002038
# 2 -0.002977 0.014151 -0.000172 0.005385 -0.006940 0.009959
# 3 -0.002319 -0.000172 0.016746 0.000289 -0.000498 0.009275
# 4 0.002638 0.005385 0.000289 0.027340 0.002907 0.000336
# 5 0.005584 -0.006940 -0.000498 0.002907 0.036491 -0.004550
# 6 0.002038 0.009959 0.009275 0.000336 -0.004550 0.044630
#
#
# Mechanical properties :
#
#
# Convention : Reuss Voigt Hill
#
# Bulk Modulus (GPa) = 31.07949 53.88630 42.48289
# Shear Modulus (GPa) = 28.86318 36.69190 32.77754
#
# Velocity S-wave (km/s) = 3.73741 4.21390 3.98279
# Velocity P-wave (km/s) = 5.80217 7.05366 6.45830
#
# Compressibility (1/GPa) = 0.03217556
#
# Stress axis : x y z
#
# Youngs Moduli (GPa) = 81.87745 70.66697 59.71587
#
# Poissons Ratio (x) = 0.21039 0.13846
# Poissons Ratio (y) = 0.24376 0.01024
# Poissons Ratio (z) = 0.18984 0.01212
#
# Static dielectric constant tensor:
#      x y z
#    x 1.794270 0.044410 0.039000 
#    y 0.044410 1.728580 0.056190 
#    z 0.039000 0.056190 1.809570 
# 
# From -- ./inp_files/120375.got.cif
#   From: 2010.05.17/outbox.cif.g08.bks.cpg/sg2_61_cif.got.tgz:120375.got - 2010.06.03 11:33:40.
