data_PCOD9036032
_publ_section_title
;
Structure prediction by ZEFSAII (Michael W. Deem and Ramdas Pophale) SiO2 
 PCOD9036032
Probable space group: P -1
;
_chemical_formula_sum "Si O2"
_cell_formula_units_Z 12
_cell_length_a 14.083907
_cell_length_b 6.547950
_cell_length_c 8.122852
_cell_angle_alpha 125.280219
_cell_angle_beta 114.268456
_cell_angle_gamma 91.531496
_cell_volume 521.184779
_symmetry_space_group_name_H-M "P -1"
_symmetry_group_IT_number 2
_symmetry_cell_setting 'triclinic'
loop_
_space_group_symop_operation_xyz
x,y,z
-x,-y,-z
loop_
_atom_site_type_symbol
_atom_site_label
_atom_site_fract_x
_atom_site_fract_y
_atom_site_fract_z
Si Si1 0.125087 0.657173 0.098524
Si Si2 0.804625 0.701356 0.835141
Si Si3 0.086752 0.774500 0.759316
Si Si4 0.538456 0.809385 0.219507
Si Si5 0.417772 0.208117 0.368178
Si Si6 0.774086 0.156935 0.426385
O O1 0.207210 0.489364 0.105332
O O2 0.171740 0.884113 0.378922
O O3 0.124082 0.698489 0.925310
O O4 0.000000 0.500000 0.000000
O O5 0.704070 0.799985 0.772363
O O6 0.800686 0.479142 0.592443
O O7 0.921831 0.942401 0.057123
O O8 0.170336 0.890893 0.720860
O O9 0.000000 0.500000 0.500000
O O10 0.571445 0.816722 0.439162
O O11 0.451159 0.963579 0.208698
O O12 0.645491 0.983719 0.271040
O O13 0.500000 0.500000 0.000000
O O14 0.500000 0.500000 0.500000
#
# Coordination Sequence:
#
# PCOD9036032 Si02
#       6
#     2   2   2   2   2   2
#     4  10  22  47  70 102 146 186 239 295 358 429
#     4  10  25  45  68 103 147 184 239 297 357 432
#     4  12  24  44  73 104 140 191 237 296 367 424
#     4  11  26  45  73 110 142 189 246 301 354 435
#     4  11  23  47  74 100 149 191 237 299 369 422
#     4  10  24  47  68 106 143 188 238 293 361 427
#
# _framework density 23.024460999999999
#
# number of rings (size 3 to 8) (size 9 to 14) (size 15 to 20)
#    1.000    0.333    3.333    1.000    2.333    5.333 
#    6.000    0.000    0.000    0.000    0.000    0.000 
#    0.000    0.000    0.000    0.000    0.000    0.000 
#
# Total GULP energy -66803.015576 kJ/mol
# GULP energy per Si atom -5566.917965 kJ/mol
# Density = 2.297206 g / cm^3
# Si number density = 23.024461 Si / 1000 Ang^3
#
#
#
# Elastic Constant Matrix: (Units=GPa)
#
#
# Indices 1 2 3 4 5 6 
#
# 1 91.1646 36.4611 42.4315 -2.3489 -14.6649 14.7130
# 2 36.4611 108.9366 38.4679 -17.1861 -19.5926 -4.2093
# 3 42.4315 38.4679 121.1569 11.1663 -17.6464 4.7153
# 4 -2.3489 -17.1861 11.1663 59.0505 -3.0588 -1.7860
# 5 -14.6649 -19.5926 -17.6464 -3.0588 19.2711 -2.3905
# 6 14.7130 -4.2093 4.7153 -1.7860 -2.3905 42.1726
#
#
#
# Elastic Compliance Matrix: (Units=1/GPa)
#
#
# Indices 1 2 3 4 5 6 
#
# 1 0.015494 -0.003201 -0.003569 0.000451 0.004715 -0.005040
# 2 -0.003201 0.013968 -0.002336 0.005052 0.010875 0.003603
# 3 -0.003569 -0.002336 0.011183 -0.002695 0.004712 -0.000086
# 4 0.000451 0.005052 -0.002695 0.019314 0.006304 0.001823
# 5 0.004715 0.010875 0.004712 0.006304 0.072257 0.003277
# 6 -0.005040 0.003603 -0.000086 0.001823 0.003277 0.026102
#
#
# Mechanical properties :
#
#
# Convention : Reuss Voigt Hill
#
# Bulk Modulus (GPa) = 44.57543 61.77544 53.17543
# Shear Modulus (GPa) = 27.17290 37.69201 32.43246
#
# Velocity S-wave (km/s) = 3.43909 4.05043 3.75722
# Velocity P-wave (km/s) = 5.93059 6.98307 6.47824
#
# Compressibility (1/GPa) = 0.02243389
#
# Stress axis : x y z
#
# Youngs Moduli (GPa) = 64.54182 71.59245 89.42079
#
# Poissons Ratio (x) = 0.22918 0.31911
# Poissons Ratio (y) = 0.20661 0.20885
# Poissons Ratio (z) = 0.23033 0.16721
#
# Static dielectric constant tensor:
#      x y z
#    x 1.895390 -0.029350 0.002460 
#    y -0.029350 2.023770 0.102280 
#    z 0.002460 0.102280 1.961140 
# 
# From -- ./inp_files/286628.got.cif
#   From: 2010.05.17/outbox.cif.g08.bks.cpg/sg2_144_cif.got.tgz:286628.got - 2010.06.03 11:33:40.
