data_PCOD9036725
_publ_section_title
;
Structure prediction by ZEFSAII (Michael W. Deem and Ramdas Pophale) SiO2 
 PCOD9036725
Probable space group: P -1
;
_chemical_formula_sum "Si O2"
_cell_formula_units_Z 16
_cell_length_a 26.464358
_cell_length_b 5.011280
_cell_length_c 7.073899
_cell_angle_alpha 63.568908
_cell_angle_beta 127.576594
_cell_angle_gamma 104.549464
_cell_volume 665.524658
_symmetry_space_group_name_H-M "P -1"
_symmetry_group_IT_number 2
_symmetry_cell_setting 'triclinic'
loop_
_space_group_symop_operation_xyz
x,y,z
-x,-y,-z
loop_
_atom_site_type_symbol
_atom_site_label
_atom_site_fract_x
_atom_site_fract_y
_atom_site_fract_z
Si Si1 0.963031 0.324184 0.678113
Si Si2 0.620103 0.490507 0.023913
Si Si3 0.359988 0.189628 0.647364
Si Si4 0.777088 0.754306 0.566671
Si Si5 0.141216 0.277294 0.883574
Si Si6 0.052830 0.798494 0.907591
Si Si7 0.756801 0.440589 0.233855
Si Si8 0.511198 0.651565 0.179655
O O1 0.914577 0.495346 0.379021
O O2 0.020806 0.524367 0.820014
O O3 0.926458 0.267353 0.808828
O O4 0.994224 0.037912 0.737085
O O5 0.624502 0.742320 0.116310
O O6 0.680907 0.513852 0.019713
O O7 0.547195 0.471295 0.791799
O O8 0.632987 0.165547 0.255248
O O9 0.286239 0.281896 0.437975
O O10 0.413482 0.365616 0.599107
O O11 0.774285 0.522686 0.463575
O O12 0.771002 0.086769 0.358541
O O13 0.836992 0.713021 0.852646
O O14 0.200827 0.359109 0.865687
O O15 0.109723 0.957828 0.881989
O O16 0.500000 0.500000 0.000000
O O17 0.500000 0.000000 0.000000
#
# Coordination Sequence:
#
# PCOD9036725 Si02
#       8
#     2   2   2   2   2   2   2   2
#     4  10  23  42  63  88 116 145 185 235 281 332
#     4   8  14  27  45  70 104 140 182 230 275 323
#     4   8  14  27  45  70 104 140 182 230 275 323
#     4  10  23  39  56  84 120 153 191 237 282 337
#     4  12  24  40  66  89 116 156 192 226 286 345
#     4  10  23  42  63  88 116 145 185 235 281 332
#     4  10  23  39  56  84 120 153 191 237 282 337
#     4   8  12  20  42  69  94 135 184 224 272 325
#
# _framework density 24.041184000000001
#
# number of rings (size 3 to 8) (size 9 to 14) (size 15 to 20)
#    0.000    2.500    0.000    1.500    0.000    8.000 
#    0.000    0.000    0.000    0.750    0.000    0.000 
#    0.000   30.000    0.000    0.000    0.000    4.000 
#
# Total GULP energy -89391.992333 kJ/mol
# GULP energy per Si atom -5586.999521 kJ/mol
# Density = 2.398647 g / cm^3
# Si number density = 24.041184 Si / 1000 Ang^3
#
#
#
# Elastic Constant Matrix: (Units=GPa)
#
#
# Indices 1 2 3 4 5 6 
#
# 1 107.8614 33.1033 19.5872 -7.8689 -4.6507 38.6954
# 2 33.1033 105.6502 14.2311 2.3975 6.9515 8.4995
# 3 19.5872 14.2311 69.4386 17.3288 5.0426 12.9070
# 4 -7.8689 2.3975 17.3288 20.9884 4.4851 5.9657
# 5 -4.6507 6.9515 5.0426 4.4851 20.9429 -3.5229
# 6 38.6954 8.4995 12.9070 5.9657 -3.5229 55.6864
#
#
#
# Elastic Compliance Matrix: (Units=1/GPa)
#
#
# Indices 1 2 3 4 5 6 
#
# 1 0.016484 -0.003968 -0.005359 0.013876 0.001446 -0.011001
# 2 -0.003968 0.010990 -0.000642 -0.001733 -0.003806 0.001173
# 3 -0.005359 -0.000642 0.020724 -0.018938 -0.001753 0.000937
# 4 0.013876 -0.001733 -0.018938 0.074709 -0.010076 -0.013629
# 5 0.001446 -0.003806 -0.001753 -0.010076 0.052652 0.004393
# 6 -0.011001 0.001173 0.000937 -0.013629 0.004393 0.026944
#
#
# Mechanical properties :
#
#
# Convention : Reuss Voigt Hill
#
# Bulk Modulus (GPa) = 35.38778 46.31038 40.84908
# Shear Modulus (GPa) = 21.56457 33.92545 27.74501
#
# Velocity S-wave (km/s) = 2.99822 3.76059 3.40083
# Velocity P-wave (km/s) = 5.17082 6.17744 5.69641
#
# Compressibility (1/GPa) = 0.02825834
#
# Stress axis : x y z
#
# Youngs Moduli (GPa) = 60.66652 90.98927 48.25326
#
# Poissons Ratio (x) = 0.36103 0.25861
# Poissons Ratio (y) = 0.24071 0.03100
# Poissons Ratio (z) = 0.32514 0.05846
#
# Static dielectric constant tensor:
#      x y z
#    x 2.006510 0.063920 0.018930 
#    y 0.063920 1.880990 -0.004120 
#    z 0.018930 -0.004120 1.898320 
# 
# From -- ./inp_files/355949.got.cif
#   From: 2010.05.17/outbox.cif.g08.bks.cpg/sg2_178_cif.got.tgz:355949.got - 2010.06.03 11:33:40.
