data_PCOD9036509
_publ_section_title
;
Structure prediction by ZEFSAII (Michael W. Deem and Ramdas Pophale) SiO2 
 PCOD9036509
Probable space group: P -1
;
_chemical_formula_sum "Si O2"
_cell_formula_units_Z 16
_cell_length_a 9.181349
_cell_length_b 12.776599
_cell_length_c 11.826225
_cell_angle_alpha 110.934814
_cell_angle_beta 130.234311
_cell_angle_gamma 108.985814
_cell_volume 619.045252
_symmetry_space_group_name_H-M "P -1"
_symmetry_group_IT_number 2
_symmetry_cell_setting 'triclinic'
loop_
_space_group_symop_operation_xyz
x,y,z
-x,-y,-z
loop_
_atom_site_type_symbol
_atom_site_label
_atom_site_fract_x
_atom_site_fract_y
_atom_site_fract_z
Si Si1 0.655751 0.190018 0.180661
Si Si2 0.116940 0.007287 0.724047
Si Si3 0.890727 0.565821 0.689662
Si Si4 0.200795 0.493326 0.935053
Si Si5 0.898349 0.783285 0.343386
Si Si6 0.313341 0.063091 0.419159
Si Si7 0.917805 0.264371 0.915707
Si Si8 0.624094 0.830199 0.742200
O O1 0.552903 0.185668 0.250760
O O2 0.975691 0.342664 0.332738
O O3 0.449513 0.182130 0.000768
O O4 0.500000 0.000000 0.000000
O O5 0.004440 0.068777 0.629295
O O6 0.105880 0.892523 0.598952
O O7 0.855679 0.893433 0.641874
O O8 0.540953 0.366876 0.423312
O O9 0.058616 0.533719 0.816173
O O10 0.979916 0.691217 0.885387
O O11 0.106420 0.337533 0.761739
O O12 0.118963 0.437690 0.004105
O O13 0.563868 0.662831 0.171286
O O14 0.570956 0.148207 0.672551
O O15 0.478051 0.151088 0.414754
O O16 0.080544 0.856234 0.189729
O O17 0.000000 0.000000 0.000000
#
# Coordination Sequence:
#
# PCOD9036509 Si02
#       8
#     2   2   2   2   2   2   2   2
#     4  12  28  49  73 101 138 201 253 295 350 432
#     4  11  22  42  68  97 142 183 232 299 358 420
#     4  12  26  46  73 105 148 187 246 303 361 429
#     4  11  21  39  64 107 142 177 219 296 367 441
#     4  10  23  37  66 105 141 174 229 290 376 425
#     4  11  23  43  70 104 143 187 233 294 360 440
#     4  11  24  40  72 108 142 182 231 296 373 433
#     4  12  27  49  73  99 144 196 246 298 358 423
#
# _framework density 25.846252
#
# number of rings (size 3 to 8) (size 9 to 14) (size 15 to 20)
#    0.000    0.750    5.000    2.250    5.250    0.000 
#    0.000    2.500    0.000    0.000    0.000    0.000 
#    0.000    0.000    0.000    0.000    0.000    0.000 
#
# Total GULP energy -89316.562441 kJ/mol
# GULP energy per Si atom -5582.285153 kJ/mol
# Density = 2.578743 g / cm^3
# Si number density = 25.846252 Si / 1000 Ang^3
#
#
#
# Elastic Constant Matrix: (Units=GPa)
#
#
# Indices 1 2 3 4 5 6 
#
# 1 81.3602 -5.4346 35.6565 4.6611 -12.4473 3.7873
# 2 -5.4346 47.6173 0.0806 11.0332 5.1213 10.5315
# 3 35.6565 0.0806 110.9482 7.0957 -3.4084 7.1775
# 4 4.6611 11.0332 7.0957 29.0909 1.9754 2.4497
# 5 -12.4473 5.1213 -3.4084 1.9754 52.0114 3.6514
# 6 3.7873 10.5315 7.1775 2.4497 3.6514 33.6231
#
#
#
# Elastic Compliance Matrix: (Units=1/GPa)
#
#
# Indices 1 2 3 4 5 6 
#
# 1 0.015132 0.002269 -0.004512 -0.002271 0.003304 -0.001646
# 2 0.002269 0.025161 0.000293 -0.009283 -0.001042 -0.007410
# 3 -0.004512 0.000293 0.010684 -0.001836 -0.000219 -0.001707
# 4 -0.002271 -0.009283 -0.001836 0.038721 -0.001282 0.000873
# 5 0.003304 -0.001042 -0.000219 -0.001282 0.020302 -0.002110
# 6 -0.001646 -0.007410 -0.001707 0.000873 -0.002110 0.032778
#
#
# Mechanical properties :
#
#
# Convention : Reuss Voigt Hill
#
# Bulk Modulus (GPa) = 21.24059 33.39228 27.31644
# Shear Modulus (GPa) = 30.79407 36.91996 33.85701
#
# Velocity S-wave (km/s) = 3.45546 3.78358 3.62323
# Velocity P-wave (km/s) = 4.91489 5.65994 5.30052
#
# Compressibility (1/GPa) = 0.04707967
#
# Stress axis : x y z
#
# Youngs Moduli (GPa) = 66.08508 39.74379 93.59753
#
# Poissons Ratio (x) = -0.09019 0.42227
# Poissons Ratio (y) = -0.14997 -0.02747
# Poissons Ratio (z) = 0.29815 -0.01166
#
# Static dielectric constant tensor:
#      x y z
#    x 2.540280 0.302140 -0.114390 
#    y 0.302140 2.270710 -0.093070 
#    z -0.114390 -0.093070 2.067150 
# 
# From -- ./inp_files/399475.got.cif
#   From: 2010.05.17/outbox.cif.g08.bks.cpg/sg2_200_cif.got.tgz:399475.got - 2010.06.03 11:33:40.
