data_PCOD9036256
_publ_section_title
;
Structure prediction by ZEFSAII (Michael W. Deem and Ramdas Pophale) SiO2 
 PCOD9036256
Probable space group: P -1
;
_chemical_formula_sum "Si O2"
_cell_formula_units_Z 14
_cell_length_a 5.397233
_cell_length_b 21.922398
_cell_length_c 6.465720
_cell_angle_alpha 106.760155
_cell_angle_beta 97.862625
_cell_angle_gamma 58.424640
_cell_volume 623.984142
_symmetry_space_group_name_H-M "P -1"
_symmetry_group_IT_number 2
_symmetry_cell_setting 'triclinic'
loop_
_space_group_symop_operation_xyz
x,y,z
-x,-y,-z
loop_
_atom_site_type_symbol
_atom_site_label
_atom_site_fract_x
_atom_site_fract_y
_atom_site_fract_z
Si Si1 0.032004 0.226684 0.290751
Si Si2 0.368331 0.674858 0.025135
Si Si3 0.172407 0.921218 0.327280
Si Si4 0.355212 0.566160 0.218616
Si Si5 0.546102 0.229050 0.542543
Si Si6 0.712262 0.548153 0.635028
Si Si7 0.632074 0.921986 0.054527
O O1 0.227967 0.257531 0.439275
O O2 0.872383 0.271936 0.111872
O O3 0.788309 0.226345 0.410518
O O4 0.262923 0.143601 0.162516
O O5 0.631222 0.611327 0.856310
O O6 0.243546 0.636382 0.125375
O O7 0.472176 0.719366 0.220285
O O8 0.343370 0.852932 0.436205
O O9 0.398458 0.921720 0.186915
O O10 0.924317 0.909071 0.186013
O O11 0.000000 0.000000 0.500000
O O12 0.497726 0.585279 0.449961
O O13 0.249073 0.522067 0.301370
O O14 0.500000 0.500000 0.000000
O O15 0.000000 0.500000 0.500000
O O16 0.500000 0.000000 0.000000
#
# Coordination Sequence:
#
# PCOD9036256 Si02
#       7
#     2   2   2   2   2   2   2
#     4  12  27  50  73 110 155 197 261 310 381 449
#     4  11  25  49  71 110 150 196 246 314 382 451
#     4  12  24  45  74 110 152 201 256 312 379 443
#     4   9  21  46  69 102 139 181 237 298 370 448
#     4  12  27  50  73 108 154 202 251 318 377 454
#     4  10  22  48  74 108 138 188 248 303 377 454
#     4  12  24  45  75 109 152 200 256 321 368 445
#
# _framework density 22.436464999999998
#
# number of rings (size 3 to 8) (size 9 to 14) (size 15 to 20)
#    0.000    0.857    1.429    5.143    0.000    2.286 
#   33.429    0.000    0.000    0.000    0.000    0.000 
#    0.000    0.000    0.000    0.000    0.000    0.000 
#
# Total GULP energy -78050.339695 kJ/mol
# GULP energy per Si atom -5575.024264 kJ/mol
# Density = 2.238540 g / cm^3
# Si number density = 22.436465 Si / 1000 Ang^3
#
#
#
# Elastic Constant Matrix: (Units=GPa)
#
#
# Indices 1 2 3 4 5 6 
#
# 1 166.7317 44.0190 94.6896 -6.2599 -27.1679 21.1492
# 2 44.0190 153.1958 73.6027 -8.8917 -10.8187 20.6878
# 3 94.6896 73.6027 178.7941 3.8659 -7.8494 15.3478
# 4 -6.2599 -8.8917 3.8659 59.1084 2.8958 -2.7755
# 5 -27.1679 -10.8187 -7.8494 2.8958 61.8259 -12.2060
# 6 21.1492 20.6878 15.3478 -2.7755 -12.2060 25.7670
#
#
#
# Elastic Compliance Matrix: (Units=1/GPa)
#
#
# Indices 1 2 3 4 5 6 
#
# 1 0.009634 0.000321 -0.004802 0.001062 0.002874 -0.003829
# 2 0.000321 0.008847 -0.003394 0.001338 0.000186 -0.005113
# 3 -0.004802 -0.003394 0.009490 -0.001563 -0.001389 0.000187
# 4 0.001062 0.001338 -0.001563 0.017378 -0.000157 0.000783
# 5 0.002874 0.000186 -0.001389 -0.000157 0.018716 0.007168
# 6 -0.003829 -0.005113 0.000187 0.000783 0.007168 0.049425
#
#
# Mechanical properties :
#
#
# Convention : Reuss Voigt Hill
#
# Bulk Modulus (GPa) = 81.82892 102.59381 92.21136
# Shear Modulus (GPa) = 37.50499 48.43430 42.96965
#
# Velocity S-wave (km/s) = 4.09297 4.65126 4.38101
# Velocity P-wave (km/s) = 7.67379 8.64125 8.17185
#
# Compressibility (1/GPa) = 0.01222062
#
# Stress axis : x y z
#
# Youngs Moduli (GPa) = 103.79616 113.03029 105.37160
#
# Poissons Ratio (x) = -0.03625 0.50604
# Poissons Ratio (y) = -0.03329 0.35761
# Poissons Ratio (z) = 0.49848 0.38360
#
# Static dielectric constant tensor:
#      x y z
#    x 1.722590 -0.077110 0.035810 
#    y -0.077110 1.761000 0.014440 
#    z 0.035810 0.014440 1.750130 
# 
# From -- ./inp_files/11553.got.cif
#   From: 2010.05.17/outbox.cif.g08.bks.cpg/sg2_6_cif.got.tgz:11553.got - 2010.06.03 11:33:40.
