data_PCOD9036866
_publ_section_title
;
Structure prediction by ZEFSAII (Michael W. Deem and Ramdas Pophale) SiO2 
 PCOD9036866
Probable space group: P -1
;
_chemical_formula_sum "Si O2"
_cell_formula_units_Z 14
_cell_length_a 23.543342
_cell_length_b 6.679657
_cell_length_c 17.993515
_cell_angle_alpha 44.731547
_cell_angle_beta 159.345785
_cell_angle_gamma 123.719854
_cell_volume 630.258838
_symmetry_space_group_name_H-M "P -1"
_symmetry_group_IT_number 2
_symmetry_cell_setting 'triclinic'
loop_
_space_group_symop_operation_xyz
x,y,z
-x,-y,-z
loop_
_atom_site_type_symbol
_atom_site_label
_atom_site_fract_x
_atom_site_fract_y
_atom_site_fract_z
Si Si1 0.387141 0.786473 0.838773
Si Si2 0.595941 0.622646 0.819268
Si Si3 0.324773 0.789260 0.245865
Si Si4 0.940601 0.887474 0.033886
Si Si5 0.101978 0.702758 0.598079
Si Si6 0.822556 0.328349 0.046485
Si Si7 0.332006 0.454175 0.621308
O O1 0.215973 0.733963 0.661423
O O2 0.329366 0.155240 0.652600
O O3 0.500000 0.500000 0.000000
O O4 0.513642 0.703987 0.087437
O O5 0.409870 0.647538 0.615425
O O6 0.602581 0.949597 0.727216
O O7 0.756753 0.449892 0.121737
O O8 0.642123 0.446078 0.843488
O O9 0.500000 0.500000 0.500000
O O10 0.187455 0.844239 0.995125
O O11 0.200047 0.844534 0.153184
O O12 0.864523 0.624309 0.001029
O O13 0.142216 0.672408 0.369204
O O14 0.000000 0.000000 0.000000
O O15 0.000000 0.500000 0.500000
O O16 0.965718 0.070458 0.345013
#
# Coordination Sequence:
#
# PCOD9036866 Si02
#       7
#     2   2   2   2   2   2   2
#     4  10  23  39  64  96 138 172 211 276 327 406
#     4  10  24  41  69  99 136 177 215 279 344 402
#     4  11  27  47  68 100 131 177 237 282 332 400
#     4  11  27  47  70  95 133 182 228 285 337 394
#     4  11  21  40  65 103 132 173 219 266 340 404
#     4  11  24  44  70  96 134 174 224 283 331 410
#     4  10  23  42  63  98 133 175 220 266 341 398
#
# _framework density 22.213096
#
# number of rings (size 3 to 8) (size 9 to 14) (size 15 to 20)
#    0.000    1.429    2.857    0.429    8.000    1.714 
#    0.000    0.000    0.000    0.000    0.000    0.000 
#    0.000    0.000    0.000    0.000    0.000    0.000 
#
# Total GULP energy -77973.849059 kJ/mol
# GULP energy per Si atom -5569.560647 kJ/mol
# Density = 2.216254 g / cm^3
# Si number density = 22.213096 Si / 1000 Ang^3
#
#
#
# Elastic Constant Matrix: (Units=GPa)
#
#
# Indices 1 2 3 4 5 6 
#
# 1 114.1582 57.9095 40.5050 -1.6824 37.3529 -0.3154
# 2 57.9095 90.2675 19.9724 5.4034 19.3645 5.2186
# 3 40.5050 19.9724 99.7582 -3.7819 27.6504 4.0525
# 4 -1.6824 5.4034 -3.7819 38.7099 -2.3854 6.9816
# 5 37.3529 19.3645 27.6504 -2.3854 50.3239 0.8090
# 6 -0.3154 5.2186 4.0525 6.9816 0.8090 33.9722
#
#
#
# Elastic Compliance Matrix: (Units=1/GPa)
#
#
# Indices 1 2 3 4 5 6 
#
# 1 0.016599 -0.008557 -0.003032 0.000836 -0.007352 0.001834
# 2 -0.008557 0.016861 0.000187 -0.002329 -0.000314 -0.002206
# 3 -0.003032 0.000187 0.012624 0.001089 -0.004680 -0.001675
# 4 0.000836 -0.002329 0.001089 0.027342 0.001060 -0.005409
# 5 -0.007352 -0.000314 -0.004680 0.001060 0.028076 -0.000348
# 6 0.001834 -0.002206 -0.001675 -0.005409 -0.000348 0.031111
#
#
# Mechanical properties :
#
#
# Convention : Reuss Voigt Hill
#
# Bulk Modulus (GPa) = 42.95298 60.10642 51.52970
# Shear Modulus (GPa) = 30.64158 36.98764 33.81461
#
# Velocity S-wave (km/s) = 3.71811 4.08502 3.90588
# Velocity P-wave (km/s) = 6.14908 7.02621 6.60223
#
# Compressibility (1/GPa) = 0.02328127
#
# Stress axis : x y z
#
# Youngs Moduli (GPa) = 60.24370 59.30945 79.21363
#
# Poissons Ratio (x) = 0.50751 0.24014
# Poissons Ratio (y) = 0.51551 -0.01483
# Poissons Ratio (z) = 0.18263 -0.01110
#
# Static dielectric constant tensor:
#      x y z
#    x 1.790100 0.054600 -0.149140 
#    y 0.054600 1.682310 0.042840 
#    z -0.149140 0.042840 1.730510 
# 
# From -- ./inp_files/27675.got.cif
#   From: 2010.05.17/outbox.cif.g08.bks.cpg/sg2_14_cif.got.tgz:27675.got - 2010.06.03 11:33:40.
