data_PCOD9036784
_publ_section_title
;
Structure prediction by ZEFSAII (Michael W. Deem and Ramdas Pophale) SiO2 
 PCOD9036784
Probable space group: P -1
;
_chemical_formula_sum "Si O2"
_cell_formula_units_Z 16
_cell_length_a 18.872300
_cell_length_b 11.680192
_cell_length_c 10.584658
_cell_angle_alpha 141.442912
_cell_angle_beta 146.419536
_cell_angle_gamma 30.895763
_cell_volume 643.891905
_symmetry_space_group_name_H-M "P -1"
_symmetry_group_IT_number 2
_symmetry_cell_setting 'triclinic'
loop_
_space_group_symop_operation_xyz
x,y,z
-x,-y,-z
loop_
_atom_site_type_symbol
_atom_site_label
_atom_site_fract_x
_atom_site_fract_y
_atom_site_fract_z
Si Si1 0.319523 0.417548 0.621252
Si Si2 0.382026 0.668496 0.118006
Si Si3 0.775342 0.848008 0.599805
Si Si4 0.357407 0.517213 0.370111
Si Si5 0.493142 0.982860 0.825071
Si Si6 0.689733 0.171416 0.236749
Si Si7 0.997011 0.258704 0.728130
Si Si8 0.073607 0.527146 0.911168
O O1 0.507526 0.292232 0.769128
O O2 0.299185 0.227689 0.472002
O O3 0.189608 0.570308 0.449303
O O4 0.285816 0.599274 0.836129
O O5 0.530809 0.432691 0.199198
O O6 0.267151 0.902716 0.224850
O O7 0.689425 0.855781 0.352215
O O8 0.958854 0.653945 0.732179
O O9 0.500000 0.500000 0.500000
O O10 0.440437 0.268548 0.345654
O O11 0.263222 0.764988 0.509422
O O12 0.231328 0.505994 0.094526
O O13 0.500000 0.000000 0.000000
O O14 0.605561 0.046553 0.995728
O O15 0.860271 0.014774 0.284340
O O16 0.987771 0.338131 0.927714
O O17 0.076704 0.313819 0.779397
#
# Coordination Sequence:
#
# PCOD9036784 Si02
#       8
#     2   2   2   2   2   2   2   2
#     4  10  23  39  61  99 145 183 218 267 341 417
#     4  11  23  37  63 103 137 184 223 267 342 422
#     4  11  24  43  67  96 140 177 226 293 340 402
#     4  12  25  45  72 100 131 183 246 288 335 404
#     4  12  25  47  70  96 133 181 241 288 342 405
#     4  12  24  41  72 102 139 182 228 286 343 413
#     4  10  23  42  68 105 145 183 217 280 352 419
#     4  10  24  44  69 105 143 182 225 281 352 411
#
# _framework density 24.848891999999999
#
# number of rings (size 3 to 8) (size 9 to 14) (size 15 to 20)
#    0.000    1.000    5.000    1.125    5.250    2.000 
#    0.000    1.250    2.750    0.000    0.000    0.000 
#    0.000    0.000    0.000    0.000    0.000    0.000 
#
# Total GULP energy -89108.046442 kJ/mol
# GULP energy per Si atom -5569.252903 kJ/mol
# Density = 2.479233 g / cm^3
# Si number density = 24.848892 Si / 1000 Ang^3
#
#
#
# Elastic Constant Matrix: (Units=GPa)
#
#
# Indices 1 2 3 4 5 6 
#
# 1 24.7103 13.9111 13.0386 1.9540 5.0344 -0.2438
# 2 13.9111 108.3335 39.4743 5.0690 -7.6477 10.0110
# 3 13.0386 39.4743 119.8842 -24.1351 3.3719 4.5445
# 4 1.9540 5.0690 -24.1351 51.4678 8.4896 -3.8676
# 5 5.0344 -7.6477 3.3719 8.4896 48.9206 2.2944
# 6 -0.2438 10.0110 4.5445 -3.8676 2.2944 22.4102
#
#
#
# Elastic Compliance Matrix: (Units=1/GPa)
#
#
# Indices 1 2 3 4 5 6 
#
# 1 0.046643 -0.005278 -0.003703 -0.001836 -0.005231 0.003835
# 2 -0.005278 0.012444 -0.004226 -0.004067 0.003760 -0.005846
# 3 -0.003703 -0.004226 0.011445 0.006352 -0.002211 0.000849
# 4 -0.001836 -0.004067 0.006352 0.024148 -0.005320 0.005221
# 5 -0.005231 0.003760 -0.002211 -0.005320 0.022856 -0.004546
# 6 0.003835 -0.005846 0.000849 0.005221 -0.004546 0.048470
#
#
# Mechanical properties :
#
#
# Convention : Reuss Voigt Hill
#
# Bulk Modulus (GPa) = 22.66679 42.86401 32.76540
# Shear Modulus (GPa) = 24.13977 36.99332 30.56654
#
# Velocity S-wave (km/s) = 3.12021 3.86259 3.51108
# Velocity P-wave (km/s) = 4.70347 6.09755 5.44531
#
# Compressibility (1/GPa) = 0.04411741
#
# Stress axis : x y z
#
# Youngs Moduli (GPa) = 21.43946 80.35708 87.37810
#
# Poissons Ratio (x) = 0.42412 0.32356
# Poissons Ratio (y) = 0.11315 0.36929
# Poissons Ratio (z) = 0.07939 0.33962
#
# Static dielectric constant tensor:
#      x y z
#    x 2.051480 0.125100 -0.280490 
#    y 0.125100 2.048160 0.172720 
#    z -0.280490 0.172720 1.061200 
# 
# From -- ./inp_files/471240.got.cif
#   From: 2010.05.17/outbox.cif.g08.bks.cpg/sg2_236_cif.got.tgz:471240.got - 2010.06.03 11:33:40.
