data_PCOD9036602
_publ_section_title
;
Structure prediction by ZEFSAII (Michael W. Deem and Ramdas Pophale) SiO2 
 PCOD9036602
Probable space group: P -1
;
_chemical_formula_sum "Si O2"
_cell_formula_units_Z 16
_cell_length_a 12.707042
_cell_length_b 11.297665
_cell_length_c 15.213296
_cell_angle_alpha 119.578188
_cell_angle_beta 151.063207
_cell_angle_gamma 81.735779
_cell_volume 669.532203
_symmetry_space_group_name_H-M "P -1"
_symmetry_group_IT_number 2
_symmetry_cell_setting 'triclinic'
loop_
_space_group_symop_operation_xyz
x,y,z
-x,-y,-z
loop_
_atom_site_type_symbol
_atom_site_label
_atom_site_fract_x
_atom_site_fract_y
_atom_site_fract_z
Si Si1 0.258031 0.675859 0.004535
Si Si2 0.693545 0.055753 0.554891
Si Si3 0.330413 0.614032 0.745431
Si Si4 0.863923 0.710090 0.607158
Si Si5 0.755248 0.916866 0.714373
Si Si6 0.426729 0.048331 0.055602
Si Si7 0.321648 0.282941 0.799849
Si Si8 0.103567 0.762052 0.404627
O O1 0.563399 0.756366 0.209983
O O2 0.402196 0.834209 0.242076
O O3 0.054317 0.680028 0.791375
O O4 0.063082 0.455756 0.802183
O O5 0.545923 0.141321 0.492102
O O6 0.912366 0.165042 0.671839
O O7 0.848820 0.059852 0.755930
O O8 0.354911 0.470008 0.680117
O O9 0.422761 0.744324 0.780204
O O10 0.000000 0.500000 0.500000
O O11 0.550034 0.740893 0.031136
O O12 0.716320 0.754502 0.579809
O O13 0.079743 0.878278 0.757387
O O14 0.000000 0.000000 0.000000
O O15 0.550027 0.084661 0.259027
O O16 0.500000 0.000000 0.000000
O O17 0.009929 0.202854 0.578743
O O18 0.500000 0.500000 0.000000
#
# Coordination Sequence:
#
# PCOD9036602 Si02
#       8
#     2   2   2   2   2   2   2   2
#     4  11  21  44  67  99 141 187 219 279 344 407
#     4  11  26  48  72 100 135 179 237 297 347 412
#     4  12  22  41  60  96 141 181 227 272 322 411
#     4  12  24  42  70  96 137 183 231 285 346 405
#     4  11  25  49  76  97 132 180 234 298 362 407
#     4  12  23  37  65 100 137 189 229 268 331 413
#     4  10  23  38  62  98 144 184 218 268 335 405
#     4  11  24  43  65 103 144 178 233 280 338 418
#
# _framework density 23.897282000000001
#
# number of rings (size 3 to 8) (size 9 to 14) (size 15 to 20)
#    0.000    0.750    6.250    0.750    5.250    0.500 
#    0.000    4.375    0.000    0.000    0.000    0.000 
#    0.000    0.000    0.000    0.000    0.000    0.000 
#
# Total GULP energy -89292.905412 kJ/mol
# GULP energy per Si atom -5580.806588 kJ/mol
# Density = 2.384289 g / cm^3
# Si number density = 23.897282 Si / 1000 Ang^3
#
#
#
# Elastic Constant Matrix: (Units=GPa)
#
#
# Indices 1 2 3 4 5 6 
#
# 1 95.9198 38.5842 20.5590 7.8832 -13.8804 -15.8576
# 2 38.5842 111.5858 45.0492 -1.1162 -2.2487 -1.0244
# 3 20.5590 45.0492 57.8344 8.9605 -12.3284 6.7353
# 4 7.8832 -1.1162 8.9605 45.9130 5.2108 -9.5615
# 5 -13.8804 -2.2487 -12.3284 5.2108 25.2317 -1.9763
# 6 -15.8576 -1.0244 6.7353 -9.5615 -1.9763 56.4770
#
#
#
# Elastic Compliance Matrix: (Units=1/GPa)
#
#
# Indices 1 2 3 4 5 6 
#
# 1 0.014443 -0.005118 0.000754 -0.002980 0.008761 0.003674
# 2 -0.005118 0.016074 -0.013531 0.005142 -0.008976 0.001025
# 3 0.000754 -0.013531 0.033363 -0.009981 0.017172 -0.005101
# 4 -0.002980 0.005142 -0.009981 0.026584 -0.011191 0.004556
# 5 0.008761 -0.008976 0.017172 -0.011191 0.054374 0.000257
# 6 0.003674 0.001025 -0.005101 0.004556 0.000257 0.020145
#
#
# Mechanical properties :
#
#
# Convention : Reuss Voigt Hill
#
# Bulk Modulus (GPa) = 35.59946 52.63609 44.11777
# Shear Modulus (GPa) = 23.79417 36.26752 30.03085
#
# Velocity S-wave (km/s) = 3.15887 3.89992 3.54879
# Velocity P-wave (km/s) = 5.31355 6.50791 5.94082
#
# Compressibility (1/GPa) = 0.02809032
#
# Stress axis : x y z
#
# Youngs Moduli (GPa) = 69.23947 62.21293 29.97310
#
# Poissons Ratio (x) = 0.31839 -0.02259
# Poissons Ratio (y) = 0.35435 0.40555
# Poissons Ratio (z) = -0.05218 0.84177
#
# Static dielectric constant tensor:
#      x y z
#    x 0.470510 -0.431700 -0.807570 
#    y -0.431700 2.001770 -0.341410 
#    z -0.807570 -0.341410 1.542870 
# 
# From -- ./inp_files/519879.got.cif
#   From: 2010.05.17/outbox.cif.g08.bks.cpg/sg2_260_cif.got.tgz:519879.got - 2010.06.03 11:33:40.
