data_PCOD9036417
_publ_section_title
;
Structure prediction by ZEFSAII (Michael W. Deem and Ramdas Pophale) SiO2 
 PCOD9036417
Probable space group: P -1
;
_chemical_formula_sum "Si O2"
_cell_formula_units_Z 16
_cell_length_a 13.984529
_cell_length_b 11.279475
_cell_length_c 13.626227
_cell_angle_alpha 31.216177
_cell_angle_beta 127.123404
_cell_angle_gamma 138.429609
_cell_volume 735.025384
_symmetry_space_group_name_H-M "P -1"
_symmetry_group_IT_number 2
_symmetry_cell_setting 'triclinic'
loop_
_space_group_symop_operation_xyz
x,y,z
-x,-y,-z
loop_
_atom_site_type_symbol
_atom_site_label
_atom_site_fract_x
_atom_site_fract_y
_atom_site_fract_z
Si Si1 0.320705 0.408659 0.687857
Si Si2 0.337304 0.332908 0.977546
Si Si3 0.137278 0.423716 0.047793
Si Si4 0.071679 0.306286 0.871951
Si Si5 0.195241 0.716627 0.335205
Si Si6 0.839275 0.124201 0.158298
Si Si7 0.579676 0.436792 0.787910
Si Si8 0.653684 0.194736 0.841775
O O1 0.320061 0.292960 0.877196
O O2 0.235110 0.551678 0.546635
O O3 0.489643 0.573069 0.646480
O O4 0.244481 0.189812 0.706247
O O5 0.243831 0.459011 0.854514
O O6 0.500000 0.500000 0.000000
O O7 0.261119 0.027125 0.191299
O O8 0.272696 0.412604 0.166452
O O9 0.008663 0.256531 0.164663
O O10 0.060277 0.288859 0.994027
O O11 0.188284 0.745671 0.856512
O O12 0.973971 0.412096 0.698385
O O13 0.000000 0.000000 0.000000
O O14 0.285868 0.743802 0.273775
O O15 0.784792 0.239403 0.957993
O O16 0.609057 0.385199 0.731167
O O17 0.478171 0.123909 0.992409
#
# Coordination Sequence:
#
# PCOD9036417 Si02
#       8
#     2   2   2   2   2   2   2   2
#     4  11  22  40  60  90 120 159 196 240 306 357
#     4  11  23  42  65  86 118 158 203 250 292 344
#     4  10  17  32  63  87 113 156 201 244 300 343
#     4  10  21  37  59  87 114 161 203 241 291 351
#     4  11  22  39  63  86 122 158 198 246 294 362
#     4   9  17  33  60  87 117 153 193 246 295 361
#     4   9  18  31  59  88 116 156 194 241 295 363
#     4   9  16  34  57  85 118 157 195 231 303 360
#
# _framework density 21.767956000000002
#
# number of rings (size 3 to 8) (size 9 to 14) (size 15 to 20)
#    0.000    2.000    3.750    2.250    0.000    1.500 
#    0.000    1.875    0.000    0.000    0.000    0.000 
#    0.000    0.000    0.000    0.000    0.000    0.000 
#
# Total GULP energy -89079.275301 kJ/mol
# GULP energy per Si atom -5567.454706 kJ/mol
# Density = 2.171841 g / cm^3
# Si number density = 21.767956 Si / 1000 Ang^3
#
#
#
# Elastic Constant Matrix: (Units=GPa)
#
#
# Indices 1 2 3 4 5 6 
#
# 1 93.0352 18.1256 12.7403 11.5240 30.6294 25.4223
# 2 18.1256 115.2062 25.8690 10.6747 17.5506 27.5485
# 3 12.7403 25.8690 48.7008 13.6215 27.9583 7.9742
# 4 11.5240 10.6747 13.6215 13.7922 8.4550 10.8957
# 5 30.6294 17.5506 27.9583 8.4550 31.2100 14.1782
# 6 25.4223 27.5485 7.9742 10.8957 14.1782 52.5285
#
#
#
# Elastic Compliance Matrix: (Units=1/GPa)
#
#
# Indices 1 2 3 4 5 6 
#
# 1 0.020573 -0.000796 0.016293 -0.013254 -0.030248 -0.001099
# 2 -0.000796 0.011068 -0.006661 0.001334 0.002611 -0.005390
# 3 0.016293 -0.006661 0.069470 -0.045556 -0.067977 0.012859
# 4 -0.013254 0.001334 -0.045556 0.127039 0.028361 -0.021376
# 5 -0.030248 0.002611 -0.067977 0.028361 0.120160 -0.014726
# 6 -0.001099 -0.005390 0.012859 -0.021376 -0.014726 0.028852
#
#
# Mechanical properties :
#
#
# Convention : Reuss Voigt Hill
#
# Bulk Modulus (GPa) = 8.41865 41.15688 24.78777
# Shear Modulus (GPa) = 12.52863 32.85328 22.69096
#
# Velocity S-wave (km/s) = 2.40167 3.88912 3.23213
# Velocity P-wave (km/s) = 3.40096 6.25421 5.03397
#
# Compressibility (1/GPa) = 0.11878385
#
# Stress axis : x y z
#
# Youngs Moduli (GPa) = 48.60723 90.34714 14.39463
#
# Poissons Ratio (x) = 0.07196 -0.23453
# Poissons Ratio (y) = 0.03871 0.09588
# Poissons Ratio (z) = -0.79197 0.60178
#
# Static dielectric constant tensor:
#      x y z
#    x 1.927060 -0.020940 0.021650 
#    y -0.020940 1.824200 -0.018510 
#    z 0.021650 -0.018510 1.844590 
# 
# From -- ./inp_files/331872.got.cif
#   From: 2010.05.17/outbox.cif.g08.bks.cpg/sg2_166_cif.got.tgz:331872.got - 2010.06.03 11:33:40.
