data_PCOD9036223
_publ_section_title
;
Structure prediction by ZEFSAII (Michael W. Deem and Ramdas Pophale) SiO2 
 PCOD9036223
Probable space group: P -1
;
_chemical_formula_sum "Si O2"
_cell_formula_units_Z 13
_cell_length_a 12.572501
_cell_length_b 16.351866
_cell_length_c 6.988771
_cell_angle_alpha 80.242634
_cell_angle_beta 86.136858
_cell_angle_gamma 24.650594
_cell_volume 577.314260
_symmetry_space_group_name_H-M "P -1"
_symmetry_group_IT_number 2
_symmetry_cell_setting 'triclinic'
loop_
_space_group_symop_operation_xyz
x,y,z
-x,-y,-z
loop_
_atom_site_type_symbol
_atom_site_label
_atom_site_fract_x
_atom_site_fract_y
_atom_site_fract_z
Si Si1 0.254760 0.152838 0.337493
Si Si2 0.153931 0.327446 0.914251
Si Si3 0.769555 0.315572 0.650903
Si Si4 0.069664 0.869286 0.928497
Si Si5 0.168786 0.532403 0.436574
Si Si6 0.000000 0.000000 0.500000
Si Si7 0.409592 0.878085 0.281991
O O1 0.005349 0.364034 0.396528
O O2 0.500000 0.000000 0.500000
O O3 0.254931 0.053740 0.359268
O O4 0.270679 0.179881 0.113045
O O5 0.369490 0.225089 0.809896
O O6 0.962624 0.418312 0.749850
O O7 0.000000 0.500000 0.000000
O O8 0.500000 0.500000 0.500000
O O9 0.844737 0.359197 0.621496
O O10 0.953239 0.115762 0.606482
O O11 0.742147 0.313107 0.880374
O O12 0.140253 0.847931 0.716662
O O13 0.798875 0.011411 0.880249
O O14 0.000000 0.000000 0.000000
O O15 0.455387 0.291488 0.544211
#
# Coordination Sequence:
#
# PCOD9036223 Si02
#       7
#     2   2   2   2   2   1   2
#     4  12  25  42  70  99 136 189 232 287 346 411
#     4  12  25  46  68 103 142 189 234 286 345 412
#     4  11  25  46  72 103 140 179 231 290 347 418
#     4  10  23  45  69 101 133 178 229 283 346 411
#     4  12  25  45  68 104 142 181 235 287 346 417
#     4  10  22  48  72 100 136 176 230 284 352 410
#     4  12  24  46  70  99 145 183 233 289 346 415
#
# _framework density 22.518063999999999
#
# number of rings (size 3 to 8) (size 9 to 14) (size 15 to 20)
#    0.000    0.615    3.077    5.538    2.154    0.615 
#   11.077    0.000    0.000    0.000    0.000    0.000 
#    0.000    0.000    0.000    0.000    0.000    0.000 
#
# Total GULP energy -72395.936209 kJ/mol
# GULP energy per Si atom -5568.918170 kJ/mol
# Density = 2.246681 g / cm^3
# Si number density = 22.518064 Si / 1000 Ang^3
#
#
#
# Elastic Constant Matrix: (Units=GPa)
#
#
# Indices 1 2 3 4 5 6 
#
# 1 105.3507 28.9234 51.2586 -1.4363 22.8392 31.5061
# 2 28.9234 92.3195 37.0724 -3.2310 3.2206 31.4386
# 3 51.2586 37.0724 201.3376 -15.3295 -3.3537 15.6319
# 4 -1.4363 -3.2310 -15.3295 45.8545 10.3891 4.9545
# 5 22.8392 3.2206 -3.3537 10.3891 57.0335 -4.8390
# 6 31.5061 31.4386 15.6319 4.9545 -4.8390 31.6157
#
#
#
# Elastic Compliance Matrix: (Units=1/GPa)
#
#
# Indices 1 2 3 4 5 6 
#
# 1 0.020302 0.004354 -0.003821 0.005035 -0.011660 -0.025246
# 2 0.004354 0.018785 -0.002512 0.004445 -0.005743 -0.023352
# 3 -0.003821 -0.002512 0.006245 0.000935 0.002158 0.003401
# 4 0.005035 0.004445 0.000935 0.026112 -0.008263 -0.015256
# 5 -0.011660 -0.005743 0.002158 -0.008263 0.025986 0.021536
# 6 -0.025246 -0.023352 0.003401 -0.015256 0.021536 0.084015
#
#
# Mechanical properties :
#
#
# Convention : Reuss Voigt Hill
#
# Bulk Modulus (GPa) = 24.16941 70.39074 47.28007
# Shear Modulus (GPa) = 25.10116 45.68432 35.39274
#
# Velocity S-wave (km/s) = 3.34235 4.50909 3.96883
# Velocity P-wave (km/s) = 5.06475 7.64439 6.48415
#
# Compressibility (1/GPa) = 0.04137462
#
# Stress axis : x y z
#
# Youngs Moduli (GPa) = 49.25533 53.23500 160.12523
#
# Poissons Ratio (x) = -0.23179 0.61188
# Poissons Ratio (y) = -0.21446 0.40216
# Poissons Ratio (z) = 0.18822 0.13370
#
# Static dielectric constant tensor:
#      x y z
#    x 1.923850 -0.064980 -0.050510 
#    y -0.064980 1.922470 -0.025930 
#    z -0.050510 -0.025930 1.772760 
# 
# From -- ./inp_files/77880.got.cif
#   From: 2010.05.17/outbox.cif.g08.bks.cpg/sg2_39_cif.got.tgz:77880.got - 2010.06.03 11:33:40.
