data_PCOD9036114
_publ_section_title
;
Structure prediction by ZEFSAII (Michael W. Deem and Ramdas Pophale) SiO2 
 PCOD9036114
Probable space group: P -1
;
_chemical_formula_sum "Si O2"
_cell_formula_units_Z 12
_cell_length_a 5.157372
_cell_length_b 7.963034
_cell_length_c 12.350566
_cell_angle_alpha 69.208272
_cell_angle_beta 96.135102
_cell_angle_gamma 72.679541
_cell_volume 439.657886
_symmetry_space_group_name_H-M "P -1"
_symmetry_group_IT_number 2
_symmetry_cell_setting 'triclinic'
loop_
_space_group_symop_operation_xyz
x,y,z
-x,-y,-z
loop_
_atom_site_type_symbol
_atom_site_label
_atom_site_fract_x
_atom_site_fract_y
_atom_site_fract_z
Si Si1 0.314545 0.361232 0.697827
Si Si2 0.907251 0.907242 0.359481
Si Si3 0.335162 0.734022 0.861665
Si Si4 0.599665 0.237309 0.445027
Si Si5 0.322346 0.869936 0.052033
Si Si6 0.133093 0.392605 0.239127
O O1 0.205379 0.266493 0.616810
O O2 0.355497 0.560596 0.623846
O O3 0.584082 0.224534 0.805311
O O4 0.066866 0.406801 0.766641
O O5 0.236542 0.829784 0.419264
O O6 0.787520 0.035537 0.219101
O O7 0.761932 0.063852 0.409899
O O8 0.612265 0.639547 0.823902
O O9 0.082695 0.678594 0.817618
O O10 0.388284 0.709796 0.996633
O O11 0.283594 0.279203 0.380819
O O12 0.500000 0.000000 0.000000
O O13 0.000000 0.000000 0.000000
#
# Coordination Sequence:
#
# PCOD9036114 Si02
#       6
#     2   2   2   2   2   2
#     4  12  25  46  77 110 149 192 254 299 369 440
#     4  10  22  47  74 107 153 193 242 307 360 439
#     4  11  24  49  71 108 146 202 238 302 368 429
#     4  10  24  47  72 112 146 198 243 300 370 433
#     4  12  28  47  76 112 147 193 249 306 367 438
#     4  11  24  47  72 107 151 187 251 296 364 439
#
# _framework density 27.293952000000001
#
# number of rings (size 3 to 8) (size 9 to 14) (size 15 to 20)
#    0.000    1.000    5.000    1.500    4.667    2.667 
#    3.000    0.000    0.000    0.000    0.000    0.000 
#    0.000    0.000    0.000    0.000    0.000    0.000 
#
# Total GULP energy -67224.646404 kJ/mol
# GULP energy per Si atom -5602.053867 kJ/mol
# Density = 2.723183 g / cm^3
# Si number density = 27.293952 Si / 1000 Ang^3
#
#
#
# Elastic Constant Matrix: (Units=GPa)
#
#
# Indices 1 2 3 4 5 6 
#
# 1 191.4781 52.6981 43.5457 0.8887 33.0311 2.0490
# 2 52.6981 138.7889 44.9021 5.4601 3.7123 27.2665
# 3 43.5457 44.9021 150.0588 16.8946 18.1471 2.5232
# 4 0.8887 5.4601 16.8946 47.4773 6.1197 9.1397
# 5 33.0311 3.7123 18.1471 6.1197 43.4127 2.7043
# 6 2.0490 27.2665 2.5232 9.1397 2.7043 51.9686
#
#
#
# Elastic Compliance Matrix: (Units=1/GPa)
#
#
# Indices 1 2 3 4 5 6 
#
# 1 0.006923 -0.002513 -0.000777 0.000841 -0.004921 0.001191
# 2 -0.002513 0.009900 -0.002486 0.000487 0.002359 -0.005183
# 3 -0.000777 -0.002486 0.008184 -0.002602 -0.002345 0.001517
# 4 0.000841 0.000487 -0.002602 0.023035 -0.002587 -0.004079
# 5 -0.004921 0.002359 -0.002345 -0.002587 0.028042 -0.001934
# 6 0.001191 -0.005183 0.001517 -0.004079 -0.001934 0.022659
#
#
# Mechanical properties :
#
#
# Convention : Reuss Voigt Hill
#
# Bulk Modulus (GPa) = 74.31721 84.73529 79.52625
# Shear Modulus (GPa) = 43.56168 51.18373 47.37270
#
# Velocity S-wave (km/s) = 3.99936 4.33515 4.17063
# Velocity P-wave (km/s) = 6.97238 7.49472 7.23826
#
# Compressibility (1/GPa) = 0.01345583
#
# Stress axis : x y z
#
# Youngs Moduli (GPa) = 144.44771 101.01491 122.18440
#
# Poissons Ratio (x) = 0.25384 0.09490
# Poissons Ratio (y) = 0.36298 0.30374
# Poissons Ratio (z) = 0.11219 0.25112
#
# Static dielectric constant tensor:
#      x y z
#    x 2.110200 0.003410 -0.049720 
#    y 0.003410 2.145110 -0.033620 
#    z -0.049720 -0.033620 2.144370 
# 
# From -- ./inp_files/479727.got.cif
#   From: 2010.05.17/outbox.cif.g08.bks.cpg/sg2_240_cif.got.tgz:479727.got - 2010.06.03 11:33:40.
