data_PCOD9036463
_publ_section_title
;
Structure prediction by ZEFSAII (Michael W. Deem and Ramdas Pophale) SiO2 
 PCOD9036463
Probable space group: P -1
;
_chemical_formula_sum "Si O2"
_cell_formula_units_Z 14
_cell_length_a 5.350152
_cell_length_b 18.124562
_cell_length_c 7.816094
_cell_angle_alpha 107.229223
_cell_angle_beta 71.995481
_cell_angle_gamma 122.918105
_cell_volume 597.224337
_symmetry_space_group_name_H-M "P -1"
_symmetry_group_IT_number 2
_symmetry_cell_setting 'triclinic'
loop_
_space_group_symop_operation_xyz
x,y,z
-x,-y,-z
loop_
_atom_site_type_symbol
_atom_site_label
_atom_site_fract_x
_atom_site_fract_y
_atom_site_fract_z
Si Si1 0.613517 0.830285 0.715812
Si Si2 0.760102 0.031844 0.765185
Si Si3 0.670950 0.603898 0.579513
Si Si4 0.983981 0.303092 0.784408
Si Si5 0.655863 0.796535 0.312726
Si Si6 0.157288 0.656371 0.817290
Si Si7 0.847106 0.056556 0.135541
O O1 0.544654 0.779155 0.518664
O O2 0.342564 0.764682 0.847492
O O3 0.930800 0.853676 0.753495
O O4 0.687384 0.930333 0.728913
O O5 0.081045 0.100105 0.670708
O O6 0.441112 0.010300 0.736791
O O7 0.762497 0.075217 0.978788
O O8 0.500000 0.500000 0.500000
O O9 0.413847 0.629536 0.703031
O O10 0.855591 0.653247 0.400794
O O11 0.900034 0.623026 0.703167
O O12 0.633637 0.232242 0.763563
O O13 0.170911 0.258407 0.791530
O O14 0.974753 0.366950 0.978177
O O15 0.000000 0.000000 0.000000
#
# Coordination Sequence:
#
# PCOD9036463 Si02
#       7
#     2   2   2   2   2   2   2
#     4  11  23  40  64  95 140 191 243 294 355 408
#     4  10  23  37  60  94 135 199 247 295 349 414
#     4  12  27  53  81 112 146 182 236 300 372 457
#     4  12  27  49  73 113 149 189 244 298 363 436
#     4  12  26  43  68 101 152 191 250 302 345 423
#     4  12  27  47  79 111 148 195 231 302 367 428
#     4   9  21  37  56  91 133 184 253 297 348 410
#
# _framework density 23.441776000000001
#
# number of rings (size 3 to 8) (size 9 to 14) (size 15 to 20)
#    0.000    0.857    2.857    2.571   14.000    1.714 
#    0.000    0.000    0.000    0.000    0.000    0.000 
#    0.000    0.000    0.000    0.000    0.000    0.000 
#
# Total GULP energy -78090.754497 kJ/mol
# GULP energy per Si atom -5577.911036 kJ/mol
# Density = 2.338842 g / cm^3
# Si number density = 23.441776 Si / 1000 Ang^3
#
#
#
# Elastic Constant Matrix: (Units=GPa)
#
#
# Indices 1 2 3 4 5 6 
#
# 1 123.9591 31.6730 47.2305 12.8841 -11.5447 15.4956
# 2 31.6730 71.5095 10.0934 19.9470 -8.4977 9.2958
# 3 47.2305 10.0934 151.9784 1.5151 -5.1553 1.8352
# 4 12.8841 19.9470 1.5151 22.3034 3.7473 -2.7928
# 5 -11.5447 -8.4977 -5.1553 3.7473 35.1782 11.9355
# 6 15.4956 9.2958 1.8352 -2.7928 11.9355 24.9216
#
#
#
# Elastic Compliance Matrix: (Units=1/GPa)
#
#
# Indices 1 2 3 4 5 6 
#
# 1 0.013139 0.001114 -0.003514 -0.011902 0.010282 -0.014584
# 2 0.001114 0.027333 -0.000972 -0.030883 0.017862 -0.022832
# 3 -0.003514 -0.000972 0.007612 0.003051 -0.001657 0.003122
# 4 -0.011902 -0.030883 0.003051 0.091023 -0.036321 0.046290
# 5 0.010282 0.017862 -0.001657 -0.036321 0.054342 -0.043029
# 6 -0.014584 -0.022832 0.003122 0.046290 -0.043029 0.083275
#
#
# Mechanical properties :
#
#
# Convention : Reuss Voigt Hill
#
# Bulk Modulus (GPa) = 24.18917 58.38230 41.28574
# Shear Modulus (GPa) = 16.82098 33.71065 25.26582
#
# Velocity S-wave (km/s) = 2.68165 3.79629 3.28657
# Velocity P-wave (km/s) = 4.46425 6.64643 5.66147
#
# Compressibility (1/GPa) = 0.04134081
#
# Stress axis : x y z
#
# Youngs Moduli (GPa) = 76.10881 36.58577 131.37037
#
# Poissons Ratio (x) = -0.04076 0.46159
# Poissons Ratio (y) = -0.08478 0.12769
# Poissons Ratio (z) = 0.26742 0.03556
#
# Static dielectric constant tensor:
#      x y z
#    x 2.521040 0.051570 -0.065820 
#    y 0.051570 1.894160 -0.075320 
#    z -0.065820 -0.075320 1.979150 
# 
# From -- ./inp_files/105842.got.cif
#   From: 2010.05.17/outbox.cif.g08.bks.cpg/sg2_53_cif.got.tgz:105842.got - 2010.06.03 11:33:40.
