data_PCOD9036719
_publ_section_title
;
Structure prediction by ZEFSAII (Michael W. Deem and Ramdas Pophale) SiO2 
 PCOD9036719
Probable space group: P -1
;
_chemical_formula_sum "Si O2"
_cell_formula_units_Z 16
_cell_length_a 9.060714
_cell_length_b 22.653507
_cell_length_c 11.814152
_cell_angle_alpha 151.820097
_cell_angle_beta 138.067279
_cell_angle_gamma 46.152116
_cell_volume 759.982679
_symmetry_space_group_name_H-M "P -1"
_symmetry_group_IT_number 2
_symmetry_cell_setting 'triclinic'
loop_
_space_group_symop_operation_xyz
x,y,z
-x,-y,-z
loop_
_atom_site_type_symbol
_atom_site_label
_atom_site_fract_x
_atom_site_fract_y
_atom_site_fract_z
Si Si1 0.230141 0.452713 0.366175
Si Si2 0.634045 0.805466 0.856638
Si Si3 0.564801 0.823775 0.262813
Si Si4 0.619561 0.984980 0.353967
Si Si5 0.110008 0.818945 0.080387
Si Si6 0.696088 0.544919 0.845386
Si Si7 0.216994 0.568751 0.860018
Si Si8 0.351450 0.626880 0.279967
O O1 0.286941 0.311604 0.210393
O O2 0.440771 0.522207 0.633842
O O3 0.197326 0.461470 0.228157
O O4 0.000292 0.503564 0.380017
O O5 0.435025 0.755713 0.588425
O O6 0.574984 0.923492 0.105395
O O7 0.844892 0.826430 0.933360
O O8 0.656073 0.879171 0.294377
O O9 0.294300 0.824020 0.094757
O O10 0.427294 0.084123 0.469196
O O11 0.682920 0.685966 0.122020
O O12 0.826954 0.066648 0.611025
O O13 0.188991 0.687241 0.962825
O O14 0.774762 0.438219 0.801384
O O15 0.234940 0.629281 0.097154
O O16 0.426731 0.471354 0.782799
#
# Coordination Sequence:
#
# PCOD9036719 Si02
#       8
#     2   2   2   2   2   2   2   2
#     4   9  20  29  52  73 102 117 158 202 240 285
#     4  10  18  30  48  77  96 120 158 202 237 277
#     4   9  17  28  50  75  97 121 153 197 242 282
#     4   9  17  30  47  76  96 120 156 200 239 279
#     4   9  18  30  51  71  96 124 158 197 238 277
#     4  10  17  33  49  77  95 126 153 200 243 277
#     4  10  20  35  46  72  97 132 161 190 237 288
#     4  10  21  32  50  68 101 129 161 192 235 292
#
# _framework density 21.053111000000001
#
# number of rings (size 3 to 8) (size 9 to 14) (size 15 to 20)
#    0.750    1.750    2.500    0.375    1.750    2.000 
#    0.000    0.625    0.000    0.000    0.000    2.625 
#    0.000    0.000    0.000    0.000    0.000    0.000 
#
# Total GULP energy -89137.248869 kJ/mol
# GULP energy per Si atom -5571.078054 kJ/mol
# Density = 2.100519 g / cm^3
# Si number density = 21.053111 Si / 1000 Ang^3
#
#
#
# Elastic Constant Matrix: (Units=GPa)
#
#
# Indices 1 2 3 4 5 6 
#
# 1 72.5770 7.2166 19.5183 -1.4953 5.9573 12.0248
# 2 7.2166 11.9402 15.3682 -3.6026 2.1735 2.4883
# 3 19.5183 15.3682 105.2408 6.2880 -4.4739 7.0921
# 4 -1.4953 -3.6026 6.2880 23.5348 7.5155 -4.3026
# 5 5.9573 2.1735 -4.4739 7.5155 33.1163 0.3542
# 6 12.0248 2.4883 7.0921 -4.3026 0.3542 13.0123
#
#
#
# Elastic Compliance Matrix: (Units=1/GPa)
#
#
# Indices 1 2 3 4 5 6 
#
# 1 0.017295 -0.005430 -0.001478 -0.001171 -0.002534 -0.014457
# 2 -0.005430 0.123856 -0.019707 0.029587 -0.016554 0.002307
# 3 -0.001478 -0.019707 0.013864 -0.009690 0.005693 -0.005781
# 4 -0.001171 0.029587 -0.009690 0.058571 -0.016552 0.020523
# 5 -0.002534 -0.016554 0.005693 -0.016552 0.036308 -0.004057
# 6 -0.014457 0.002307 -0.005781 0.020523 -0.004057 0.099816
#
#
# Mechanical properties :
#
#
# Convention : Reuss Voigt Hill
#
# Bulk Modulus (GPa) = 9.82447 30.44045 20.13246
# Shear Modulus (GPa) = 11.44509 23.77635 17.61072
#
# Velocity S-wave (km/s) = 2.33412 3.36423 2.89535
# Velocity P-wave (km/s) = 3.45554 5.43884 4.55641
#
# Compressibility (1/GPa) = 0.10178663
#
# Stress axis : x y z
#
# Youngs Moduli (GPa) = 57.82010 8.07389 72.12699
#
# Poissons Ratio (x) = 0.04384 0.10662
# Poissons Ratio (y) = 0.31394 1.42137
# Poissons Ratio (z) = 0.08547 0.15911
#
# Static dielectric constant tensor:
#      x y z
#    x 1.807630 -0.008350 0.004410 
#    y -0.008350 1.762980 -0.011770 
#    z 0.004410 -0.011770 1.797600 
# 
# From -- ./inp_files/234666.got.cif
#   From: 2010.05.17/outbox.cif.g08.bks.cpg/sg2_118_cif.got.tgz:234666.got - 2010.06.03 11:33:40.
