data_PCOD9036815
_publ_section_title
;
Structure prediction by ZEFSAII (Michael W. Deem and Ramdas Pophale) SiO2 
 PCOD9036815
Probable space group: P -1
;
_chemical_formula_sum "Si O2"
_cell_formula_units_Z 14
_cell_length_a 9.555620
_cell_length_b 16.250690
_cell_length_c 5.196893
_cell_angle_alpha 67.657218
_cell_angle_beta 112.047047
_cell_angle_gamma 128.078300
_cell_volume 576.445859
_symmetry_space_group_name_H-M "P -1"
_symmetry_group_IT_number 2
_symmetry_cell_setting 'triclinic'
loop_
_space_group_symop_operation_xyz
x,y,z
-x,-y,-z
loop_
_atom_site_type_symbol
_atom_site_label
_atom_site_fract_x
_atom_site_fract_y
_atom_site_fract_z
Si Si1 0.546436 0.367295 0.591045
Si Si2 0.650696 0.243563 0.083441
Si Si3 0.941727 0.254043 0.945348
Si Si4 0.668663 0.558328 0.842410
Si Si5 0.874041 0.029971 0.209180
Si Si6 0.156302 0.609540 0.590142
Si Si7 0.374840 0.046626 0.385768
O O1 0.640907 0.470847 0.721186
O O2 0.362466 0.356774 0.415029
O O3 0.670694 0.385580 0.410704
O O4 0.516929 0.259944 0.806644
O O5 0.768267 0.207526 0.070450
O O6 0.806589 0.366844 0.113047
O O7 0.525691 0.171830 0.312684
O O8 0.971515 0.157649 0.068950
O O9 0.128110 0.365531 0.009549
O O10 0.874226 0.296545 0.617668
O O11 0.500000 0.500000 0.000000
O O12 0.715647 0.988389 0.358838
O O13 0.000000 0.000000 0.500000
O O14 0.772253 0.983516 0.913134
O O15 0.000000 0.500000 0.500000
O O16 0.500000 0.000000 0.500000
#
# Coordination Sequence:
#
# PCOD9036815 Si02
#       7
#     2   2   2   2   2   2   2
#     4  10  23  39  62  97 134 177 233 278 360 430
#     4  11  24  41  72  99 133 191 237 302 364 436
#     4  11  25  42  69  99 140 182 244 295 373 437
#     4  11  23  42  64  98 141 188 224 292 361 447
#     4  12  29  50  75 116 153 198 249 329 384 450
#     4  11  22  41  67 101 136 179 240 298 357 435
#     4  12  26  50  80 106 152 195 263 310 378 453
#
# _framework density 24.286757000000001
#
# number of rings (size 3 to 8) (size 9 to 14) (size 15 to 20)
#    0.000    0.857    1.429    5.143    6.000    4.571 
#    0.000    0.000    0.000    0.000    0.000    0.000 
#    0.000    0.000    0.000    0.000    0.000    0.000 
#
# Total GULP energy -77934.916571 kJ/mol
# GULP energy per Si atom -5566.779755 kJ/mol
# Density = 2.423148 g / cm^3
# Si number density = 24.286757 Si / 1000 Ang^3
#
#
#
# Elastic Constant Matrix: (Units=GPa)
#
#
# Indices 1 2 3 4 5 6 
#
# 1 64.6140 6.5302 21.3676 -9.5617 25.6887 -8.9955
# 2 6.5302 74.8699 31.7240 1.2496 13.6385 1.1769
# 3 21.3676 31.7240 78.2296 12.2049 26.6408 -4.7463
# 4 -9.5617 1.2496 12.2049 30.4912 1.8597 0.3015
# 5 25.6887 13.6385 26.6408 1.8597 51.3316 -6.4233
# 6 -8.9955 1.1769 -4.7463 0.3015 -6.4233 31.0203
#
#
#
# Elastic Compliance Matrix: (Units=1/GPa)
#
#
# Indices 1 2 3 4 5 6 
#
# 1 0.022438 0.001559 -0.004966 0.009469 -0.008940 0.003744
# 2 0.001559 0.016512 -0.007030 0.002754 -0.001826 -0.001655
# 3 -0.004966 -0.007030 0.020445 -0.009106 -0.005823 0.000837
# 4 0.009469 0.002754 -0.009106 0.039423 -0.002119 0.000426
# 5 -0.008940 -0.001826 -0.005823 -0.002119 0.027836 0.002370
# 6 0.003744 -0.001655 0.000837 0.000426 0.002370 0.034000
#
#
# Mechanical properties :
#
#
# Convention : Reuss Voigt Hill
#
# Bulk Modulus (GPa) = 25.96083 37.43968 31.70025
# Shear Modulus (GPa) = 25.72430 33.10808 29.41619
#
# Velocity S-wave (km/s) = 3.25805 3.69618 3.48401
# Velocity P-wave (km/s) = 4.98655 5.80214 5.40974
#
# Compressibility (1/GPa) = 0.03851957
#
# Stress axis : x y z
#
# Youngs Moduli (GPa) = 44.56675 60.56219 48.91246
#
# Poissons Ratio (x) = -0.09442 0.24292
# Poissons Ratio (y) = -0.06948 0.34386
# Poissons Ratio (z) = 0.22134 0.42576
#
# Static dielectric constant tensor:
#      x y z
#    x 1.904620 0.102780 0.063420 
#    y 0.102780 1.085420 -0.583510 
#    z 0.063420 -0.583510 1.735410 
# 
# From -- ./inp_files/46874.got.cif
#   From: 2010.05.17/outbox.cif.g08.bks.cpg/sg2_24_cif.got.tgz:46874.got - 2010.06.03 11:33:40.
