data_PCOD9036430
_publ_section_title
;
Structure prediction by ZEFSAII (Michael W. Deem and Ramdas Pophale) SiO2 
 PCOD9036430
Probable space group: P -1
;
_chemical_formula_sum "Si O2"
_cell_formula_units_Z 14
_cell_length_a 9.352251
_cell_length_b 8.913109
_cell_length_c 12.282786
_cell_angle_alpha 133.671154
_cell_angle_beta 59.531562
_cell_angle_gamma 110.894498
_cell_volume 638.274052
_symmetry_space_group_name_H-M "P -1"
_symmetry_group_IT_number 2
_symmetry_cell_setting 'triclinic'
loop_
_space_group_symop_operation_xyz
x,y,z
-x,-y,-z
loop_
_atom_site_type_symbol
_atom_site_label
_atom_site_fract_x
_atom_site_fract_y
_atom_site_fract_z
Si Si1 0.498082 0.031364 0.830170
Si Si2 0.155139 0.164751 0.932720
Si Si3 0.016631 0.731921 0.742658
Si Si4 0.552086 0.320423 0.155236
Si Si5 0.169788 0.399124 0.840345
Si Si6 0.667020 0.001882 0.514998
Si Si7 0.244322 0.580950 0.415664
O O1 0.509983 0.833226 0.804438
O O2 0.601441 0.014854 0.670782
O O3 0.305231 0.063268 0.890191
O O4 0.549023 0.216281 0.985218
O O5 0.237939 0.311175 0.885092
O O6 0.044112 0.977048 0.832170
O O7 0.038026 0.285044 0.120780
O O8 0.185658 0.632286 0.585743
O O9 0.870787 0.610899 0.674838
O O10 0.731905 0.410013 0.152745
O O11 0.431086 0.513476 0.299809
O O12 0.212016 0.196225 0.649008
O O13 0.000000 0.500000 0.000000
O O14 0.500000 0.000000 0.500000
O O15 0.769183 0.209687 0.544978
#
# Coordination Sequence:
#
# PCOD9036430 Si02
#       7
#     2   2   2   2   2   2   2
#     4  11  25  44  71  99 138 178 230 278 338 410
#     4  11  22  43  68  98 136 183 222 275 339 405
#     4  10  23  36  70 100 132 175 226 276 331 402
#     4  11  26  44  67 103 137 180 226 284 338 402
#     4  12  28  45  69 103 138 173 233 286 344 401
#     4  12  23  46  71 101 134 183 231 279 337 415
#     4  11  21  42  68 100 136 180 229 276 336 407
#
# _framework density 21.934151
#
# number of rings (size 3 to 8) (size 9 to 14) (size 15 to 20)
#    0.000    0.857    5.714    0.000    6.000    2.857 
#    0.000    0.714    0.000    0.000    0.000    0.000 
#    0.000    0.000    0.000    0.000    0.000    0.000 
#
# Total GULP energy -78092.615134 kJ/mol
# GULP energy per Si atom -5578.043938 kJ/mol
# Density = 2.188423 g / cm^3
# Si number density = 21.934151 Si / 1000 Ang^3
#
#
#
# Elastic Constant Matrix: (Units=GPa)
#
#
# Indices 1 2 3 4 5 6 
#
# 1 42.8990 8.9842 34.1567 11.5950 -7.8517 -1.7942
# 2 8.9842 50.6778 48.3845 -9.1178 4.9095 7.0444
# 3 34.1567 48.3845 200.5793 -20.9050 -14.7908 -12.7532
# 4 11.5950 -9.1178 -20.9050 36.5842 -1.6840 10.2812
# 5 -7.8517 4.9095 -14.7908 -1.6840 30.5373 -9.9347
# 6 -1.7942 7.0444 -12.7532 10.2812 -9.9347 12.5173
#
#
#
# Elastic Compliance Matrix: (Units=1/GPa)
#
#
# Indices 1 2 3 4 5 6 
#
# 1 -0.022785 0.104363 -0.038927 0.079813 -0.123336 -0.265103
# 2 0.104363 -0.176997 0.056103 -0.175908 0.236773 0.504133
# 3 -0.038927 0.056103 -0.010642 0.060153 -0.070848 -0.153633
# 4 0.079813 -0.175908 0.060153 -0.121936 0.215239 0.442705
# 5 -0.123336 0.236773 -0.070848 0.215239 -0.255565 -0.602734
# 6 -0.265103 0.504133 -0.153633 0.442705 -0.602734 -1.240345
#
#
# Mechanical properties :
#
#
# Convention : Reuss Voigt Hill
#
# Bulk Modulus (GPa) = 30.62305 53.02300 41.82302
# Shear Modulus (GPa) = -2.42664 29.43648 13.50492
#
# Velocity S-wave (km/s) = -1.05296 3.66736 2.48403
# Velocity P-wave (km/s) = 3.53742 6.49299 5.22840
#
# Compressibility (1/GPa) = 0.03265514
#
# Stress axis : x y z
#
# Youngs Moduli (GPa) = -43.88796 -5.64982 -93.96518
#
# Poissons Ratio (x) = 0.58963 -3.65779
# Poissons Ratio (y) = 4.58030 5.27176
# Poissons Ratio (z) = -1.70843 0.31697
#
# Static dielectric constant tensor:
#      x y z
#    x 1.792650 0.017030 0.002600 
#    y 0.017030 1.789280 0.022050 
#    z 0.002600 0.022050 1.822560 
# 
# From -- ./inp_files/383453.got.cif
#   From: 2010.05.17/outbox.cif.g08.bks.cpg/sg2_192_cif.got.tgz:383453.got - 2010.06.03 11:33:40.
