data_PCOD9036434
_publ_section_title
;
Structure prediction by ZEFSAII (Michael W. Deem and Ramdas Pophale) SiO2 
 PCOD9036434
Probable space group: P -1
;
_chemical_formula_sum "Si O2"
_cell_formula_units_Z 14
_cell_length_a 5.384699
_cell_length_b 28.168041
_cell_length_c 9.572316
_cell_angle_alpha 157.283143
_cell_angle_beta 75.252249
_cell_angle_gamma 93.915257
_cell_volume 485.321356
_symmetry_space_group_name_H-M "P -1"
_symmetry_group_IT_number 2
_symmetry_cell_setting 'triclinic'
loop_
_space_group_symop_operation_xyz
x,y,z
-x,-y,-z
loop_
_atom_site_type_symbol
_atom_site_label
_atom_site_fract_x
_atom_site_fract_y
_atom_site_fract_z
Si Si1 0.722633 0.690833 0.886690
Si Si2 0.255833 0.697443 0.144525
Si Si3 0.853473 0.340444 0.626540
Si Si4 0.000000 0.500000 0.500000
Si Si5 0.560618 0.006456 0.777886
Si Si6 0.042559 0.978744 0.764600
Si Si7 0.436279 0.332908 0.458874
Si Si8 0.000000 0.000000 0.500000
O O1 0.602710 0.634932 0.885339
O O2 0.558712 0.688454 0.765361
O O3 0.033219 0.565774 0.513309
O O4 0.692629 0.840318 0.318871
O O5 0.087824 0.619224 0.889803
O O6 0.241840 0.685361 0.279078
O O7 0.151995 0.842689 0.472126
O O8 0.737869 0.271158 0.333952
O O9 0.192503 0.291502 0.436586
O O10 0.708096 0.502389 0.058423
O O11 0.228063 0.057613 0.987196
O O12 0.699534 0.054759 0.014503
O O13 0.674498 0.028911 0.675360
O O14 0.097821 0.955878 0.529236
#
# Coordination Sequence:
#
# PCOD9036434 Si02
#       8
#     2   2   2   1   2   2   2   1
#     4  11  23  34  54  82 113 142 190 231 276 319
#     4  11  23  34  54  82 113 142 190 231 276 319
#     4  10  23  37  53  73 107 152 191 221 262 320
#     4  12  20  32  52  82 108 148 174 244 268 312
#     4   9  18  30  49  77 108 132 173 217 277 321
#     4   9  18  30  49  77 108 132 173 217 277 321
#     4  10  23  37  53  73 107 152 191 221 262 320
#     4   8  16  32  50  78 110 138 156 228 280 346
#
# _framework density 28.846867
#
# number of rings (size 3 to 8) (size 9 to 14) (size 15 to 20)
#    0.857    1.143    2.857    0.857    4.000    0.000 
#    0.000    0.000    0.000    0.000    0.000    2.000 
#    0.000    0.000    0.000    0.000    0.000    0.000 
#
# Total GULP energy -78023.019779 kJ/mol
# GULP energy per Si atom -5573.072841 kJ/mol
# Density = 2.878121 g / cm^3
# Si number density = 28.846867 Si / 1000 Ang^3
#
#
#
# Elastic Constant Matrix: (Units=GPa)
#
#
# Indices 1 2 3 4 5 6 
#
# 1 223.1913 81.6181 54.0676 -11.9811 27.5272 -3.1457
# 2 81.6181 233.9030 57.0200 -26.9673 11.4969 10.2905
# 3 54.0676 57.0200 61.5662 14.5039 15.9195 10.1556
# 4 -11.9811 -26.9673 14.5039 51.4932 -2.8123 9.5943
# 5 27.5272 11.4969 15.9195 -2.8123 49.3984 -2.6061
# 6 -3.1457 10.2905 10.1556 9.5943 -2.6061 55.8007
#
#
#
# Elastic Compliance Matrix: (Units=1/GPa)
#
#
# Indices 1 2 3 4 5 6 
#
# 1 0.006315 -0.000595 -0.005338 0.002403 -0.001473 0.000955
# 2 -0.000595 0.006967 -0.007536 0.005876 0.001426 -0.000891
# 3 -0.005338 -0.007536 0.033635 -0.014515 -0.007089 -0.002868
# 4 0.002403 0.005876 -0.014515 0.027879 0.003403 -0.002941
# 5 -0.001473 0.001426 -0.007089 0.003403 0.023287 0.001447
# 6 0.000955 -0.000891 -0.002868 -0.002941 0.001447 0.019234
#
#
# Mechanical properties :
#
#
# Convention : Reuss Voigt Hill
#
# Bulk Modulus (GPa) = 50.04998 100.45244 75.25121
# Shear Modulus (GPa) = 33.13137 53.06876 43.10007
#
# Velocity S-wave (km/s) = 3.39267 4.29379 3.86955
# Velocity P-wave (km/s) = 5.72143 7.71236 6.79026
#
# Compressibility (1/GPa) = 0.01998003
#
# Stress axis : x y z
#
# Youngs Moduli (GPa) = 158.34697 143.54307 29.73074
#
# Poissons Ratio (x) = 0.08542 0.15869
# Poissons Ratio (y) = 0.09422 0.22405
# Poissons Ratio (z) = 0.84519 1.08172
#
# Static dielectric constant tensor:
#      x y z
#    x 2.147510 -0.380510 -1.076040 
#    y -0.380510 2.069260 -0.438540 
#    z -1.076040 -0.438540 0.803540 
# 
# From -- ./inp_files/45175.got.cif
#   From: 2010.05.17/outbox.cif.g08.bks.cpg/sg2_23_cif.got.tgz:45175.got - 2010.06.03 11:33:40.
