data_PCOD9036375
_publ_section_title
;
Structure prediction by ZEFSAII (Michael W. Deem and Ramdas Pophale) SiO2 
 PCOD9036375
Probable space group: P -1
;
_chemical_formula_sum "Si O2"
_cell_formula_units_Z 14
_cell_length_a 5.620662
_cell_length_b 18.329007
_cell_length_c 12.272776
_cell_angle_alpha 25.919138
_cell_angle_beta 75.921963
_cell_angle_gamma 85.020726
_cell_volume 509.419381
_symmetry_space_group_name_H-M "P -1"
_symmetry_group_IT_number 2
_symmetry_cell_setting 'triclinic'
loop_
_space_group_symop_operation_xyz
x,y,z
-x,-y,-z
loop_
_atom_site_type_symbol
_atom_site_label
_atom_site_fract_x
_atom_site_fract_y
_atom_site_fract_z
Si Si1 0.584916 0.151237 0.542390
Si Si2 0.643536 0.319123 0.939969
Si Si3 0.578025 0.711336 0.213622
Si Si4 0.928446 0.819244 0.434804
Si Si5 0.127058 0.846858 0.704497
Si Si6 0.708555 0.567767 0.006513
Si Si7 0.994601 0.306349 0.645719
O O1 0.282616 0.081340 0.690040
O O2 0.650054 0.125025 0.446833
O O3 0.784461 0.086612 0.678746
O O4 0.663415 0.361904 0.276462
O O5 0.421669 0.246328 0.972466
O O6 0.873735 0.481835 0.650119
O O7 0.769009 0.175843 0.159323
O O8 0.526198 0.389494 0.963806
O O9 0.500000 0.500000 0.500000
O O10 0.825239 0.761043 0.199480
O O11 0.314138 0.745165 0.237869
O O12 0.797398 0.673685 0.740735
O O13 0.956702 0.746842 0.410627
O O14 0.936546 0.658323 0.942691
O O15 0.000000 0.000000 0.500000
#
# Coordination Sequence:
#
# PCOD9036375 Si02
#       7
#     2   2   2   2   2   2   2
#     4  11  21  38  59  94 120 160 204 254 315 372
#     4  11  21  36  60  83 132 164 203 256 314 374
#     4  10  23  35  54  88 127 166 203 252 317 369
#     4  11  20  34  58  89 124 154 198 256 309 369
#     4  11  25  40  59  91 133 173 206 249 318 388
#     4  11  22  36  63  92 124 160 208 258 326 364
#     4  11  21  36  58  91 128 158 207 257 319 362
#
# _framework density 27.482265999999999
#
# number of rings (size 3 to 8) (size 9 to 14) (size 15 to 20)
#    0.000    1.143    2.857    6.429    8.000    0.571 
#    0.000    0.000    0.000    0.000    0.000   14.000 
#    0.000    0.000    0.000    0.000    0.000    0.000 
#
# Total GULP energy -78475.954160 kJ/mol
# GULP energy per Si atom -5605.425297 kJ/mol
# Density = 2.741972 g / cm^3
# Si number density = 27.482266 Si / 1000 Ang^3
#
#
#
# Elastic Constant Matrix: (Units=GPa)
#
#
# Indices 1 2 3 4 5 6 
#
# 1 248.3426 68.1390 82.2099 10.9974 23.5451 -2.0850
# 2 68.1390 161.7810 53.5318 24.8977 10.7424 -10.3875
# 3 82.2099 53.5318 127.0960 0.0669 30.3109 9.1025
# 4 10.9974 24.8977 0.0669 36.1191 11.7266 0.2192
# 5 23.5451 10.7424 30.3109 11.7266 56.3676 5.5768
# 6 -2.0850 -10.3875 9.1025 0.2192 5.5768 69.9250
#
#
#
# Elastic Compliance Matrix: (Units=1/GPa)
#
#
# Indices 1 2 3 4 5 6 
#
# 1 0.005382 -0.001124 -0.002959 -0.000755 -0.000326 0.000407
# 2 -0.001124 0.008769 -0.003517 -0.006304 0.001843 0.001600
# 3 -0.002959 -0.003517 0.012794 0.005222 -0.005879 -0.001824
# 4 -0.000755 -0.006304 0.005222 0.035008 -0.008468 -0.001073
# 5 -0.000326 0.001843 -0.005879 -0.008468 0.022522 -0.000740
# 6 0.000407 0.001600 -0.001824 -0.001073 -0.000740 0.014851
#
#
# Mechanical properties :
#
#
# Convention : Reuss Voigt Hill
#
# Bulk Modulus (GPa) = 85.14694 104.99791 95.07242
# Shear Modulus (GPa) = 42.21546 54.70492 48.46019
#
# Velocity S-wave (km/s) = 3.92356 4.46640 4.20375
# Velocity P-wave (km/s) = 7.18161 8.05524 7.63094
#
# Compressibility (1/GPa) = 0.01174440
#
# Stress axis : x y z
#
# Youngs Moduli (GPa) = 185.79066 114.04054 78.16440
#
# Poissons Ratio (x) = 0.12815 0.23131
# Poissons Ratio (y) = 0.20878 0.27492
# Poissons Ratio (z) = 0.54980 0.40110
#
# Static dielectric constant tensor:
#      x y z
#    x 2.180030 -0.004140 -0.012240 
#    y -0.004140 2.081580 0.000840 
#    z -0.012240 0.000840 2.206200 
# 
# From -- ./inp_files/369266.got.cif
#   From: 2010.05.17/outbox.cif.g08.bks.cpg/sg2_185_cif.got.tgz:369266.got - 2010.06.03 11:33:40.
