data_PCOD9036275
_publ_section_title
;
Structure prediction by ZEFSAII (Michael W. Deem and Ramdas Pophale) SiO2 
 PCOD9036275
Probable space group: P -1
;
_chemical_formula_sum "Si O2"
_cell_formula_units_Z 15
_cell_length_a 9.048872
_cell_length_b 8.966260
_cell_length_c 7.926512
_cell_angle_alpha 84.784782
_cell_angle_beta 68.105989
_cell_angle_gamma 103.365072
_cell_volume 569.287592
_symmetry_space_group_name_H-M "P -1"
_symmetry_group_IT_number 2
_symmetry_cell_setting 'triclinic'
loop_
_space_group_symop_operation_xyz
x,y,z
-x,-y,-z
loop_
_atom_site_type_symbol
_atom_site_label
_atom_site_fract_x
_atom_site_fract_y
_atom_site_fract_z
Si Si1 0.867892 0.022563 0.917744
Si Si2 0.184317 0.171224 0.388456
Si Si3 0.307916 0.918578 0.540198
Si Si4 0.500000 0.000000 0.000000
Si Si5 0.507513 0.455370 0.195992
Si Si6 0.841676 0.407629 0.190457
Si Si7 0.362999 0.706384 0.241045
Si Si8 0.991333 0.347475 0.657581
O O1 0.854804 0.914193 0.766234
O O2 0.671377 0.995396 0.038286
O O3 0.940133 0.204689 0.824101
O O4 0.000000 0.000000 0.000000
O O5 0.358286 0.303323 0.308777
O O6 0.050423 0.260653 0.486365
O O7 0.209356 0.044305 0.527285
O O8 0.207249 0.775651 0.716950
O O9 0.333934 0.845404 0.354194
O O10 0.500000 0.000000 0.500000
O O11 0.555643 0.191049 0.964484
O O12 0.681286 0.435208 0.171761
O O13 0.471642 0.606002 0.285290
O O14 0.500000 0.500000 0.000000
O O15 0.872289 0.507194 0.339831
O O16 0.000000 0.500000 0.000000
O O17 0.176996 0.602711 0.294296
#
# Coordination Sequence:
#
# PCOD9036275 Si02
#       8
#     2   2   2   1   2   2   2   2
#     4  11  26  48  81 121 165 221 282 349 421 508
#     4  12  26  53  82 120 166 221 283 342 431 500
#     4  12  27  50  82 116 166 222 281 352 415 525
#     4  10  22  48  76 114 170 216 278 342 418 500
#     4  12  28  49  82 113 162 223 272 351 424 507
#     4  12  30  53  81 124 163 219 289 351 431 510
#     4  11  26  49  77 112 166 220 271 343 430 495
#     4  11  27  50  76 118 163 208 278 350 420 501
#
# _framework density 26.34872
#
# number of rings (size 3 to 8) (size 9 to 14) (size 15 to 20)
#    0.000    0.533    4.000    2.800    5.600    8.533 
#    2.400    0.000    0.000    0.000    0.000    0.000 
#    0.000    0.000    0.000    0.000    0.000    0.000 
#
# Total GULP energy -83781.796897 kJ/mol
# GULP energy per Si atom -5585.453126 kJ/mol
# Density = 2.628875 g / cm^3
# Si number density = 26.348720 Si / 1000 Ang^3
#
#
#
# Elastic Constant Matrix: (Units=GPa)
#
#
# Indices 1 2 3 4 5 6 
#
# 1 225.3054 75.0690 35.7672 -30.5959 1.8037 0.0697
# 2 75.0690 170.8663 42.9046 -29.7130 1.1186 -5.2001
# 3 35.7672 42.9046 38.4952 -17.0695 -9.1919 -13.7782
# 4 -30.5959 -29.7130 -17.0695 40.8117 2.1207 8.7660
# 5 1.8037 1.1186 -9.1919 2.1207 43.5945 -3.1075
# 6 0.0697 -5.2001 -13.7782 8.7660 -3.1075 55.3855
#
#
#
# Elastic Compliance Matrix: (Units=1/GPa)
#
#
# Indices 1 2 3 4 5 6 
#
# 1 0.005766 -0.001220 -0.003848 0.002211 -0.001233 -0.001498
# 2 -0.001220 0.009062 -0.009167 0.002388 -0.002369 -0.001939
# 3 -0.003848 -0.009167 0.050142 0.008480 0.011332 0.010911
# 4 0.002211 0.002388 0.008480 0.032042 -0.000119 -0.002747
# 5 -0.001233 -0.002369 0.011332 -0.000119 0.025735 0.004061
# 6 -0.001498 -0.001939 0.010911 -0.002747 0.004061 0.021252
#
#
# Mechanical properties :
#
#
# Convention : Reuss Voigt Hill
#
# Bulk Modulus (GPa) = 27.39797 82.46093 54.92945
# Shear Modulus (GPa) = 27.08005 46.68676 36.88340
#
# Velocity S-wave (km/s) = 3.20934 4.21394 3.74547
# Velocity P-wave (km/s) = 4.91467 7.41891 6.29262
#
# Compressibility (1/GPa) = 0.03649906
#
# Stress axis : x y z
#
# Youngs Moduli (GPa) = 173.41680 110.34573 19.94352
#
# Poissons Ratio (x) = 0.13465 0.07674
# Poissons Ratio (y) = 0.21161 0.18283
# Poissons Ratio (z) = 0.66731 1.01159
#
# Static dielectric constant tensor:
#      x y z
#    x 2.056760 0.006370 -0.394820 
#    y 0.006370 2.075630 -0.070300 
#    z -0.394820 -0.070300 4.923450 
# 
# From -- ./inp_files/158571.got.cif
#   From: 2010.05.17/outbox.cif.g08.bks.cpg/sg2_80_cif.got.tgz:158571.got - 2010.06.03 11:33:40.
