data_PCOD9036930
_publ_section_title
;
Structure prediction by ZEFSAII (Michael W. Deem and Ramdas Pophale) SiO2 
 PCOD9036930
Probable space group: P -1
;
_chemical_formula_sum "Si O2"
_cell_formula_units_Z 16
_cell_length_a 10.853245
_cell_length_b 5.314822
_cell_length_c 25.119418
_cell_angle_alpha 71.806997
_cell_angle_beta 31.251525
_cell_angle_gamma 65.170024
_cell_volume 678.851945
_symmetry_space_group_name_H-M "P -1"
_symmetry_group_IT_number 2
_symmetry_cell_setting 'triclinic'
loop_
_space_group_symop_operation_xyz
x,y,z
-x,-y,-z
loop_
_atom_site_type_symbol
_atom_site_label
_atom_site_fract_x
_atom_site_fract_y
_atom_site_fract_z
Si Si1 0.249033 0.245569 0.583610
Si Si2 0.784301 0.788443 0.572020
Si Si3 0.024390 0.465655 0.928832
Si Si4 0.502946 0.753572 0.057353
Si Si5 0.830005 0.966880 0.755065
Si Si6 0.763002 0.021228 0.194876
Si Si7 0.051935 0.816946 0.577270
Si Si8 0.995952 0.410763 0.775381
O O1 0.244604 0.511027 0.532834
O O2 0.195296 0.322771 0.659923
O O3 0.500000 0.000000 0.500000
O O4 0.004502 0.156631 0.667145
O O5 0.507265 0.813366 0.690940
O O6 0.000000 0.500000 0.500000
O O7 0.879246 0.884482 0.585419
O O8 0.787302 0.975981 0.506882
O O9 0.106719 0.738561 0.867974
O O10 0.765873 0.520931 0.986597
O O11 0.203735 0.162089 0.860719
O O12 0.000000 0.500000 0.000000
O O13 0.273302 0.634731 0.135153
O O14 0.435371 0.877833 0.133693
O O15 0.500000 0.000000 0.000000
O O16 0.946787 0.741727 0.772964
O O17 0.862251 0.823440 0.695666
O O18 0.888542 0.774339 0.205724
#
# Coordination Sequence:
#
# PCOD9036930 Si02
#       8
#     2   2   2   2   2   2   2   2
#     4  10  23  39  66 101 146 183 244 313 377 447
#     4  11  27  45  74 101 150 204 251 309 381 464
#     4  12  30  50  78 113 151 202 253 325 384 451
#     4  11  23  46  74 103 148 192 252 312 386 451
#     4  10  23  40  68 102 141 189 247 306 380 455
#     4  12  29  49  77 112 153 193 266 312 385 459
#     4  10  24  44  66 104 137 200 244 303 387 451
#     4  10  24  41  70 108 141 200 243 317 373 457
#
# _framework density 23.569203999999999
#
# number of rings (size 3 to 8) (size 9 to 14) (size 15 to 20)
#    0.000    1.250    1.250    1.875   14.000    5.000 
#    0.000    0.000    0.000    0.000    0.000    0.000 
#    0.000    0.000    0.000    0.000    0.000    0.000 
#
# Total GULP energy -89188.914739 kJ/mol
# GULP energy per Si atom -5574.307171 kJ/mol
# Density = 2.351556 g / cm^3
# Si number density = 23.569204 Si / 1000 Ang^3
#
#
#
# Elastic Constant Matrix: (Units=GPa)
#
#
# Indices 1 2 3 4 5 6 
#
# 1 43.4461 -5.3476 10.7404 -7.2456 1.2437 -13.6644
# 2 -5.3476 107.7331 41.0328 -5.4919 -0.5870 -6.1831
# 3 10.7404 41.0328 112.0362 17.1014 4.8886 -13.9833
# 4 -7.2456 -5.4919 17.1014 39.7358 -5.1771 6.2738
# 5 1.2437 -0.5870 4.8886 -5.1771 18.5760 2.2927
# 6 -13.6644 -6.1831 -13.9833 6.2738 2.2927 32.0520
#
#
#
# Elastic Compliance Matrix: (Units=1/GPa)
#
#
# Indices 1 2 3 4 5 6 
#
# 1 0.028531 0.003668 -0.003630 0.005585 -0.000546 0.010233
# 2 0.003668 0.011875 -0.005577 0.005065 0.002982 0.000217
# 3 -0.003630 -0.005577 0.013702 -0.009099 -0.006768 0.005619
# 4 0.005585 0.005065 -0.009099 0.033720 0.012580 -0.008112
# 5 -0.000546 0.002982 -0.006768 0.012580 0.060410 -0.009394
# 6 0.010233 0.000217 0.005619 -0.008112 -0.009394 0.040315
#
#
# Mechanical properties :
#
#
# Convention : Reuss Voigt Hill
#
# Bulk Modulus (GPa) = 23.23951 39.56296 31.40123
# Shear Modulus (GPa) = 23.36714 32.52540 27.94627
#
# Velocity S-wave (km/s) = 3.15211 3.71886 3.44715
# Velocity P-wave (km/s) = 4.80929 5.93820 5.40331
#
# Compressibility (1/GPa) = 0.04303017
#
# Stress axis : x y z
#
# Youngs Moduli (GPa) = 35.04905 84.20850 72.98313
#
# Poissons Ratio (x) = -0.30886 0.26493
# Poissons Ratio (y) = -0.12855 0.40703
# Poissons Ratio (z) = 0.12723 0.46963
#
# Static dielectric constant tensor:
#      x y z
#    x 1.913070 0.070780 0.065630 
#    y 0.070780 1.958620 0.044600 
#    z 0.065630 0.044600 2.011640 
# 
# From -- ./inp_files/340433.got.cif
#   From: 2010.05.17/outbox.cif.g08.bks.cpg/sg2_171_cif.got.tgz:340433.got - 2010.06.03 11:33:40.
