data_PCOD9036792
_publ_section_title
;
Structure prediction by ZEFSAII (Michael W. Deem and Ramdas Pophale) SiO2 
 PCOD9036792
Probable space group: P -1
;
_chemical_formula_sum "Si O2"
_cell_formula_units_Z 16
_cell_length_a 11.365204
_cell_length_b 9.107289
_cell_length_c 10.417425
_cell_angle_alpha 128.035594
_cell_angle_beta 131.845646
_cell_angle_gamma 76.722567
_cell_volume 601.672638
_symmetry_space_group_name_H-M "P -1"
_symmetry_group_IT_number 2
_symmetry_cell_setting 'triclinic'
loop_
_space_group_symop_operation_xyz
x,y,z
-x,-y,-z
loop_
_atom_site_type_symbol
_atom_site_label
_atom_site_fract_x
_atom_site_fract_y
_atom_site_fract_z
Si Si1 0.621882 0.590409 0.313432
Si Si2 0.811432 0.502723 0.863170
Si Si3 0.588283 0.284336 0.350280
Si Si4 0.616528 0.194268 0.759966
Si Si5 0.874740 0.132440 0.508934
Si Si6 0.265599 0.114177 0.207277
Si Si7 0.952877 0.646906 0.453366
Si Si8 0.962282 0.917382 0.179760
O O1 0.573606 0.394694 0.264697
O O2 0.492903 0.678674 0.194431
O O3 0.699495 0.756263 0.569156
O O4 0.761075 0.600501 0.315554
O O5 0.710598 0.441628 0.623228
O O6 0.713492 0.344814 0.806236
O O7 0.827887 0.724377 0.036739
O O8 0.000000 0.500000 0.000000
O O9 0.689974 0.123921 0.324796
O O10 0.418601 0.197414 0.261264
O O11 0.500000 0.000000 0.500000
O O12 0.730902 0.106112 0.882494
O O13 0.983365 0.340282 0.638214
O O14 0.869242 0.094444 0.638149
O O15 0.000000 0.000000 0.500000
O O16 0.091484 0.120668 0.025773
O O17 0.000000 0.500000 0.500000
O O18 0.050050 0.869170 0.688072
#
# Coordination Sequence:
#
# PCOD9036792 Si02
#       8
#     2   2   2   2   2   2   2   2
#     4  11  22  39  71  96 138 180 227 279 354 420
#     4  12  23  38  69 108 143 173 225 290 357 412
#     4  12  21  42  70 101 138 186 217 286 360 422
#     4  10  23  39  62 101 145 180 213 270 359 419
#     4  10  24  43  67  95 136 190 234 273 337 413
#     4  11  24  40  70 106 140 172 228 288 367 405
#     4  11  25  46  69  96 136 192 240 279 341 413
#     4  11  25  41  68 103 138 174 234 295 339 413
#
# _framework density 26.592535999999999
#
# number of rings (size 3 to 8) (size 9 to 14) (size 15 to 20)
#    0.000    1.000    6.250    1.125    7.000    2.500 
#    0.000    2.500    0.000    2.250    0.000    0.000 
#    0.000    0.000    0.000    0.000    0.000    0.000 
#
# Total GULP energy -89232.387022 kJ/mol
# GULP energy per Si atom -5577.024189 kJ/mol
# Density = 2.653201 g / cm^3
# Si number density = 26.592536 Si / 1000 Ang^3
#
#
#
# Elastic Constant Matrix: (Units=GPa)
#
#
# Indices 1 2 3 4 5 6 
#
# 1 99.7800 16.6202 9.5739 5.1208 28.7576 -6.4792
# 2 16.6202 193.0960 40.0784 6.6899 14.6558 -5.0009
# 3 9.5739 40.0784 70.5063 15.5566 -1.5727 1.5810
# 4 5.1208 6.6899 15.5566 51.9799 -4.8428 7.5120
# 5 28.7576 14.6558 -1.5727 -4.8428 27.0259 2.8769
# 6 -6.4792 -5.0009 1.5810 7.5120 2.8769 49.8101
#
#
#
# Elastic Compliance Matrix: (Units=1/GPa)
#
#
# Indices 1 2 3 4 5 6 
#
# 1 0.015818 0.000725 -0.002347 -0.003198 -0.018333 0.003746
# 2 0.000725 0.006278 -0.003715 -0.000362 -0.004581 0.001162
# 3 -0.002347 -0.003715 0.017621 -0.003972 0.004924 -0.000923
# 4 -0.003198 -0.000362 -0.003972 0.022106 0.007767 -0.004109
# 5 -0.018333 -0.004581 0.004924 0.007767 0.061493 -0.007724
# 6 0.003746 0.001162 -0.000923 -0.004109 -0.007724 0.021775
#
#
# Mechanical properties :
#
#
# Convention : Reuss Voigt Hill
#
# Bulk Modulus (GPa) = 34.43398 55.10301 44.76850
# Shear Modulus (GPa) = 30.22132 45.57050 37.89591
#
# Velocity S-wave (km/s) = 3.37480 4.14413 3.77909
# Velocity P-wave (km/s) = 5.30684 6.60792 5.99279
#
# Compressibility (1/GPa) = 0.02904108
#
# Stress axis : x y z
#
# Youngs Moduli (GPa) = 63.22092 159.29146 56.75149
#
# Poissons Ratio (x) = -0.11548 0.13320
# Poissons Ratio (y) = -0.04583 0.21085
# Poissons Ratio (z) = 0.14839 0.59182
#
# Static dielectric constant tensor:
#      x y z
#    x 2.460680 -0.023220 -0.123060 
#    y -0.023220 2.160370 -0.084840 
#    z -0.123060 -0.084840 2.260270 
# 
# From -- ./inp_files/419847.got.cif
#   From: 2010.05.17/outbox.cif.g08.bks.cpg/sg2_210_cif.got.tgz:419847.got - 2010.06.03 11:33:40.
