data_PCOD9036973
_publ_section_title
;
Structure prediction by ZEFSAII (Michael W. Deem and Ramdas Pophale) SiO2 
 PCOD9036973
Probable space group: P -1
;
_chemical_formula_sum "Si O2"
_cell_formula_units_Z 16
_cell_length_a 11.117017
_cell_length_b 15.515527
_cell_length_c 9.826916
_cell_angle_alpha 142.925449
_cell_angle_beta 137.712954
_cell_angle_gamma 59.665097
_cell_volume 672.209861
_symmetry_space_group_name_H-M "P -1"
_symmetry_group_IT_number 2
_symmetry_cell_setting 'triclinic'
loop_
_space_group_symop_operation_xyz
x,y,z
-x,-y,-z
loop_
_atom_site_type_symbol
_atom_site_label
_atom_site_fract_x
_atom_site_fract_y
_atom_site_fract_z
Si Si1 0.617209 0.231461 0.370886
Si Si2 0.318147 0.203562 0.743039
Si Si3 0.467744 0.983906 0.732613
Si Si4 0.814704 0.907775 0.792680
Si Si5 0.114348 0.339626 0.281982
Si Si6 0.510132 0.509951 0.310601
Si Si7 0.999498 0.652187 0.269047
Si Si8 0.178670 0.507157 0.828919
O O1 0.582095 0.395444 0.541713
O O2 0.817868 0.241684 0.492577
O O3 0.590211 0.164055 0.415639
O O4 0.485415 0.113886 0.021441
O O5 0.335544 0.039820 0.586213
O O6 0.275522 0.197664 0.538891
O O7 0.164706 0.261707 0.774697
O O8 0.492261 0.335980 0.082564
O O9 0.657898 0.985483 0.816232
O O10 0.871508 0.818332 0.853654
O O11 0.000000 0.000000 0.000000
O O12 0.281966 0.404366 0.406150
O O13 0.168825 0.443854 0.590625
O O14 0.916002 0.353118 0.081526
O O15 0.377258 0.525043 0.087272
O O16 0.966995 0.602365 0.335919
O O17 0.000000 0.500000 0.000000
#
# Coordination Sequence:
#
# PCOD9036973 Si02
#       8
#     2   2   2   2   2   2   2   2
#     4  11  24  45  66  94 143 182 223 286 328 416
#     4  11  25  44  72 103 129 184 230 286 354 398
#     4  11  27  44  66 101 140 183 231 267 349 427
#     4  12  25  47  68  96 143 180 226 289 343 423
#     4  11  23  41  70 103 134 176 231 285 358 394
#     4  11  22  44  71 101 140 173 231 296 335 409
#     4  11  21  43  66  99 137 170 228 287 337 402
#     4  10  23  39  67 107 131 172 224 297 346 400
#
# _framework density 23.802091000000001
#
# number of rings (size 3 to 8) (size 9 to 14) (size 15 to 20)
#    0.000    1.000    6.250    1.500    1.750    4.000 
#    0.000    0.000    0.000    0.000    0.000    0.000 
#    0.000    0.000    0.000    0.000    0.000    0.000 
#
# Total GULP energy -89302.135555 kJ/mol
# GULP energy per Si atom -5581.383472 kJ/mol
# Density = 2.374792 g / cm^3
# Si number density = 23.802091 Si / 1000 Ang^3
#
#
#
# Elastic Constant Matrix: (Units=GPa)
#
#
# Indices 1 2 3 4 5 6 
#
# 1 88.0469 8.9419 -4.1376 10.9237 -0.4215 -12.7970
# 2 8.9419 111.9648 -10.7421 11.0805 1.2601 -11.7111
# 3 -4.1376 -10.7421 60.2710 10.1468 -10.8123 3.9845
# 4 10.9237 11.0805 10.1468 29.7753 4.8735 1.3415
# 5 -0.4215 1.2601 -10.8123 4.8735 30.2517 6.5454
# 6 -12.7970 -11.7111 3.9845 1.3415 6.5454 35.1648
#
#
#
# Elastic Compliance Matrix: (Units=1/GPa)
#
#
# Indices 1 2 3 4 5 6 
#
# 1 0.012793 0.000173 0.001678 -0.005649 0.000683 0.004612
# 2 0.000173 0.009964 0.002500 -0.004861 0.000577 0.003176
# 3 0.001678 0.002500 0.020681 -0.010033 0.009418 -0.002271
# 4 -0.005649 -0.004861 -0.010033 0.042598 -0.009819 -0.002335
# 5 0.000683 0.000577 0.009418 -0.009819 0.039641 -0.007631
# 6 0.004612 0.003176 -0.002271 -0.002335 -0.007631 0.032940
#
#
# Mechanical properties :
#
#
# Convention : Reuss Voigt Hill
#
# Bulk Modulus (GPa) = 19.17941 27.60078 23.39009
# Shear Modulus (GPa) = 29.88714 36.78640 33.33677
#
# Velocity S-wave (km/s) = 3.54736 3.93556 3.74649
# Velocity P-wave (km/s) = 4.98535 5.68090 5.34446
#
# Compressibility (1/GPa) = 0.05213924
#
# Stress axis : x y z
#
# Youngs Moduli (GPa) = 78.16626 100.35981 48.35312
#
# Poissons Ratio (x) = -0.01736 -0.08113
# Poissons Ratio (y) = -0.01352 -0.12086
# Poissons Ratio (z) = -0.13115 -0.25086
#
# Static dielectric constant tensor:
#      x y z
#    x 1.934880 0.006370 0.026260 
#    y 0.006370 2.020040 -0.043730 
#    z 0.026260 -0.043730 1.973420 
# 
# From -- ./inp_files/437159.got.cif
#   From: 2010.05.17/outbox.cif.g08.bks.cpg/sg2_219_cif.got.tgz:437159.got - 2010.06.03 11:33:40.
