data_PCOD9036073
_publ_section_title
;
Structure prediction by ZEFSAII (Michael W. Deem and Ramdas Pophale) SiO2 
 PCOD9036073
Probable space group: P -1
;
_chemical_formula_sum "Si O2"
_cell_formula_units_Z 12
_cell_length_a 5.473556
_cell_length_b 8.687487
_cell_length_c 10.253495
_cell_angle_alpha 75.124650
_cell_angle_beta 100.817481
_cell_angle_gamma 91.786356
_cell_volume 462.780442
_symmetry_space_group_name_H-M "P -1"
_symmetry_group_IT_number 2
_symmetry_cell_setting 'triclinic'
loop_
_space_group_symop_operation_xyz
x,y,z
-x,-y,-z
loop_
_atom_site_type_symbol
_atom_site_label
_atom_site_fract_x
_atom_site_fract_y
_atom_site_fract_z
Si Si1 0.765397 0.550728 0.560599
Si Si2 0.828675 0.894292 0.412139
Si Si3 0.246121 0.533347 0.848282
Si Si4 0.260109 0.338009 0.151810
Si Si5 0.392928 0.993848 0.136341
Si Si6 0.958611 0.268396 0.774986
O O1 0.500000 0.500000 0.500000
O O2 0.749369 0.741327 0.522067
O O3 0.796234 0.428700 0.710335
O O4 0.000000 0.500000 0.500000
O O5 0.596429 0.955724 0.282465
O O6 0.011970 0.821761 0.337488
O O7 0.000000 0.000000 0.500000
O O8 0.459249 0.630966 0.776559
O O9 0.002166 0.649224 0.802937
O O10 0.211472 0.357590 0.819212
O O11 0.262700 0.480972 0.012993
O O12 0.274927 0.164237 0.126379
O O13 0.185393 0.858599 0.129628
O O14 0.500000 0.000000 0.000000
#
# Coordination Sequence:
#
# PCOD9036073 Si02
#       6
#     2   2   2   2   2   2
#     4  10  22  47  72 103 142 199 254 305 368 459
#     4  11  27  49  76 114 155 205 259 326 395 464
#     4  10  24  45  72 102 147 202 253 310 380 458
#     4  10  25  44  69 106 150 198 253 310 379 460
#     4  12  28  46  77 114 160 202 257 323 400 465
#     4  11  26  46  76 109 150 206 258 319 389 462
#
# _framework density 25.930223999999999
#
# number of rings (size 3 to 8) (size 9 to 14) (size 15 to 20)
#    0.000    1.333    1.667    1.000   14.000    2.000 
#    3.000    0.000    0.000    0.000    0.000    0.000 
#    0.000    0.000    0.000    0.000    0.000    0.000 
#
# Total GULP energy -66885.412756 kJ/mol
# GULP energy per Si atom -5573.784396 kJ/mol
# Density = 2.587121 g / cm^3
# Si number density = 25.930224 Si / 1000 Ang^3
#
#
#
# Elastic Constant Matrix: (Units=GPa)
#
#
# Indices 1 2 3 4 5 6 
#
# 1 138.8590 83.8406 17.1423 -0.3277 -10.3645 4.6469
# 2 83.8406 184.4877 29.6841 1.2558 -5.9421 26.8681
# 3 17.1423 29.6841 87.8514 -4.8635 8.8671 3.6665
# 4 -0.3277 1.2558 -4.8635 52.7678 0.0052 -2.6214
# 5 -10.3645 -5.9421 8.8671 0.0052 42.8933 -8.1975
# 6 4.6469 26.8681 3.6665 -2.6214 -8.1975 55.8008
#
#
#
# Elastic Compliance Matrix: (Units=1/GPa)
#
#
# Indices 1 2 3 4 5 6 
#
# 1 0.010265 -0.004745 -0.000698 0.000203 0.002316 0.001826
# 2 -0.004745 0.008377 -0.001755 -0.000569 -0.000311 -0.003595
# 3 -0.000698 -0.001755 0.012498 0.001174 -0.003055 -0.000312
# 4 0.000203 -0.000569 0.001174 0.019127 -0.000071 0.001068
# 5 0.002316 -0.000311 -0.003055 -0.000071 0.025199 0.003856
# 6 0.001826 -0.003595 -0.000312 0.001068 0.003856 0.020137
#
#
# Mechanical properties :
#
#
# Convention : Reuss Voigt Hill
#
# Bulk Modulus (GPa) = 59.72392 74.72579 67.22485
# Shear Modulus (GPa) = 43.25966 48.99447 46.12707
#
# Velocity S-wave (km/s) = 4.08893 4.35152 4.22227
# Velocity P-wave (km/s) = 6.73610 7.35719 7.05348
#
# Compressibility (1/GPa) = 0.01674371
#
# Stress axis : x y z
#
# Youngs Moduli (GPa) = 97.41678 119.37852 80.01027
#
# Poissons Ratio (x) = 0.56649 0.05588
# Poissons Ratio (y) = 0.46227 0.14038
# Poissons Ratio (z) = 0.06804 0.20946
#
# Static dielectric constant tensor:
#      x y z
#    x 2.160800 -0.074320 0.025660 
#    y -0.074320 1.335200 -0.663560 
#    z 0.025660 -0.663560 1.473650 
# 
# From -- ./inp_files/360139.got.cif
#   From: 2010.05.17/outbox.cif.g08.bks.cpg/sg2_181_cif.got.tgz:360139.got - 2010.06.03 11:33:40.
