data_PCOD9036084
_publ_section_title
;
Structure prediction by ZEFSAII (Michael W. Deem and Ramdas Pophale) SiO2 
 PCOD9036084
Probable space group: P -1
;
_chemical_formula_sum "Si O2"
_cell_formula_units_Z 16
_cell_length_a 11.787836
_cell_length_b 8.753611
_cell_length_c 7.965173
_cell_angle_alpha 80.163723
_cell_angle_beta 125.667665
_cell_angle_gamma 86.597064
_cell_volume 644.798726
_symmetry_space_group_name_H-M "P -1"
_symmetry_group_IT_number 2
_symmetry_cell_setting 'triclinic'
loop_
_space_group_symop_operation_xyz
x,y,z
-x,-y,-z
loop_
_atom_site_type_symbol
_atom_site_label
_atom_site_fract_x
_atom_site_fract_y
_atom_site_fract_z
Si Si1 0.857285 0.625350 0.873920
Si Si2 0.303493 0.565902 0.022872
Si Si3 0.489211 0.242442 0.223668
Si Si4 0.211722 0.840680 0.391897
Si Si5 0.955607 0.330805 0.480270
Si Si6 0.780511 0.849834 0.449401
Si Si7 0.547366 0.155063 0.915081
Si Si8 0.254525 0.071731 0.103368
O O1 0.747775 0.513172 0.842475
O O2 0.826689 0.724757 0.661848
O O3 0.850202 0.758692 0.990232
O O4 0.000000 0.500000 0.000000
O O5 0.394932 0.407503 0.049296
O O6 0.402940 0.686687 0.126808
O O7 0.169680 0.646270 0.775971
O O8 0.626625 0.256502 0.444789
O O9 0.398744 0.135424 0.270559
O O10 0.541741 0.159956 0.109761
O O11 0.113924 0.727493 0.402159
O O12 0.199081 0.983082 0.489847
O O13 0.196592 0.939975 0.186586
O O14 0.000000 0.500000 0.500000
O O15 0.099970 0.207991 0.577868
O O16 0.614752 0.843557 0.278674
O O17 0.677822 0.017371 0.989023
#
# Coordination Sequence:
#
# PCOD9036084 Si02
#       8
#     2   2   2   2   2   2   2   2
#     4  10  22  47  72  97 150 195 232 296 360 427
#     4  11  25  43  71 101 145 192 237 298 363 417
#     4  11  22  42  71  99 146 188 233 298 359 418
#     4  11  24  45  70  99 148 187 235 297 361 420
#     4  12  26  46  70 101 140 192 246 289 357 433
#     4  11  25  43  71 103 142 188 240 291 364 423
#     4  12  24  42  72 114 140 182 247 299 351 425
#     4  10  24  42  72 110 138 189 240 297 357 424
#
# _framework density 24.813946999999999
#
# number of rings (size 3 to 8) (size 9 to 14) (size 15 to 20)
#    0.000    1.000    3.750    2.250    5.250    1.500 
#    0.000    0.625    0.000    0.000    0.000    0.000 
#    0.000    0.000    0.000    0.000    0.000    0.000 
#
# Total GULP energy -89367.588246 kJ/mol
# GULP energy per Si atom -5585.474265 kJ/mol
# Density = 2.475747 g / cm^3
# Si number density = 24.813947 Si / 1000 Ang^3
#
#
#
# Elastic Constant Matrix: (Units=GPa)
#
#
# Indices 1 2 3 4 5 6 
#
# 1 142.6455 63.2279 19.1803 -12.7110 6.3491 12.2891
# 2 63.2279 108.3948 33.6097 -26.3502 12.5287 10.7599
# 3 19.1803 33.6097 58.7086 -21.0439 28.0501 -2.7730
# 4 -12.7110 -26.3502 -21.0439 32.0189 -3.2406 3.2566
# 5 6.3491 12.5287 28.0501 -3.2406 29.4806 -8.9775
# 6 12.2891 10.7599 -2.7730 3.2566 -8.9775 73.4908
#
#
#
# Elastic Compliance Matrix: (Units=1/GPa)
#
#
# Indices 1 2 3 4 5 6 
#
# 1 0.009524 -0.005648 -0.000598 -0.001132 0.000591 -0.000666
# 2 -0.005648 0.016179 -0.003221 0.008950 -0.002288 -0.002222
# 3 -0.000598 -0.003221 0.048368 0.024953 -0.042987 -0.003960
# 4 -0.001132 0.008950 0.024953 0.052751 -0.023131 -0.005343
# 5 0.000591 -0.002288 -0.042987 -0.023131 0.075835 0.008903
# 6 -0.000666 -0.002222 -0.003960 -0.005343 0.008903 0.015219
#
#
# Mechanical properties :
#
#
# Convention : Reuss Voigt Hill
#
# Bulk Modulus (GPa) = 18.13594 60.19831 39.16712
# Shear Modulus (GPa) = 19.59330 39.91346 29.75338
#
# Velocity S-wave (km/s) = 2.81305 4.01497 3.46650
# Velocity P-wave (km/s) = 4.22795 6.76800 5.64276
#
# Compressibility (1/GPa) = 0.05513914
#
# Stress axis : x y z
#
# Youngs Moduli (GPa) = 104.99452 61.80694 20.67465
#
# Poissons Ratio (x) = 0.34906 0.01236
# Poissons Ratio (y) = 0.59297 0.06659
# Poissons Ratio (z) = 0.06277 0.19908
#
# Static dielectric constant tensor:
#      x y z
#    x 2.144610 -0.079630 0.056160 
#    y -0.079630 2.010640 0.010450 
#    z 0.056160 0.010450 2.014470 
# 
# From -- ./inp_files/243704.got.cif
#   From: 2010.05.17/outbox.cif.g08.bks.cpg/sg2_122_cif.got.tgz:243704.got - 2010.06.03 11:33:40.
