data_PCOD9036633
_publ_section_title
;
Structure prediction by ZEFSAII (Michael W. Deem and Ramdas Pophale) SiO2 
 PCOD9036633
Probable space group: P -1
;
_chemical_formula_sum "Si O2"
_cell_formula_units_Z 16
_cell_length_a 25.692333
_cell_length_b 19.381410
_cell_length_c 5.330701
_cell_angle_alpha 116.080571
_cell_angle_beta 109.803242
_cell_angle_gamma 16.587594
_cell_volume 644.396090
_symmetry_space_group_name_H-M "P -1"
_symmetry_group_IT_number 2
_symmetry_cell_setting 'triclinic'
loop_
_space_group_symop_operation_xyz
x,y,z
-x,-y,-z
loop_
_atom_site_type_symbol
_atom_site_label
_atom_site_fract_x
_atom_site_fract_y
_atom_site_fract_z
Si Si1 0.391873 0.900078 0.467595
Si Si2 0.822341 0.117804 0.888941
Si Si3 0.608066 0.514710 0.848201
Si Si4 0.010415 0.770476 0.997178
Si Si5 0.310396 0.178454 0.722465
Si Si6 0.292506 0.883411 0.579361
Si Si7 0.249015 0.349521 0.391305
Si Si8 0.789191 0.387035 0.595898
O O1 0.459950 0.777606 0.114475
O O2 0.291145 0.962990 0.543147
O O3 0.591343 0.651763 0.543800
O O4 0.280395 0.127767 0.626025
O O5 0.683001 0.371842 0.989044
O O6 0.730425 0.162391 0.696414
O O7 0.880555 0.016708 0.102111
O O8 0.024840 0.866381 0.680617
O O9 0.490165 0.617632 0.634196
O O10 0.773261 0.337502 0.682023
O O11 0.093349 0.620790 0.645197
O O12 0.183878 0.571789 0.130093
O O13 0.877236 0.892949 0.136921
O O14 0.243161 0.298907 0.536082
O O15 0.540171 0.891492 0.649358
O O16 0.222774 0.341720 0.073829
#
# Coordination Sequence:
#
# PCOD9036633 Si02
#       8
#     2   2   2   2   2   2   2   2
#     4  11  24  42  65  94 133 173 217 274 331 397
#     4  11  23  41  65  94 129 172 219 271 333 398
#     4  11  23  41  65  94 129 172 219 271 333 398
#     4  11  24  42  65  94 133 173 217 274 331 397
#     4  10  23  40  69 102 134 173 223 279 341 402
#     4  10  25  42  64  88 134 172 224 266 331 394
#     4  10  23  40  69 102 134 173 223 279 341 402
#     4  10  23  38  64  96 134 164 216 274 337 388
#
# _framework density 24.829447999999999
#
# number of rings (size 3 to 8) (size 9 to 14) (size 15 to 20)
#    0.000    1.500    0.000    3.750   12.250    8.000 
#    0.000    1.250    0.000    0.000    0.000    0.000 
#    0.000    0.000    0.000    0.000    0.000    0.000 
#
# Total GULP energy -89718.379544 kJ/mol
# GULP energy per Si atom -5607.398721 kJ/mol
# Density = 2.477294 g / cm^3
# Si number density = 24.829448 Si / 1000 Ang^3
#
#
#
# Elastic Constant Matrix: (Units=GPa)
#
#
# Indices 1 2 3 4 5 6 
#
# 1 142.1989 40.6434 33.2595 0.9409 -13.8464 -1.8652
# 2 40.6434 59.2306 13.8284 -6.1375 -0.9270 0.6862
# 3 33.2595 13.8284 89.8480 1.2531 -6.1270 -5.8070
# 4 0.9409 -6.1375 1.2531 28.7105 6.4664 1.0090
# 5 -13.8464 -0.9270 -6.1270 6.4664 34.8421 1.6855
# 6 -1.8652 0.6862 -5.8070 1.0090 1.6855 44.8584
#
#
#
# Elastic Compliance Matrix: (Units=1/GPa)
#
#
# Indices 1 2 3 4 5 6 
#
# 1 0.009781 -0.006358 -0.002345 -0.002426 0.003750 0.000114
# 2 -0.006358 0.022128 -0.001403 0.005752 -0.003214 -0.000793
# 3 -0.002345 -0.001403 0.012419 -0.001122 0.001350 0.001506
# 4 -0.002426 0.005752 -0.001122 0.038027 -0.008023 -0.000888
# 5 0.003750 -0.003214 0.001350 -0.008023 0.031863 -0.000637
# 6 0.000114 -0.000793 0.001506 -0.000888 -0.000637 0.022548
#
#
# Mechanical properties :
#
#
# Convention : Reuss Voigt Hill
#
# Bulk Modulus (GPa) = 41.46576 51.86000 46.66288
# Shear Modulus (GPa) = 30.29998 35.25195 32.77597
#
# Velocity S-wave (km/s) = 3.49710 3.77206 3.63718
# Velocity P-wave (km/s) = 5.74829 6.31689 6.03928
#
# Compressibility (1/GPa) = 0.02411628
#
# Stress axis : x y z
#
# Youngs Moduli (GPa) = 102.24025 45.19084 80.52196
#
# Poissons Ratio (x) = 0.28732 0.18884
# Poissons Ratio (y) = 0.65005 0.11296
# Poissons Ratio (z) = 0.23977 0.06339
#
# Static dielectric constant tensor:
#      x y z
#    x 1.935350 0.018960 0.010490 
#    y 0.018960 1.962280 0.004620 
#    z 0.010490 0.004620 1.934050 
# 
# From -- ./inp_files/124854.got.cif
#   From: 2010.05.17/outbox.cif.g08.bks.cpg/sg2_63_cif.got.tgz:124854.got - 2010.06.03 11:33:40.
