data_PCOD9036723
_publ_section_title
;
Structure prediction by ZEFSAII (Michael W. Deem and Ramdas Pophale) SiO2 
 PCOD9036723
Probable space group: P -1
;
_chemical_formula_sum "Si O2"
_cell_formula_units_Z 16
_cell_length_a 9.053161
_cell_length_b 5.617381
_cell_length_c 14.593609
_cell_angle_alpha 80.245798
_cell_angle_beta 103.093210
_cell_angle_gamma 81.207010
_cell_volume 698.132842
_symmetry_space_group_name_H-M "P -1"
_symmetry_group_IT_number 2
_symmetry_cell_setting 'triclinic'
loop_
_space_group_symop_operation_xyz
x,y,z
-x,-y,-z
loop_
_atom_site_type_symbol
_atom_site_label
_atom_site_fract_x
_atom_site_fract_y
_atom_site_fract_z
Si Si1 0.209574 0.067370 0.708881
Si Si2 0.264723 0.416421 0.212590
Si Si3 0.009649 0.269627 0.945340
Si Si4 0.887821 0.966297 0.675383
Si Si5 0.669318 0.772994 0.114015
Si Si6 0.124375 0.277790 0.491159
Si Si7 0.452318 0.707267 0.866964
Si Si8 0.640373 0.448376 0.593253
O O1 0.280184 0.257094 0.769174
O O2 0.206285 0.128122 0.598109
O O3 0.320324 0.809453 0.765536
O O4 0.036132 0.071526 0.720915
O O5 0.160954 0.230091 0.249937
O O6 0.379056 0.316482 0.152234
O O7 0.373414 0.477172 0.306809
O O8 0.139725 0.650089 0.146287
O O9 0.173904 0.250482 0.919684
O O10 0.000000 0.500000 0.000000
O O11 0.000000 0.000000 0.000000
O O12 0.944142 0.867240 0.588465
O O13 0.733390 0.168772 0.624298
O O14 0.580551 0.556359 0.090609
O O15 0.418730 0.940429 0.915716
O O16 0.244964 0.391838 0.442720
O O17 0.000000 0.500000 0.500000
O O18 0.500000 0.500000 0.500000
#
# Coordination Sequence:
#
# PCOD9036723 Si02
#       8
#     2   2   2   2   2   2   2   2
#     4  10  23  38  71  92 147 185 253 291 369 417
#     4  11  28  46  71 109 148 195 248 305 378 426
#     4  12  28  51  83 112 143 190 249 307 374 453
#     4  11  24  41  64  98 144 196 250 303 350 439
#     4  10  24  46  72 108 140 190 232 303 365 440
#     4  11  24  37  57 100 129 196 245 302 349 426
#     4  10  25  42  76 103 147 192 234 300 371 435
#     4  11  27  39  67  97 156 193 250 296 361 433
#
# _framework density 22.918275999999999
#
# number of rings (size 3 to 8) (size 9 to 14) (size 15 to 20)
#    0.750    0.500    1.250    2.625   14.000    1.000 
#    0.000    3.750    0.000    0.000    0.000    0.000 
#    0.000    0.000    0.000    0.000    0.000    0.000 
#
# Total GULP energy -89381.558223 kJ/mol
# GULP energy per Si atom -5586.347389 kJ/mol
# Density = 2.286611 g / cm^3
# Si number density = 22.918276 Si / 1000 Ang^3
#
#
#
# Elastic Constant Matrix: (Units=GPa)
#
#
# Indices 1 2 3 4 5 6 
#
# 1 81.2220 43.4630 41.4650 3.4175 -12.5654 -21.4640
# 2 43.4630 143.9999 55.4259 -5.5226 -1.1616 -4.6206
# 3 41.4650 55.4259 92.4120 -20.0642 18.5654 4.3041
# 4 3.4175 -5.5226 -20.0642 55.4126 0.0170 -0.2787
# 5 -12.5654 -1.1616 18.5654 0.0170 29.9136 4.0995
# 6 -21.4640 -4.6206 4.3041 -0.2787 4.0995 40.0201
#
#
#
# Elastic Compliance Matrix: (Units=1/GPa)
#
#
# Indices 1 2 3 4 5 6 
#
# 1 0.033392 -0.001023 -0.022551 -0.010246 0.025587 0.017524
# 2 -0.001023 0.009763 -0.006499 -0.001314 0.003864 0.000872
# 3 -0.022551 -0.006499 0.034137 0.013045 -0.029076 -0.013447
# 4 -0.010246 -0.001314 0.013045 0.023246 -0.011685 -0.005691
# 5 0.025587 0.003864 -0.029076 -0.011685 0.060875 0.010979
# 6 0.017524 0.000872 -0.013447 -0.005691 0.010979 0.034769
#
#
# Mechanical properties :
#
#
# Convention : Reuss Voigt Hill
#
# Bulk Modulus (GPa) = 58.31647 66.48241 62.39944
# Shear Modulus (GPa) = 19.08075 36.88793 27.98434
#
# Velocity S-wave (km/s) = 2.88854 4.01626 3.49814
# Velocity P-wave (km/s) = 6.05190 7.11186 6.60318
#
# Compressibility (1/GPa) = 0.01714782
#
# Stress axis : x y z
#
# Youngs Moduli (GPa) = 29.94699 102.42230 29.29348
#
# Poissons Ratio (x) = 0.10480 0.66058
# Poissons Ratio (y) = 0.03064 0.19038
# Poissons Ratio (z) = 0.67532 0.66563
#
# Static dielectric constant tensor:
#      x y z
#    x 1.843380 0.031990 0.132930 
#    y 0.031990 1.920800 0.059860 
#    z 0.132930 0.059860 2.181780 
# 
# From -- ./inp_files/488307.got.cif
#   From: 2010.05.17/outbox.cif.g08.bks.cpg/sg2_245_cif.got.tgz:488307.got - 2010.06.03 11:33:40.
