data_PCOD9036475
_publ_section_title
;
Structure prediction by ZEFSAII (Michael W. Deem and Ramdas Pophale) SiO2 
 PCOD9036475
Probable space group: P -1
;
_chemical_formula_sum "Si O2"
_cell_formula_units_Z 16
_cell_length_a 9.507650
_cell_length_b 9.030735
_cell_length_c 10.535382
_cell_angle_alpha 99.685581
_cell_angle_beta 50.547277
_cell_angle_gamma 115.352431
_cell_volume 624.172176
_symmetry_space_group_name_H-M "P -1"
_symmetry_group_IT_number 2
_symmetry_cell_setting 'triclinic'
loop_
_space_group_symop_operation_xyz
x,y,z
-x,-y,-z
loop_
_atom_site_type_symbol
_atom_site_label
_atom_site_fract_x
_atom_site_fract_y
_atom_site_fract_z
Si Si1 0.247839 0.038749 0.070119
Si Si2 0.482856 0.171330 0.522287
Si Si3 0.001902 0.791640 0.828913
Si Si4 0.921934 0.841584 0.615766
Si Si5 0.311689 0.486383 0.428367
Si Si6 0.715414 0.499298 0.077070
Si Si7 0.148564 0.276817 0.739485
Si Si8 0.362081 0.835237 0.821459
O O1 0.072794 0.859243 0.182406
O O2 0.141822 0.116507 0.043669
O O3 0.269796 0.148927 0.198280
O O4 0.415565 0.001892 0.896131
O O5 0.651841 0.328046 0.523031
O O6 0.278931 0.176480 0.687485
O O7 0.488786 0.189294 0.368032
O O8 0.500000 0.000000 0.500000
O O9 0.060778 0.851423 0.658962
O O10 0.180377 0.820945 0.827866
O O11 0.840210 0.599091 0.899028
O O12 0.869517 0.662932 0.560012
O O13 0.000000 0.000000 0.500000
O O14 0.504289 0.505483 0.235237
O O15 0.278301 0.397576 0.571875
O O16 0.851473 0.603885 0.131396
O O17 0.695935 0.316284 0.071905
#
# Coordination Sequence:
#
# PCOD9036475 Si02
#       8
#     2   2   2   2   2   2   2   2
#     4  10  23  37  68  92 124 166 219 263 318 371
#     4  11  24  35  65  99 128 161 211 275 325 366
#     4  10  23  37  61  96 123 169 214 263 320 377
#     4  10  23  43  67  87 125 184 219 248 311 401
#     4  11  21  43  64  88 132 178 210 247 324 399
#     4  11  22  36  64  96 130 162 208 272 330 374
#     4  11  19  41  63  93 124 172 211 261 326 378
#     4  12  21  39  62 102 127 154 213 283 321 363
#
# _framework density 25.633953999999999
#
# number of rings (size 3 to 8) (size 9 to 14) (size 15 to 20)
#    0.750    0.500    5.000    2.250    3.500    0.500 
#    0.000    1.250    2.750    0.000    0.000    0.000 
#    0.000    0.000    0.000    0.000    0.000    0.000 
#
# Total GULP energy -89212.977666 kJ/mol
# GULP energy per Si atom -5575.811104 kJ/mol
# Density = 2.557561 g / cm^3
# Si number density = 25.633954 Si / 1000 Ang^3
#
#
#
# Elastic Constant Matrix: (Units=GPa)
#
#
# Indices 1 2 3 4 5 6 
#
# 1 45.0744 33.4085 21.6739 -0.9308 8.9573 2.5375
# 2 33.4085 164.4922 21.4990 24.4531 10.6694 -2.2697
# 3 21.6739 21.4990 91.1400 5.0172 10.0322 -8.9417
# 4 -0.9308 24.4531 5.0172 59.5698 -2.3374 4.7145
# 5 8.9573 10.6694 10.0322 -2.3374 32.1218 5.9288
# 6 2.5375 -2.2697 -8.9417 4.7145 5.9288 39.1691
#
#
#
# Elastic Compliance Matrix: (Units=1/GPa)
#
#
# Indices 1 2 3 4 5 6 
#
# 1 0.030296 -0.005685 -0.005978 0.003438 -0.003797 -0.003496
# 2 -0.005685 0.007875 0.000004 -0.003501 -0.001560 0.001483
# 3 -0.005978 0.000004 0.013259 -0.001670 -0.003358 0.004124
# 4 0.003438 -0.003501 -0.001670 0.018802 0.002737 -0.003484
# 5 -0.003797 -0.001560 -0.003358 0.002737 0.035111 -0.006255
# 6 -0.003496 0.001483 0.004124 -0.003484 -0.006255 0.028150
#
#
# Mechanical properties :
#
#
# Convention : Reuss Voigt Hill
#
# Bulk Modulus (GPa) = 35.57063 50.42993 43.00028
# Shear Modulus (GPa) = 30.08763 41.11383 35.60073
#
# Velocity S-wave (km/s) = 3.42971 4.00919 3.73072
# Velocity P-wave (km/s) = 5.43970 6.41462 5.94717
#
# Compressibility (1/GPa) = 0.02811308
#
# Stress axis : x y z
#
# Youngs Moduli (GPa) = 33.00773 126.97701 75.42126
#
# Poissons Ratio (x) = 0.72184 0.45086
# Poissons Ratio (y) = 0.18764 -0.00031
# Poissons Ratio (z) = 0.19732 -0.00053
#
# Static dielectric constant tensor:
#      x y z
#    x 2.125580 0.016220 -0.008750 
#    y 0.016220 2.038720 -0.047300 
#    z -0.008750 -0.047300 2.147480 
# 
# From -- ./inp_files/415108.got.cif
#   From: 2010.05.17/outbox.cif.g08.bks.cpg/sg2_208_cif.got.tgz:415108.got - 2010.06.03 11:33:40.
