data_PCOD9036738
_publ_section_title
;
Structure prediction by ZEFSAII (Michael W. Deem and Ramdas Pophale) SiO2 
 PCOD9036738
Probable space group: P -1
;
_chemical_formula_sum "Si O2"
_cell_formula_units_Z 16
_cell_length_a 12.547032
_cell_length_b 8.544285
_cell_length_c 15.966173
_cell_angle_alpha 60.288415
_cell_angle_beta 66.530762
_cell_angle_gamma 116.550514
_cell_volume 801.890732
_symmetry_space_group_name_H-M "P -1"
_symmetry_group_IT_number 2
_symmetry_cell_setting 'triclinic'
loop_
_space_group_symop_operation_xyz
x,y,z
-x,-y,-z
loop_
_atom_site_type_symbol
_atom_site_label
_atom_site_fract_x
_atom_site_fract_y
_atom_site_fract_z
Si Si1 0.343134 0.652701 0.164493
Si Si2 0.892474 0.663354 0.850954
Si Si3 0.947607 0.134564 0.705040
Si Si4 0.307404 0.160353 0.976148
Si Si5 0.060505 0.491566 0.824347
Si Si6 0.028707 0.830096 0.505135
Si Si7 0.309404 0.584136 0.848931
Si Si8 0.741458 0.206586 0.488722
O O1 0.212145 0.460207 0.173709
O O2 0.193057 0.524239 0.318067
O O3 0.473408 0.644031 0.150554
O O4 0.500000 0.000000 0.000000
O O5 0.028723 0.659334 0.813671
O O6 0.730018 0.440330 0.033758
O O7 0.999999 0.989942 0.742629
O O8 0.123217 0.489452 0.579559
O O9 0.902040 0.095926 0.631606
O O10 0.767332 0.944659 0.875911
O O11 0.302304 0.360497 0.896182
O O12 0.147297 0.844085 0.058019
O O13 0.137634 0.468058 0.882149
O O14 0.217485 0.682765 0.648591
O O15 0.170389 0.883845 0.502012
O O16 0.000000 0.000000 0.500000
O O17 0.517269 0.922917 0.663520
#
# Coordination Sequence:
#
# PCOD9036738 Si02
#       8
#     2   2   2   2   2   2   2   2
#     4  12  22  38  63  92 124 155 198 251 302 361
#     4  11  23  41  61  90 123 158 201 249 302 354
#     4  10  23  39  59  88 125 160 194 245 306 361
#     4  10  23  40  64  91 121 157 201 250 301 357
#     4  11  21  46  61  86 122 164 201 248 297 354
#     4  12  22  39  60  88 126 162 192 243 310 361
#     4  11  25  38  65  90 120 159 207 248 294 354
#     4  11  23  40  60  90 121 160 203 247 295 358
#
# _framework density 19.952843999999999
#
# number of rings (size 3 to 8) (size 9 to 14) (size 15 to 20)
#    0.000    1.000    3.750    3.000    3.500    1.000 
#    0.000    0.625    0.000    0.000    0.000    0.000 
#    0.000    0.000    0.000    0.000    0.000    0.000 
#
# Total GULP energy -89412.440520 kJ/mol
# GULP energy per Si atom -5588.277533 kJ/mol
# Density = 1.990743 g / cm^3
# Si number density = 19.952844 Si / 1000 Ang^3
#
#
#
# Elastic Constant Matrix: (Units=GPa)
#
#
# Indices 1 2 3 4 5 6 
#
# 1 104.2361 8.2805 2.6022 1.8890 -1.3607 4.1293
# 2 8.2805 34.7276 0.7592 -0.7638 0.4378 -7.6385
# 3 2.6022 0.7592 65.1922 -1.1486 -0.6633 11.2053
# 4 1.8890 -0.7638 -1.1486 20.7824 -4.7985 7.4818
# 5 -1.3607 0.4378 -0.6633 -4.7985 27.9729 -3.3264
# 6 4.1293 -7.6385 11.2053 7.4818 -3.3264 24.0538
#
#
#
# Elastic Compliance Matrix: (Units=1/GPa)
#
#
# Indices 1 2 3 4 5 6 
#
# 1 0.009934 -0.002959 0.000098 0.000001 0.000216 -0.002661
# 2 -0.002959 0.032349 -0.002556 -0.003315 0.000271 0.013040
# 3 0.000098 -0.002556 0.017208 0.004543 0.000013 -0.010256
# 4 0.000001 -0.003315 0.004543 0.057165 0.007599 -0.019900
# 5 0.000216 0.000271 0.000013 0.007599 0.037398 0.002851
# 6 -0.002661 0.013040 -0.010256 -0.019900 0.002851 0.057533
#
#
# Mechanical properties :
#
#
# Convention : Reuss Voigt Hill
#
# Bulk Modulus (GPa) = 20.55186 25.27107 22.91146
# Shear Modulus (GPa) = 20.95197 27.39607 24.17402
#
# Velocity S-wave (km/s) = 3.24400 3.70948 3.48452
# Velocity P-wave (km/s) = 4.93497 5.57134 5.26278
#
# Compressibility (1/GPa) = 0.04865741
#
# Stress axis : x y z
#
# Youngs Moduli (GPa) = 100.65995 30.91306 58.11208
#
# Poissons Ratio (x) = 0.09147 -0.00567
# Poissons Ratio (y) = 0.29785 0.14851
# Poissons Ratio (z) = -0.00982 0.07900
#
# Static dielectric constant tensor:
#      x y z
#    x 1.698860 -0.030360 0.021840 
#    y -0.030360 1.709870 -0.001840 
#    z 0.021840 -0.001840 1.721030 
# 
# From -- ./inp_files/176097.got.cif
#   From: 2010.05.17/outbox.cif.g08.bks.cpg/sg2_89_cif.got.tgz:176097.got - 2010.06.03 11:33:40.
