data_PCOD9036421
_publ_section_title
;
Structure prediction by ZEFSAII (Michael W. Deem and Ramdas Pophale) SiO2 
 PCOD9036421
Probable space group: P -1
;
_chemical_formula_sum "Si O2"
_cell_formula_units_Z 16
_cell_length_a 17.511271
_cell_length_b 7.781873
_cell_length_c 11.657975
_cell_angle_alpha 86.102876
_cell_angle_beta 131.258055
_cell_angle_gamma 57.941137
_cell_volume 763.846441
_symmetry_space_group_name_H-M "P -1"
_symmetry_group_IT_number 2
_symmetry_cell_setting 'triclinic'
loop_
_space_group_symop_operation_xyz
x,y,z
-x,-y,-z
loop_
_atom_site_type_symbol
_atom_site_label
_atom_site_fract_x
_atom_site_fract_y
_atom_site_fract_z
Si Si1 0.893533 0.611740 0.072122
Si Si2 0.118363 0.784168 0.435090
Si Si3 0.930637 0.740801 0.344173
Si Si4 0.216931 0.095874 0.295090
Si Si5 0.678209 0.326670 0.172371
Si Si6 0.167591 0.757124 0.240808
Si Si7 0.225680 0.599690 0.950934
Si Si8 0.440282 0.411515 0.370057
O O1 0.887726 0.735365 0.174082
O O2 0.795873 0.565152 0.012215
O O3 0.078302 0.337900 0.232443
O O4 0.825934 0.788512 0.882087
O O5 0.253755 0.714526 0.633749
O O6 0.155034 0.671894 0.349742
O O7 0.073275 0.689307 0.477481
O O8 0.955610 0.101615 0.247327
O O9 0.000000 0.500000 0.500000
O O10 0.785372 0.031784 0.242975
O O11 0.209144 0.899290 0.306711
O O12 0.403524 0.893590 0.501465
O O13 0.702003 0.453804 0.100134
O O14 0.500000 0.500000 0.000000
O O15 0.309057 0.494983 0.318325
O O16 0.000000 0.000000 0.000000
O O17 0.331216 0.580226 0.142228
O O18 0.500000 0.500000 0.500000
#
# Coordination Sequence:
#
# PCOD9036421 Si02
#       8
#     2   2   2   2   2   2   2   2
#     4  11  22  41  65  93 133 178 215 261 339 395
#     4  11  22  42  69  93 126 173 225 262 323 397
#     4  11  24  42  70  94 128 170 227 271 323 403
#     4  10  23  37  60  92 137 166 211 267 331 382
#     4  11  27  44  69  97 129 170 224 280 335 377
#     4  11  19  37  65  94 126 166 223 259 317 394
#     4  11  22  42  66  92 130 178 217 268 322 408
#     4  10  23  36  63  97 132 167 221 272 324 375
#
# _framework density 20.946618000000001
#
# number of rings (size 3 to 8) (size 9 to 14) (size 15 to 20)
#    0.000    1.250    2.500    3.750    8.750    1.500 
#    0.000    5.000    0.000    0.000    0.000    0.000 
#    0.000    0.000    0.000    0.000    0.000    0.000 
#
# Total GULP energy -89256.752871 kJ/mol
# GULP energy per Si atom -5578.547054 kJ/mol
# Density = 2.089894 g / cm^3
# Si number density = 20.946618 Si / 1000 Ang^3
#
#
#
# Elastic Constant Matrix: (Units=GPa)
#
#
# Indices 1 2 3 4 5 6 
#
# 1 100.5208 26.8065 47.9707 -15.9047 6.0292 -18.5950
# 2 26.8065 45.4338 21.8369 5.4312 5.3914 -2.8341
# 3 47.9707 21.8369 134.3926 14.1990 20.0518 -12.4608
# 4 -15.9047 5.4312 14.1990 33.9782 -4.5229 -1.4538
# 5 6.0292 5.3914 20.0518 -4.5229 36.7497 -7.7792
# 6 -18.5950 -2.8341 -12.4608 -1.4538 -7.7792 35.3212
#
#
#
# Elastic Compliance Matrix: (Units=1/GPa)
#
#
# Indices 1 2 3 4 5 6 
#
# 1 0.019646 -0.010150 -0.006971 0.014887 0.005798 0.008959
# 2 -0.010150 0.029430 0.000283 -0.010432 -0.005026 -0.004418
# 3 -0.006971 0.000283 0.011726 -0.009160 -0.006712 -0.001366
# 4 0.014887 -0.010432 -0.009160 0.043724 0.011167 0.008028
# 5 0.005798 -0.005026 -0.006712 0.011167 0.033765 0.008177
# 6 0.008959 -0.004418 -0.001366 0.008028 0.008177 0.034323
#
#
# Mechanical properties :
#
#
# Convention : Reuss Voigt Hill
#
# Bulk Modulus (GPa) = 36.86255 52.61950 44.74102
# Shear Modulus (GPa) = 23.21997 33.45869 28.33933
#
# Velocity S-wave (km/s) = 3.33307 4.00100 3.68221
# Velocity P-wave (km/s) = 5.69641 6.82050 6.28364
#
# Compressibility (1/GPa) = 0.02712780
#
# Stress axis : x y z
#
# Youngs Moduli (GPa) = 50.89972 33.97854 85.28331
#
# Poissons Ratio (x) = 0.34488 0.59448
# Poissons Ratio (y) = 0.51663 -0.02417
# Poissons Ratio (z) = 0.35480 -0.00963
#
# Static dielectric constant tensor:
#      x y z
#    x 1.826480 0.011040 0.003210 
#    y 0.011040 1.792580 0.023920 
#    z 0.003210 0.023920 1.741990 
# 
# From -- ./inp_files/461252.got.cif
#   From: 2010.05.17/outbox.cif.g08.bks.cpg/sg2_231_cif.got.tgz:461252.got - 2010.06.03 11:33:40.
