data_PCOD9036604
_publ_section_title
;
Structure prediction by ZEFSAII (Michael W. Deem and Ramdas Pophale) SiO2 
 PCOD9036604
Probable space group: P -1
;
_chemical_formula_sum "Si O2"
_cell_formula_units_Z 15
_cell_length_a 21.289003
_cell_length_b 9.457631
_cell_length_c 18.412518
_cell_angle_alpha 144.512233
_cell_angle_beta 20.052031
_cell_angle_gamma 149.604565
_cell_volume 642.970794
_symmetry_space_group_name_H-M "P -1"
_symmetry_group_IT_number 2
_symmetry_cell_setting 'triclinic'
loop_
_space_group_symop_operation_xyz
x,y,z
-x,-y,-z
loop_
_atom_site_type_symbol
_atom_site_label
_atom_site_fract_x
_atom_site_fract_y
_atom_site_fract_z
Si Si1 0.986545 0.408365 0.184163
Si Si2 0.480709 0.677728 0.028225
Si Si3 0.784832 0.831901 0.085536
Si Si4 0.665190 0.598284 0.652248
Si Si5 0.500000 0.500000 0.500000
Si Si6 0.079300 0.159041 0.208360
Si Si7 0.175991 0.699389 0.949263
Si Si8 0.636947 0.858833 0.640858
O O1 0.856893 0.534512 0.416632
O O2 0.078903 0.568905 0.077013
O O3 0.834538 0.082991 0.190889
O O4 0.174656 0.403388 0.021037
O O5 0.244846 0.483083 0.170544
O O6 0.490784 0.971802 0.154855
O O7 0.500000 0.500000 0.000000
O O8 0.639363 0.710513 0.804823
O O9 0.553198 0.691467 0.245459
O O10 0.953876 0.938503 0.880437
O O11 0.674891 0.786988 0.651489
O O12 0.542069 0.585855 0.578455
O O13 0.382434 0.685714 0.699638
O O14 0.192820 0.998041 0.050943
O O15 0.862252 0.058654 0.441940
O O16 0.000000 0.500000 0.000000
#
# Coordination Sequence:
#
# PCOD9036604 Si02
#       8
#     2   2   2   2   1   2   2   2
#     4  11  21  40  64  99 144 177 232 275 345 417
#     4  11  27  48  69 100 138 186 242 285 348 420
#     4  10  23  38  63 101 139 180 222 283 347 407
#     4  11  24  45  69  96 140 184 229 290 339 414
#     4  12  24  38  76 104 142 174 226 286 338 418
#     4  11  23  45  71  98 140 182 228 290 342 417
#     4  12  21  41  65 104 140 180 229 278 346 409
#     4  12  24  46  72 104 138 186 231 286 354 406
#
# _framework density 23.329208999999999
#
# number of rings (size 3 to 8) (size 9 to 14) (size 15 to 20)
#    0.000    0.800    4.000    2.800    1.867    1.067 
#    9.600    0.667    0.000    0.000    0.000    0.000 
#    0.000    0.000    0.000    0.000    0.000    0.000 
#
# Total GULP energy -83671.030853 kJ/mol
# GULP energy per Si atom -5578.068724 kJ/mol
# Density = 2.327611 g / cm^3
# Si number density = 23.329209 Si / 1000 Ang^3
#
#
#
# Elastic Constant Matrix: (Units=GPa)
#
#
# Indices 1 2 3 4 5 6 
#
# 1 83.5109 8.2084 40.8616 10.7042 23.9698 -23.5023
# 2 8.2084 55.1936 33.1982 14.2061 15.2310 -4.8674
# 3 40.8616 33.1982 167.8735 32.2999 29.4728 -7.4375
# 4 10.7042 14.2061 32.2999 38.0665 -0.3475 0.3745
# 5 23.9698 15.2310 29.4728 -0.3475 40.4701 -5.4405
# 6 -23.5023 -4.8674 -7.4375 0.3745 -5.4405 42.7362
#
#
#
# Elastic Compliance Matrix: (Units=1/GPa)
#
#
# Indices 1 2 3 4 5 6 
#
# 1 0.018593 0.003169 -0.002184 -0.004733 -0.009440 0.009046
# 2 0.003169 0.023754 -0.002253 -0.007954 -0.008841 0.003000
# 3 -0.002184 -0.002253 0.008867 -0.006105 -0.004425 -0.000424
# 4 -0.004733 -0.007954 -0.006105 0.035877 0.010066 -0.003604
# 5 -0.009440 -0.008841 -0.004425 0.010066 0.036615 -0.002395
# 6 0.009046 0.003000 -0.000424 -0.003604 -0.002395 0.028369
#
#
# Mechanical properties :
#
#
# Convention : Reuss Voigt Hill
#
# Bulk Modulus (GPa) = 20.54318 52.34604 36.44461
# Shear Modulus (GPa) = 29.26790 39.20854 34.23822
#
# Velocity S-wave (km/s) = 3.54582 4.10404 3.83510
# Velocity P-wave (km/s) = 5.05852 6.70404 5.93855
#
# Compressibility (1/GPa) = 0.04867796
#
# Stress axis : x y z
#
# Youngs Moduli (GPa) = 53.78266 42.09887 112.78072
#
# Poissons Ratio (x) = -0.13342 0.24628
# Poissons Ratio (y) = -0.17045 0.25414
# Poissons Ratio (z) = 0.11745 0.09487
#
# Static dielectric constant tensor:
#      x y z
#    x 1.934170 0.031250 -0.003160 
#    y 0.031250 1.950280 -0.028650 
#    z -0.003160 -0.028650 1.837430 
# 
# From -- ./inp_files/171095.got.cif
#   From: 2010.05.17/outbox.cif.g08.bks.cpg/sg2_86_cif.got.tgz:171095.got - 2010.06.03 11:33:40.
