data_PCOD9036959
_publ_section_title
;
Structure prediction by ZEFSAII (Michael W. Deem and Ramdas Pophale) SiO2 
 PCOD9036959
Probable space group: P -1
;
_chemical_formula_sum "Si O2"
_cell_formula_units_Z 16
_cell_length_a 14.484527
_cell_length_b 12.521773
_cell_length_c 11.609015
_cell_angle_alpha 80.222601
_cell_angle_beta 31.386731
_cell_angle_gamma 59.343552
_cell_volume 759.918136
_symmetry_space_group_name_H-M "P -1"
_symmetry_group_IT_number 2
_symmetry_cell_setting 'triclinic'
loop_
_space_group_symop_operation_xyz
x,y,z
-x,-y,-z
loop_
_atom_site_type_symbol
_atom_site_label
_atom_site_fract_x
_atom_site_fract_y
_atom_site_fract_z
Si Si1 0.469067 0.767766 0.177448
Si Si2 0.545846 0.602385 0.897684
Si Si3 0.605281 0.720946 0.430082
Si Si4 0.686603 0.129722 0.055796
Si Si5 0.797495 0.176445 0.325826
Si Si6 0.088704 0.633512 0.841640
Si Si7 0.017921 0.328370 0.318266
Si Si8 0.274489 0.023126 0.188477
O O1 0.373228 0.742423 0.392085
O O2 0.250915 0.940041 0.324537
O O3 0.553631 0.663568 0.996708
O O4 0.708961 0.734655 0.964692
O O5 0.341376 0.743318 0.003153
O O6 0.813833 0.490951 0.568203
O O7 0.500000 0.500000 0.000000
O O8 0.526754 0.776284 0.635227
O O9 0.355258 0.833266 0.597403
O O10 0.718839 0.550776 0.316483
O O11 0.823469 0.708855 0.162399
O O12 0.656493 0.058025 0.994722
O O13 0.942874 0.988499 0.875183
O O14 0.837049 0.278891 0.211465
O O15 0.059054 0.660134 0.731678
O O16 0.042619 0.203612 0.381634
O O17 0.500000 0.000000 0.000000
#
# Coordination Sequence:
#
# PCOD9036959 Si02
#       8
#     2   2   2   2   2   2   2   2
#     4  10  23  39  66  97 130 169 215 272 333 395
#     4  11  24  39  64  98 133 169 217 272 325 397
#     4  11  25  46  66  98 133 173 225 279 327 388
#     4  11  24  41  67  96 135 173 220 275 326 394
#     4  12  24  43  69  96 135 176 223 270 335 392
#     4  11  23  44  71  93 132 175 222 277 331 391
#     4  11  19  43  66  94 131 171 216 270 334 394
#     4   9  21  40  66  98 128 170 215 269 331 401
#
# _framework density 21.054898999999999
#
# number of rings (size 3 to 8) (size 9 to 14) (size 15 to 20)
#    0.000    1.250    3.750    1.875    1.750    1.500 
#    0.000    1.250    2.750    0.000    0.000    0.000 
#    0.000    0.000    0.000    0.000    0.000    0.000 
#
# Total GULP energy -89369.209738 kJ/mol
# GULP energy per Si atom -5585.575609 kJ/mol
# Density = 2.100698 g / cm^3
# Si number density = 21.054899 Si / 1000 Ang^3
#
#
#
# Elastic Constant Matrix: (Units=GPa)
#
#
# Indices 1 2 3 4 5 6 
#
# 1 83.6388 13.1152 29.0652 -3.4813 -0.1300 -6.7344
# 2 13.1152 88.4965 33.6399 -1.9325 -11.2351 -0.9970
# 3 29.0652 33.6399 94.1831 -4.6180 4.8109 2.9303
# 4 -3.4813 -1.9325 -4.6180 29.9870 0.4085 -0.1612
# 5 -0.1300 -11.2351 4.8109 0.4085 28.5420 1.1412
# 6 -6.7344 -0.9970 2.9303 -0.1612 1.1412 19.9253
#
#
#
# Elastic Compliance Matrix: (Units=1/GPa)
#
#
# Indices 1 2 3 4 5 6 
#
# 1 0.013985 -0.000275 -0.004360 0.000957 0.000463 0.005335
# 2 -0.000275 0.014205 -0.005352 -0.000023 0.006451 0.001035
# 3 -0.004360 -0.005352 0.014279 0.001389 -0.004410 -0.003578
# 4 0.000957 -0.000023 0.001389 0.033684 -0.000738 0.000433
# 5 0.000463 0.006451 -0.004410 -0.000738 0.038375 -0.001076
# 6 0.005335 0.001035 -0.003578 0.000433 -0.001076 0.052634
#
#
# Mechanical properties :
#
#
# Convention : Reuss Voigt Hill
#
# Bulk Modulus (GPa) = 44.45439 46.43989 45.44714
# Shear Modulus (GPa) = 25.68933 28.39076 27.04004
#
# Velocity S-wave (km/s) = 3.49680 3.67606 3.58755
# Velocity P-wave (km/s) = 6.12069 6.33422 6.22837
#
# Compressibility (1/GPa) = 0.02249497
#
# Stress axis : x y z
#
# Youngs Moduli (GPa) = 71.50709 70.39689 70.03145
#
# Poissons Ratio (x) = 0.01938 0.30534
# Poissons Ratio (y) = 0.01969 0.37478
# Poissons Ratio (z) = 0.31178 0.37674
#
# Static dielectric constant tensor:
#      x y z
#    x 1.753620 0.029190 -0.026290 
#    y 0.029190 1.834050 0.013370 
#    z -0.026290 0.013370 1.754220 
# 
# From -- ./inp_files/223707.got.cif
#   From: 2010.05.17/outbox.cif.g08.bks.cpg/sg2_112_cif.got.tgz:223707.got - 2010.06.03 11:33:40.
