data_PCOD9036297
_publ_section_title
;
Structure prediction by ZEFSAII (Michael W. Deem and Ramdas Pophale) SiO2 
 PCOD9036297
Probable space group: P -1
;
_chemical_formula_sum "Si O2"
_cell_formula_units_Z 10
_cell_length_a 11.548687
_cell_length_b 7.698994
_cell_length_c 7.218379
_cell_angle_alpha 77.169353
_cell_angle_beta 109.029025
_cell_angle_gamma 49.010743
_cell_volume 362.589302
_symmetry_space_group_name_H-M "P -1"
_symmetry_group_IT_number 2
_symmetry_cell_setting 'triclinic'
loop_
_space_group_symop_operation_xyz
x,y,z
-x,-y,-z
loop_
_atom_site_type_symbol
_atom_site_label
_atom_site_fract_x
_atom_site_fract_y
_atom_site_fract_z
Si Si1 0.486587 0.643640 0.740159
Si Si2 0.072377 0.893523 0.770774
Si Si3 0.950179 0.759463 0.037100
Si Si4 0.487913 0.252706 0.679226
Si Si5 0.197518 0.272268 0.534362
O O1 0.433480 0.506945 0.676345
O O2 0.538468 0.693000 0.568318
O O3 0.313732 0.953284 0.674274
O O4 0.688719 0.401981 0.019580
O O5 0.979618 0.830201 0.843959
O O6 0.000000 0.000000 0.500000
O O7 0.015525 0.127122 0.814304
O O8 0.723861 0.956287 0.902963
O O9 0.113700 0.423580 0.251473
O O10 0.354712 0.243798 0.680447
O O11 0.000000 0.500000 0.500000
#
# Coordination Sequence:
#
# PCOD9036297 Si02
#       5
#     2   2   2   2   2
#     4  10  23  49  82 120 157 218 275 334 416 489
#     4  10  22  48  83 117 162 217 274 337 413 494
#     4  10  24  48  77 119 166 211 271 341 413 486
#     4  10  23  49  83 113 164 219 269 339 409 494
#     4  12  27  50  76 124 168 211 274 340 411 490
#
# _framework density 27.579415999999998
#
# number of rings (size 3 to 8) (size 9 to 14) (size 15 to 20)
#    0.000    1.600    2.000    0.600    2.800    4.000 
#    7.200    3.000    0.000    0.000    0.000    0.000 
#    0.000    0.000    0.000    0.000    0.000    0.000 
#
# Total GULP energy -56279.154830 kJ/mol
# GULP energy per Si atom -5627.915483 kJ/mol
# Density = 2.751664 g / cm^3
# Si number density = 27.579416 Si / 1000 Ang^3
#
#
#
# Elastic Constant Matrix: (Units=GPa)
#
#
# Indices 1 2 3 4 5 6 
#
# 1 205.7323 81.0575 61.7345 -3.8486 17.7519 8.2097
# 2 81.0575 175.0989 71.5494 -32.6541 3.5147 -5.2257
# 3 61.7345 71.5494 208.8656 -5.9862 11.2017 4.8228
# 4 -3.8486 -32.6541 -5.9862 66.0581 -4.4501 -13.4830
# 5 17.7519 3.5147 11.2017 -4.4501 34.0000 1.5224
# 6 8.2097 -5.2257 4.8228 -13.4830 1.5224 42.0672
#
#
#
# Elastic Compliance Matrix: (Units=1/GPa)
#
#
# Indices 1 2 3 4 5 6 
#
# 1 0.006616 -0.003108 -0.000733 -0.001846 -0.003040 -0.002075
# 2 -0.003108 0.009043 -0.002221 0.004930 0.001909 0.003496
# 3 -0.000733 -0.002221 0.005837 -0.000918 -0.001384 -0.001046
# 4 -0.001846 0.004930 -0.000918 0.019025 0.002930 0.007069
# 5 -0.003040 0.001909 -0.001384 0.002930 0.031606 0.000784
# 6 -0.002075 0.003496 -0.001046 0.007069 0.000784 0.026968
#
#
# Mechanical properties :
#
#
# Convention : Reuss Voigt Hill
#
# Bulk Modulus (GPa) = 106.69706 113.15331 109.92518
# Shear Modulus (GPa) = 43.72836 53.44876 48.58856
#
# Velocity S-wave (km/s) = 3.98621 4.40704 4.20190
# Velocity P-wave (km/s) = 7.74323 8.18616 7.96778
#
# Compressibility (1/GPa) = 0.00937233
#
# Stress axis : x y z
#
# Youngs Moduli (GPa) = 151.15352 110.58494 171.31717
#
# Poissons Ratio (x) = 0.34374 0.12550
# Poissons Ratio (y) = 0.46984 0.38045
# Poissons Ratio (z) = 0.11073 0.24558
#
# Static dielectric constant tensor:
#      x y z
#    x 2.126020 0.000210 0.002130 
#    y 0.000210 2.154120 0.053000 
#    z 0.002130 0.053000 2.147780 
# 
# From -- ./inp_files/159622.got.cif
#   From: 2010.05.17/outbox.cif.g08.bks.cpg/sg2_80_cif.got.tgz:159622.got - 2010.06.03 11:33:40.
