data_PCOD9036321
_publ_section_title
;
Structure prediction by ZEFSAII (Michael W. Deem and Ramdas Pophale) SiO2 
 PCOD9036321
Probable space group: P -1
;
_chemical_formula_sum "Si O2"
_cell_formula_units_Z 14
_cell_length_a 12.058068
_cell_length_b 13.648653
_cell_length_c 15.846155
_cell_angle_alpha 24.155413
_cell_angle_beta 28.152404
_cell_angle_gamma 33.057820
_cell_volume 495.823370
_symmetry_space_group_name_H-M "P -1"
_symmetry_group_IT_number 2
_symmetry_cell_setting 'triclinic'
loop_
_space_group_symop_operation_xyz
x,y,z
-x,-y,-z
loop_
_atom_site_type_symbol
_atom_site_label
_atom_site_fract_x
_atom_site_fract_y
_atom_site_fract_z
Si Si1 0.808210 0.248850 0.429077
Si Si2 0.601795 0.516671 0.198929
Si Si3 0.891906 0.210143 0.644684
Si Si4 0.705284 0.660418 0.837172
Si Si5 0.823180 0.696545 0.368234
Si Si6 0.743374 0.747918 0.182185
Si Si7 0.657205 0.126701 0.229314
O O1 0.785582 0.361612 0.260477
O O2 0.000000 0.000000 0.500000
O O3 0.323339 0.334149 0.046996
O O4 0.082404 0.213072 0.441424
O O5 0.445131 0.337484 0.401402
O O6 0.391536 0.683872 0.263439
O O7 0.964673 0.419697 0.493750
O O8 0.825238 0.490333 0.283418
O O9 0.544965 0.194749 0.673018
O O10 0.878519 0.945875 0.894061
O O11 0.724550 0.375921 0.023152
O O12 0.479826 0.791728 0.831077
O O13 0.799564 0.742522 0.248021
O O14 0.870069 0.915319 0.221548
O O15 0.500000 0.000000 0.500000
#
# Coordination Sequence:
#
# PCOD9036321 Si02
#       7
#     2   2   2   2   2   2   2
#     4  10  23  50  87 115 153 210 264 333 402 474
#     4   9  21  48  74 115 158 198 269 330 382 479
#     4  10  23  46  74 110 153 210 248 330 396 460
#     4  11  24  44  79 111 157 212 263 320 398 467
#     4   9  21  44  69 107 154 201 245 329 383 445
#     4  10  22  49  77 113 162 198 271 327 392 486
#     4  11  22  44  73 116 159 205 273 325 374 481
#
# _framework density 28.235862999999998
#
# number of rings (size 3 to 8) (size 9 to 14) (size 15 to 20)
#    0.857    1.143    1.429    0.857    0.000    2.286 
#   10.286   11.429    6.286    0.000    0.000    0.000 
#    0.000    0.000    0.000    0.000    0.000    0.000 
#
# Total GULP energy -78309.284808 kJ/mol
# GULP energy per Si atom -5593.520343 kJ/mol
# Density = 2.817160 g / cm^3
# Si number density = 28.235863 Si / 1000 Ang^3
#
#
#
# Elastic Constant Matrix: (Units=GPa)
#
#
# Indices 1 2 3 4 5 6 
#
# 1 147.0402 85.0769 78.9954 -12.3233 39.9057 7.1552
# 2 85.0769 147.4090 83.1345 -13.7119 15.5930 5.1289
# 3 78.9954 83.1345 252.4923 -2.4353 28.7979 29.5055
# 4 -12.3233 -13.7119 -2.4353 70.7436 17.1031 6.2699
# 5 39.9057 15.5930 28.7979 17.1031 52.7944 -8.1088
# 6 7.1552 5.1289 29.5055 6.2699 -8.1088 53.3592
#
#
#
# Elastic Compliance Matrix: (Units=1/GPa)
#
#
# Indices 1 2 3 4 5 6 
#
# 1 0.013918 -0.006032 -0.000873 0.003875 -0.009943 -0.002770
# 2 -0.006032 0.011252 -0.002264 0.000312 0.002575 0.001334
# 3 -0.000873 -0.002264 0.005629 0.000462 -0.002381 -0.003194
# 4 0.003875 0.000312 0.000462 0.017602 -0.009641 -0.004338
# 5 -0.009943 0.002575 -0.002381 -0.009641 0.031394 0.008306
# 6 -0.002770 0.001334 -0.003194 -0.004338 0.008306 0.022522
#
#
# Mechanical properties :
#
#
# Convention : Reuss Voigt Hill
#
# Bulk Modulus (GPa) = 80.25639 115.70611 97.98125
# Shear Modulus (GPa) = 40.06112 55.36175 47.71143
#
# Velocity S-wave (km/s) = 3.77079 4.43277 4.11511
# Velocity P-wave (km/s) = 6.88794 8.20163 7.57332
#
# Compressibility (1/GPa) = 0.01246007
#
# Stress axis : x y z
#
# Youngs Moduli (GPa) = 71.85017 88.87157 177.66502
#
# Poissons Ratio (x) = 0.53603 0.15517
# Poissons Ratio (y) = 0.43337 0.40229
# Poissons Ratio (z) = 0.06275 0.20124
#
# Static dielectric constant tensor:
#      x y z
#    x 2.305890 -0.033730 -0.032940 
#    y -0.033730 2.252250 0.043510 
#    z -0.032940 0.043510 2.287130 
# 
# From -- ./inp_files/595717.got.cif
#   From: 2010.05.17/outbox.cif.g08.bks.cpg/sg2_298_cif.got.tgz:595717.got - 2010.06.03 11:33:40.
