data_PCOD9036300
_publ_section_title
;
Structure prediction by ZEFSAII (Michael W. Deem and Ramdas Pophale) SiO2 
 PCOD9036300
Probable space group: P -1
;
_chemical_formula_sum "Si O2"
_cell_formula_units_Z 16
_cell_length_a 18.902995
_cell_length_b 5.507271
_cell_length_c 6.705805
_cell_angle_alpha 102.453358
_cell_angle_beta 72.798713
_cell_angle_gamma 105.749417
_cell_volume 634.844230
_symmetry_space_group_name_H-M "P -1"
_symmetry_group_IT_number 2
_symmetry_cell_setting 'triclinic'
loop_
_space_group_symop_operation_xyz
x,y,z
-x,-y,-z
loop_
_atom_site_type_symbol
_atom_site_label
_atom_site_fract_x
_atom_site_fract_y
_atom_site_fract_z
Si Si1 0.266047 0.267245 0.045753
Si Si2 0.147370 0.945340 0.366166
Si Si3 0.428743 0.267054 0.070241
Si Si4 0.733462 0.060259 0.397125
Si Si5 0.090119 0.592750 0.987289
Si Si6 0.522037 0.152015 0.308810
Si Si7 0.079659 0.043947 0.824225
Si Si8 0.672437 0.489297 0.334250
O O1 0.279940 0.496470 0.912071
O O2 0.258008 0.024528 0.858778
O O3 0.346339 0.313950 0.101729
O O4 0.194289 0.182997 0.237949
O O5 0.206192 0.865338 0.458928
O O6 0.108812 0.721393 0.208668
O O7 0.305805 0.225625 0.553235
O O8 0.449414 0.192770 0.259806
O O9 0.500000 0.500000 0.000000
O O10 0.436375 0.025542 0.888925
O O11 0.691497 0.288157 0.438698
O O12 0.885299 0.180900 0.152487
O O13 0.916128 0.982627 0.421454
O O14 0.120611 0.336086 0.887308
O O15 0.584173 0.409298 0.339332
O O16 0.500000 0.000000 0.500000
O O17 0.000000 0.500000 0.000000
O O18 0.000000 0.000000 0.000000
#
# Coordination Sequence:
#
# PCOD9036300 Si02
#       8
#     2   2   2   2   2   2   2   2
#     4  10  24  45  69 103 155 193 259 326 378 461
#     4  12  26  47  80 118 146 222 250 310 412 460
#     4  11  22  43  68  98 142 197 252 321 379 444
#     4  10  24  45  67 101 151 190 254 315 376 457
#     4  10  25  50  79 114 161 194 254 323 374 467
#     4  11  24  40  68 101 139 197 259 313 388 454
#     4  10  25  50  77 116 159 192 252 318 372 467
#     4  10  22  49  64  99 153 193 241 339 365 442
#
# _framework density 25.203033000000001
#
# number of rings (size 3 to 8) (size 9 to 14) (size 15 to 20)
#    0.750    0.750    2.500    0.750    1.750    9.500 
#    4.500    0.000    0.000    0.000    0.000    0.000 
#    0.000    0.000    0.000    0.000    0.000    0.000 
#
# Total GULP energy -89331.667795 kJ/mol
# GULP energy per Si atom -5583.229237 kJ/mol
# Density = 2.514567 g / cm^3
# Si number density = 25.203033 Si / 1000 Ang^3
#
#
#
# Elastic Constant Matrix: (Units=GPa)
#
#
# Indices 1 2 3 4 5 6 
#
# 1 38.3628 39.9947 30.1048 -2.7015 22.8866 40.3218
# 2 39.9947 163.1891 66.3384 8.7362 15.4959 -6.6764
# 3 30.1048 66.3384 169.0460 7.0682 8.6688 19.8424
# 4 -2.7015 8.7362 7.0682 36.3536 -1.1472 13.7173
# 5 22.8866 15.4959 8.6688 -1.1472 43.8027 9.0764
# 6 40.3218 -6.6764 19.8424 13.7173 9.0764 30.2437
#
#
#
# Elastic Compliance Matrix: (Units=1/GPa)
#
#
# Indices 1 2 3 4 5 6 
#
# 1 -0.018070 0.008231 -0.003497 -0.016130 -0.000598 0.035698
# 2 0.008231 0.004882 -0.002303 0.003034 -0.003700 -0.008650
# 3 -0.003497 -0.002303 0.007502 -0.000829 0.001298 -0.000781
# 4 -0.016130 0.003034 -0.000829 0.021724 0.005781 0.011130
# 5 -0.000598 -0.003700 0.001298 0.005781 0.026732 -0.011516
# 6 0.035698 -0.008650 -0.000781 0.011130 -0.011516 -0.017518
#
#
# Mechanical properties :
#
#
# Convention : Reuss Voigt Hill
#
# Bulk Modulus (GPa) = -1212.05483 71.49708 -570.27887
# Shear Modulus (GPa) = 248.56329 37.69066 143.12697
#
# Velocity S-wave (km/s) = 9.94175 3.87134 7.54406
# Velocity P-wave (km/s) = 18.71298 6.95795 12.28338
#
# Compressibility (1/GPa) = -0.00082505
#
# Stress axis : x y z
#
# Youngs Moduli (GPa) = -55.34035 204.83518 133.29600
#
# Poissons Ratio (x) = -1.68600 0.46616
# Poissons Ratio (y) = 0.45551 0.30703
# Poissons Ratio (z) = -0.19354 0.47181
#
# Static dielectric constant tensor:
#      x y z
#    x 2.278000 0.118770 -0.058570 
#    y 0.118770 2.030450 -0.067810 
#    z -0.058570 -0.067810 1.933890 
# 
# From -- ./inp_files/12350.got.cif
#   From: 2010.05.17/outbox.cif.g08.bks.cpg/sg2_7_cif.got.tgz:12350.got - 2010.06.03 11:33:40.
