data_PCOD9036423
_publ_section_title
;
Structure prediction by ZEFSAII (Michael W. Deem and Ramdas Pophale) SiO2 
 PCOD9036423
Probable space group: P -1
;
_chemical_formula_sum "Si O2"
_cell_formula_units_Z 16
_cell_length_a 17.385128
_cell_length_b 11.169101
_cell_length_c 13.150003
_cell_angle_alpha 49.721808
_cell_angle_beta 129.089392
_cell_angle_gamma 157.037458
_cell_volume 754.635052
_symmetry_space_group_name_H-M "P -1"
_symmetry_group_IT_number 2
_symmetry_cell_setting 'triclinic'
loop_
_space_group_symop_operation_xyz
x,y,z
-x,-y,-z
loop_
_atom_site_type_symbol
_atom_site_label
_atom_site_fract_x
_atom_site_fract_y
_atom_site_fract_z
Si Si1 0.609679 0.283353 0.868739
Si Si2 0.373951 0.241346 0.622430
Si Si3 0.597639 0.619297 0.190350
Si Si4 0.186491 0.177897 0.114744
Si Si5 0.560174 0.255895 0.443025
Si Si6 0.939039 0.612465 0.618099
Si Si7 0.851771 0.218465 0.610947
Si Si8 0.990764 0.665466 0.869605
O O1 0.446681 0.161183 0.738937
O O2 0.726188 0.569185 0.877854
O O3 0.784303 0.451752 0.854068
O O4 0.500000 0.000000 0.000000
O O5 0.500000 0.500000 0.500000
O O6 0.393342 0.335105 0.703354
O O7 0.147546 0.945275 0.560258
O O8 0.388256 0.404708 0.096752
O O9 0.583365 0.412247 0.285779
O O10 0.804224 0.967511 0.128114
O O11 0.123078 0.929340 0.256573
O O12 0.000000 0.000000 0.000000
O O13 0.775198 0.523390 0.522342
O O14 0.500000 0.000000 0.500000
O O15 0.375075 0.064958 0.458719
O O16 0.872596 0.357417 0.652054
O O17 0.985472 0.655994 0.749711
O O18 0.000000 0.500000 0.500000
O O19 0.000000 0.500000 0.000000
#
# Coordination Sequence:
#
# PCOD9036423 Si02
#       8
#     2   2   2   2   2   2   2   2
#     4  11  25  44  68  94 131 170 219 275 323 381
#     4  10  23  36  64  95 123 163 216 267 320 380
#     4   9  21  41  61  91 130 159 210 271 316 378
#     4  10  23  43  68  91 131 174 219 266 325 391
#     4   9  20  39  60  87 130 162 206 264 325 375
#     4  10  23  39  66  95 131 169 218 261 333 389
#     4  10  23  41  67  96 133 168 220 273 318 389
#     4  11  24  42  66  92 132 172 214 271 324 387
#
# _framework density 21.202300999999999
#
# number of rings (size 3 to 8) (size 9 to 14) (size 15 to 20)
#    0.000    2.000    0.000    2.250   12.250    2.000 
#    2.250    0.625    0.000    0.000    0.000    0.000 
#    0.000    0.000    0.000    0.000    0.000    0.000 
#
# Total GULP energy -89245.476469 kJ/mol
# GULP energy per Si atom -5577.842279 kJ/mol
# Density = 2.115404 g / cm^3
# Si number density = 21.202301 Si / 1000 Ang^3
#
#
#
# Elastic Constant Matrix: (Units=GPa)
#
#
# Indices 1 2 3 4 5 6 
#
# 1 62.3865 39.8508 37.3660 -12.4269 19.6525 5.8640
# 2 39.8508 161.0893 66.9484 -11.0377 14.5045 32.5090
# 3 37.3660 66.9484 111.5416 -8.6529 31.5809 25.2452
# 4 -12.4269 -11.0377 -8.6529 50.0497 2.7306 1.1316
# 5 19.6525 14.5045 31.5809 2.7306 29.5572 -0.8402
# 6 5.8640 32.5090 25.2452 1.1316 -0.8402 35.5499
#
#
#
# Elastic Compliance Matrix: (Units=1/GPa)
#
#
# Indices 1 2 3 4 5 6 
#
# 1 0.024880 -0.003834 -0.001950 0.005702 -0.013096 0.000296
# 2 -0.003834 0.009719 -0.003626 0.000614 0.001436 -0.005667
# 3 -0.001950 -0.003626 0.019879 0.003428 -0.018794 -0.011033
# 4 0.005702 0.000614 0.003428 0.022780 -0.009999 -0.004898
# 5 -0.013096 0.001436 -0.018794 -0.009999 0.063295 0.016008
# 6 0.000296 -0.005667 -0.011033 -0.004898 0.016008 0.041631
#
#
# Mechanical properties :
#
#
# Convention : Reuss Voigt Hill
#
# Bulk Modulus (GPa) = 28.04413 69.26086 48.65250
# Shear Modulus (GPa) = 23.48616 35.75485 29.62051
#
# Velocity S-wave (km/s) = 3.33185 4.11099 3.74176
# Velocity P-wave (km/s) = 5.29691 7.43447 6.45479
#
# Compressibility (1/GPa) = 0.03565808
#
# Stress axis : x y z
#
# Youngs Moduli (GPa) = 40.19344 102.88684 50.30445
#
# Poissons Ratio (x) = 0.39449 0.09810
# Poissons Ratio (y) = 0.15411 0.18238
# Poissons Ratio (z) = 0.07838 0.37302
#
# Static dielectric constant tensor:
#      x y z
#    x 1.834220 -0.002640 0.013890 
#    y -0.002640 1.847680 0.012980 
#    z 0.013890 0.012980 1.748710 
# 
# From -- ./inp_files/538416.got.cif
#   From: 2010.05.17/outbox.cif.g08.bks.cpg/sg2_270_cif.got.tgz:538416.got - 2010.06.03 11:33:40.
