data_PCOD9036972
_publ_section_title
;
Structure prediction by ZEFSAII (Michael W. Deem and Ramdas Pophale) SiO2 
 PCOD9036972
Probable space group: P -1
;
_chemical_formula_sum "Si O2"
_cell_formula_units_Z 16
_cell_length_a 10.794439
_cell_length_b 8.118905
_cell_length_c 7.574888
_cell_angle_alpha 110.243965
_cell_angle_beta 99.464202
_cell_angle_gamma 65.114047
_cell_volume 564.876603
_symmetry_space_group_name_H-M "P -1"
_symmetry_group_IT_number 2
_symmetry_cell_setting 'triclinic'
loop_
_space_group_symop_operation_xyz
x,y,z
-x,-y,-z
loop_
_atom_site_type_symbol
_atom_site_label
_atom_site_fract_x
_atom_site_fract_y
_atom_site_fract_z
Si Si1 0.457424 0.322164 0.955669
Si Si2 0.347556 0.426837 0.340948
Si Si3 0.884537 0.259892 0.128326
Si Si4 0.251504 0.790122 0.614994
Si Si5 0.360066 0.052772 0.356408
Si Si6 0.253694 0.155954 0.738666
Si Si7 0.025856 0.524761 0.307011
Si Si8 0.879025 0.050330 0.728553
O O1 0.311255 0.312586 0.866366
O O2 0.557714 0.129319 0.811061
O O3 0.500000 0.500000 0.000000
O O4 0.442626 0.325479 0.162652
O O5 0.364660 0.620573 0.468664
O O6 0.376011 0.249765 0.409672
O O7 0.181225 0.494848 0.294957
O O8 0.774202 0.342919 0.288023
O O9 0.980193 0.370099 0.146444
O O10 0.824501 0.223893 0.918535
O O11 0.973698 0.071844 0.198782
O O12 0.147251 0.886802 0.458907
O O13 0.267617 0.968762 0.783219
O O14 0.355368 0.036831 0.560160
O O15 0.203736 0.080919 0.296441
O O16 0.093980 0.272982 0.699714
O O17 0.000000 0.500000 0.500000
#
# Coordination Sequence:
#
# PCOD9036972 Si02
#       8
#     2   2   2   2   2   2   2   2
#     4  12  29  51  73 105 148 197 257 308 362 447
#     4  12  26  46  73 109 148 196 241 310 378 434
#     4  11  22  39  68 105 152 194 235 304 377 451
#     4  11  24  43  70 108 149 193 243 302 377 454
#     4  11  23  50  72 100 148 195 245 307 358 446
#     4  11  26  45  78 109 144 196 245 305 385 442
#     4  12  22  44  72 110 154 183 242 310 379 455
#     4  10  23  39  67 104 146 189 251 297 372 432
#
# _framework density 28.324767999999999
#
# number of rings (size 3 to 8) (size 9 to 14) (size 15 to 20)
#    0.000    0.750    3.750    3.375    7.000    0.500 
#    0.000    1.250    0.000    0.000    0.000    0.000 
#    0.000    0.000    0.000    0.000    0.000    0.000 
#
# Total GULP energy -89341.205021 kJ/mol
# GULP energy per Si atom -5583.825314 kJ/mol
# Density = 2.826030 g / cm^3
# Si number density = 28.324768 Si / 1000 Ang^3
#
#
#
# Elastic Constant Matrix: (Units=GPa)
#
#
# Indices 1 2 3 4 5 6 
#
# 1 108.8715 62.2899 9.1005 2.7592 11.5406 2.8983
# 2 62.2899 139.9089 14.8509 28.2796 12.0627 7.5378
# 3 9.1005 14.8509 102.1832 11.7627 8.6803 3.3606
# 4 2.7592 28.2796 11.7627 46.0520 8.2909 2.1303
# 5 11.5406 12.0627 8.6803 8.2909 46.7110 12.8450
# 6 2.8983 7.5378 3.3606 2.1303 12.8450 59.2052
#
#
#
# Elastic Compliance Matrix: (Units=1/GPa)
#
#
# Indices 1 2 3 4 5 6 
#
# 1 0.012950 -0.006272 -0.000479 0.003583 -0.002280 0.000558
# 2 -0.006272 0.011323 -0.000320 -0.006469 0.000081 -0.000901
# 3 -0.000479 -0.000320 0.010237 -0.002153 -0.001275 -0.000163
# 4 0.003583 -0.006469 -0.002153 0.026663 -0.003717 0.000617
# 5 -0.002280 0.000081 -0.001275 -0.003717 0.024207 -0.004944
# 6 0.000558 -0.000901 -0.000163 0.000617 -0.004944 0.018038
#
#
# Mechanical properties :
#
#
# Convention : Reuss Voigt Hill
#
# Bulk Modulus (GPa) = 49.09599 58.16068 53.62833
# Shear Modulus (GPa) = 40.20971 48.04178 44.12575
#
# Velocity S-wave (km/s) = 3.77184 4.12285 3.95124
# Velocity P-wave (km/s) = 6.02826 6.57586 6.30800
#
# Compressibility (1/GPa) = 0.02036826
#
# Stress axis : x y z
#
# Youngs Moduli (GPa) = 77.22083 88.31517 97.68599
#
# Poissons Ratio (x) = 0.55394 0.04677
# Poissons Ratio (y) = 0.48436 0.03122
# Poissons Ratio (z) = 0.03697 0.02823
#
# Static dielectric constant tensor:
#      x y z
#    x 2.918480 -0.069170 -0.171440 
#    y -0.069170 2.224390 0.065060 
#    z -0.171440 0.065060 2.395610 
# 
# From -- ./inp_files/245050.got.cif
#   From: 2010.05.17/outbox.cif.g08.bks.cpg/sg2_123_cif.got.tgz:245050.got - 2010.06.03 11:33:40.
