data_PCOD9036209
_publ_section_title
;
Structure prediction by ZEFSAII (Michael W. Deem and Ramdas Pophale) SiO2 
 PCOD9036209
Probable space group: P -1
;
_chemical_formula_sum "Si O2"
_cell_formula_units_Z 13
_cell_length_a 8.497846
_cell_length_b 13.292377
_cell_length_c 6.907906
_cell_angle_alpha 75.372516
_cell_angle_beta 56.112764
_cell_angle_gamma 94.274767
_cell_volume 603.811257
_symmetry_space_group_name_H-M "P -1"
_symmetry_group_IT_number 2
_symmetry_cell_setting 'triclinic'
loop_
_space_group_symop_operation_xyz
x,y,z
-x,-y,-z
loop_
_atom_site_type_symbol
_atom_site_label
_atom_site_fract_x
_atom_site_fract_y
_atom_site_fract_z
Si Si1 0.950617 0.593518 0.863488
Si Si2 0.311981 0.482740 0.277295
Si Si3 0.312132 0.915119 0.079284
Si Si4 0.660751 0.294386 0.625162
Si Si5 0.738457 0.694789 0.266863
Si Si6 0.000000 0.000000 0.500000
Si Si7 0.081854 0.908342 0.893602
O O1 0.870277 0.551592 0.728453
O O2 0.152625 0.685659 0.654025
O O3 0.787746 0.633236 0.073565
O O4 0.000000 0.500000 0.000000
O O5 0.321017 0.592167 0.333369
O O6 0.298882 0.387415 0.487860
O O7 0.500000 0.500000 0.000000
O O8 0.328982 0.798189 0.187989
O O9 0.284987 0.916710 0.864760
O O10 0.126443 0.946120 0.287368
O O11 0.500000 0.000000 0.000000
O O12 0.455337 0.266967 0.664610
O O13 0.929292 0.794520 0.110182
O O14 0.924548 0.067126 0.340213
O O15 0.000000 0.000000 0.000000
#
# Coordination Sequence:
#
# PCOD9036209 Si02
#       7
#     2   2   2   2   2   1   2
#     4  12  25  42  70  97 137 187 232 286 346 412
#     4  12  25  46  68 102 145 191 230 289 347 412
#     4  11  25  46  71 104 139 179 235 289 351 420
#     4  12  24  44  70 104 140 184 237 288 345 421
#     4  12  25  47  69 102 146 184 234 288 349 415
#     4  10  22  48  70  98 138 176 228 284 358 404
#     4  10  23  45  72  99 138 180 229 291 346 415
#
# _framework density 21.529906
#
# number of rings (size 3 to 8) (size 9 to 14) (size 15 to 20)
#    0.000    0.615    3.077    5.538    2.154    1.846 
#    8.308    0.000    0.000    0.000    0.000    0.000 
#    0.000    0.000    0.000    0.000    0.000    0.000 
#
# Total GULP energy -72402.818603 kJ/mol
# GULP energy per Si atom -5569.447585 kJ/mol
# Density = 2.148090 g / cm^3
# Si number density = 21.529906 Si / 1000 Ang^3
#
#
#
# Elastic Constant Matrix: (Units=GPa)
#
#
# Indices 1 2 3 4 5 6 
#
# 1 149.4699 24.6969 54.9086 -16.4261 28.7229 -1.4022
# 2 24.6969 69.2642 24.6874 -16.0842 17.5455 -3.1922
# 3 54.9086 24.6874 128.0394 -4.0375 35.3847 0.6994
# 4 -16.4261 -16.0842 -4.0375 32.0591 -13.7827 2.4780
# 5 28.7229 17.5455 35.3847 -13.7827 40.7174 -6.0174
# 6 -1.4022 -3.1922 0.6994 2.4780 -6.0174 36.1543
#
#
#
# Elastic Compliance Matrix: (Units=1/GPa)
#
#
# Indices 1 2 3 4 5 6 
#
# 1 0.008602 -0.000873 -0.002757 0.002585 -0.002461 -0.000277
# 2 -0.000873 0.017853 -0.002072 0.006989 -0.002817 0.000635
# 3 -0.002757 -0.002072 0.011830 -0.004843 -0.009339 -0.001741
# 4 0.002585 0.006989 -0.004843 0.041126 0.013326 0.000210
# 5 -0.002461 -0.002817 -0.009339 0.013326 0.040985 0.005745
# 6 -0.000277 0.000635 -0.001741 0.000210 0.005745 0.028680
#
#
# Mechanical properties :
#
#
# Convention : Reuss Voigt Hill
#
# Bulk Modulus (GPa) = 37.20393 61.70659 49.45526
# Shear Modulus (GPa) = 29.50872 37.95156 33.73014
#
# Velocity S-wave (km/s) = 3.70617 4.20305 3.96241
# Velocity P-wave (km/s) = 5.96924 7.23030 6.62982
#
# Compressibility (1/GPa) = 0.02687888
#
# Stress axis : x y z
#
# Youngs Moduli (GPa) = 116.25199 56.01268 84.53210
#
# Poissons Ratio (x) = 0.04892 0.23307
# Poissons Ratio (y) = 0.10153 0.17519
# Poissons Ratio (z) = 0.32053 0.11609
#
# Static dielectric constant tensor:
#      x y z
#    x 1.819320 0.022910 -0.037400 
#    y 0.022910 1.763180 -0.013200 
#    z -0.037400 -0.013200 1.753670 
# 
# From -- ./inp_files/34253.got.cif
#   From: 2010.05.17/outbox.cif.g08.bks.cpg/sg2_18_cif.got.tgz:34253.got - 2010.06.03 11:33:40.
