data_PCOD9036325
_publ_section_title
;
Structure prediction by ZEFSAII (Michael W. Deem and Ramdas Pophale) SiO2 
 PCOD9036325
Probable space group: P -1
;
_chemical_formula_sum "Si O2"
_cell_formula_units_Z 12
_cell_length_a 7.840560
_cell_length_b 9.259616
_cell_length_c 7.229760
_cell_angle_alpha 69.745646
_cell_angle_beta 90.588513
_cell_angle_gamma 83.846087
_cell_volume 488.958793
_symmetry_space_group_name_H-M "P -1"
_symmetry_group_IT_number 2
_symmetry_cell_setting 'triclinic'
loop_
_space_group_symop_operation_xyz
x,y,z
-x,-y,-z
loop_
_atom_site_type_symbol
_atom_site_label
_atom_site_fract_x
_atom_site_fract_y
_atom_site_fract_z
Si Si1 0.080235 0.345462 0.220137
Si Si2 0.114019 0.201234 0.906374
Si Si3 0.873676 0.917102 0.409422
Si Si4 0.336751 0.917484 0.974830
Si Si5 0.272432 0.498576 0.676087
Si Si6 0.350998 0.554322 0.220497
O O1 0.187472 0.212088 0.401203
O O2 0.213431 0.470504 0.141069
O O3 0.968957 0.725783 0.943240
O O4 0.906436 0.411145 0.294203
O O5 0.273572 0.966671 0.743434
O O6 0.251097 0.318023 0.796714
O O7 0.191166 0.027655 0.035586
O O8 0.000000 0.000000 0.500000
O O9 0.970923 0.821854 0.282019
O O10 0.347272 0.736416 0.093781
O O11 0.500000 0.000000 0.000000
O O12 0.295764 0.531886 0.444185
O O13 0.452819 0.526343 0.759472
#
# Coordination Sequence:
#
# PCOD9036325 Si02
#       6
#     2   2   2   2   2   2
#     4  12  26  48  77 119 157 207 263 327 396 479
#     4  10  24  48  77 111 157 199 266 322 390 475
#     4  10  25  49  77 113 155 206 261 324 398 466
#     4  10  22  49  81 112 156 205 269 329 386 474
#     4  11  24  47  77 118 158 204 266 322 395 475
#     4  11  23  46  85 110 156 214 262 329 396 463
#
# _framework density 24.541945999999999
#
# number of rings (size 3 to 8) (size 9 to 14) (size 15 to 20)
#    1.000    0.333    3.333    1.000    2.333    5.333 
#    3.000    0.833    0.000    0.000    0.000    0.000 
#    0.000    0.000    0.000    0.000    0.000    0.000 
#
# Total GULP energy -67020.422176 kJ/mol
# GULP energy per Si atom -5585.035181 kJ/mol
# Density = 2.448609 g / cm^3
# Si number density = 24.541946 Si / 1000 Ang^3
#
#
#
# Elastic Constant Matrix: (Units=GPa)
#
#
# Indices 1 2 3 4 5 6 
#
# 1 110.9290 39.9827 27.0015 10.6379 6.2765 12.8350
# 2 39.9827 119.2938 42.6111 9.5869 3.5142 16.1324
# 3 27.0015 42.6111 140.9304 -13.7136 -1.4623 10.9286
# 4 10.6379 9.5869 -13.7136 59.8583 9.4971 3.2713
# 5 6.2765 3.5142 -1.4623 9.4971 35.5205 -2.9925
# 6 12.8350 16.1324 10.9286 3.2713 -2.9925 25.9321
#
#
#
# Elastic Compliance Matrix: (Units=1/GPa)
#
#
# Indices 1 2 3 4 5 6 
#
# 1 0.010843 -0.002616 -0.001181 -0.001343 -0.001621 -0.003259
# 2 -0.002616 0.010919 -0.002626 -0.001545 -0.000673 -0.004274
# 3 -0.001181 -0.002626 0.008509 0.002680 -0.000042 -0.001710
# 4 -0.001343 -0.001545 0.002680 0.018683 -0.004697 -0.002402
# 5 -0.001621 -0.000673 -0.000042 -0.004697 0.030208 0.005317
# 6 -0.003259 -0.004274 -0.001710 -0.002402 0.005317 0.044472
#
#
# Mechanical properties :
#
#
# Convention : Reuss Voigt Hill
#
# Bulk Modulus (GPa) = 57.38973 65.59375 61.49174
# Shear Modulus (GPa) = 35.13974 41.69936 38.41955
#
# Velocity S-wave (km/s) = 3.78805 4.12649 3.96089
# Velocity P-wave (km/s) = 6.52438 7.03485 6.78442
#
# Compressibility (1/GPa) = 0.01742472
#
# Stress axis : x y z
#
# Youngs Moduli (GPa) = 92.22749 91.57937 117.52096
#
# Poissons Ratio (x) = 0.23954 0.13883
# Poissons Ratio (y) = 0.24123 0.30865
# Poissons Ratio (z) = 0.10895 0.24052
#
# Static dielectric constant tensor:
#      x y z
#    x 2.279010 0.172370 -0.024120 
#    y 0.172370 2.063830 -0.022510 
#    z -0.024120 -0.022510 1.976150 
# 
# From -- ./inp_files/156907.got.cif
#   From: 2010.05.17/outbox.cif.g08.bks.cpg/sg2_79_cif.got.tgz:156907.got - 2010.06.03 11:33:40.
