data_PCOD9036190
_publ_section_title
;
Structure prediction by ZEFSAII (Michael W. Deem and Ramdas Pophale) SiO2 
 PCOD9036190
Probable space group: P -1
;
_chemical_formula_sum "Si O2"
_cell_formula_units_Z 16
_cell_length_a 19.352849
_cell_length_b 22.257827
_cell_length_c 10.771533
_cell_angle_alpha 34.307362
_cell_angle_beta 150.955474
_cell_angle_gamma 159.589519
_cell_volume 784.970992
_symmetry_space_group_name_H-M "P -1"
_symmetry_group_IT_number 2
_symmetry_cell_setting 'triclinic'
loop_
_space_group_symop_operation_xyz
x,y,z
-x,-y,-z
loop_
_atom_site_type_symbol
_atom_site_label
_atom_site_fract_x
_atom_site_fract_y
_atom_site_fract_z
Si Si1 0.522974 0.624651 0.574309
Si Si2 0.107042 0.699424 0.196823
Si Si3 0.633360 0.711579 0.114599
Si Si4 0.416805 0.572442 0.761170
Si Si5 0.458919 0.045934 0.234005
Si Si6 0.636634 0.469040 0.769495
Si Si7 0.955103 0.029387 0.245971
Si Si8 0.031135 0.618806 0.508508
O O1 0.394980 0.433538 0.694281
O O2 0.458172 0.643616 0.568088
O O3 0.439388 0.631690 0.304550
O O4 0.799833 0.776015 0.741150
O O5 0.348982 0.898187 0.217105
O O6 0.053900 0.664278 0.321715
O O7 0.084191 0.564859 0.349921
O O8 0.905729 0.644571 0.905148
O O9 0.443736 0.633420 0.054195
O O10 0.864230 0.892830 0.230880
O O11 0.560158 0.707865 0.869642
O O12 0.150363 0.413068 0.653870
O O13 0.500000 0.500000 0.000000
O O14 0.500000 0.000000 0.500000
O O15 0.713782 0.236730 0.280791
O O16 0.252951 0.008618 0.999069
O O17 0.500000 0.500000 0.500000
O O18 0.000000 0.000000 0.500000
#
# Coordination Sequence:
#
# PCOD9036190 Si02
#       8
#     2   2   2   2   2   2   2   2
#     4  10  23  38  59  93 125 162 202 258 318 368
#     4  10  20  36  61  91 118 160 205 259 305 359
#     4  10  20  37  61  88 121 163 203 256 309 361
#     4  10  22  40  64  89 128 169 204 251 317 381
#     4  10  23  35  58  96 124 157 207 266 316 358
#     4  10  17  32  61  86 118 156 202 250 302 355
#     4  12  24  37  64  98 127 158 213 269 312 368
#     4  10  21  38  61  88 122 160 207 252 309 368
#
# _framework density 20.382916999999999
#
# number of rings (size 3 to 8) (size 9 to 14) (size 15 to 20)
#    0.000    1.750    2.500    2.250   10.500    0.500 
#    0.000    3.125    0.000    0.750    0.000    0.000 
#    0.000    0.000    0.000    0.000    0.000    0.000 
#
# Total GULP energy -89160.536187 kJ/mol
# GULP energy per Si atom -5572.533512 kJ/mol
# Density = 2.033652 g / cm^3
# Si number density = 20.382917 Si / 1000 Ang^3
#
#
#
# Elastic Constant Matrix: (Units=GPa)
#
#
# Indices 1 2 3 4 5 6 
#
# 1 102.5541 25.7434 38.7451 11.6848 -23.4990 -3.2920
# 2 25.7434 103.3146 38.6618 28.1313 6.0402 -28.5391
# 3 38.7451 38.6618 120.4520 25.9797 0.1885 -9.0372
# 4 11.6848 28.1313 25.9797 35.8486 -3.2417 -6.5379
# 5 -23.4990 6.0402 0.1885 -3.2417 43.6782 8.8764
# 6 -3.2920 -28.5391 -9.0372 -6.5379 8.8764 19.2518
#
#
#
# Elastic Compliance Matrix: (Units=1/GPa)
#
#
# Indices 1 2 3 4 5 6 
#
# 1 0.015721 -0.008707 -0.004191 0.002780 0.013429 -0.017434
# 2 -0.008707 0.029598 -0.000278 -0.013434 -0.019236 0.046564
# 3 -0.004191 -0.000278 0.011381 -0.006308 -0.003481 0.003676
# 4 0.002780 -0.013434 -0.006308 0.040588 0.008986 -0.012760
# 5 0.013429 -0.019236 -0.003481 0.008986 0.042483 -0.044389
# 6 -0.017434 0.046564 0.003676 -0.012760 -0.044389 0.135847
#
#
# Mechanical properties :
#
#
# Convention : Reuss Voigt Hill
#
# Bulk Modulus (GPa) = 32.95148 59.18015 46.06581
# Shear Modulus (GPa) = 16.02128 34.63376 25.32752
#
# Velocity S-wave (km/s) = 2.80664 4.12655 3.52886
# Velocity P-wave (km/s) = 5.16762 7.19735 6.26522
#
# Compressibility (1/GPa) = 0.03034765
#
# Stress axis : x y z
#
# Youngs Moduli (GPa) = 63.61092 33.78627 87.86423
#
# Poissons Ratio (x) = 0.29418 0.36822
# Poissons Ratio (y) = 0.55386 0.02445
# Poissons Ratio (z) = 0.26658 0.00940
#
# Static dielectric constant tensor:
#      x y z
#    x 1.786500 -0.005070 -0.042790 
#    y -0.005070 1.842680 -0.043830 
#    z -0.042790 -0.043830 1.861340 
# 
# From -- ./inp_files/472932.got.cif
#   From: 2010.05.17/outbox.cif.g08.bks.cpg/sg2_237_cif.got.tgz:472932.got - 2010.06.03 11:33:40.
