data_PCOD9036464
_publ_section_title
;
Structure prediction by ZEFSAII (Michael W. Deem and Ramdas Pophale) SiO2 
 PCOD9036464
Probable space group: P -1
;
_chemical_formula_sum "Si O2"
_cell_formula_units_Z 14
_cell_length_a 9.039105
_cell_length_b 5.032580
_cell_length_c 13.337097
_cell_angle_alpha 99.987928
_cell_angle_beta 104.863171
_cell_angle_gamma 88.233572
_cell_volume 577.458282
_symmetry_space_group_name_H-M "P -1"
_symmetry_group_IT_number 2
_symmetry_cell_setting 'triclinic'
loop_
_space_group_symop_operation_xyz
x,y,z
-x,-y,-z
loop_
_atom_site_type_symbol
_atom_site_label
_atom_site_fract_x
_atom_site_fract_y
_atom_site_fract_z
Si Si1 0.822895 0.258406 0.305006
Si Si2 0.604287 0.973267 0.921431
Si Si3 0.695356 0.347491 0.675770
Si Si4 0.827884 0.560525 0.905537
Si Si5 0.993252 0.198915 0.605676
Si Si6 0.502960 0.890537 0.685384
Si Si7 0.868236 0.307849 0.088164
O O1 0.914529 0.522176 0.375373
O O2 0.670950 0.212926 0.341779
O O3 0.796808 0.318569 0.185778
O O4 0.921643 0.985700 0.308716
O O5 0.657828 0.670030 0.897643
O O6 0.525376 0.034484 0.807707
O O7 0.500000 0.000000 0.000000
O O8 0.758064 0.137455 0.985524
O O9 0.794203 0.342159 0.797289
O O10 0.617494 0.640155 0.673026
O O11 0.822432 0.277947 0.611482
O O12 0.559585 0.125192 0.636782
O O13 0.952303 0.755417 0.882998
O O14 0.880915 0.568169 0.033661
O O15 0.000000 0.000000 0.500000
#
# Coordination Sequence:
#
# PCOD9036464 Si02
#       7
#     2   2   2   2   2   2   2
#     4  12  26  45  75 105 142 179 232 292 348 415
#     4  11  22  35  56  91 143 188 216 263 320 404
#     4  11  23  45  70 100 139 188 230 284 345 410
#     4  10  23  37  60  95 140 183 236 269 327 398
#     4  12  28  52  76 102 131 178 238 302 360 414
#     4  11  24  43  67 107 146 184 225 278 346 414
#     4  11  22  38  61  98 137 184 227 271 324 400
#
# _framework density 24.244173
#
# number of rings (size 3 to 8) (size 9 to 14) (size 15 to 20)
#    0.000    0.857    4.286    2.571    4.000    1.714 
#    0.000    4.286    0.000    0.000    0.000    0.000 
#    0.000    0.000    0.000    0.000    0.000    0.000 
#
# Total GULP energy -78061.763655 kJ/mol
# GULP energy per Si atom -5575.840261 kJ/mol
# Density = 2.418899 g / cm^3
# Si number density = 24.244173 Si / 1000 Ang^3
#
#
#
# Elastic Constant Matrix: (Units=GPa)
#
#
# Indices 1 2 3 4 5 6 
#
# 1 110.3248 22.7840 14.5486 14.9743 -34.2199 28.6357
# 2 22.7840 78.4332 0.7361 21.7898 5.0055 24.0836
# 3 14.5486 0.7361 73.9704 10.9788 -15.1756 9.7516
# 4 14.9743 21.7898 10.9788 19.0485 -11.1890 2.5627
# 5 -34.2199 5.0055 -15.1756 -11.1890 25.4378 3.0521
# 6 28.6357 24.0836 9.7516 2.5627 3.0521 41.9090
#
#
#
# Elastic Compliance Matrix: (Units=1/GPa)
#
#
# Indices 1 2 3 4 5 6 
#
# 1 0.036445 -0.018001 0.006185 0.035411 0.074666 -0.023600
# 2 -0.018001 0.043784 0.001474 -0.073790 -0.063924 -0.004037
# 3 0.006185 0.001474 0.018047 -0.005134 0.017769 -0.010253
# 4 0.035411 -0.073790 -0.005134 0.198817 0.146959 -0.003457
# 5 0.074666 -0.063924 0.017769 0.146959 0.232898 -0.044365
# 6 -0.023600 -0.004037 -0.010253 -0.003457 -0.044365 0.048134
#
#
# Mechanical properties :
#
#
# Convention : Reuss Voigt Hill
#
# Bulk Modulus (GPa) = 12.88795 37.65176 25.26985
# Shear Modulus (GPa) = 8.00420 32.25638 20.13029
#
# Velocity S-wave (km/s) = 1.81897 3.65153 2.88464
# Velocity P-wave (km/s) = 3.12073 5.77427 4.64118
#
# Compressibility (1/GPa) = 0.07759188
#
# Stress axis : x y z
#
# Youngs Moduli (GPa) = 27.43870 22.83952 55.41178
#
# Poissons Ratio (x) = 0.41114 -0.34272
# Poissons Ratio (y) = 0.49393 -0.08170
# Poissons Ratio (z) = -0.16971 -0.03367
#
# Static dielectric constant tensor:
#      x y z
#    x 2.033040 -0.089360 0.145440 
#    y -0.089360 2.203220 -0.102990 
#    z 0.145440 -0.102990 2.025370 
# 
# From -- ./inp_files/135516.got.cif
#   From: 2010.05.17/outbox.cif.g08.bks.cpg/sg2_68_cif.got.tgz:135516.got - 2010.06.03 11:33:40.
