data_PCOD9036790
_publ_section_title
;
Structure prediction by ZEFSAII (Michael W. Deem and Ramdas Pophale) SiO2 
 PCOD9036790
Probable space group: P -1
;
_chemical_formula_sum "Si O2"
_cell_formula_units_Z 16
_cell_length_a 9.232247
_cell_length_b 15.825961
_cell_length_c 9.031373
_cell_angle_alpha 128.483830
_cell_angle_beta 79.072881
_cell_angle_gamma 65.624168
_cell_volume 733.646583
_symmetry_space_group_name_H-M "P -1"
_symmetry_group_IT_number 2
_symmetry_cell_setting 'triclinic'
loop_
_space_group_symop_operation_xyz
x,y,z
-x,-y,-z
loop_
_atom_site_type_symbol
_atom_site_label
_atom_site_fract_x
_atom_site_fract_y
_atom_site_fract_z
Si Si1 0.274733 0.087817 0.082621
Si Si2 0.927181 0.424793 0.507164
Si Si3 0.838368 0.049422 0.836430
Si Si4 0.286746 0.750595 0.351646
Si Si5 0.803601 0.315490 0.163128
Si Si6 0.444089 0.485422 0.210138
Si Si7 0.548739 0.144032 0.723965
Si Si8 0.781572 0.848542 0.185059
O O1 0.206011 0.012523 0.092365
O O2 0.262198 0.088358 0.906473
O O3 0.125125 0.261403 0.350455
O O4 0.500000 0.000000 0.000000
O O5 0.730649 0.518999 0.756202
O O6 0.000000 0.500000 0.500000
O O7 0.579686 0.431134 0.268367
O O8 0.052124 0.905667 0.562947
O O9 0.850725 0.165450 0.019621
O O10 0.659035 0.133415 0.838620
O O11 0.331836 0.654096 0.378433
O O12 0.417694 0.792247 0.349249
O O13 0.380513 0.631449 0.071151
O O14 0.978658 0.264874 0.959202
O O15 0.323837 0.026163 0.533454
O O16 0.842509 0.382186 0.356013
O O17 0.320388 0.217307 0.867041
#
# Coordination Sequence:
#
# PCOD9036790 Si02
#       8
#     2   2   2   2   2   2   2   2
#     4  11  24  44  69 104 133 175 229 287 336 392
#     4  11  27  47  67  95 141 182 219 274 348 416
#     4  12  22  43  74 102 133 173 235 289 331 397
#     4  11  23  40  69  97 133 178 220 282 333 397
#     4  11  24  42  69  97 129 178 228 273 342 398
#     4  11  24  44  63  99 138 174 228 266 337 414
#     4  11  21  40  66  96 137 174 216 277 344 393
#     4  10  23  39  62 101 134 169 222 277 341 396
#
# _framework density 21.808865000000001
#
# number of rings (size 3 to 8) (size 9 to 14) (size 15 to 20)
#    0.000    1.000    5.000    1.500    5.250    3.000 
#    2.250    0.625    0.000    0.000    0.000    0.000 
#    0.000    0.000    0.000    0.000    0.000    0.000 
#
# Total GULP energy -89285.252035 kJ/mol
# GULP energy per Si atom -5580.328252 kJ/mol
# Density = 2.175923 g / cm^3
# Si number density = 21.808865 Si / 1000 Ang^3
#
#
#
# Elastic Constant Matrix: (Units=GPa)
#
#
# Indices 1 2 3 4 5 6 
#
# 1 149.1722 59.4872 50.1451 11.9558 -21.0602 33.5960
# 2 59.4872 85.7442 31.6896 16.6192 -18.1973 31.3362
# 3 50.1451 31.6896 58.2746 9.6814 -18.4988 -1.4364
# 4 11.9558 16.6192 9.6814 35.2098 -1.7115 -3.3486
# 5 -21.0602 -18.1973 -18.4988 -1.7115 49.6162 -4.6158
# 6 33.5960 31.3362 -1.4364 -3.3486 -4.6158 45.3493
#
#
#
# Elastic Compliance Matrix: (Units=1/GPa)
#
#
# Indices 1 2 3 4 5 6 
#
# 1 0.012902 -0.001601 -0.010094 -0.001682 0.000243 -0.008871
# 2 -0.001601 0.025405 -0.010270 -0.010116 0.002864 -0.017149
# 3 -0.010094 -0.010270 0.033599 0.000881 0.006024 0.016317
# 4 -0.001682 -0.010116 0.000881 0.034420 -0.001921 0.010610
# 5 0.000243 0.002864 0.006024 -0.001921 0.023514 0.000283
# 6 -0.008871 -0.017149 0.016317 0.010610 0.000283 0.041802
#
#
# Mechanical properties :
#
#
# Convention : Reuss Voigt Hill
#
# Bulk Modulus (GPa) = 35.74548 63.98164 49.86356
# Shear Modulus (GPa) = 22.23219 36.15968 29.19594
#
# Velocity S-wave (km/s) = 3.19629 4.07630 3.66282
# Velocity P-wave (km/s) = 5.48157 7.18026 6.38763
#
# Compressibility (1/GPa) = 0.02797556
#
# Stress axis : x y z
#
# Youngs Moduli (GPa) = 77.50577 39.36202 29.76287
#
# Poissons Ratio (x) = 0.06303 0.30042
# Poissons Ratio (y) = 0.12411 0.30567
# Poissons Ratio (z) = 0.78233 0.40426
#
# Static dielectric constant tensor:
#      x y z
#    x 1.792840 0.011620 0.009450 
#    y 0.011620 1.839030 -0.079040 
#    z 0.009450 -0.079040 1.949310 
# 
# From -- ./inp_files/403225.got.cif
#   From: 2010.05.17/outbox.cif.g08.bks.cpg/sg2_202_cif.got.tgz:403225.got - 2010.06.03 11:33:40.
