data_PCOD9036371
_publ_section_title
;
Structure prediction by ZEFSAII (Michael W. Deem and Ramdas Pophale) SiO2 
 PCOD9036371
Probable space group: P -1
;
_chemical_formula_sum "Si O2"
_cell_formula_units_Z 14
_cell_length_a 15.058905
_cell_length_b 13.047639
_cell_length_c 8.653709
_cell_angle_alpha 148.191638
_cell_angle_beta 66.170796
_cell_angle_gamma 92.895570
_cell_volume 651.294792
_symmetry_space_group_name_H-M "P -1"
_symmetry_group_IT_number 2
_symmetry_cell_setting 'triclinic'
loop_
_space_group_symop_operation_xyz
x,y,z
-x,-y,-z
loop_
_atom_site_type_symbol
_atom_site_label
_atom_site_fract_x
_atom_site_fract_y
_atom_site_fract_z
Si Si1 0.510687 0.376546 0.675349
Si Si2 0.131965 0.210144 0.195675
Si Si3 0.542978 0.885605 0.094247
Si Si4 0.369987 0.570347 0.737008
Si Si5 0.095916 0.646687 0.622676
Si Si6 0.310555 0.154652 0.774635
Si Si7 0.774032 0.138652 0.051790
O O1 0.529979 0.122361 0.352248
O O2 0.389568 0.548550 0.877554
O O3 0.634254 0.313049 0.433366
O O4 0.500000 0.500000 0.000000
O O5 0.084926 0.487895 0.556318
O O6 0.030333 0.191544 0.172707
O O7 0.249143 0.065884 0.813093
O O8 0.167667 0.114059 0.221600
O O9 0.406274 0.978163 0.351008
O O10 0.614883 0.805371 0.102833
O O11 0.617734 0.663968 0.638766
O O12 0.500000 0.500000 0.500000
O O13 0.252920 0.813485 0.051322
O O14 0.148507 0.773428 0.827748
O O15 0.197973 0.428486 0.156295
#
# Coordination Sequence:
#
# PCOD9036371 Si02
#       7
#     2   2   2   2   2   2   2
#     4  11  23  36  58  87 117 156 195 234 298 354
#     4   9  18  31  53  84 115 155 194 236 284 333
#     4  11  19  36  57  81 126 155 184 242 297 340
#     4  10  23  35  53  85 123 152 193 235 292 355
#     4   9  17  33  52  83 121 143 206 233 279 336
#     4   9  18  31  56  84 115 151 192 236 281 345
#     4  11  19  34  53  83 117 150 191 236 285 348
#
# _framework density 21.495643000000001
#
# number of rings (size 3 to 8) (size 9 to 14) (size 15 to 20)
#    0.857    1.143    2.857    1.714    6.000    0.000 
#    0.000    0.000    0.000    0.000    0.000   30.000 
#    0.000    0.000    0.000    0.000    0.000    0.000 
#
# Total GULP energy -77976.844569 kJ/mol
# GULP energy per Si atom -5569.774612 kJ/mol
# Density = 2.144672 g / cm^3
# Si number density = 21.495643 Si / 1000 Ang^3
#
#
#
# Elastic Constant Matrix: (Units=GPa)
#
#
# Indices 1 2 3 4 5 6 
#
# 1 95.8811 41.6150 18.3882 10.7441 -13.1398 -9.6222
# 2 41.6150 94.0027 13.3491 22.8624 7.5343 -25.6963
# 3 18.3882 13.3491 26.4055 2.7517 4.7342 -8.9920
# 4 10.7441 22.8624 2.7517 24.5890 1.2919 0.2162
# 5 -13.1398 7.5343 4.7342 1.2919 31.1044 5.7338
# 6 -9.6222 -25.6963 -8.9920 0.2162 5.7338 42.4868
#
#
#
# Elastic Compliance Matrix: (Units=1/GPa)
#
#
# Indices 1 2 3 4 5 6 
#
# 1 0.017610 -0.008971 -0.012032 0.001390 0.012431 -0.005669
# 2 -0.008971 0.023343 0.003354 -0.017662 -0.011892 0.014491
# 3 -0.012032 0.003354 0.051975 -0.002947 -0.015983 0.012476
# 4 0.001390 -0.017662 -0.002947 0.056647 0.005169 -0.011977
# 5 0.012431 -0.011892 -0.015983 0.005169 0.045056 -0.013867
# 6 -0.005669 0.014491 0.012476 -0.011977 -0.013867 0.035590
#
#
# Mechanical properties :
#
#
# Convention : Reuss Voigt Hill
#
# Bulk Modulus (GPa) = 17.35208 40.33266 28.84237
# Shear Modulus (GPa) = 17.56060 29.16517 23.36289
#
# Velocity S-wave (km/s) = 2.86131 3.68747 3.30034
# Velocity P-wave (km/s) = 4.35959 6.07732 5.28866
#
# Compressibility (1/GPa) = 0.05762997
#
# Stress axis : x y z
#
# Youngs Moduli (GPa) = 56.78717 42.83903 19.23996
#
# Poissons Ratio (x) = 0.38431 0.23149
# Poissons Ratio (y) = 0.50944 -0.06452
# Poissons Ratio (z) = 0.68324 -0.14367
#
# Static dielectric constant tensor:
#      x y z
#    x 1.809470 0.012370 0.001510 
#    y 0.012370 1.910520 0.025940 
#    z 0.001510 0.025940 1.822570 
# 
# From -- ./inp_files/316195.got.cif
#   From: 2010.05.17/outbox.cif.g08.bks.cpg/sg2_159_cif.got.tgz:316195.got - 2010.06.03 11:33:40.
