data_PCOD9036904
_publ_section_title
;
Structure prediction by ZEFSAII (Michael W. Deem and Ramdas Pophale) SiO2 
 PCOD9036904
Probable space group: P -1
;
_chemical_formula_sum "Si O2"
_cell_formula_units_Z 16
_cell_length_a 11.426988
_cell_length_b 25.899869
_cell_length_c 5.067188
_cell_angle_alpha 122.756990
_cell_angle_beta 125.259633
_cell_angle_gamma 30.077296
_cell_volume 610.536888
_symmetry_space_group_name_H-M "P -1"
_symmetry_group_IT_number 2
_symmetry_cell_setting 'triclinic'
loop_
_space_group_symop_operation_xyz
x,y,z
-x,-y,-z
loop_
_atom_site_type_symbol
_atom_site_label
_atom_site_fract_x
_atom_site_fract_y
_atom_site_fract_z
Si Si1 0.330860 0.335580 0.908445
Si Si2 0.853992 0.004563 0.515497
Si Si3 0.310609 0.022732 0.165269
Si Si4 0.113721 0.662760 0.417589
Si Si5 0.329224 0.649632 0.155083
Si Si6 0.174093 0.815825 0.752388
Si Si7 0.174998 0.521515 0.432761
Si Si8 0.436219 0.177887 0.817854
O O1 0.374430 0.271237 0.025902
O O2 0.107011 0.384732 0.588373
O O3 0.605486 0.250139 0.940128
O O4 0.241670 0.432856 0.150102
O O5 0.601143 0.118962 0.607223
O O6 0.764335 0.965983 0.201995
O O7 0.000000 0.000000 0.500000
O O8 0.060548 0.916279 0.755423
O O9 0.402367 0.921348 0.063850
O O10 0.500000 0.000000 0.500000
O O11 0.057869 0.129887 0.254018
O O12 0.191895 0.652361 0.194573
O O13 0.191891 0.569012 0.368494
O O14 0.825439 0.763558 0.364825
O O15 0.242045 0.664744 0.792731
O O16 0.267202 0.737806 0.433837
O O17 0.615856 0.540604 0.255049
#
# Coordination Sequence:
#
# PCOD9036904 Si02
#       8
#     2   2   2   2   2   2   2   2
#     4   9  18  41  66  92 130 175 230 277 346 402
#     4  11  24  41  66  96 135 181 232 281 342 406
#     4  11  24  39  64  94 140 178 226 286 340 410
#     4  11  24  42  71 100 139 176 225 279 350 411
#     4  11  24  42  71 100 139 176 225 279 350 411
#     4  10  23  39  65  95 134 179 224 284 334 414
#     4   9  20  40  70  96 130 175 221 287 334 415
#     4  10  23  39  65  95 134 179 224 284 334 414
#
# _framework density 26.206443
#
# number of rings (size 3 to 8) (size 9 to 14) (size 15 to 20)
#    0.000    1.750    0.000    3.000    7.000    3.000 
#    0.000    0.000    5.500    6.000    0.000    0.000 
#    0.000    0.000    0.000    0.000    0.000    0.000 
#
# Total GULP energy -89345.251085 kJ/mol
# GULP energy per Si atom -5584.078193 kJ/mol
# Density = 2.614680 g / cm^3
# Si number density = 26.206443 Si / 1000 Ang^3
#
#
#
# Elastic Constant Matrix: (Units=GPa)
#
#
# Indices 1 2 3 4 5 6 
#
# 1 73.6660 43.4755 36.4203 -5.7670 19.7191 -4.8000
# 2 43.4755 167.4659 38.6725 -26.3077 15.6176 -3.9615
# 3 36.4203 38.6725 72.2685 -8.7904 25.3808 -24.3752
# 4 -5.7670 -26.3077 -8.7904 50.5976 -13.3077 25.6478
# 5 19.7191 15.6176 25.3808 -13.3077 41.0169 -7.9664
# 6 -4.8000 -3.9615 -24.3752 25.6478 -7.9664 56.3676
#
#
#
# Elastic Compliance Matrix: (Units=1/GPa)
#
#
# Indices 1 2 3 4 5 6 
#
# 1 0.020303 -0.003246 -0.007761 -0.000809 -0.004394 -0.002108
# 2 -0.003246 0.008397 -0.004171 0.005748 0.002069 -0.003813
# 3 -0.007761 -0.004171 0.027485 -0.007887 -0.011749 0.012860
# 4 -0.000809 0.005748 -0.007887 0.032283 0.010389 -0.016296
# 5 -0.004394 0.002069 -0.011749 0.010389 0.035368 -0.005038
# 6 -0.002108 -0.003813 0.012860 -0.016296 -0.005038 0.029557
#
#
# Mechanical properties :
#
#
# Convention : Reuss Voigt Hill
#
# Bulk Modulus (GPa) = 38.71639 61.17077 49.94358
# Shear Modulus (GPa) = 25.99303 42.58522 34.28913
#
# Velocity S-wave (km/s) = 3.15279 4.03549 3.62114
# Velocity P-wave (km/s) = 5.29709 6.71611 6.04836
#
# Compressibility (1/GPa) = 0.02582885
#
# Stress axis : x y z
#
# Youngs Moduli (GPa) = 49.25381 119.08839 36.38326
#
# Poissons Ratio (x) = 0.38652 0.28238
# Poissons Ratio (y) = 0.15986 0.15176
# Poissons Ratio (z) = 0.38227 0.49675
#
# Static dielectric constant tensor:
#      x y z
#    x 2.120030 0.038280 0.030370 
#    y 0.038280 2.029130 -0.000400 
#    z 0.030370 -0.000400 2.173720 
# 
# From -- ./inp_files/85102.got.cif
#   From: 2010.05.17/outbox.cif.g08.bks.cpg/sg2_43_cif.got.tgz:85102.got - 2010.06.03 11:33:40.
