data_PCOD9036107
_publ_section_title
;
Structure prediction by ZEFSAII (Michael W. Deem and Ramdas Pophale) SiO2 
 PCOD9036107
Probable space group: P -1
;
_chemical_formula_sum "Si O2"
_cell_formula_units_Z 16
_cell_length_a 9.082715
_cell_length_b 16.941937
_cell_length_c 6.363436
_cell_angle_alpha 120.050213
_cell_angle_beta 125.152990
_cell_angle_gamma 75.880938
_cell_volume 691.633033
_symmetry_space_group_name_H-M "P -1"
_symmetry_group_IT_number 2
_symmetry_cell_setting 'triclinic'
loop_
_space_group_symop_operation_xyz
x,y,z
-x,-y,-z
loop_
_atom_site_type_symbol
_atom_site_label
_atom_site_fract_x
_atom_site_fract_y
_atom_site_fract_z
Si Si1 0.091163 0.292543 0.277511
Si Si2 0.615288 0.967360 0.744417
Si Si3 0.169181 0.596705 0.060087
Si Si4 0.918474 0.132789 0.678721
Si Si5 0.839929 0.606604 0.130971
Si Si6 0.442835 0.331557 0.332891
Si Si7 0.581915 0.145431 0.204509
Si Si8 0.111197 0.051461 0.348168
O O1 0.124133 0.309942 0.570605
O O2 0.280366 0.319292 0.352128
O O3 0.923843 0.351816 0.140819
O O4 0.029368 0.191068 0.017231
O O5 0.549055 0.909420 0.812491
O O6 0.735385 0.904739 0.615446
O O7 0.500000 0.000000 0.500000
O O8 0.664621 0.068133 0.022276
O O9 0.370069 0.627045 0.354042
O O10 0.015427 0.607183 0.126389
O O11 0.171707 0.488204 0.877255
O O12 0.748149 0.184695 0.533871
O O13 0.033083 0.115956 0.542285
O O14 0.844462 0.035529 0.584296
O O15 0.655134 0.613876 0.857641
O O16 0.487113 0.230813 0.148532
O O17 0.000000 0.000000 0.000000
#
# Coordination Sequence:
#
# PCOD9036107 Si02
#       8
#     2   2   2   2   2   2   2   2
#     4  11  25  42  66 104 138 176 222 283 335 407
#     4  11  24  41  63  90 124 177 227 279 333 390
#     4  10  22  47  73  97 137 176 225 278 340 415
#     4  11  24  43  63  94 135 174 233 275 336 408
#     4  10  24  45  71 104 133 177 224 277 346 409
#     4  11  25  42  66 102 138 177 220 285 334 408
#     4  11  24  43  62  93 133 175 232 277 335 403
#     4  11  24  41  64  90 123 182 223 279 335 387
#
# _framework density 23.133654
#
# number of rings (size 3 to 8) (size 9 to 14) (size 15 to 20)
#    0.000    1.250    3.750    0.750    3.500    5.500 
#    0.000    0.000    0.000    0.000    0.000    0.000 
#    0.000    0.000    0.000    0.000    0.000    0.000 
#
# Total GULP energy -89171.025709 kJ/mol
# GULP energy per Si atom -5573.189107 kJ/mol
# Density = 2.308100 g / cm^3
# Si number density = 23.133654 Si / 1000 Ang^3
#
#
#
# Elastic Constant Matrix: (Units=GPa)
#
#
# Indices 1 2 3 4 5 6 
#
# 1 60.5810 21.0602 18.2334 8.4433 3.3853 -14.8793
# 2 21.0602 88.8271 6.4883 -7.5393 8.6426 -16.9031
# 3 18.2334 6.4883 99.4420 5.7653 12.9616 -12.2511
# 4 8.4433 -7.5393 5.7653 34.9962 -11.5421 3.9275
# 5 3.3853 8.6426 12.9616 -11.5421 43.3159 -2.8422
# 6 -14.8793 -16.9031 -12.2511 3.9275 -2.8422 23.7613
#
#
#
# Elastic Compliance Matrix: (Units=1/GPa)
#
#
# Indices 1 2 3 4 5 6 
#
# 1 0.022263 -0.003406 -0.001732 -0.007737 -0.001837 0.011684
# 2 -0.003406 0.013786 0.000720 0.002309 -0.001594 0.007473
# 3 -0.001732 0.000720 0.011727 -0.003312 -0.004036 0.005538
# 4 -0.007737 0.002309 -0.003312 0.035885 0.010065 -0.009637
# 5 -0.001837 -0.001594 -0.004036 0.010065 0.027256 -0.002769
# 6 0.011684 0.007473 0.005538 -0.009637 -0.002769 0.058835
#
#
# Mechanical properties :
#
#
# Convention : Reuss Voigt Hill
#
# Bulk Modulus (GPa) = 25.68211 37.82376 31.75294
# Shear Modulus (GPa) = 26.10021 33.95254 30.02637
#
# Velocity S-wave (km/s) = 3.36257 3.83517 3.60662
# Velocity P-wave (km/s) = 5.11874 5.99975 5.57667
#
# Compressibility (1/GPa) = 0.03893761
#
# Stress axis : x y z
#
# Youngs Moduli (GPa) = 44.91758 72.53768 85.27162
#
# Poissons Ratio (x) = 0.24710 0.14773
# Poissons Ratio (y) = 0.15301 -0.06137
# Poissons Ratio (z) = 0.07782 -0.05220
#
# Static dielectric constant tensor:
#      x y z
#    x 1.934230 -0.059320 0.094100 
#    y -0.059320 1.961610 0.011970 
#    z 0.094100 0.011970 1.891380 
# 
# From -- ./inp_files/49153.got.cif
#   From: 2010.05.17/outbox.cif.g08.bks.cpg/sg2_25_cif.got.tgz:49153.got - 2010.06.03 11:33:40.
