data_PCOD9036974
_publ_section_title
;
Structure prediction by ZEFSAII (Michael W. Deem and Ramdas Pophale) SiO2 
 PCOD9036974
Probable space group: P -1
;
_chemical_formula_sum "Si O2"
_cell_formula_units_Z 16
_cell_length_a 17.883822
_cell_length_b 6.208242
_cell_length_c 9.462363
_cell_angle_alpha 129.637517
_cell_angle_beta 61.549054
_cell_angle_gamma 106.939039
_cell_volume 711.211446
_symmetry_space_group_name_H-M "P -1"
_symmetry_group_IT_number 2
_symmetry_cell_setting 'triclinic'
loop_
_space_group_symop_operation_xyz
x,y,z
-x,-y,-z
loop_
_atom_site_type_symbol
_atom_site_label
_atom_site_fract_x
_atom_site_fract_y
_atom_site_fract_z
Si Si1 0.927266 0.497574 0.185712
Si Si2 0.141608 0.954065 0.475614
Si Si3 0.498839 0.166620 0.911854
Si Si4 0.670587 0.853299 0.589194
Si Si5 0.757028 0.472059 0.151140
Si Si6 0.998170 0.236929 0.283666
Si Si7 0.687028 0.876423 0.907351
Si Si8 0.825814 0.651913 0.889347
O O1 0.838643 0.434796 0.162601
O O2 0.968422 0.297745 0.179408
O O3 0.896990 0.757270 0.428514
O O4 0.000000 0.500000 0.000000
O O5 0.136200 0.666967 0.274961
O O6 0.076333 0.944178 0.660541
O O7 0.239695 0.988347 0.442564
O O8 0.585788 0.035914 0.715979
O O9 0.500000 0.500000 0.000000
O O10 0.403544 0.092546 0.921016
O O11 0.500000 0.000000 0.000000
O O12 0.680589 0.597572 0.366177
O O13 0.672526 0.765010 0.715524
O O14 0.784300 0.687116 0.094260
O O15 0.727926 0.181874 0.988936
O O16 0.097255 0.154484 0.146124
O O17 0.000000 0.500000 0.500000
O O18 0.752069 0.683513 0.854413
#
# Coordination Sequence:
#
# PCOD9036974 Si02
#       8
#     2   2   2   2   2   2   2   2
#     4  11  24  43  60  93 137 182 234 297 346 425
#     4  10  23  39  67  88 135 177 235 285 351 421
#     4  10  23  47  81 112 143 194 245 302 373 448
#     4  10  23  47  71 103 137 187 237 291 368 432
#     4  11  25  43  66 103 142 184 236 293 364 427
#     4  10  24  38  63  94 126 183 236 281 354 416
#     4  11  25  45  75  97 146 182 232 301 361 438
#     4  11  23  42  63 100 136 182 238 291 359 429
#
# _framework density 22.496825999999999
#
# number of rings (size 3 to 8) (size 9 to 14) (size 15 to 20)
#    0.000    1.500    2.500    0.750   10.500    5.000 
#    4.500    0.625    0.000    0.000    0.000    0.000 
#    0.000    0.000    0.000    0.000    0.000    0.000 
#
# Total GULP energy -89080.355116 kJ/mol
# GULP energy per Si atom -5567.522195 kJ/mol
# Density = 2.244562 g / cm^3
# Si number density = 22.496826 Si / 1000 Ang^3
#
#
#
# Elastic Constant Matrix: (Units=GPa)
#
#
# Indices 1 2 3 4 5 6 
#
# 1 96.2780 30.2430 33.0941 -15.1699 -43.2483 -8.5969
# 2 30.2430 57.6759 32.0849 -1.7183 -14.7648 -5.9826
# 3 33.0941 32.0849 123.1030 6.0435 -23.0885 -16.0690
# 4 -15.1699 -1.7183 6.0435 27.7705 -5.1844 -6.7240
# 5 -43.2483 -14.7648 -23.0885 -5.1844 46.2144 -5.4057
# 6 -8.5969 -5.9826 -16.0690 -6.7240 -5.4057 39.6659
#
#
#
# Elastic Compliance Matrix: (Units=1/GPa)
#
#
# Indices 1 2 3 4 5 6 
#
# 1 0.033936 -0.006249 -0.000329 0.028526 0.034650 0.015837
# 2 -0.006249 0.022777 -0.004366 -0.001225 -0.000892 -0.000017
# 3 -0.000329 -0.004366 0.010661 -0.001074 0.003965 0.003948
# 4 0.028526 -0.001225 -0.001074 0.063470 0.035361 0.021141
# 5 0.034650 -0.000892 0.003965 0.035361 0.062475 0.023490
# 6 0.015837 -0.000017 0.003948 0.021141 0.023490 0.037025
#
#
# Mechanical properties :
#
#
# Convention : Reuss Voigt Hill
#
# Bulk Modulus (GPa) = 21.98413 51.98902 36.98657
# Shear Modulus (GPa) = 18.69891 34.83914 26.76902
#
# Velocity S-wave (km/s) = 2.88615 3.93953 3.45324
# Velocity P-wave (km/s) = 4.57163 6.62215 5.69002
#
# Compressibility (1/GPa) = 0.04548736
#
# Stress axis : x y z
#
# Youngs Moduli (GPa) = 29.46685 43.90334 93.79762
#
# Poissons Ratio (x) = 0.27436 0.03085
# Poissons Ratio (y) = 0.18414 0.40951
# Poissons Ratio (z) = 0.00969 0.19168
#
# Static dielectric constant tensor:
#      x y z
#    x 1.750850 -0.107180 0.019390 
#    y -0.107180 1.599720 0.072390 
#    z 0.019390 0.072390 1.869660 
# 
# From -- ./inp_files/52170.got.cif
#   From: 2010.05.17/outbox.cif.g08.bks.cpg/sg2_27_cif.got.tgz:52170.got - 2010.06.03 11:33:40.
