data_PCOD9036934
_publ_section_title
;
Structure prediction by ZEFSAII (Michael W. Deem and Ramdas Pophale) SiO2 
 PCOD9036934
Probable space group: P -1
;
_chemical_formula_sum "Si O2"
_cell_formula_units_Z 12
_cell_length_a 11.648670
_cell_length_b 17.666891
_cell_length_c 6.730876
_cell_angle_alpha 119.581405
_cell_angle_beta 67.839148
_cell_angle_gamma 154.283760
_cell_volume 514.263461
_symmetry_space_group_name_H-M "P -1"
_symmetry_group_IT_number 2
_symmetry_cell_setting 'triclinic'
loop_
_space_group_symop_operation_xyz
x,y,z
-x,-y,-z
loop_
_atom_site_type_symbol
_atom_site_label
_atom_site_fract_x
_atom_site_fract_y
_atom_site_fract_z
Si Si1 0.403997 0.022309 0.459235
Si Si2 0.485386 0.655979 0.708231
Si Si3 0.663431 0.256021 0.216279
Si Si4 0.812546 0.007553 0.086409
Si Si5 0.674900 0.569456 0.800009
Si Si6 0.064093 0.371376 0.961422
O O1 0.886785 0.771007 0.839662
O O2 0.500000 0.000000 0.500000
O O3 0.622602 0.192273 0.379128
O O4 0.309803 0.043359 0.686924
O O5 0.328296 0.634988 0.664144
O O6 0.495665 0.581031 0.458299
O O7 0.757095 0.874664 0.878475
O O8 0.313026 0.531053 0.855365
O O9 0.908293 0.364664 0.082893
O O10 0.386375 0.063407 0.026521
O O11 0.853161 0.172968 0.745984
O O12 0.847179 0.604894 0.850152
O O13 0.500000 0.500000 0.000000
#
# Coordination Sequence:
#
# PCOD9036934 Si02
#       6
#     2   2   2   2   2   2
#     4  12  20  37  68 100 141 175 207 266 337 404
#     4  10  25  43  67 102 131 170 222 274 330 396
#     4  10  23  39  66 104 137 169 205 274 338 393
#     4  10  23  44  62  99 133 166 220 270 335 383
#     4  12  27  47  69  91 130 184 228 272 322 382
#     4  12  22  41  68 101 137 171 219 267 329 401
#
# _framework density 23.334341999999999
#
# number of rings (size 3 to 8) (size 9 to 14) (size 15 to 20)
#    1.000    0.000    5.000    2.000    2.333    2.000 
#    0.000    0.833    0.000    0.000    0.000    0.000 
#    0.000    0.000    0.000    0.000    0.000    0.000 
#
# Total GULP energy -67100.274002 kJ/mol
# GULP energy per Si atom -5591.689500 kJ/mol
# Density = 2.328123 g / cm^3
# Si number density = 23.334342 Si / 1000 Ang^3
#
#
#
# Elastic Constant Matrix: (Units=GPa)
#
#
# Indices 1 2 3 4 5 6 
#
# 1 61.4130 12.1628 24.9753 9.0362 3.8106 -9.4469
# 2 12.1628 79.2830 66.4542 1.9860 -14.3247 -6.3576
# 3 24.9753 66.4542 162.7156 11.8470 -24.1132 -10.2064
# 4 9.0362 1.9860 11.8470 47.3079 -4.8833 2.9609
# 5 3.8106 -14.3247 -24.1132 -4.8833 44.4617 -6.3883
# 6 -9.4469 -6.3576 -10.2064 2.9609 -6.3883 33.7692
#
#
#
# Elastic Compliance Matrix: (Units=1/GPa)
#
#
# Indices 1 2 3 4 5 6 
#
# 1 0.018796 -0.000990 -0.002421 -0.003511 -0.003043 0.004072
# 2 -0.000990 0.019593 -0.007450 0.001417 0.002736 0.001553
# 3 -0.002421 -0.007450 0.010305 -0.001560 0.003488 0.001832
# 4 -0.003511 0.001417 -0.001560 0.022519 0.001984 -0.002786
# 5 -0.003043 0.002736 0.003488 0.001984 0.026543 0.005565
# 6 0.004072 0.001553 0.001832 -0.002786 0.005565 0.032895
#
#
# Mechanical properties :
#
#
# Convention : Reuss Voigt Hill
#
# Bulk Modulus (GPa) = 37.07506 56.73292 46.90399
# Shear Modulus (GPa) = 30.98602 38.42906 34.70754
#
# Velocity S-wave (km/s) = 3.64801 4.06259 3.86087
# Velocity P-wave (km/s) = 5.80233 6.80970 6.32610
#
# Compressibility (1/GPa) = 0.02697231
#
# Stress axis : x y z
#
# Youngs Moduli (GPa) = 53.20420 51.03853 97.03680
#
# Poissons Ratio (x) = 0.05052 0.23488
# Poissons Ratio (y) = 0.05267 0.72296
# Poissons Ratio (z) = 0.12878 0.38026
#
# Static dielectric constant tensor:
#      x y z
#    x 1.945460 0.009810 0.011430 
#    y 0.009810 1.841810 0.031600 
#    z 0.011430 0.031600 1.836500 
# 
# From -- ./inp_files/100116.got.cif
#   From: 2010.05.17/outbox.cif.g08.bks.cpg/sg2_51_cif.got.tgz:100116.got - 2010.06.03 11:33:40.
