data_PCOD9036121
_publ_section_title
;
Structure prediction by ZEFSAII (Michael W. Deem and Ramdas Pophale) SiO2 
 PCOD9036121
Probable space group: P -1
;
_chemical_formula_sum "Si O2"
_cell_formula_units_Z 16
_cell_length_a 20.476032
_cell_length_b 9.431692
_cell_length_c 15.442328
_cell_angle_alpha 23.412529
_cell_angle_beta 142.624761
_cell_angle_gamma 144.133673
_cell_volume 677.416958
_symmetry_space_group_name_H-M "P -1"
_symmetry_group_IT_number 2
_symmetry_cell_setting 'triclinic'
loop_
_space_group_symop_operation_xyz
x,y,z
-x,-y,-z
loop_
_atom_site_type_symbol
_atom_site_label
_atom_site_fract_x
_atom_site_fract_y
_atom_site_fract_z
Si Si1 0.640501 0.879698 0.509762
Si Si2 0.131265 0.880222 0.611266
Si Si3 0.725405 0.335461 0.603486
Si Si4 0.912339 0.192487 0.772588
Si Si5 0.875387 0.184897 0.549064
Si Si6 0.605663 0.146416 0.764367
Si Si7 0.564755 0.663714 0.159133
Si Si8 0.337516 0.604116 0.028415
O O1 0.629586 0.558627 0.604166
O O2 0.525726 0.976363 0.335334
O O3 0.652336 0.666887 0.729872
O O4 0.752506 0.238985 0.402904
O O5 0.137167 0.023538 0.437997
O O6 0.997749 0.631121 0.619556
O O7 0.185657 0.237993 0.528468
O O8 0.216814 0.632923 0.850783
O O9 0.802506 0.134619 0.747923
O O10 0.680571 0.184733 0.735876
O O11 0.622162 0.359063 0.420603
O O12 0.880865 0.015047 0.743321
O O13 0.000000 0.000000 0.000000
O O14 0.000000 0.500000 0.500000
O O15 0.613030 0.864121 0.006808
O O16 0.427324 0.556964 0.077894
O O17 0.607897 0.979109 0.103687
#
# Coordination Sequence:
#
# PCOD9036121 Si02
#       8
#     2   2   2   2   2   2   2   2
#     4  10  17  32  60  93 131 165 207 258 318 383
#     4  10  20  39  66  90 120 168 218 268 311 375
#     4  11  21  41  64  96 129 160 218 273 318 374
#     4  11  25  44  62  85 125 175 215 264 329 386
#     4  10  21  38  60  87 122 171 212 252 315 385
#     4  10  19  32  61  99 129 161 207 269 320 374
#     4   9  18  31  54  97 129 159 193 260 327 371
#     4   9  16  29  59  90 127 158 200 254 319 378
#
# _framework density 23.619130999999999
#
# number of rings (size 3 to 8) (size 9 to 14) (size 15 to 20)
#    0.000    2.000    2.500    1.875    3.500    0.000 
#    6.750    1.250    0.000    1.500    0.000    0.000 
#    0.000    0.000    0.000    0.000    0.000    0.250 
#
# Total GULP energy -89196.067526 kJ/mol
# GULP energy per Si atom -5574.754220 kJ/mol
# Density = 2.356537 g / cm^3
# Si number density = 23.619131 Si / 1000 Ang^3
#
#
#
# Elastic Constant Matrix: (Units=GPa)
#
#
# Indices 1 2 3 4 5 6 
#
# 1 166.2029 15.0542 71.1002 23.2577 0.1775 17.6716
# 2 15.0542 81.5365 14.9482 17.3172 7.0221 9.7005
# 3 71.1002 14.9482 75.9485 19.9420 7.2767 -15.0375
# 4 23.2577 17.3172 19.9420 35.7869 -3.8461 1.0764
# 5 0.1775 7.0221 7.2767 -3.8461 26.1956 -0.4789
# 6 17.6716 9.7005 -15.0375 1.0764 -0.4789 46.0967
#
#
#
# Elastic Compliance Matrix: (Units=1/GPa)
#
#
# Indices 1 2 3 4 5 6 
#
# 1 0.013600 0.001278 -0.015343 -0.000205 0.003606 -0.010446
# 2 0.001278 0.014883 -0.002804 -0.006799 -0.004298 -0.004422
# 3 -0.015343 -0.002804 0.035237 -0.009933 -0.010060 0.018094
# 4 -0.000205 -0.006799 -0.009933 0.038065 0.010126 -0.002515
# 5 0.003606 -0.004298 -0.010060 0.010126 0.043519 -0.003544
# 6 -0.010446 -0.004422 0.018094 -0.002515 -0.003544 0.032553
#
#
# Mechanical properties :
#
#
# Convention : Reuss Voigt Hill
#
# Bulk Modulus (GPa) = 33.35466 58.43256 45.89361
# Shear Modulus (GPa) = 22.56415 36.45486 29.50951
#
# Velocity S-wave (km/s) = 3.09420 3.93293 3.53851
# Velocity P-wave (km/s) = 5.18825 6.73923 6.01395
#
# Compressibility (1/GPa) = 0.02998081
#
# Stress axis : x y z
#
# Youngs Moduli (GPa) = 73.52772 67.19152 28.37910
#
# Poissons Ratio (x) = -0.08585 0.43543
# Poissons Ratio (y) = -0.09394 0.07957
# Poissons Ratio (z) = 1.12817 0.18840
#
# Static dielectric constant tensor:
#      x y z
#    x 1.933920 0.036920 -0.003010 
#    y 0.036920 1.981110 -0.113580 
#    z -0.003010 -0.113580 1.903220 
# 
# From -- ./inp_files/456996.got.cif
#   From: 2010.05.17/outbox.cif.g08.bks.cpg/sg2_229_cif.got.tgz:456996.got - 2010.06.03 11:33:40.
