data_PCOD9036918
_publ_section_title
;
Structure prediction by ZEFSAII (Michael W. Deem and Ramdas Pophale) SiO2 
 PCOD9036918
Probable space group: P -1
;
_chemical_formula_sum "Si O2"
_cell_formula_units_Z 16
_cell_length_a 9.035355
_cell_length_b 14.860060
_cell_length_c 7.569801
_cell_angle_alpha 101.127682
_cell_angle_beta 107.926471
_cell_angle_gamma 129.690268
_cell_volume 630.050473
_symmetry_space_group_name_H-M "P -1"
_symmetry_group_IT_number 2
_symmetry_cell_setting 'triclinic'
loop_
_space_group_symop_operation_xyz
x,y,z
-x,-y,-z
loop_
_atom_site_type_symbol
_atom_site_label
_atom_site_fract_x
_atom_site_fract_y
_atom_site_fract_z
Si Si1 0.103736 0.283569 0.916064
Si Si2 0.657910 0.259000 0.519396
Si Si3 0.594043 0.025431 0.770582
Si Si4 0.818670 0.749478 0.464125
Si Si5 0.441573 0.285092 0.164916
Si Si6 0.090996 0.413754 0.478379
Si Si7 0.716310 0.966404 0.151449
Si Si8 0.733696 0.459730 0.795118
O O1 0.142201 0.256377 0.729266
O O2 0.839940 0.160986 0.833089
O O3 0.259668 0.288247 0.103381
O O4 0.178076 0.422692 0.997060
O O5 0.470766 0.241013 0.340233
O O6 0.742217 0.352457 0.758151
O O7 0.860299 0.336544 0.474220
O O8 0.544438 0.110551 0.447312
O O9 0.429047 0.037852 0.763541
O O10 0.658474 0.996173 0.961354
O O11 0.891730 0.687384 0.561238
O O12 0.544516 0.642731 0.352147
O O13 0.007985 0.907859 0.654960
O O14 0.690410 0.443609 0.286543
O O15 0.370951 0.176222 0.957022
O O16 0.125142 0.459775 0.306080
#
# Coordination Sequence:
#
# PCOD9036918 Si02
#       8
#     2   2   2   2   2   2   2   2
#     4  12  27  41  62  97 139 171 209 257 327 390
#     4  10  23  42  71 100 123 160 225 274 312 373
#     4  10  23  43  67  97 126 166 219 271 316 375
#     4  12  25  44  64  93 135 175 212 259 319 393
#     4  10  23  39  65  99 128 161 212 270 315 379
#     4  11  22  44  71  97 125 163 222 276 313 372
#     4  10  23  42  70  91 126 172 221 265 316 369
#     4  11  24  41  69  96 126 172 213 267 322 369
#
# _framework density 25.394788999999999
#
# number of rings (size 3 to 8) (size 9 to 14) (size 15 to 20)
#    0.000    1.250    2.500    3.000   12.250    2.000 
#    0.000    0.625    0.000    0.000    0.000    0.000 
#    0.000    0.000    0.000    0.000    0.000    0.000 
#
# Total GULP energy -89600.248005 kJ/mol
# GULP energy per Si atom -5600.015500 kJ/mol
# Density = 2.533699 g / cm^3
# Si number density = 25.394789 Si / 1000 Ang^3
#
#
#
# Elastic Constant Matrix: (Units=GPa)
#
#
# Indices 1 2 3 4 5 6 
#
# 1 102.7873 22.7427 31.0549 4.1833 -0.5108 0.1982
# 2 22.7427 55.4211 53.1738 21.8184 -9.5887 6.8821
# 3 31.0549 53.1738 101.2442 29.5544 -18.7790 -9.0528
# 4 4.1833 21.8184 29.5544 41.9638 -6.0135 -5.7676
# 5 -0.5108 -9.5887 -18.7790 -6.0135 47.4145 8.0516
# 6 0.1982 6.8821 -9.0528 -5.7676 8.0516 34.3910
#
#
#
# Elastic Compliance Matrix: (Units=1/GPa)
#
#
# Indices 1 2 3 4 5 6 
#
# 1 0.011135 -0.003405 -0.002498 0.002315 -0.001378 0.000671
# 2 -0.003405 0.047071 -0.021567 -0.010990 0.002520 -0.017510
# 3 -0.002498 -0.021567 0.024613 -0.004120 0.003248 0.009358
# 4 0.002315 -0.010990 -0.004120 0.033039 -0.000799 0.006829
# 5 -0.001378 0.002520 0.003248 -0.000799 0.023674 -0.005318
# 6 0.000671 -0.017510 0.009358 0.006829 -0.005318 0.037431
#
#
# Mechanical properties :
#
#
# Convention : Reuss Voigt Hill
#
# Bulk Modulus (GPa) = 35.87277 52.59949 44.23613
# Shear Modulus (GPa) = 20.72998 34.91927 27.82463
#
# Velocity S-wave (km/s) = 2.86021 3.71220 3.31370
# Velocity P-wave (km/s) = 5.00644 6.25552 5.66551
#
# Compressibility (1/GPa) = 0.02787630
#
# Stress axis : x y z
#
# Youngs Moduli (GPa) = 89.80897 21.24446 40.62971
#
# Poissons Ratio (x) = 0.07234 0.10151
# Poissons Ratio (y) = 0.30582 0.87628
# Poissons Ratio (z) = 0.22437 0.45819
#
# Static dielectric constant tensor:
#      x y z
#    x 1.972490 -0.036870 0.001630 
#    y -0.036870 1.976040 -0.043100 
#    z 0.001630 -0.043100 2.085400 
# 
# From -- ./inp_files/218304.got.cif
#   From: 2010.05.17/outbox.cif.g08.bks.cpg/sg2_110_cif.got.tgz:218304.got - 2010.06.03 11:33:40.
