data_PCOD9036120
_publ_section_title
;
Structure prediction by ZEFSAII (Michael W. Deem and Ramdas Pophale) SiO2 
 PCOD9036120
Probable space group: P -1
;
_chemical_formula_sum "Si O2"
_cell_formula_units_Z 14
_cell_length_a 14.585473
_cell_length_b 8.189455
_cell_length_c 13.507653
_cell_angle_alpha 45.097892
_cell_angle_beta 151.524837
_cell_angle_gamma 132.824770
_cell_volume 536.421499
_symmetry_space_group_name_H-M "P -1"
_symmetry_group_IT_number 2
_symmetry_cell_setting 'triclinic'
loop_
_space_group_symop_operation_xyz
x,y,z
-x,-y,-z
loop_
_atom_site_type_symbol
_atom_site_label
_atom_site_fract_x
_atom_site_fract_y
_atom_site_fract_z
Si Si1 0.725742 0.497014 0.194680
Si Si2 0.703152 0.748148 0.604369
Si Si3 0.357611 0.787175 0.408174
Si Si4 0.763515 0.167814 0.201000
Si Si5 0.359804 0.724688 0.163917
Si Si6 0.116324 0.015271 0.934465
Si Si7 0.202473 0.344591 0.583828
O O1 0.725918 0.257270 0.237267
O O2 0.821270 0.565100 0.364298
O O3 0.500000 0.500000 0.000000
O O4 0.819352 0.706541 0.120316
O O5 0.508450 0.735145 0.490579
O O6 0.592872 0.765180 0.389284
O O7 0.757406 0.500246 0.791654
O O8 0.889736 0.940798 0.722430
O O9 0.175691 0.882822 0.144925
O O10 0.300225 0.573814 0.519048
O O11 0.500000 0.000000 0.500000
O O12 0.995581 0.250456 0.376617
O O13 0.324156 0.691772 0.028455
O O14 0.706246 0.894079 0.233172
O O15 0.254030 0.932244 0.015220
#
# Coordination Sequence:
#
# PCOD9036120 Si02
#       7
#     2   2   2   2   2   2   2
#     4  12  28  50  77 115 159 204 262 329 395 466
#     4  10  24  43  80 111 156 207 258 321 399 457
#     4  11  26  46  77 117 160 203 262 325 390 473
#     4  11  26  50  83 110 157 213 263 321 398 471
#     4  10  22  47  74 118 148 204 262 324 382 476
#     4  11  24  49  77 115 157 201 261 326 391 468
#     4  11  26  53  77 118 157 207 269 321 396 471
#
# _framework density 26.098877999999999
#
# number of rings (size 3 to 8) (size 9 to 14) (size 15 to 20)
#    0.000    1.143    1.429    2.571    6.000    4.571 
#    5.143    0.000    0.000    0.000    0.000    0.000 
#    0.000    0.000    0.000    0.000    0.000    0.000 
#
# Total GULP energy -78329.735961 kJ/mol
# GULP energy per Si atom -5594.981140 kJ/mol
# Density = 2.603948 g / cm^3
# Si number density = 26.098878 Si / 1000 Ang^3
#
#
#
# Elastic Constant Matrix: (Units=GPa)
#
#
# Indices 1 2 3 4 5 6 
#
# 1 85.9906 53.9325 27.8857 -18.0629 -25.0160 -12.6138
# 2 53.9325 188.1732 44.9264 -9.9987 -18.3613 4.3706
# 3 27.8857 44.9264 114.1435 11.0388 -25.3224 8.9242
# 4 -18.0629 -9.9987 11.0388 46.7627 1.2677 1.1790
# 5 -25.0160 -18.3613 -25.3224 1.2677 43.0709 7.7845
# 6 -12.6138 4.3706 8.9242 1.1790 7.7845 42.6837
#
#
#
# Elastic Compliance Matrix: (Units=1/GPa)
#
#
# Indices 1 2 3 4 5 6 
#
# 1 0.019137 -0.003940 -0.002712 0.006877 0.006696 0.005215
# 2 -0.003940 0.006895 -0.001688 0.000391 -0.000080 -0.001514
# 3 -0.002712 -0.001688 0.012081 -0.004311 0.005670 -0.004069
# 4 0.006877 0.000391 -0.004311 0.025075 0.000507 0.002108
# 5 0.006696 -0.000080 0.005670 0.000507 0.031280 -0.004917
# 6 0.005215 -0.001514 -0.004069 0.002108 -0.004917 0.026813
#
#
# Mechanical properties :
#
#
# Convention : Reuss Voigt Hill
#
# Bulk Modulus (GPa) = 46.65729 71.31073 58.98401
# Shear Modulus (GPa) = 34.45754 43.94098 39.19926
#
# Velocity S-wave (km/s) = 3.63749 4.10766 3.87971
# Velocity P-wave (km/s) = 5.96303 7.06256 6.53596
#
# Compressibility (1/GPa) = 0.02143288
#
# Stress axis : x y z
#
# Youngs Moduli (GPa) = 52.25472 145.03864 82.77455
#
# Poissons Ratio (x) = 0.57142 0.22447
# Poissons Ratio (y) = 0.20587 0.13976
# Poissons Ratio (z) = 0.14170 0.24488
#
# Static dielectric constant tensor:
#      x y z
#    x 2.149460 0.006120 -0.109090 
#    y 0.006120 1.831680 0.054450 
#    z -0.109090 0.054450 2.124360 
# 
# From -- ./inp_files/529327.got.cif
#   From: 2010.05.17/outbox.cif.g08.bks.cpg/sg2_265_cif.got.tgz:529327.got - 2010.06.03 11:33:40.
