data_PCOD9036400
_publ_section_title
;
Structure prediction by ZEFSAII (Michael W. Deem and Ramdas Pophale) SiO2 
 PCOD9036400
Probable space group: P -1
;
_chemical_formula_sum "Si O2"
_cell_formula_units_Z 16
_cell_length_a 13.654767
_cell_length_b 16.080838
_cell_length_c 16.382371
_cell_angle_alpha 141.627773
_cell_angle_beta 50.898925
_cell_angle_gamma 157.599067
_cell_volume 780.694715
_symmetry_space_group_name_H-M "P -1"
_symmetry_group_IT_number 2
_symmetry_cell_setting 'triclinic'
loop_
_space_group_symop_operation_xyz
x,y,z
-x,-y,-z
loop_
_atom_site_type_symbol
_atom_site_label
_atom_site_fract_x
_atom_site_fract_y
_atom_site_fract_z
Si Si1 0.677166 0.034375 0.952939
Si Si2 0.292760 0.917206 0.279599
Si Si3 0.875698 0.623219 0.152712
Si Si4 0.345954 0.447074 0.655723
Si Si5 0.285868 0.441489 0.493339
Si Si6 0.656266 0.000898 0.117686
Si Si7 0.877304 0.463074 0.614529
Si Si8 0.756640 0.099947 0.516386
O O1 0.909990 0.203394 0.899291
O O2 0.471469 0.712259 0.811958
O O3 0.791585 0.160147 0.080909
O O4 0.500000 0.000000 0.000000
O O5 0.495269 0.228137 0.379679
O O6 0.471132 0.952646 0.204038
O O7 0.208279 0.856253 0.370810
O O8 0.016389 0.650722 0.164264
O O9 0.883337 0.766719 0.315030
O O10 0.578492 0.330918 0.036672
O O11 0.264954 0.377801 0.550232
O O12 0.575411 0.549146 0.621294
O O13 0.978885 0.201677 0.445787
O O14 0.895665 0.215868 0.224533
O O15 0.831742 0.308118 0.589752
O O16 0.000000 0.500000 0.500000
O O17 0.573497 0.237126 0.582671
#
# Coordination Sequence:
#
# PCOD9036400 Si02
#       8
#     2   2   2   2   2   2   2   2
#     4  11  22  36  56  87 126 161 194 242 294 366
#     4  12  21  36  58  90 123 161 195 239 308 358
#     4  11  23  35  56  85 125 162 193 236 302 361
#     4  10  23  36  56  89 123 162 206 234 294 361
#     4  11  21  38  58  85 125 160 202 251 285 359
#     4  11  23  34  57  88 122 153 197 244 297 364
#     4  11  23  41  59  88 120 154 206 254 303 356
#     4  11  23  37  63  84 121 161 195 252 306 349
#
# _framework density 20.494568000000001
#
# number of rings (size 3 to 8) (size 9 to 14) (size 15 to 20)
#    0.000    1.000    6.250    0.375    3.500    1.500 
#    0.000    0.000    0.000    3.000    0.000   15.750 
#    0.000    0.000    0.000    0.000    0.000    0.000 
#
# Total GULP energy -89165.834803 kJ/mol
# GULP energy per Si atom -5572.864675 kJ/mol
# Density = 2.044792 g / cm^3
# Si number density = 20.494568 Si / 1000 Ang^3
#
#
#
# Elastic Constant Matrix: (Units=GPa)
#
#
# Indices 1 2 3 4 5 6 
#
# 1 33.3733 18.2394 2.7431 2.2733 -1.5413 11.2579
# 2 18.2394 108.5110 17.9727 -15.1816 7.9396 19.5618
# 3 2.7431 17.9727 41.3426 -2.0452 10.5608 1.7078
# 4 2.2733 -15.1816 -2.0452 49.2526 7.1965 -0.0779
# 5 -1.5413 7.9396 10.5608 7.1965 37.4510 -6.5810
# 6 11.2579 19.5618 1.7078 -0.0779 -6.5810 45.0233
#
#
#
# Elastic Compliance Matrix: (Units=1/GPa)
#
#
# Indices 1 2 3 4 5 6 
#
# 1 0.035416 -0.005456 -0.000520 -0.003698 0.002396 -0.006122
# 2 -0.005456 0.012412 -0.003763 0.004413 -0.003412 -0.004377
# 3 -0.000520 -0.003763 0.027801 0.001090 -0.007336 -0.000360
# 4 -0.003698 0.004413 0.001090 0.022768 -0.006102 -0.001887
# 5 0.002396 -0.003412 -0.007336 -0.006102 0.031783 0.005797
# 6 -0.006122 -0.004377 -0.000360 -0.001887 0.005797 0.026501
#
#
# Mechanical properties :
#
#
# Convention : Reuss Voigt Hill
#
# Bulk Modulus (GPa) = 17.80903 29.01525 23.41214
# Shear Modulus (GPa) = 25.65715 35.96350 30.81033
#
# Velocity S-wave (km/s) = 3.54206 4.19356 3.88150
# Velocity P-wave (km/s) = 5.04348 6.13483 5.61573
#
# Compressibility (1/GPa) = 0.05615128
#
# Stress axis : x y z
#
# Youngs Moduli (GPa) = 28.23567 80.56622 35.96951
#
# Poissons Ratio (x) = 0.43956 0.01871
# Poissons Ratio (y) = 0.15405 0.13536
# Poissons Ratio (z) = 0.01468 0.30319
#
# Static dielectric constant tensor:
#      x y z
#    x 1.745070 -0.083000 -0.006480 
#    y -0.083000 2.006220 0.010970 
#    z -0.006480 0.010970 1.754650 
# 
# From -- ./inp_files/535104.got.cif
#   From: 2010.05.17/outbox.cif.g08.bks.cpg/sg2_268_cif.got.tgz:535104.got - 2010.06.03 11:33:40.
