data_PCOD9036514
_publ_section_title
;
Structure prediction by ZEFSAII (Michael W. Deem and Ramdas Pophale) SiO2 
 PCOD9036514
Probable space group: P -1
;
_chemical_formula_sum "Si O2"
_cell_formula_units_Z 12
_cell_length_a 11.471769
_cell_length_b 10.813243
_cell_length_c 10.724469
_cell_angle_alpha 152.722712
_cell_angle_beta 112.475863
_cell_angle_gamma 54.728933
_cell_volume 466.295000
_symmetry_space_group_name_H-M "P -1"
_symmetry_group_IT_number 2
_symmetry_cell_setting 'triclinic'
loop_
_space_group_symop_operation_xyz
x,y,z
-x,-y,-z
loop_
_atom_site_type_symbol
_atom_site_label
_atom_site_fract_x
_atom_site_fract_y
_atom_site_fract_z
Si Si1 0.804462 0.381051 0.460234
Si Si2 0.279978 0.111575 0.664459
Si Si3 0.679519 0.347933 0.941863
Si Si4 0.241367 0.999889 0.078926
Si Si5 0.574139 0.498276 0.673200
Si Si6 0.112390 0.622128 0.239980
O O1 0.852646 0.058046 0.114784
O O2 0.640549 0.482493 0.547334
O O3 0.897162 0.385155 0.620218
O O4 0.801992 0.637866 0.597792
O O5 0.248363 0.935224 0.384998
O O6 0.408434 0.822938 0.548317
O O7 0.307929 0.354047 0.819433
O O8 0.139796 0.337057 0.902790
O O9 0.500000 0.500000 0.000000
O O10 0.747390 0.182998 0.954570
O O11 0.413383 0.811479 0.924830
O O12 0.710630 0.484665 0.790219
O O13 0.000000 0.000000 0.500000
#
# Coordination Sequence:
#
# PCOD9036514 Si02
#       6
#     2   2   2   2   2   2
#     4  10  24  39  62  96 130 163 206 259 331 372
#     4  12  22  42  60  99 121 167 218 254 311 369
#     4  12  24  38  64  90 137 171 207 249 309 394
#     4  12  22  39  63  96 137 164 196 257 324 398
#     4  10  23  37  66  96 128 161 204 264 323 372
#     4  10  24  44  68  92 124 167 220 272 310 364
#
# _framework density 25.734781999999999
#
# number of rings (size 3 to 8) (size 9 to 14) (size 15 to 20)
#    1.000    0.000    3.333    3.500    4.667    0.667 
#    0.000    0.000    0.000    6.000    0.000    0.000 
#    0.000    0.000    0.000    0.000    0.000    0.000 
#
# Total GULP energy -66948.556856 kJ/mol
# GULP energy per Si atom -5579.046405 kJ/mol
# Density = 2.567621 g / cm^3
# Si number density = 25.734782 Si / 1000 Ang^3
#
#
#
# Elastic Constant Matrix: (Units=GPa)
#
#
# Indices 1 2 3 4 5 6 
#
# 1 49.7561 -3.0978 17.3296 5.8755 8.5399 11.7400
# 2 -3.0978 122.9145 26.0574 -24.9260 38.4899 11.7598
# 3 17.3296 26.0574 144.4361 -13.2417 35.6911 -2.1651
# 4 5.8755 -24.9260 -13.2417 52.5095 7.3818 15.5306
# 5 8.5399 38.4899 35.6911 7.3818 56.9663 4.9823
# 6 11.7400 11.7598 -2.1651 15.5306 4.9823 53.7503
#
#
#
# Elastic Compliance Matrix: (Units=1/GPa)
#
#
# Indices 1 2 3 4 5 6 
#
# 1 0.022957 0.002658 -0.002513 0.000116 -0.003202 -0.005434
# 2 0.002658 0.014001 0.000699 0.009675 -0.011079 -0.005384
# 3 -0.002513 0.000699 0.008976 0.003670 -0.006219 0.000274
# 4 0.000116 0.009675 0.003670 0.028948 -0.011795 -0.009265
# 5 -0.003202 -0.011079 -0.006219 -0.011795 0.030644 0.003440
# 6 -0.005434 -0.005384 0.000274 -0.009265 0.003440 0.023339
#
#
# Mechanical properties :
#
#
# Convention : Reuss Voigt Hill
#
# Bulk Modulus (GPa) = 20.99897 44.18723 32.59310
# Shear Modulus (GPa) = 34.95249 51.09971 43.02610
#
# Velocity S-wave (km/s) = 3.68935 4.46087 4.09333
# Velocity P-wave (km/s) = 5.13087 6.61362 5.91886
#
# Compressibility (1/GPa) = 0.04762138
#
# Stress axis : x y z
#
# Youngs Moduli (GPa) = 43.55996 71.42315 111.40537
#
# Poissons Ratio (x) = -0.18982 0.28000
# Poissons Ratio (y) = -0.11577 -0.07791
# Poissons Ratio (z) = 0.10948 -0.04995
#
# Static dielectric constant tensor:
#      x y z
#    x 2.188770 -0.071620 0.064830 
#    y -0.071620 2.132460 -0.055920 
#    z 0.064830 -0.055920 2.107080 
# 
# From -- ./inp_files/408609.got.cif
#   From: 2010.05.17/outbox.cif.g08.bks.cpg/sg2_205_cif.got.tgz:408609.got - 2010.06.03 11:33:40.
