data_PCOD9036558
_publ_section_title
;
Structure prediction by ZEFSAII (Michael W. Deem and Ramdas Pophale) SiO2 
 PCOD9036558
Probable space group: P -1
;
_chemical_formula_sum "Si O2"
_cell_formula_units_Z 14
_cell_length_a 13.917057
_cell_length_b 11.091187
_cell_length_c 9.148298
_cell_angle_alpha 106.591456
_cell_angle_beta 122.618698
_cell_angle_gamma 121.540835
_cell_volume 620.711781
_symmetry_space_group_name_H-M "P -1"
_symmetry_group_IT_number 2
_symmetry_cell_setting 'triclinic'
loop_
_space_group_symop_operation_xyz
x,y,z
-x,-y,-z
loop_
_atom_site_type_symbol
_atom_site_label
_atom_site_fract_x
_atom_site_fract_y
_atom_site_fract_z
Si Si1 0.817562 0.194414 0.776334
Si Si2 0.630312 0.257735 0.782161
Si Si3 0.011208 0.225844 0.703842
Si Si4 0.440872 0.004416 0.107359
Si Si5 0.148114 0.173992 0.046572
Si Si6 0.910355 0.122434 0.252750
Si Si7 0.782539 0.535279 0.621683
O O1 0.769595 0.295846 0.805514
O O2 0.868094 0.200416 0.654271
O O3 0.594320 0.923070 0.536285
O O4 0.005842 0.318673 0.073299
O O5 0.582081 0.125143 0.835600
O O6 0.759484 0.498575 0.015364
O O7 0.941921 0.126964 0.451494
O O8 0.020040 0.121501 0.791176
O O9 0.614952 0.270537 0.378576
O O10 0.500000 0.000000 0.000000
O O11 0.218809 0.869159 0.866309
O O12 0.289034 0.413709 0.317389
O O13 0.219314 0.109914 0.010805
O O14 0.000000 0.000000 0.000000
O O15 0.130085 0.339008 0.420809
#
# Coordination Sequence:
#
# PCOD9036558 Si02
#       7
#     2   2   2   2   2   2   2
#     4  10  23  38  60  94 131 163 214 260 309 385
#     4  11  24  37  63  98 131 168 218 252 324 391
#     4  11  23  40  68  93 129 171 207 272 325 370
#     4  12  26  39  63 102 136 171 210 258 327 395
#     4   9  22  44  69  93 121 169 228 264 318 378
#     4  11  23  43  64  94 134 172 214 266 315 380
#     4  10  23  42  67  92 130 173 214 266 319 373
#
# _framework density 22.554753999999999
#
# number of rings (size 3 to 8) (size 9 to 14) (size 15 to 20)
#    0.000    1.429    1.429    2.571   12.000    1.714 
#    0.000    5.714    0.000    9.429    0.000    0.000 
#    0.000    0.000    0.000    0.000    0.000    0.000 
#
# Total GULP energy -78265.448495 kJ/mol
# GULP energy per Si atom -5590.389178 kJ/mol
# Density = 2.250342 g / cm^3
# Si number density = 22.554754 Si / 1000 Ang^3
#
#
#
# Elastic Constant Matrix: (Units=GPa)
#
#
# Indices 1 2 3 4 5 6 
#
# 1 85.3936 29.9721 19.4116 -4.4159 -33.6719 15.3964
# 2 29.9721 129.7304 42.6718 -17.1539 -17.2557 13.5190
# 3 19.4116 42.6718 74.4374 0.8918 -22.2896 4.7014
# 4 -4.4159 -17.1539 0.8918 38.2480 3.6900 -14.1008
# 5 -33.6719 -17.2557 -22.2896 3.6900 39.6406 -8.8228
# 6 15.3964 13.5190 4.7014 -14.1008 -8.8228 28.6075
#
#
#
# Elastic Compliance Matrix: (Units=1/GPa)
#
#
# Indices 1 2 3 4 5 6 
#
# 1 0.019078 -0.002613 0.001346 -0.002638 0.014733 -0.006011
# 2 -0.002613 0.010749 -0.005922 0.004443 -0.001500 -0.000973
# 3 0.001346 -0.005922 0.019485 -0.003911 0.009884 -0.000008
# 4 -0.002638 0.004443 -0.003911 0.034065 -0.002091 0.016109
# 5 0.014733 -0.001500 0.009884 -0.002091 0.043638 0.003583
# 6 -0.006011 -0.000973 -0.000008 0.016109 0.003583 0.047697
#
#
# Mechanical properties :
#
#
# Convention : Reuss Voigt Hill
#
# Bulk Modulus (GPa) = 28.62556 52.63028 40.62792
# Shear Modulus (GPa) = 24.90848 34.46628 29.68738
#
# Velocity S-wave (km/s) = 3.32679 3.91335 3.63193
# Velocity P-wave (km/s) = 5.24174 6.61848 5.96993
#
# Compressibility (1/GPa) = 0.03493381
#
# Stress axis : x y z
#
# Youngs Moduli (GPa) = 52.41546 93.03063 51.32203
#
# Poissons Ratio (x) = 0.24311 -0.06906
# Poissons Ratio (y) = 0.13697 0.30391
# Poissons Ratio (z) = -0.07053 0.55090
#
# Static dielectric constant tensor:
#      x y z
#    x 1.862110 -0.007120 0.004010 
#    y -0.007120 1.876390 0.011230 
#    z 0.004010 0.011230 1.838530 
# 
# From -- ./inp_files/308152.got.cif
#   From: 2010.05.17/outbox.cif.g08.bks.cpg/sg2_155_cif.got.tgz:308152.got - 2010.06.03 11:33:40.
