data_PCOD9036291
_publ_section_title
;
Structure prediction by ZEFSAII (Michael W. Deem and Ramdas Pophale) SiO2 
 PCOD9036291
Probable space group: P -1
;
_chemical_formula_sum "Si O2"
_cell_formula_units_Z 14
_cell_length_a 6.201172
_cell_length_b 18.223070
_cell_length_c 5.804115
_cell_angle_alpha 107.238774
_cell_angle_beta 104.326347
_cell_angle_gamma 96.732332
_cell_volume 593.937224
_symmetry_space_group_name_H-M "P -1"
_symmetry_group_IT_number 2
_symmetry_cell_setting 'triclinic'
loop_
_space_group_symop_operation_xyz
x,y,z
-x,-y,-z
loop_
_atom_site_type_symbol
_atom_site_label
_atom_site_fract_x
_atom_site_fract_y
_atom_site_fract_z
Si Si1 0.615049 0.967146 0.786593
Si Si2 0.855311 0.827498 0.603687
Si Si3 0.126334 0.930411 0.389873
Si Si4 0.870998 0.564565 0.628433
Si Si5 0.391349 0.717757 0.342747
Si Si6 0.400765 0.542351 0.214428
Si Si7 0.817342 0.263781 0.184621
O O1 0.734825 0.892858 0.748211
O O2 0.386690 0.937347 0.548278
O O3 0.809685 0.040576 0.825115
O O4 0.500000 0.000000 0.000000
O O5 0.659769 0.751442 0.436798
O O6 0.974461 0.858037 0.419553
O O7 0.031823 0.800401 0.795067
O O8 0.000000 0.000000 0.500000
O O9 0.619845 0.565680 0.462776
O O10 0.803818 0.525783 0.819836
O O11 0.000000 0.500000 0.500000
O O12 0.026736 0.649480 0.719380
O O13 0.329777 0.623701 0.215769
O O14 0.312693 0.736569 0.600583
O O15 0.304336 0.751298 0.112116
O O16 0.500000 0.500000 0.000000
#
# Coordination Sequence:
#
# PCOD9036291 Si02
#       7
#     2   2   2   2   2   2   2
#     4  10  22  48  79 112 143 189 255 307 374 466
#     4  11  25  51  73 113 155 200 249 319 383 458
#     4   9  21  46  73 107 142 189 241 299 382 448
#     4  11  23  44  73 105 147 200 263 311 382 446
#     4  12  28  51  73 114 159 198 266 315 384 458
#     4  11  25  42  76 109 147 202 262 324 373 456
#     4  12  28  50  76 110 154 212 254 321 386 450
#
# _framework density 23.571511999999998
#
# number of rings (size 3 to 8) (size 9 to 14) (size 15 to 20)
#    0.000    1.143    2.857    1.714    4.000    4.571 
#   33.429    0.000    0.000    0.000    0.000    0.000 
#    0.000    0.000    0.000    0.000    0.000    0.000 
#
# Total GULP energy -78056.281465 kJ/mol
# GULP energy per Si atom -5575.448676 kJ/mol
# Density = 2.351786 g / cm^3
# Si number density = 23.571512 Si / 1000 Ang^3
#
#
#
# Elastic Constant Matrix: (Units=GPa)
#
#
# Indices 1 2 3 4 5 6 
#
# 1 122.2249 55.3216 31.4116 -21.8721 -28.4505 7.6147
# 2 55.3216 139.5589 26.5016 -13.2227 -14.3316 12.8979
# 3 31.4116 26.5016 74.9050 -21.4605 -18.0236 -0.2183
# 4 -21.8721 -13.2227 -21.4605 37.8532 2.9748 1.2424
# 5 -28.4505 -14.3316 -18.0236 2.9748 57.9543 -11.5275
# 6 7.6147 12.8979 -0.2183 1.2424 -11.5275 68.2590
#
#
#
# Elastic Compliance Matrix: (Units=1/GPa)
#
#
# Indices 1 2 3 4 5 6 
#
# 1 0.011998 -0.003613 -0.001416 0.004529 0.004321 -0.000013
# 2 -0.003613 0.009030 -0.001723 0.000163 -0.000358 -0.001372
# 3 -0.001416 -0.001723 0.017992 0.008409 0.004263 0.001108
# 4 0.004529 0.000163 0.008409 0.033641 0.003031 -0.000610
# 5 0.004321 -0.000358 0.004263 0.003031 0.021075 0.003103
# 6 -0.000013 -0.001372 0.001108 -0.000610 0.003103 0.015450
#
#
# Mechanical properties :
#
#
# Convention : Reuss Voigt Hill
#
# Bulk Modulus (GPa) = 39.19158 62.57314 50.88236
# Shear Modulus (GPa) = 38.11116 47.71023 42.91070
#
# Velocity S-wave (km/s) = 4.02535 4.50384 4.27130
# Velocity P-wave (km/s) = 6.18606 7.32460 6.77927
#
# Compressibility (1/GPa) = 0.02551568
#
# Stress axis : x y z
#
# Youngs Moduli (GPa) = 83.34779 110.73664 55.58088
#
# Poissons Ratio (x) = 0.40011 0.07870
# Poissons Ratio (y) = 0.30115 0.09578
# Poissons Ratio (z) = 0.11801 0.19082
#
# Static dielectric constant tensor:
#      x y z
#    x 1.793330 0.008560 0.070130 
#    y 0.008560 1.872850 -0.111940 
#    z 0.070130 -0.111940 2.094540 
# 
# From -- ./inp_files/7730.got.cif
#   From: 2010.05.17/outbox.cif.g08.bks.cpg/sg2_4_cif.got.tgz:7730.got - 2010.06.03 11:33:40.
