data_PCOD9036833
_publ_section_title
;
Structure prediction by ZEFSAII (Michael W. Deem and Ramdas Pophale) SiO2 
 PCOD9036833
Probable space group: P -1
;
_chemical_formula_sum "Si O2"
_cell_formula_units_Z 16
_cell_length_a 7.956399
_cell_length_b 13.597950
_cell_length_c 5.813344
_cell_angle_alpha 107.519195
_cell_angle_beta 83.646573
_cell_angle_gamma 80.243759
_cell_volume 582.290874
_symmetry_space_group_name_H-M "P -1"
_symmetry_group_IT_number 2
_symmetry_cell_setting 'triclinic'
loop_
_space_group_symop_operation_xyz
x,y,z
-x,-y,-z
loop_
_atom_site_type_symbol
_atom_site_label
_atom_site_fract_x
_atom_site_fract_y
_atom_site_fract_z
Si Si1 0.431686 0.738198 0.776302
Si Si2 0.686185 0.065625 0.585554
Si Si3 0.664355 0.614331 0.985885
Si Si4 0.265104 0.586743 0.434495
Si Si5 0.668525 0.794038 0.440298
Si Si6 0.029492 0.587569 0.866534
Si Si7 0.058251 0.770759 0.313573
Si Si8 0.206644 0.961309 0.950162
O O1 0.485812 0.683592 0.969601
O O2 0.411332 0.641953 0.549297
O O3 0.587321 0.789779 0.700287
O O4 0.268146 0.833747 0.854016
O O5 0.489829 0.132136 0.624542
O O6 0.728276 0.009337 0.289730
O O7 0.824417 0.142887 0.633376
O O8 0.711149 0.011635 0.798295
O O9 0.667593 0.493238 0.838424
O O10 0.836467 0.624934 0.823593
O O11 0.696149 0.674496 0.252976
O O12 0.175360 0.540459 0.628314
O O13 0.118936 0.684038 0.439388
O O14 0.856053 0.819627 0.409071
O O15 0.000000 0.500000 0.000000
O O16 0.078393 0.692256 0.036453
O O17 0.000000 0.000000 0.000000
#
# Coordination Sequence:
#
# PCOD9036833 Si02
#       8
#     2   2   2   2   2   2   2   2
#     4  11  23  41  61  93 128 169 223 280 334 406
#     4  11  23  48  70 104 137 173 227 278 341 409
#     4  11  23  37  57  86 127 174 219 275 321 392
#     4  12  23  38  60  89 128 180 225 273 327 397
#     4  10  23  39  63  94 130 175 221 274 332 391
#     4  11  24  37  55  85 126 177 233 271 323 396
#     4  11  23  40  65  92 131 182 219 276 332 399
#     4  11  23  44  77 102 132 177 222 279 350 410
#
# _framework density 27.477678999999998
#
# number of rings (size 3 to 8) (size 9 to 14) (size 15 to 20)
#    0.000    1.000    5.000    2.625    3.500    0.500 
#    0.000    0.000    0.000   10.500    0.000    0.000 
#    0.000    0.000    0.000    0.000    0.000    0.000 
#
# Total GULP energy -89449.558033 kJ/mol
# GULP energy per Si atom -5590.597377 kJ/mol
# Density = 2.741514 g / cm^3
# Si number density = 27.477679 Si / 1000 Ang^3
#
#
#
# Elastic Constant Matrix: (Units=GPa)
#
#
# Indices 1 2 3 4 5 6 
#
# 1 158.6264 46.7338 26.7805 -10.3898 -26.5776 -13.3932
# 2 46.7338 119.9912 39.0181 -8.8176 -15.8446 -10.0268
# 3 26.7805 39.0181 133.0876 -2.3244 -15.2911 4.4128
# 4 -10.3898 -8.8176 -2.3244 39.2293 -10.7432 0.1769
# 5 -26.5776 -15.8446 -15.2911 -10.7432 44.4291 -4.0041
# 6 -13.3932 -10.0268 4.4128 0.1769 -4.0041 53.6483
#
#
#
# Elastic Compliance Matrix: (Units=1/GPa)
#
#
# Indices 1 2 3 4 5 6 
#
# 1 0.008170 -0.001967 -0.000517 0.003031 0.004928 0.002072
# 2 -0.001967 0.010550 -0.002431 0.002380 0.002492 0.001859
# 3 -0.000517 -0.002431 0.008575 0.000308 0.001745 -0.001159
# 4 0.003031 0.002380 0.000308 0.029602 0.010091 0.001832
# 5 0.004928 0.002492 0.001745 0.010091 0.029722 0.003737
# 6 0.002072 0.001859 -0.001159 0.001832 0.003737 0.019873
#
#
# Mechanical properties :
#
#
# Convention : Reuss Voigt Hill
#
# Bulk Modulus (GPa) = 57.25845 70.75225 64.00535
# Shear Modulus (GPa) = 40.93536 47.40620 44.17078
#
# Velocity S-wave (km/s) = 3.86394 4.15813 4.01373
# Velocity P-wave (km/s) = 6.38671 6.98987 6.69509
#
# Compressibility (1/GPa) = 0.01746467
#
# Stress axis : x y z
#
# Youngs Moduli (GPa) = 122.39726 94.78716 116.62030
#
# Poissons Ratio (x) = 0.18649 0.06027
# Poissons Ratio (y) = 0.24081 0.28349
# Poissons Ratio (z) = 0.06326 0.23041
#
# Static dielectric constant tensor:
#      x y z
#    x 2.143910 -0.016920 0.041820 
#    y -0.016920 2.134880 -0.011420 
#    z 0.041820 -0.011420 2.229370 
# 
# From -- ./inp_files/48193.got.cif
#   From: 2010.05.17/outbox.cif.g08.bks.cpg/sg2_25_cif.got.tgz:48193.got - 2010.06.03 11:33:40.
