data_PCOD9036461
_publ_section_title
;
Structure prediction by ZEFSAII (Michael W. Deem and Ramdas Pophale) SiO2 
 PCOD9036461
Probable space group: P -1
;
_chemical_formula_sum "Si O2"
_cell_formula_units_Z 14
_cell_length_a 20.670958
_cell_length_b 17.303176
_cell_length_c 10.635684
_cell_angle_alpha 26.372382
_cell_angle_beta 28.114991
_cell_angle_gamma 20.949283
_cell_volume 579.073208
_symmetry_space_group_name_H-M "P -1"
_symmetry_group_IT_number 2
_symmetry_cell_setting 'triclinic'
loop_
_space_group_symop_operation_xyz
x,y,z
-x,-y,-z
loop_
_atom_site_type_symbol
_atom_site_label
_atom_site_fract_x
_atom_site_fract_y
_atom_site_fract_z
Si Si1 0.592206 0.632218 0.923616
Si Si2 0.298013 0.636204 0.496081
Si Si3 0.780860 0.040440 0.046577
Si Si4 0.825920 0.308616 0.766928
Si Si5 0.374508 0.269149 0.702082
Si Si6 0.201203 0.174325 0.329933
Si Si7 0.124844 0.529533 0.137615
O O1 0.733882 0.404132 0.922505
O O2 0.476576 0.605188 0.253595
O O3 0.425528 0.846501 0.806799
O O4 0.713692 0.650494 0.775409
O O5 0.171581 0.865713 0.286048
O O6 0.368443 0.415555 0.610974
O O7 0.197382 0.637768 0.782148
O O8 0.775871 0.171594 0.983813
O O9 0.936540 0.756962 0.197792
O O10 0.728501 0.548600 0.502624
O O11 0.049452 0.152845 0.609261
O O12 0.595380 0.035438 0.648186
O O13 0.259433 0.205262 0.049376
O O14 0.100263 0.406822 0.251544
#
# Coordination Sequence:
#
# PCOD9036461 Si02
#       7
#     2   2   2   2   2   2   2
#     4  10  23  37  60  89 118 158 192 238 301 337
#     4   8  19  39  61  87 113 150 200 241 288 335
#     4   9  22  36  62  89 113 153 197 243 293 332
#     4  11  22  40  62  88 118 153 200 241 285 355
#     4   9  20  41  62  85 118 153 199 244 281 347
#     4  10  23  39  62  89 115 159 195 235 300 343
#     4  11  21  40  59  89 121 151 195 246 287 354
#
# _framework density 24.176563999999999
#
# number of rings (size 3 to 8) (size 9 to 14) (size 15 to 20)
#    0.857    1.429    0.000    1.714    2.000    3.429 
#    2.571    1.429    0.000    0.000    0.000    0.000 
#    0.000    0.000    0.000    0.000    0.000    0.000 
#
# Total GULP energy -78227.150850 kJ/mol
# GULP energy per Si atom -5587.653632 kJ/mol
# Density = 2.412154 g / cm^3
# Si number density = 24.176564 Si / 1000 Ang^3
#
#
#
# Elastic Constant Matrix: (Units=GPa)
#
#
# Indices 1 2 3 4 5 6 
#
# 1 64.9746 12.4112 17.6906 -1.9169 2.2485 -5.4006
# 2 12.4112 102.7055 17.7275 0.0650 2.5069 -3.6134
# 3 17.6906 17.7275 101.6184 18.0575 11.1049 -4.2192
# 4 -1.9169 0.0650 18.0575 24.4916 -0.3093 7.3741
# 5 2.2485 2.5069 11.1049 -0.3093 29.4980 -0.8587
# 6 -5.4006 -3.6134 -4.2192 7.3741 -0.8587 22.2916
#
#
#
# Elastic Compliance Matrix: (Units=1/GPa)
#
#
# Indices 1 2 3 4 5 6 
#
# 1 0.016780 -0.001415 -0.003111 0.002925 0.000110 0.002284
# 2 -0.001415 0.010219 -0.001648 0.000861 -0.000111 0.000713
# 3 -0.003111 -0.001648 0.013504 -0.011842 -0.004677 0.005272
# 4 0.002925 0.000861 -0.011842 0.055766 0.004174 -0.019680
# 5 0.000110 -0.000111 -0.004677 0.004174 0.035680 -0.000883
# 6 0.002284 0.000713 0.005272 -0.019680 -0.000883 0.053003
#
#
# Mechanical properties :
#
#
# Convention : Reuss Voigt Hill
#
# Bulk Modulus (GPa) = 35.51674 40.55078 38.03376
# Shear Modulus (GPa) = 24.19121 30.02086 27.10604
#
# Velocity S-wave (km/s) = 3.16667 3.52765 3.35202
# Velocity P-wave (km/s) = 5.30027 5.77941 5.54502
#
# Compressibility (1/GPa) = 0.02815574
#
# Stress axis : x y z
#
# Youngs Moduli (GPa) = 59.59353 97.85501 74.05079
#
# Poissons Ratio (x) = 0.13846 0.23040
# Poissons Ratio (y) = 0.08432 0.12202
# Poissons Ratio (z) = 0.18542 0.16124
#
# Static dielectric constant tensor:
#      x y z
#    x 1.855570 -0.031640 0.058020 
#    y -0.031640 1.916420 -0.004630 
#    z 0.058020 -0.004630 1.961020 
# 
# From -- ./inp_files/259902.got.cif
#   From: 2010.05.17/outbox.cif.g08.bks.cpg/sg2_130_cif.got.tgz:259902.got - 2010.06.03 11:33:40.
