data_PCOD9036242
_publ_section_title
;
Structure prediction by ZEFSAII (Michael W. Deem and Ramdas Pophale) SiO2 
 PCOD9036242
Probable space group: P -1
;
_chemical_formula_sum "Si O2"
_cell_formula_units_Z 14
_cell_length_a 9.024444
_cell_length_b 8.748239
_cell_length_c 19.095080
_cell_angle_alpha 35.956268
_cell_angle_beta 58.832089
_cell_angle_gamma 44.129853
_cell_volume 608.860053
_symmetry_space_group_name_H-M "P -1"
_symmetry_group_IT_number 2
_symmetry_cell_setting 'triclinic'
loop_
_space_group_symop_operation_xyz
x,y,z
-x,-y,-z
loop_
_atom_site_type_symbol
_atom_site_label
_atom_site_fract_x
_atom_site_fract_y
_atom_site_fract_z
Si Si1 0.312440 0.683982 0.340655
Si Si2 0.986874 0.821015 0.885793
Si Si3 0.758610 0.818815 0.458953
Si Si4 0.375648 0.855195 0.778834
Si Si5 0.224390 0.839714 0.045055
Si Si6 0.003538 0.968616 0.593576
Si Si7 0.697600 0.745525 0.218024
O O1 0.355703 0.349361 0.429404
O O2 0.507865 0.705594 0.275927
O O3 0.115910 0.971530 0.236240
O O4 0.222358 0.769397 0.410446
O O5 0.218117 0.748577 0.865565
O O6 0.834375 0.043968 0.904088
O O7 0.000000 0.500000 0.000000
O O8 0.000000 0.500000 0.500000
O O9 0.650237 0.023363 0.339054
O O10 0.820325 0.987188 0.435893
O O11 0.615742 0.547581 0.852493
O O12 0.296716 0.140131 0.747913
O O13 0.334634 0.987913 0.925867
O O14 0.000000 0.000000 0.000000
O O15 0.084973 0.603653 0.724312
O O16 0.000000 0.000000 0.500000
#
# Coordination Sequence:
#
# PCOD9036242 Si02
#       7
#     2   2   2   2   2   2   2
#     4  11  26  47  74 109 154 188 237 310 364 437
#     4  12  26  46  78 106 147 193 244 305 367 431
#     4  10  22  48  73 107 147 190 240 294 371 435
#     4  12  26  48  77 105 150 195 241 305 369 436
#     4  12  29  47  75 108 146 196 251 301 361 435
#     4  11  25  44  77 107 148 191 245 299 361 443
#     4  12  27  46  73 110 146 194 248 299 369 427
#
# _framework density 22.993790000000001
#
# number of rings (size 3 to 8) (size 9 to 14) (size 15 to 20)
#    0.000    0.571    4.286    3.857    6.000    4.000 
#    0.000    0.000    0.000    0.000    0.000    0.000 
#    0.000    0.000    0.000    0.000    0.000    0.000 
#
# Total GULP energy -78419.734333 kJ/mol
# GULP energy per Si atom -5601.409595 kJ/mol
# Density = 2.294146 g / cm^3
# Si number density = 22.993790 Si / 1000 Ang^3
#
#
#
# Elastic Constant Matrix: (Units=GPa)
#
#
# Indices 1 2 3 4 5 6 
#
# 1 108.3743 26.1465 45.4161 -3.9014 -16.7687 -0.4863
# 2 26.1465 83.3580 21.4559 -0.8200 -0.8152 18.4829
# 3 45.4161 21.4559 126.4519 -6.6268 -7.4598 8.2878
# 4 -3.9014 -0.8200 -6.6268 49.0726 3.0542 -3.5784
# 5 -16.7687 -0.8152 -7.4598 3.0542 43.8755 6.5955
# 6 -0.4863 18.4829 8.2878 -3.5784 6.5955 43.3361
#
#
#
# Elastic Compliance Matrix: (Units=1/GPa)
#
#
# Indices 1 2 3 4 5 6 
#
# 1 0.012131 -0.003185 -0.003693 0.000305 0.003677 0.001666
# 2 -0.003185 0.014590 -0.000971 -0.000576 -0.000155 -0.006097
# 3 -0.003693 -0.000971 0.009559 0.000854 0.000353 -0.001438
# 4 0.000305 -0.000576 0.000854 0.020749 -0.001498 0.002027
# 5 0.003677 -0.000155 0.000353 -0.001498 0.024942 -0.003880
# 6 0.001666 -0.006097 -0.001438 0.002027 -0.003880 0.026727
#
#
# Mechanical properties :
#
#
# Convention : Reuss Voigt Hill
#
# Bulk Modulus (GPa) = 48.58677 56.02459 52.30568
# Shear Modulus (GPa) = 38.09332 42.26787 40.18059
#
# Velocity S-wave (km/s) = 4.07465 4.29211 4.18479
# Velocity P-wave (km/s) = 6.58128 6.99864 6.79317
#
# Compressibility (1/GPa) = 0.02058173
#
# Stress axis : x y z
#
# Youngs Moduli (GPa) = 82.43587 68.53957 104.61275
#
# Poissons Ratio (x) = 0.21830 0.38630
# Poissons Ratio (y) = 0.26256 0.10162
# Poissons Ratio (z) = 0.30441 0.06658
#
# Static dielectric constant tensor:
#      x y z
#    x 1.849460 -0.040030 -0.003690 
#    y -0.040030 1.924260 0.002020 
#    z -0.003690 0.002020 1.852270 
# 
# From -- ./inp_files/587694.got.cif
#   From: 2010.05.17/outbox.cif.g08.bks.cpg/sg2_294_cif.got.tgz:587694.got - 2010.06.03 11:33:40.
