data_PCOD9036217
_publ_section_title
;
Structure prediction by ZEFSAII (Michael W. Deem and Ramdas Pophale) SiO2 
 PCOD9036217
Probable space group: P -1
;
_chemical_formula_sum "Si O2"
_cell_formula_units_Z 12
_cell_length_a 13.779015
_cell_length_b 9.601366
_cell_length_c 5.086038
_cell_angle_alpha 66.187177
_cell_angle_beta 67.613308
_cell_angle_gamma 56.606319
_cell_volume 502.752920
_symmetry_space_group_name_H-M "P -1"
_symmetry_group_IT_number 2
_symmetry_cell_setting 'triclinic'
loop_
_space_group_symop_operation_xyz
x,y,z
-x,-y,-z
loop_
_atom_site_type_symbol
_atom_site_label
_atom_site_fract_x
_atom_site_fract_y
_atom_site_fract_z
Si Si1 0.017367 0.595275 0.156057
Si Si2 0.114124 0.004628 0.996111
Si Si3 0.289119 0.510213 0.964490
Si Si4 0.635308 0.088264 0.253786
Si Si5 0.574921 0.835929 0.225348
Si Si6 0.300777 0.699559 0.314227
O O1 0.148504 0.577016 0.049298
O O2 0.000000 0.500000 0.500000
O O3 0.928341 0.796681 0.054947
O O4 0.000000 0.500000 0.000000
O O5 0.168286 0.861178 0.281176
O O6 0.235491 0.947624 0.744440
O O7 0.000000 0.000000 0.000000
O O8 0.348614 0.319825 0.927105
O O9 0.322047 0.617344 0.637774
O O10 0.317188 0.553609 0.192723
O O11 0.645073 0.905906 0.290388
O O12 0.522334 0.182203 0.482385
O O13 0.619305 0.213121 0.927497
O O14 0.500000 0.000000 0.000000
#
# Coordination Sequence:
#
# PCOD9036217 Si02
#       6
#     2   2   2   2   2   2
#     4  12  26  42  71 103 140 184 234 293 347 423
#     4  10  22  48  71 103 146 185 234 290 361 423
#     4  12  26  46  69 106 140 186 241 295 349 426
#     4   9  24  46  68 103 137 192 233 288 363 413
#     4  11  26  44  73  99 147 187 241 294 357 422
#     4  10  26  45  72 102 144 183 237 289 360 418
#
# _framework density 23.868583000000001
#
# number of rings (size 3 to 8) (size 9 to 14) (size 15 to 20)
#    1.000    0.333    1.667    2.000    9.333    3.333 
#    0.000    0.000    0.000    0.000    0.000    0.000 
#    0.000    0.000    0.000    0.000    0.000    0.000 
#
# Total GULP energy -67090.509302 kJ/mol
# GULP energy per Si atom -5590.875775 kJ/mol
# Density = 2.381426 g / cm^3
# Si number density = 23.868583 Si / 1000 Ang^3
#
#
#
# Elastic Constant Matrix: (Units=GPa)
#
#
# Indices 1 2 3 4 5 6 
#
# 1 99.1329 1.3117 14.5910 20.7010 -16.7028 9.4779
# 2 1.3117 178.6655 14.0354 10.7190 11.4813 5.2069
# 3 14.5910 14.0354 89.1090 4.8712 -9.0177 4.0312
# 4 20.7010 10.7190 4.8712 31.5153 1.9856 7.5859
# 5 -16.7028 11.4813 -9.0177 1.9856 38.2770 2.8020
# 6 9.4779 5.2069 4.0312 7.5859 2.8020 41.9062
#
#
#
# Elastic Compliance Matrix: (Units=1/GPa)
#
#
# Indices 1 2 3 4 5 6 
#
# 1 0.013204 0.000158 -0.001030 -0.008523 0.006043 -0.001768
# 2 0.000158 0.005909 -0.001035 -0.001784 -0.001838 -0.000225
# 3 -0.001030 -0.001035 0.011915 -0.000789 0.002770 -0.000827
# 4 -0.008523 -0.001784 -0.000789 0.039481 -0.005083 -0.004582
# 5 0.006043 -0.001838 0.002770 -0.005083 0.030414 -0.002518
# 6 -0.001768 -0.000225 -0.000827 -0.004582 -0.002518 0.025368
#
#
# Mechanical properties :
#
#
# Convention : Reuss Voigt Hill
#
# Bulk Modulus (GPa) = 36.74400 47.42042 42.08221
# Shear Modulus (GPa) = 35.92615 44.80432 40.36524
#
# Velocity S-wave (km/s) = 3.88385 4.33728 4.11681
# Velocity P-wave (km/s) = 5.96156 6.70769 6.34560
#
# Compressibility (1/GPa) = 0.02721533
#
# Stress axis : x y z
#
# Youngs Moduli (GPa) = 75.73491 169.23668 83.93052
#
# Poissons Ratio (x) = -0.02682 0.08641
# Poissons Ratio (y) = -0.01200 0.08687
# Poissons Ratio (z) = 0.07797 0.17516
#
# Static dielectric constant tensor:
#      x y z
#    x 1.947620 0.091760 -0.042740 
#    y 0.091760 4.565430 -2.543940 
#    z -0.042740 -2.543940 4.438340 
# 
# From -- ./inp_files/87205.got.cif
#   From: 2010.05.17/outbox.cif.g08.bks.cpg/sg2_44_cif.got.tgz:87205.got - 2010.06.03 11:33:40.
