data_PCOD9036502
_publ_section_title
;
Structure prediction by ZEFSAII (Michael W. Deem and Ramdas Pophale) SiO2 
 PCOD9036502
Probable space group: P -1
;
_chemical_formula_sum "Si O2"
_cell_formula_units_Z 16
_cell_length_a 9.045640
_cell_length_b 5.132728
_cell_length_c 20.834721
_cell_angle_alpha 58.434280
_cell_angle_beta 56.442187
_cell_angle_gamma 73.654479
_cell_volume 686.790777
_symmetry_space_group_name_H-M "P -1"
_symmetry_group_IT_number 2
_symmetry_cell_setting 'triclinic'
loop_
_space_group_symop_operation_xyz
x,y,z
-x,-y,-z
loop_
_atom_site_type_symbol
_atom_site_label
_atom_site_fract_x
_atom_site_fract_y
_atom_site_fract_z
Si Si1 0.502104 0.245532 0.839560
Si Si2 0.715849 0.717258 0.795260
Si Si3 0.406674 0.468705 0.350785
Si Si4 0.247655 0.882790 0.508452
Si Si5 0.102307 0.316418 0.944996
Si Si6 0.906809 0.307462 0.232059
Si Si7 0.702767 0.676763 0.341187
Si Si8 0.890958 0.136507 0.598390
O O1 0.641770 0.383975 0.838969
O O2 0.507217 0.471323 0.746708
O O3 0.308660 0.245546 0.916599
O O4 0.563904 0.925395 0.836150
O O5 0.888249 0.747438 0.793922
O O6 0.781712 0.863587 0.693283
O O7 0.515361 0.678357 0.348333
O O8 0.200588 0.574203 0.382691
O O9 0.401919 0.129439 0.424725
O O10 0.304681 0.571133 0.568074
O O11 0.155424 0.819770 0.470398
O O12 0.096460 0.051878 0.565543
O O13 0.101505 0.522250 0.855184
O O14 0.000000 0.500000 0.000000
O O15 0.000000 0.000000 0.000000
O O16 0.832542 0.528333 0.276308
O O17 0.788942 0.998319 0.298683
#
# Coordination Sequence:
#
# PCOD9036502 Si02
#       8
#     2   2   2   2   2   2   2   2
#     4  11  24  44  76 107 138 187 239 285 357 421
#     4  11  23  45  72 103 146 193 235 287 343 420
#     4  11  24  41  67  98 145 190 249 300 338 412
#     4  11  23  41  61 101 143 198 247 294 338 397
#     4  12  27  51  82 110 140 177 228 294 368 447
#     4  12  27  49  72 108 143 187 229 295 367 426
#     4  12  27  42  70  98 152 189 241 294 350 408
#     4  10  23  37  65  94 144 192 252 282 345 385
#
# _framework density 23.296759000000002
#
# number of rings (size 3 to 8) (size 9 to 14) (size 15 to 20)
#    0.000    0.750    3.750    3.000    7.000    1.500 
#    0.000    3.750    0.000    0.000    0.000    0.000 
#    0.000    0.000    0.000    0.000    0.000    0.000 
#
# Total GULP energy -89583.998012 kJ/mol
# GULP energy per Si atom -5598.999876 kJ/mol
# Density = 2.324373 g / cm^3
# Si number density = 23.296759 Si / 1000 Ang^3
#
#
#
# Elastic Constant Matrix: (Units=GPa)
#
#
# Indices 1 2 3 4 5 6 
#
# 1 89.1610 18.4889 18.4283 -3.2248 -19.5452 0.4930
# 2 18.4889 103.8320 48.1686 9.3235 -18.8136 8.2804
# 3 18.4283 48.1686 68.9555 16.2371 -26.3580 -7.5753
# 4 -3.2248 9.3235 16.2371 46.2202 -3.7141 -10.5504
# 5 -19.5452 -18.8136 -26.3580 -3.7141 39.1161 -1.9297
# 6 0.4930 8.2804 -7.5753 -10.5504 -1.9297 35.8696
#
#
#
# Elastic Compliance Matrix: (Units=1/GPa)
#
#
# Indices 1 2 3 4 5 6 
#
# 1 0.012925 -0.001092 -0.000997 0.002091 0.005498 0.000775
# 2 -0.001092 0.015523 -0.011554 -0.000680 -0.001240 -0.006275
# 3 -0.000997 -0.011554 0.030539 -0.005410 0.014420 0.008315
# 4 0.002091 -0.000680 -0.005410 0.025264 -0.000213 0.006405
# 5 0.005498 -0.001240 0.014420 -0.000213 0.037669 0.005220
# 6 0.000775 -0.006275 0.008315 0.006405 0.005220 0.033238
#
#
# Mechanical properties :
#
#
# Convention : Reuss Voigt Hill
#
# Bulk Modulus (GPa) = 31.54657 48.01337 39.77997
# Shear Modulus (GPa) = 25.90519 36.03201 30.96860
#
# Velocity S-wave (km/s) = 3.33823 3.93702 3.64993
# Velocity P-wave (km/s) = 5.33188 6.42814 5.90551
#
# Compressibility (1/GPa) = 0.03169917
#
# Stress axis : x y z
#
# Youngs Moduli (GPa) = 77.37106 64.42239 32.74483
#
# Poissons Ratio (x) = 0.07038 0.03264
# Poissons Ratio (y) = 0.08452 0.37835
# Poissons Ratio (z) = 0.07712 0.74437
#
# Static dielectric constant tensor:
#      x y z
#    x 1.909840 -0.027320 -0.020580 
#    y -0.027320 1.896350 0.017540 
#    z -0.020580 0.017540 1.852630 
# 
# From -- ./inp_files/585533.got.cif
#   From: 2010.05.17/outbox.cif.g08.bks.cpg/sg2_293_cif.got.tgz:585533.got - 2010.06.03 11:33:40.
