data_PCOD9036204
_publ_section_title
;
Structure prediction by ZEFSAII (Michael W. Deem and Ramdas Pophale) SiO2 
 PCOD9036204
Probable space group: P -1
;
_chemical_formula_sum "Si O2"
_cell_formula_units_Z 12
_cell_length_a 15.282903
_cell_length_b 12.493653
_cell_length_c 5.013701
_cell_angle_alpha 89.442067
_cell_angle_beta 88.303865
_cell_angle_gamma 29.836130
_cell_volume 475.829896
_symmetry_space_group_name_H-M "P -1"
_symmetry_group_IT_number 2
_symmetry_cell_setting 'triclinic'
loop_
_space_group_symop_operation_xyz
x,y,z
-x,-y,-z
loop_
_atom_site_type_symbol
_atom_site_label
_atom_site_fract_x
_atom_site_fract_y
_atom_site_fract_z
Si Si1 0.192211 0.649137 0.524550
Si Si2 0.811554 0.785408 0.293533
Si Si3 0.459775 0.768293 0.842399
Si Si4 0.564705 0.361968 0.752449
Si Si5 0.168402 0.911379 0.643514
Si Si6 0.964111 0.395605 0.225695
O O1 0.366315 0.441074 0.338684
O O2 0.195525 0.755824 0.696941
O O3 0.134598 0.608794 0.701999
O O4 0.032272 0.842999 0.329765
O O5 0.873936 0.760392 0.577325
O O6 0.835071 0.632994 0.283579
O O7 0.954983 0.678769 0.072631
O O8 0.621772 0.029990 0.214572
O O9 0.486780 0.702950 0.148421
O O10 0.500000 0.500000 0.000000
O O11 0.296483 0.863325 0.765166
O O12 0.500000 0.500000 0.500000
O O13 0.771656 0.142027 0.673639
#
# Coordination Sequence:
#
# PCOD9036204 Si02
#       6
#     2   2   2   2   2   2
#     4  11  23  42  71 106 142 183 243 282 342 427
#     4  10  23  45  78  94 144 180 232 291 358 405
#     4  12  24  44  72 102 144 188 231 290 351 410
#     4  12  23  44  68  95 140 192 229 276 349 413
#     4  11  23  45  65 102 144 194 218 291 343 418
#     4  10  22  48  70 107 131 187 232 290 351 416
#
# _framework density 25.219093999999998
#
# number of rings (size 3 to 8) (size 9 to 14) (size 15 to 20)
#    0.000    1.000    5.000    1.500    0.000    0.667 
#    9.000    5.000    0.000    6.000    0.000    0.000 
#    0.000    0.167    0.000    0.000    0.000    0.000 
#
# Total GULP energy -67062.776527 kJ/mol
# GULP energy per Si atom -5588.564711 kJ/mol
# Density = 2.516169 g / cm^3
# Si number density = 25.219094 Si / 1000 Ang^3
#
#
#
# Elastic Constant Matrix: (Units=GPa)
#
#
# Indices 1 2 3 4 5 6 
#
# 1 112.8675 46.5222 19.8724 -6.0622 -21.1562 7.8949
# 2 46.5222 180.7559 34.3845 -30.5240 -14.6800 -2.2474
# 3 19.8724 34.3845 110.6491 -11.9117 -16.8656 -0.5759
# 4 -6.0622 -30.5240 -11.9117 36.9123 8.9558 -4.9401
# 5 -21.1562 -14.6800 -16.8656 8.9558 33.2415 -11.8346
# 6 7.8949 -2.2474 -0.5759 -4.9401 -11.8346 45.4094
#
#
#
# Elastic Compliance Matrix: (Units=1/GPa)
#
#
# Indices 1 2 3 4 5 6 
#
# 1 0.011086 -0.002634 -0.000494 -0.002055 0.005931 -0.000742
# 2 -0.002634 0.007383 -0.001228 0.005467 -0.000013 0.001399
# 3 -0.000494 -0.001228 0.010356 0.001337 0.004569 0.001493
# 4 -0.002055 0.005467 0.001337 0.033595 -0.006322 0.002652
# 5 0.005931 -0.000013 0.004569 -0.006322 0.041095 0.009048
# 6 -0.000742 0.001399 0.001493 0.002652 0.009048 0.024886
#
#
# Mechanical properties :
#
#
# Convention : Reuss Voigt Hill
#
# Bulk Modulus (GPa) = 49.71389 67.31451 58.51420
# Shear Modulus (GPa) = 34.76683 43.34554 39.05619
#
# Velocity S-wave (km/s) = 3.71697 4.15029 3.93959
# Velocity P-wave (km/s) = 6.17873 7.05098 6.62922
#
# Compressibility (1/GPa) = 0.02011510
#
# Stress axis : x y z
#
# Youngs Moduli (GPa) = 90.20567 135.44120 96.56409
#
# Poissons Ratio (x) = 0.35673 0.04765
# Poissons Ratio (y) = 0.23759 0.11853
# Poissons Ratio (z) = 0.04452 0.16626
#
# Static dielectric constant tensor:
#      x y z
#    x 2.078740 -0.056560 0.133680 
#    y -0.056560 2.134730 -0.086530 
#    z 0.133680 -0.086530 2.156040 
# 
# From -- ./inp_files/108052.got.cif
#   From: 2010.05.17/outbox.cif.g08.bks.cpg/sg2_55_cif.got.tgz:108052.got - 2010.06.03 11:33:40.
