data_PCOD9036074
_publ_section_title
;
Structure prediction by ZEFSAII (Michael W. Deem and Ramdas Pophale) SiO2 
 PCOD9036074
Probable space group: P -1
;
_chemical_formula_sum "Si O2"
_cell_formula_units_Z 11
_cell_length_a 10.247252
_cell_length_b 10.227506
_cell_length_c 6.862631
_cell_angle_alpha 67.267653
_cell_angle_beta 92.325722
_cell_angle_gamma 136.987829
_cell_volume 417.707282
_symmetry_space_group_name_H-M "P -1"
_symmetry_group_IT_number 2
_symmetry_cell_setting 'triclinic'
loop_
_space_group_symop_operation_xyz
x,y,z
-x,-y,-z
loop_
_atom_site_type_symbol
_atom_site_label
_atom_site_fract_x
_atom_site_fract_y
_atom_site_fract_z
Si Si1 0.961775 0.376282 0.377034
Si Si2 0.693962 0.210836 0.127895
Si Si3 0.770147 0.624770 0.462568
Si Si4 0.000000 0.000000 0.500000
Si Si5 0.394942 0.135561 0.915495
Si Si6 0.725187 0.692035 0.005675
O O1 0.750089 0.241324 0.338588
O O2 0.000000 0.500000 0.500000
O O3 0.010573 0.256838 0.514191
O O4 0.131194 0.557612 0.117972
O O5 0.693345 0.053583 0.128047
O O6 0.486558 0.118308 0.109532
O O7 0.584595 0.378207 0.684078
O O8 0.749344 0.608676 0.238655
O O9 0.788261 0.792263 0.468164
O O10 0.107498 0.179648 0.224743
O O11 0.249797 0.131876 0.998167
O O12 0.500000 0.500000 0.000000
#
# Coordination Sequence:
#
# PCOD9036074 Si02
#       6
#     2   2   2   1   2   2
#     4  10  23  41  70 101 143 186 232 298 355 429
#     4   9  22  44  69 103 141 184 240 288 359 434
#     4  11  26  45  69 107 145 185 241 296 366 426
#     4  12  28  48  70 108 140 198 236 298 360 434
#     4  10  22  47  72 103 144 189 237 300 357 426
#     4  12  27  46  74 103 148 189 240 302 359 426
#
# _framework density 26.334230999999999
#
# number of rings (size 3 to 8) (size 9 to 14) (size 15 to 20)
#    0.000    1.455    1.818    1.091    7.636    1.455 
#    0.000    2.727    0.000    0.000    0.000    0.000 
#    0.000    0.000    0.000    0.000    0.000    0.000 
#
# Total GULP energy -61396.733436 kJ/mol
# GULP energy per Si atom -5581.521221 kJ/mol
# Density = 2.627429 g / cm^3
# Si number density = 26.334231 Si / 1000 Ang^3
#
#
#
# Elastic Constant Matrix: (Units=GPa)
#
#
# Indices 1 2 3 4 5 6 
#
# 1 81.4128 3.3073 23.6859 20.9721 14.2201 -4.1616
# 2 3.3073 94.0171 69.3615 23.9396 28.5663 14.9787
# 3 23.6859 69.3615 203.0739 18.9206 16.0095 17.6006
# 4 20.9721 23.9396 18.9206 72.1081 6.9446 8.3968
# 5 14.2201 28.5663 16.0095 6.9446 19.5230 5.2019
# 6 -4.1616 14.9787 17.6006 8.3968 5.2019 23.9664
#
#
#
# Elastic Compliance Matrix: (Units=1/GPa)
#
#
# Indices 1 2 3 4 5 6 
#
# 1 0.019711 0.010711 -0.003917 -0.006601 -0.026514 0.007673
# 2 0.010711 0.031479 -0.007803 -0.007213 -0.044951 0.000200
# 3 -0.003917 -0.007803 0.007565 0.001349 0.008571 -0.003692
# 4 -0.006601 -0.007213 0.001349 0.017591 0.009562 -0.005868
# 5 -0.026514 -0.044951 0.008571 0.009562 0.129688 -0.014303
# 6 0.007673 0.000200 -0.003692 -0.005868 -0.014303 0.050804
#
#
# Mechanical properties :
#
#
# Convention : Reuss Voigt Hill
#
# Bulk Modulus (GPa) = 17.62511 63.46812 40.54662
# Shear Modulus (GPa) = 18.00059 41.92945 29.96502
#
# Velocity S-wave (km/s) = 2.61730 3.99457 3.37690
# Velocity P-wave (km/s) = 3.98009 6.74009 5.53488
#
# Compressibility (1/GPa) = 0.05673722
#
# Stress axis : x y z
#
# Youngs Moduli (GPa) = 50.73211 31.76744 132.18962
#
# Poissons Ratio (x) = -0.34026 0.51782
# Poissons Ratio (y) = -0.54339 1.03143
# Poissons Ratio (z) = 0.19873 0.24787
#
# Static dielectric constant tensor:
#      x y z
#    x 1.843730 0.184210 0.106060 
#    y 0.184210 2.070200 -0.018910 
#    z 0.106060 -0.018910 1.997180 
# 
# From -- ./inp_files/22287.got.cif
#   From: 2010.05.17/outbox.cif.g08.bks.cpg/sg2_12_cif.got.tgz:22287.got - 2010.06.03 11:33:40.
