data_PCOD9036474
_publ_section_title
;
Structure prediction by ZEFSAII (Michael W. Deem and Ramdas Pophale) SiO2 
 PCOD9036474
Probable space group: P -1
;
_chemical_formula_sum "Si O2"
_cell_formula_units_Z 16
_cell_length_a 14.246980
_cell_length_b 11.015781
_cell_length_c 8.801847
_cell_angle_alpha 115.084800
_cell_angle_beta 137.172851
_cell_angle_gamma 85.381429
_cell_volume 788.670148
_symmetry_space_group_name_H-M "P -1"
_symmetry_group_IT_number 2
_symmetry_cell_setting 'triclinic'
loop_
_space_group_symop_operation_xyz
x,y,z
-x,-y,-z
loop_
_atom_site_type_symbol
_atom_site_label
_atom_site_fract_x
_atom_site_fract_y
_atom_site_fract_z
Si Si1 0.844254 0.809536 0.362772
Si Si2 0.591958 0.850791 0.537572
Si Si3 0.937620 0.606274 0.777453
Si Si4 0.347235 0.381927 0.698085
Si Si5 0.920466 0.088648 0.048843
Si Si6 0.492437 0.989387 0.737793
Si Si7 0.955486 0.645973 0.174265
Si Si8 0.250602 0.928317 0.668944
O O1 0.725229 0.728884 0.308718
O O2 0.000285 0.873123 0.673197
O O3 0.851244 0.698791 0.184160
O O4 0.808250 0.941416 0.323585
O O5 0.621573 0.709749 0.451141
O O6 0.507396 0.855057 0.594031
O O7 0.504705 0.891418 0.318895
O O8 0.749798 0.985719 0.805989
O O9 0.781224 0.562122 0.478728
O O10 0.017508 0.492208 0.801014
O O11 0.042596 0.760987 0.915971
O O12 0.907291 0.619359 0.927288
O O13 0.500000 0.500000 0.000000
O O14 0.000000 0.000000 0.000000
O O15 0.340533 0.944465 0.627162
O O16 0.629499 0.053490 0.048387
O O17 0.114373 0.778027 0.432588
#
# Coordination Sequence:
#
# PCOD9036474 Si02
#       8
#     2   2   2   2   2   2   2   2
#     4  11  23  41  66  97 119 164 213 255 314 370
#     4  11  21  41  62  94 122 164 214 248 307 366
#     4  10  24  42  63  91 129 162 206 256 315 366
#     4  11  25  43  64  88 130 166 205 256 306 376
#     4  11  19  39  69  92 122 161 210 263 303 358
#     4  10  23  37  61  96 122 166 206 253 306 368
#     4  11  24  41  63  96 125 163 204 262 319 363
#     4  11  22  40  65  91 133 156 208 261 306 371
#
# _framework density 20.287316000000001
#
# number of rings (size 3 to 8) (size 9 to 14) (size 15 to 20)
#    0.000    1.250    3.750    2.625    3.500    2.000 
#    9.000    0.625    0.000    0.000    0.000    0.000 
#    0.000    0.000    0.000    0.000    0.000    0.000 
#
# Total GULP energy -89483.671116 kJ/mol
# GULP energy per Si atom -5592.729445 kJ/mol
# Density = 2.024114 g / cm^3
# Si number density = 20.287316 Si / 1000 Ang^3
#
#
#
# Elastic Constant Matrix: (Units=GPa)
#
#
# Indices 1 2 3 4 5 6 
#
# 1 77.2697 18.1282 4.3104 11.4420 -14.5379 -26.0314
# 2 18.1282 91.9709 28.2312 9.7104 16.0873 -14.2675
# 3 4.3104 28.2312 81.7001 4.0314 10.8090 1.6331
# 4 11.4420 9.7104 4.0314 22.2655 -3.1939 -4.3178
# 5 -14.5379 16.0873 10.8090 -3.1939 17.4169 2.4754
# 6 -26.0314 -14.2675 1.6331 -4.3178 2.4754 24.2753
#
#
#
# Elastic Compliance Matrix: (Units=1/GPa)
#
#
# Indices 1 2 3 4 5 6 
#
# 1 0.027595 -0.004839 -0.003509 -0.003129 0.025723 0.023804
# 2 -0.004839 0.018191 -0.003043 -0.006630 -0.021118 0.006682
# 3 -0.003509 -0.003043 0.014867 -0.001996 -0.008857 -0.006003
# 4 -0.003129 -0.006630 -0.001996 0.051938 0.014179 0.000674
# 5 0.025723 -0.021118 -0.008857 0.014179 0.105418 0.007540
# 6 0.023804 0.006682 -0.006003 0.000674 0.007540 0.070402
#
#
# Mechanical properties :
#
#
# Convention : Reuss Voigt Hill
#
# Bulk Modulus (GPa) = 26.40429 39.14225 32.77327
# Shear Modulus (GPa) = 15.44087 26.14291 20.79189
#
# Velocity S-wave (km/s) = 2.76181 3.59365 3.20483
# Velocity P-wave (km/s) = 4.81805 6.04607 5.46665
#
# Compressibility (1/GPa) = 0.03787264
#
# Stress axis : x y z
#
# Youngs Moduli (GPa) = 36.23867 54.97125 67.26376
#
# Poissons Ratio (x) = 0.26598 0.23600
# Poissons Ratio (y) = 0.17534 0.20469
# Poissons Ratio (z) = 0.12714 0.16729
#
# Static dielectric constant tensor:
#      x y z
#    x 1.749360 -0.011500 -0.011370 
#    y -0.011500 1.696400 -0.009240 
#    z -0.011370 -0.009240 1.712760 
# 
# From -- ./inp_files/262372.got.cif
#   From: 2010.05.17/outbox.cif.g08.bks.cpg/sg2_132_cif.got.tgz:262372.got - 2010.06.03 11:33:40.
