data_PCOD9036940
_publ_section_title
;
Structure prediction by ZEFSAII (Michael W. Deem and Ramdas Pophale) SiO2 
 PCOD9036940
Probable space group: P -1
;
_chemical_formula_sum "Si O2"
_cell_formula_units_Z 12
_cell_length_a 7.358484
_cell_length_b 13.827040
_cell_length_c 7.812127
_cell_angle_alpha 111.587528
_cell_angle_beta 81.580457
_cell_angle_gamma 135.439729
_cell_volume 510.372398
_symmetry_space_group_name_H-M "P -1"
_symmetry_group_IT_number 2
_symmetry_cell_setting 'triclinic'
loop_
_space_group_symop_operation_xyz
x,y,z
-x,-y,-z
loop_
_atom_site_type_symbol
_atom_site_label
_atom_site_fract_x
_atom_site_fract_y
_atom_site_fract_z
Si Si1 0.344679 0.137980 0.247465
Si Si2 0.319291 0.212115 0.650042
Si Si3 0.622405 0.437394 0.462954
Si Si4 0.065870 0.827132 0.077841
Si Si5 0.570430 0.957011 0.300838
Si Si6 0.094866 0.740429 0.681752
O O1 0.203978 0.108262 0.427705
O O2 0.466066 0.295130 0.266061
O O3 0.615631 0.188276 0.286626
O O4 0.165055 0.978483 0.082503
O O5 0.554830 0.365771 0.614817
O O6 0.406638 0.154109 0.724700
O O7 0.139283 0.222345 0.780154
O O8 0.500000 0.500000 0.500000
O O9 0.928313 0.588496 0.501975
O O10 0.327531 0.878453 0.153304
O O11 0.969017 0.714284 0.866176
O O12 0.500000 0.000000 0.500000
O O13 0.845924 0.122973 0.317879
#
# Coordination Sequence:
#
# PCOD9036940 Si02
#       6
#     2   2   2   2   2   2
#     4   9  20  39  65  87 120 165 213 243 306 376
#     4  10  23  39  66  92 126 165 219 248 309 382
#     4  10  24  40  64  91 128 169 213 252 312 382
#     4  11  23  41  66  98 130 157 210 272 315 360
#     4  11  21  38  70  94 121 167 218 255 307 375
#     4  11  23  42  64  95 130 160 208 268 318 367
#
# _framework density 23.512243999999999
#
# number of rings (size 3 to 8) (size 9 to 14) (size 15 to 20)
#    1.000    0.667    3.333    3.000    4.667    1.333 
#    3.000    0.833    0.000    0.000    0.000    0.000 
#    0.000    0.000    0.000    0.000    0.000    0.000 
#
# Total GULP energy -66854.775234 kJ/mol
# GULP energy per Si atom -5571.231269 kJ/mol
# Density = 2.345873 g / cm^3
# Si number density = 23.512244 Si / 1000 Ang^3
#
#
#
# Elastic Constant Matrix: (Units=GPa)
#
#
# Indices 1 2 3 4 5 6 
#
# 1 101.4531 25.9395 4.5771 -5.7869 -12.3212 -19.9985
# 2 25.9395 99.9999 11.8851 7.4771 -2.6986 -14.8532
# 3 4.5771 11.8851 69.1936 2.6825 -14.8883 8.2527
# 4 -5.7869 7.4771 2.6825 28.6922 5.7192 -10.0841
# 5 -12.3212 -2.6986 -14.8883 5.7192 20.0872 -3.8173
# 6 -19.9985 -14.8532 8.2527 -10.0841 -3.8173 46.5488
#
#
#
# Elastic Compliance Matrix: (Units=1/GPa)
#
#
# Indices 1 2 3 4 5 6 
#
# 1 0.012877 -0.002550 0.000421 0.003787 0.007952 0.006117
# 2 -0.002550 0.011426 -0.002080 -0.002377 -0.000444 0.002368
# 3 0.000421 -0.002080 0.018562 -0.005319 0.014542 -0.003733
# 4 0.003787 -0.002377 -0.005319 0.042698 -0.012184 0.010063
# 5 0.007952 -0.000444 0.014542 -0.012184 0.069563 0.003762
# 6 0.006117 0.002368 -0.003733 0.010063 0.003762 0.028016
#
#
# Mechanical properties :
#
#
# Convention : Reuss Voigt Hill
#
# Bulk Modulus (GPa) = 29.02986 39.49443 34.26214
# Shear Modulus (GPa) = 24.62519 34.28197 29.45358
#
# Velocity S-wave (km/s) = 3.23977 3.82258 3.54318
# Velocity P-wave (km/s) = 5.13501 6.02633 5.59844
#
# Compressibility (1/GPa) = 0.03444730
#
# Stress axis : x y z
#
# Youngs Moduli (GPa) = 77.65567 87.51854 53.87347
#
# Poissons Ratio (x) = 0.22321 -0.02268
# Poissons Ratio (y) = 0.19805 0.11204
# Poissons Ratio (z) = -0.03269 0.18201
#
# Static dielectric constant tensor:
#      x y z
#    x 1.995540 0.068420 0.042050 
#    y 0.068420 2.078490 0.041230 
#    z 0.042050 0.041230 1.908960 
# 
# From -- ./inp_files/197863.got.cif
#   From: 2010.05.17/outbox.cif.g08.bks.cpg/sg2_99_cif.got.tgz:197863.got - 2010.06.03 11:33:40.
