data_PCOD9036809
_publ_section_title
;
Structure prediction by ZEFSAII (Michael W. Deem and Ramdas Pophale) SiO2 
 PCOD9036809
Probable space group: P -1
;
_chemical_formula_sum "Si O2"
_cell_formula_units_Z 16
_cell_length_a 13.851656
_cell_length_b 11.358544
_cell_length_c 11.163599
_cell_angle_alpha 126.403282
_cell_angle_beta 121.909227
_cell_angle_gamma 100.930772
_cell_volume 811.544506
_symmetry_space_group_name_H-M "P -1"
_symmetry_group_IT_number 2
_symmetry_cell_setting 'triclinic'
loop_
_space_group_symop_operation_xyz
x,y,z
-x,-y,-z
loop_
_atom_site_type_symbol
_atom_site_label
_atom_site_fract_x
_atom_site_fract_y
_atom_site_fract_z
Si Si1 0.277539 0.297744 0.047426
Si Si2 0.917119 0.189505 0.363393
Si Si3 0.471823 0.594406 0.138245
Si Si4 0.316868 0.756808 0.725063
Si Si5 0.350462 0.297828 0.450281
Si Si6 0.724933 0.369624 0.106020
Si Si7 0.840519 0.640774 0.764790
Si Si8 0.829598 0.142321 0.005696
O O1 0.315130 0.407212 0.010114
O O2 0.471035 0.457384 0.314714
O O3 0.194254 0.325951 0.107176
O O4 0.177536 0.052234 0.821754
O O5 0.813526 0.232469 0.366452
O O6 0.919871 0.216265 0.237966
O O7 0.105460 0.376276 0.648280
O O8 0.627870 0.730256 0.414478
O O9 0.500000 0.500000 0.000000
O O10 0.429275 0.703003 0.107893
O O11 0.297495 0.660495 0.783471
O O12 0.279380 0.606154 0.504458
O O13 0.500000 0.000000 0.000000
O O14 0.203914 0.269702 0.302486
O O15 0.316657 0.116630 0.248094
O O16 0.759447 0.238054 0.005317
O O17 0.030518 0.768262 0.945613
#
# Coordination Sequence:
#
# PCOD9036809 Si02
#       8
#     2   2   2   2   2   2   2   2
#     4  10  25  38  65  96 123 166 215 267 313 365
#     4  11  21  41  62  98 130 164 211 267 322 368
#     4  10  25  44  63  89 127 178 215 253 317 389
#     4  11  23  35  67  98 125 163 215 269 321 368
#     4  10  23  39  62  94 127 163 213 264 313 373
#     4  11  23  44  63  91 137 172 209 254 321 396
#     4  12  20  39  63 101 125 157 215 271 324 360
#     4  11  22  38  65  97 128 166 202 269 331 372
#
# _framework density 19.715492999999999
#
# number of rings (size 3 to 8) (size 9 to 14) (size 15 to 20)
#    0.750    0.500    3.750    3.000    5.250    1.000 
#    0.000    0.625    0.000    0.000    0.000    0.000 
#    0.000    0.000    0.000    0.000    0.000    0.000 
#
# Total GULP energy -89262.113671 kJ/mol
# GULP energy per Si atom -5578.882104 kJ/mol
# Density = 1.967062 g / cm^3
# Si number density = 19.715493 Si / 1000 Ang^3
#
#
#
# Elastic Constant Matrix: (Units=GPa)
#
#
# Indices 1 2 3 4 5 6 
#
# 1 75.6498 27.5868 10.1481 -5.2764 -21.3302 -7.3966
# 2 27.5868 58.0939 27.3375 4.2852 -12.7059 -9.4920
# 3 10.1481 27.3375 78.3225 17.3879 -13.8715 -5.0428
# 4 -5.2764 4.2852 17.3879 31.4444 -0.7679 -3.5899
# 5 -21.3302 -12.7059 -13.8715 -0.7679 30.9218 8.4098
# 6 -7.3966 -9.4920 -5.0428 -3.5899 8.4098 13.6309
#
#
#
# Elastic Compliance Matrix: (Units=1/GPa)
#
#
# Indices 1 2 3 4 5 6 
#
# 1 0.019108 -0.007598 0.001223 0.003818 0.010724 -0.000081
# 2 -0.007598 0.026125 -0.007757 0.000817 -0.001286 0.012208
# 3 0.001223 -0.007757 0.018283 -0.009211 0.006895 -0.004654
# 4 0.003818 0.000817 -0.009211 0.038652 -0.003320 0.011461
# 5 0.010724 -0.001286 0.006895 -0.003320 0.048575 -0.023369
# 6 -0.000081 0.012208 -0.004654 0.011461 -0.023369 0.097534
#
#
# Mechanical properties :
#
#
# Convention : Reuss Voigt Hill
#
# Bulk Modulus (GPa) = 28.36857 38.02343 33.19600
# Shear Modulus (GPa) = 17.34342 24.99901 21.17122
#
# Velocity S-wave (km/s) = 2.96917 3.56475 3.28050
# Velocity P-wave (km/s) = 5.11613 6.02255 5.58775
#
# Compressibility (1/GPa) = 0.03525028
#
# Stress axis : x y z
#
# Youngs Moduli (GPa) = 52.33478 38.27719 54.69511
#
# Poissons Ratio (x) = 0.29085 -0.06688
# Poissons Ratio (y) = 0.39766 0.42428
# Poissons Ratio (z) = -0.06399 0.29693
#
# Static dielectric constant tensor:
#      x y z
#    x 1.708170 0.019850 0.013610 
#    y 0.019850 1.695110 0.010200 
#    z 0.013610 0.010200 1.731110 
# 
# From -- ./inp_files/253071.got.cif
#   From: 2010.05.17/outbox.cif.g08.bks.cpg/sg2_127_cif.got.tgz:253071.got - 2010.06.03 11:33:40.
