data_PCOD9036244
_publ_section_title
;
Structure prediction by ZEFSAII (Michael W. Deem and Ramdas Pophale) SiO2 
 PCOD9036244
Probable space group: P -1
;
_chemical_formula_sum "Si O2"
_cell_formula_units_Z 14
_cell_length_a 19.162374
_cell_length_b 5.159027
_cell_length_c 8.230902
_cell_angle_alpha 80.278143
_cell_angle_beta 41.838223
_cell_angle_gamma 68.152453
_cell_volume 495.999354
_symmetry_space_group_name_H-M "P -1"
_symmetry_group_IT_number 2
_symmetry_cell_setting 'triclinic'
loop_
_space_group_symop_operation_xyz
x,y,z
-x,-y,-z
loop_
_atom_site_type_symbol
_atom_site_label
_atom_site_fract_x
_atom_site_fract_y
_atom_site_fract_z
Si Si1 0.578296 0.168350 0.679025
Si Si2 0.598783 0.909096 0.204268
Si Si3 0.737688 0.349085 0.184272
Si Si4 0.699345 0.208040 0.789615
Si Si5 0.222184 0.415993 0.587419
Si Si6 0.043374 0.108166 0.252384
Si Si7 0.926124 0.760869 0.331647
O O1 0.454943 0.180573 0.852867
O O2 0.622672 0.322942 0.447730
O O3 0.611869 0.254034 0.785863
O O4 0.662287 0.843080 0.551359
O O5 0.702424 0.636493 0.113967
O O6 0.500000 0.000000 0.500000
O O7 0.633619 0.169475 0.064213
O O8 0.795893 0.383453 0.248620
O O9 0.824000 0.072677 0.976662
O O10 0.806605 0.911668 0.616836
O O11 0.756904 0.431396 0.626536
O O12 0.122845 0.300123 0.747669
O O13 0.004220 0.447182 0.289988
O O14 0.000000 0.000000 0.500000
O O15 0.984505 0.987352 0.225953
#
# Coordination Sequence:
#
# PCOD9036244 Si02
#       7
#     2   2   2   2   2   2   2
#     4  10  23  46  69 105 150 198 252 306 379 451
#     4  12  24  45  73 107 146 199 250 316 385 437
#     4  11  26  46  73 109 155 191 256 322 368 455
#     4  10  23  46  75 106 152 194 254 309 370 465
#     4  10  22  48  73 111 147 198 251 308 377 454
#     4  12  27  46  76 111 153 200 250 310 386 447
#     4  11  24  48  74 110 147 201 251 303 377 454
#
# _framework density 28.225846000000001
#
# number of rings (size 3 to 8) (size 9 to 14) (size 15 to 20)
#    0.000    1.143    2.857    2.143    2.000    2.857 
#   10.286    0.000    0.000    0.000    0.000    0.000 
#    0.000    0.000    0.000    0.000    0.000    0.000 
#
# Total GULP energy -78558.529663 kJ/mol
# GULP energy per Si atom -5611.323547 kJ/mol
# Density = 2.816160 g / cm^3
# Si number density = 28.225846 Si / 1000 Ang^3
#
#
#
# Elastic Constant Matrix: (Units=GPa)
#
#
# Indices 1 2 3 4 5 6 
#
# 1 131.2535 16.9309 24.7196 -8.5706 -21.1298 9.2842
# 2 16.9309 168.9848 44.5769 -5.9558 -4.8113 -2.4013
# 3 24.7196 44.5769 127.2301 -2.3980 -0.8724 -12.8298
# 4 -8.5706 -5.9558 -2.3980 57.9258 -1.8838 -8.8179
# 5 -21.1298 -4.8113 -0.8724 -1.8838 29.9312 -5.9185
# 6 9.2842 -2.4013 -12.8298 -8.8179 -5.9185 46.0660
#
#
#
# Elastic Compliance Matrix: (Units=1/GPa)
#
#
# Indices 1 2 3 4 5 6 
#
# 1 0.009153 -0.000252 -0.001756 0.001257 0.006190 -0.001311
# 2 -0.000252 0.006578 -0.002240 0.000572 0.000848 -0.000012
# 3 -0.001756 -0.002240 0.009266 0.000291 -0.000763 0.002776
# 4 0.001257 0.000572 0.000291 0.018178 0.002865 0.003705
# 5 0.006190 0.000848 -0.000763 0.002865 0.038891 0.004129
# 6 -0.001311 -0.000012 0.002776 0.003705 0.004129 0.023984
#
#
# Mechanical properties :
#
#
# Convention : Reuss Voigt Hill
#
# Bulk Modulus (GPa) = 60.60392 66.65813 63.63102
# Shear Modulus (GPa) = 41.65024 49.53400 45.59212
#
# Velocity S-wave (km/s) = 3.84553 4.19372 4.02339
# Velocity P-wave (km/s) = 6.42146 6.86418 6.64651
#
# Compressibility (1/GPa) = 0.01650058
#
# Stress axis : x y z
#
# Youngs Moduli (GPa) = 109.24853 152.02043 107.92040
#
# Poissons Ratio (x) = 0.03829 0.18953
# Poissons Ratio (y) = 0.02752 0.24178
# Poissons Ratio (z) = 0.19187 0.34058
#
# Static dielectric constant tensor:
#      x y z
#    x 2.281140 0.036070 0.049050 
#    y 0.036070 2.117580 0.006260 
#    z 0.049050 0.006260 2.178160 
# 
# From -- ./inp_files/340227.got.cif
#   From: 2010.05.17/outbox.cif.g08.bks.cpg/sg2_171_cif.got.tgz:340227.got - 2010.06.03 11:33:40.
