data_PCOD9036874
_publ_section_title
;
Structure prediction by ZEFSAII (Michael W. Deem and Ramdas Pophale) SiO2 
 PCOD9036874
Probable space group: P -1
;
_chemical_formula_sum "Si O2"
_cell_formula_units_Z 12
_cell_length_a 9.366165
_cell_length_b 9.783984
_cell_length_c 9.433570
_cell_angle_alpha 115.547916
_cell_angle_beta 134.617909
_cell_angle_gamma 85.472884
_cell_volume 520.316478
_symmetry_space_group_name_H-M "P -1"
_symmetry_group_IT_number 2
_symmetry_cell_setting 'triclinic'
loop_
_space_group_symop_operation_xyz
x,y,z
-x,-y,-z
loop_
_atom_site_type_symbol
_atom_site_label
_atom_site_fract_x
_atom_site_fract_y
_atom_site_fract_z
Si Si1 0.322308 0.233984 0.633219
Si Si2 0.012696 0.857324 0.253735
Si Si3 0.265529 0.707115 0.882786
Si Si4 0.008360 0.368446 0.597684
Si Si5 0.616145 0.943918 0.923448
Si Si6 0.405209 0.825400 0.430562
O O1 0.178606 0.343086 0.593786
O O2 0.467201 0.267863 0.608076
O O3 0.494630 0.272328 0.897036
O O4 0.165879 0.046650 0.454658
O O5 0.997347 0.760597 0.345184
O O6 0.150244 0.777435 0.217302
O O7 0.783190 0.859904 0.049188
O O8 0.106693 0.555626 0.789985
O O9 0.206078 0.670065 0.659687
O O10 0.248106 0.881885 0.974557
O O11 0.465215 0.846262 0.647766
O O12 0.500000 0.000000 0.000000
O O13 0.500000 0.000000 0.500000
#
# Coordination Sequence:
#
# PCOD9036874 Si02
#       6
#     2   2   2   2   2   2
#     4  11  22  40  65  93 125 168 214 265 310 374
#     4  11  23  39  65  94 125 163 217 261 310 371
#     4  11  23  38  62  93 130 168 210 258 324 373
#     4  11  24  40  62  95 129 169 212 260 317 381
#     4  12  23  39  70  99 123 167 217 264 310 378
#     4  10  23  39  64  99 129 160 214 269 312 367
#
# _framework density 23.062887
#
# number of rings (size 3 to 8) (size 9 to 14) (size 15 to 20)
#    0.000    1.000    5.000    3.000    0.000    4.000 
#    0.000    0.833    0.000   12.000    0.000    0.000 
#    0.000    0.000    0.000    0.000    0.000    0.000 
#
# Total GULP energy -66974.157276 kJ/mol
# GULP energy per Si atom -5581.179773 kJ/mol
# Density = 2.301039 g / cm^3
# Si number density = 23.062887 Si / 1000 Ang^3
#
#
#
# Elastic Constant Matrix: (Units=GPa)
#
#
# Indices 1 2 3 4 5 6 
#
# 1 154.4851 25.2163 35.8519 -27.2111 -6.7036 -13.4613
# 2 25.2163 89.4388 34.3402 -18.0053 -2.2101 -1.8221
# 3 35.8519 34.3402 116.9461 -29.5948 9.0476 1.2020
# 4 -27.2111 -18.0053 -29.5948 33.0961 -3.8595 -0.1438
# 5 -6.7036 -2.2101 9.0476 -3.8595 25.7775 -2.0586
# 6 -13.4613 -1.8221 1.2020 -0.1438 -2.0586 13.0392
#
#
#
# Elastic Compliance Matrix: (Units=1/GPa)
#
#
# Indices 1 2 3 4 5 6 
#
# 1 0.009141 -0.000350 -0.001506 0.006570 0.004685 0.010339
# 2 -0.000350 0.013479 -0.002885 0.004824 0.002984 0.002312
# 3 -0.001506 -0.002885 0.012119 0.007541 -0.004053 -0.003631
# 4 0.006570 0.004824 0.007541 0.045838 0.007007 0.008374
# 5 0.004685 0.002984 -0.004053 0.007007 0.043747 0.012611
# 6 0.010339 0.002312 -0.003631 0.008374 0.012611 0.090107
#
#
# Mechanical properties :
#
#
# Convention : Reuss Voigt Hill
#
# Bulk Modulus (GPa) = 39.59083 61.29855 50.44469
# Shear Modulus (GPa) = 21.52104 32.08001 26.80052
#
# Velocity S-wave (km/s) = 3.05806 3.73363 3.41260
# Velocity P-wave (km/s) = 5.44726 6.72482 6.11947
#
# Compressibility (1/GPa) = 0.02525838
#
# Stress axis : x y z
#
# Youngs Moduli (GPa) = 109.39525 74.18947 82.51614
#
# Poissons Ratio (x) = 0.02597 0.12424
# Poissons Ratio (y) = 0.03830 0.23802
# Poissons Ratio (z) = 0.16471 0.21401
#
# Static dielectric constant tensor:
#      x y z
#    x 1.979530 0.033020 -0.013070 
#    y 0.033020 1.876070 0.037090 
#    z -0.013070 0.037090 1.919680 
# 
# From -- ./inp_files/165832.got.cif
#   From: 2010.05.17/outbox.cif.g08.bks.cpg/sg2_83_cif.got.tgz:165832.got - 2010.06.03 11:33:40.
