data_PCOD9036731
_publ_section_title
;
Structure prediction by ZEFSAII (Michael W. Deem and Ramdas Pophale) SiO2 
 PCOD9036731
Probable space group: P -1
;
_chemical_formula_sum "Si O2"
_cell_formula_units_Z 16
_cell_length_a 12.198537
_cell_length_b 6.844953
_cell_length_c 8.065773
_cell_angle_alpha 93.764518
_cell_angle_beta 116.428672
_cell_angle_gamma 88.603914
_cell_volume 601.783169
_symmetry_space_group_name_H-M "P -1"
_symmetry_group_IT_number 2
_symmetry_cell_setting 'triclinic'
loop_
_space_group_symop_operation_xyz
x,y,z
-x,-y,-z
loop_
_atom_site_type_symbol
_atom_site_label
_atom_site_fract_x
_atom_site_fract_y
_atom_site_fract_z
Si Si1 0.009343 0.136285 0.851639
Si Si2 0.955960 0.252567 0.317475
Si Si3 0.458903 0.223856 0.948088
Si Si4 0.375005 0.722228 0.441663
Si Si5 0.639390 0.812392 0.490578
Si Si6 0.149846 0.580616 0.412771
Si Si7 0.291483 0.730303 0.029470
Si Si8 0.272290 0.201661 0.100744
O O1 0.902626 0.291377 0.767462
O O2 0.015075 0.972728 0.704748
O O3 0.138304 0.248090 0.945504
O O4 0.000000 0.000000 0.000000
O O5 0.901325 0.297158 0.461064
O O6 0.077473 0.378676 0.373680
O O7 0.842532 0.315978 0.128838
O O8 0.381793 0.232065 0.722701
O O9 0.593107 0.318404 0.013911
O O10 0.377786 0.284044 0.055207
O O11 0.500000 0.000000 0.000000
O O12 0.518027 0.731089 0.499208
O O13 0.297258 0.591028 0.510078
O O14 0.322539 0.652282 0.226283
O O15 0.352152 0.948702 0.489343
O O16 0.731203 0.764456 0.702326
O O17 0.289133 0.966596 0.072221
#
# Coordination Sequence:
#
# PCOD9036731 Si02
#       8
#     2   2   2   2   2   2   2   2
#     4  11  23  41  59  87 122 158 207 247 301 363
#     4  10  23  39  58  91 119 159 206 244 305 361
#     4   9  16  26  48  80 112 151 190 243 302 350
#     4   9  17  29  52  81 114 150 190 247 297 348
#     4   9  17  29  48  85 118 144 200 248 293 369
#     4  11  23  38  61  89 121 161 199 251 302 360
#     4   8  16  30  48  80 112 142 196 239 289 356
#     4   9  18  31  50  81 113 153 194 240 304 353
#
# _framework density 26.587651000000001
#
# number of rings (size 3 to 8) (size 9 to 14) (size 15 to 20)
#    0.000    2.500    0.000    4.875    7.000    2.000 
#    2.250    0.000    0.000    0.750    0.000    9.625 
#    0.000    0.000    0.000    0.000    0.000    0.000 
#
# Total GULP energy -89426.029633 kJ/mol
# GULP energy per Si atom -5589.126852 kJ/mol
# Density = 2.652714 g / cm^3
# Si number density = 26.587651 Si / 1000 Ang^3
#
#
#
# Elastic Constant Matrix: (Units=GPa)
#
#
# Indices 1 2 3 4 5 6 
#
# 1 137.9292 4.8849 21.9462 6.7219 -28.8212 20.8668
# 2 4.8849 80.9704 29.8748 -12.4072 -0.3925 4.7762
# 3 21.9462 29.8748 109.8663 0.5447 -24.9140 -2.4825
# 4 6.7219 -12.4072 0.5447 29.4145 3.8622 -1.5850
# 5 -28.8212 -0.3925 -24.9140 3.8622 25.4622 -5.4461
# 6 20.8668 4.7762 -2.4825 -1.5850 -5.4461 29.7403
#
#
#
# Elastic Compliance Matrix: (Units=1/GPa)
#
#
# Indices 1 2 3 4 5 6 
#
# 1 0.010888 -0.001474 0.001089 -0.005121 0.013032 -0.005198
# 2 -0.001474 0.016269 -0.006461 0.008413 -0.009755 -0.003456
# 3 0.001089 -0.006461 0.014672 -0.005272 0.017224 0.004371
# 4 -0.005121 0.008413 -0.005272 0.041076 -0.016863 0.000903
# 5 0.013032 -0.009755 0.017224 -0.016863 0.074706 0.006642
# 6 -0.005198 -0.003456 0.004371 0.000903 0.006642 0.039456
#
#
# Mechanical properties :
#
#
# Convention : Reuss Voigt Hill
#
# Bulk Modulus (GPa) = 35.54003 49.13084 42.33543
# Shear Modulus (GPa) = 22.71297 35.06077 28.88687
#
# Velocity S-wave (km/s) = 2.92596 3.63531 3.29975
# Velocity P-wave (km/s) = 4.98107 6.01162 5.52045
#
# Compressibility (1/GPa) = 0.02813729
#
# Stress axis : x y z
#
# Youngs Moduli (GPa) = 91.84235 61.46744 68.15668
#
# Poissons Ratio (x) = 0.09058 -0.07422
# Poissons Ratio (y) = 0.13533 0.44038
# Poissons Ratio (z) = -0.10001 0.39716
#
# Static dielectric constant tensor:
#      x y z
#    x 2.126400 -0.040880 0.034280 
#    y -0.040880 2.127990 -0.013540 
#    z 0.034280 -0.013540 2.117600 
# 
# From -- ./inp_files/239276.got.cif
#   From: 2010.05.17/outbox.cif.g08.bks.cpg/sg2_120_cif.got.tgz:239276.got - 2010.06.03 11:33:40.
