data_PCOD9036873
_publ_section_title
;
Structure prediction by ZEFSAII (Michael W. Deem and Ramdas Pophale) SiO2 
 PCOD9036873
Probable space group: P -1
;
_chemical_formula_sum "Si O2"
_cell_formula_units_Z 15
_cell_length_a 14.035973
_cell_length_b 24.397660
_cell_length_c 14.042753
_cell_angle_alpha 156.672161
_cell_angle_beta 32.088504
_cell_angle_gamma 159.523130
_cell_volume 663.228367
_symmetry_space_group_name_H-M "P -1"
_symmetry_group_IT_number 2
_symmetry_cell_setting 'triclinic'
loop_
_space_group_symop_operation_xyz
x,y,z
-x,-y,-z
loop_
_atom_site_type_symbol
_atom_site_label
_atom_site_fract_x
_atom_site_fract_y
_atom_site_fract_z
Si Si1 0.694554 0.804950 0.751207
Si Si2 0.673422 0.652390 0.716406
Si Si3 0.357012 0.880161 0.151182
Si Si4 0.221320 0.251673 0.010745
Si Si5 0.500000 0.000000 0.000000
Si Si6 0.148953 0.527395 0.510386
Si Si7 0.369010 0.752817 0.361002
Si Si8 0.827261 0.444724 0.968269
O O1 0.789957 0.761368 0.688681
O O2 0.464005 0.578794 0.533422
O O3 0.535018 0.851517 0.986639
O O4 0.964774 0.020173 0.813437
O O5 0.844328 0.779431 0.869218
O O6 0.416411 0.603880 0.866765
O O7 0.413054 0.025450 0.416462
O O8 0.454941 0.982175 0.126800
O O9 0.039457 0.655756 0.061464
O O10 0.241815 0.424832 0.243787
O O11 0.493988 0.320981 0.873605
O O12 0.380267 0.769276 0.733088
O O13 0.000000 0.500000 0.500000
O O14 0.909740 0.389242 0.571465
O O15 0.297235 0.742167 0.294971
O O16 0.000000 0.500000 0.000000
#
# Coordination Sequence:
#
# PCOD9036873 Si02
#       8
#     2   2   2   2   1   2   2   2
#     4  11  21  40  65  94 136 182 224 277 339 401
#     4  10  23  39  64  98 135 181 225 278 339 407
#     4  12  23  42  69  99 136 183 230 281 339 403
#     4  11  24  43  66  99 138 173 227 282 338 409
#     4  12  24  42  72  98 130 178 232 280 336 404
#     4  12  24  46  71  98 134 180 229 284 344 403
#     4  11  25  43  69 100 135 177 229 279 341 405
#     4  11  23  42  64  98 137 178 225 281 340 406
#
# _framework density 22.616644000000001
#
# number of rings (size 3 to 8) (size 9 to 14) (size 15 to 20)
#    0.000    0.800    5.333    2.000    0.000    1.067 
#    2.400    0.667    0.000    0.000    0.000    0.000 
#    0.000    0.000    0.000    0.000    0.000    0.000 
#
# Total GULP energy -83529.074220 kJ/mol
# GULP energy per Si atom -5568.604948 kJ/mol
# Density = 2.256517 g / cm^3
# Si number density = 22.616644 Si / 1000 Ang^3
#
#
#
# Elastic Constant Matrix: (Units=GPa)
#
#
# Indices 1 2 3 4 5 6 
#
# 1 60.6821 2.8754 27.5256 -5.3583 11.6035 1.1022
# 2 2.8754 55.7907 18.3328 12.2064 -8.5140 3.6752
# 3 27.5256 18.3328 124.1730 15.5131 17.7461 2.3540
# 4 -5.3583 12.2064 15.5131 38.0553 -3.0248 3.0099
# 5 11.6035 -8.5140 17.7461 -3.0248 29.0809 4.8490
# 6 1.1022 3.6752 2.3540 3.0099 4.8490 18.4498
#
#
#
# Elastic Compliance Matrix: (Units=1/GPa)
#
#
# Indices 1 2 3 4 5 6 
#
# 1 0.019777 -0.001572 -0.003915 0.004413 -0.005566 0.000374
# 2 -0.001572 0.022064 -0.003622 -0.004599 0.009762 -0.005654
# 3 -0.003915 -0.003622 0.010997 -0.004603 -0.007048 0.002155
# 4 0.004413 -0.004599 -0.004603 0.030924 0.003716 -0.004782
# 5 -0.005566 0.009762 -0.007048 0.003716 0.046407 -0.013516
# 6 0.000374 -0.005654 0.002155 -0.004782 -0.013516 0.059362
#
#
# Mechanical properties :
#
#
# Convention : Reuss Voigt Hill
#
# Bulk Modulus (GPa) = 28.88601 37.56817 33.22709
# Shear Modulus (GPa) = 22.80093 29.91132 26.35613
#
# Velocity S-wave (km/s) = 3.17858 3.64061 3.41741
# Velocity P-wave (km/s) = 5.12551 5.85824 5.50409
#
# Compressibility (1/GPa) = 0.03461884
#
# Stress axis : x y z
#
# Youngs Moduli (GPa) = 50.56449 45.32301 90.93174
#
# Poissons Ratio (x) = 0.07127 0.35597
# Poissons Ratio (y) = 0.07951 0.32939
# Poissons Ratio (z) = 0.19795 0.16418
#
# Static dielectric constant tensor:
#      x y z
#    x 1.883230 -0.024570 0.023610 
#    y -0.024570 1.845950 0.040050 
#    z 0.023610 0.040050 1.868770 
# 
# From -- ./inp_files/432641.got.cif
#   From: 2010.05.17/outbox.cif.g08.bks.cpg/sg2_217_cif.got.tgz:432641.got - 2010.06.03 11:33:40.
