data_PCOD9036586
_publ_section_title
;
Structure prediction by ZEFSAII (Michael W. Deem and Ramdas Pophale) SiO2 
 PCOD9036586
Probable space group: P -1
;
_chemical_formula_sum "Si O2"
_cell_formula_units_Z 16
_cell_length_a 15.722043
_cell_length_b 11.121778
_cell_length_c 12.779940
_cell_angle_alpha 75.068048
_cell_angle_beta 44.934910
_cell_angle_gamma 38.355826
_cell_volume 719.347323
_symmetry_space_group_name_H-M "P -1"
_symmetry_group_IT_number 2
_symmetry_cell_setting 'triclinic'
loop_
_space_group_symop_operation_xyz
x,y,z
-x,-y,-z
loop_
_atom_site_type_symbol
_atom_site_label
_atom_site_fract_x
_atom_site_fract_y
_atom_site_fract_z
Si Si1 0.885133 0.975351 0.201218
Si Si2 0.731647 0.199917 0.833129
Si Si3 0.739158 0.932715 0.529551
Si Si4 0.018501 0.147961 0.489573
Si Si5 0.773198 0.711517 0.373083
Si Si6 0.167919 0.516789 0.950629
Si Si7 0.050889 0.812700 0.814042
Si Si8 0.368740 0.438815 0.441456
O O1 0.778412 0.004742 0.391392
O O2 0.932005 0.076881 0.158446
O O3 0.671327 0.150984 0.257284
O O4 0.133782 0.667633 0.023430
O O5 0.961209 0.086389 0.631312
O O6 0.500000 0.500000 0.000000
O O7 0.749390 0.097964 0.736607
O O8 0.803954 0.049527 0.902520
O O9 0.794919 0.756463 0.457341
O O10 0.449442 0.209173 0.758465
O O11 0.916555 0.796615 0.505213
O O12 0.762017 0.395251 0.587983
O O13 0.765531 0.571463 0.420644
O O14 0.985229 0.577683 0.143012
O O15 0.500000 0.000000 0.500000
O O16 0.075938 0.663022 0.889882
O O17 0.284151 0.601200 0.575736
#
# Coordination Sequence:
#
# PCOD9036586 Si02
#       8
#     2   2   2   2   2   2   2   2
#     4  11  22  41  64  98 129 161 210 267 322 374
#     4  10  23  38  62  91 135 169 209 255 315 396
#     4  11  23  42  66  92 129 171 212 262 314 384
#     4  10  24  42  61  92 129 173 204 257 330 367
#     4  11  23  44  64  94 128 167 217 270 311 366
#     4  11  24  38  67  96 124 167 213 262 318 374
#     4  11  22  39  64 100 127 165 209 264 325 380
#     4  11  23  43  65  91 130 167 213 263 312 382
#
# _framework density 22.242384000000001
#
# number of rings (size 3 to 8) (size 9 to 14) (size 15 to 20)
#    0.000    1.250    5.000    0.750    3.500    2.500 
#    0.000    0.625    0.000    0.000    0.000    0.000 
#    0.000    0.000    0.000    0.000    0.000    0.000 
#
# Total GULP energy -89377.841487 kJ/mol
# GULP energy per Si atom -5586.115093 kJ/mol
# Density = 2.219176 g / cm^3
# Si number density = 22.242384 Si / 1000 Ang^3
#
#
#
# Elastic Constant Matrix: (Units=GPa)
#
#
# Indices 1 2 3 4 5 6 
#
# 1 111.9884 15.6963 21.3158 -18.1536 21.4843 -4.5605
# 2 15.6963 51.0598 8.1205 -6.6608 -4.2476 -1.9232
# 3 21.3158 8.1205 101.2647 -5.3299 5.6334 -10.2946
# 4 -18.1536 -6.6608 -5.3299 20.5474 3.6060 -7.2338
# 5 21.4843 -4.2476 5.6334 3.6060 17.3756 -6.0477
# 6 -4.5605 -1.9232 -10.2946 -7.2338 -6.0477 36.4581
#
#
#
# Elastic Compliance Matrix: (Units=1/GPa)
#
#
# Indices 1 2 3 4 5 6 
#
# 1 0.018184 -0.005156 -0.000773 0.019349 -0.027118 0.001125
# 2 -0.005156 0.022675 -0.001128 0.001147 0.012955 0.002609
# 3 -0.000773 -0.001128 0.010751 0.003262 -0.002394 0.003130
# 4 0.019349 0.001147 0.003262 0.077881 -0.036403 0.012816
# 5 -0.027118 0.012955 -0.002394 -0.036403 0.104947 0.006801
# 6 0.001125 0.002609 0.003130 0.012816 0.006801 0.032262
#
#
# Mechanical properties :
#
#
# Convention : Reuss Voigt Hill
#
# Bulk Modulus (GPa) = 26.66967 39.39757 33.03362
# Shear Modulus (GPa) = 17.04664 29.48824 23.26744
#
# Velocity S-wave (km/s) = 2.77140 3.64506 3.23783
# Velocity P-wave (km/s) = 4.71777 5.95538 5.37234
#
# Compressibility (1/GPa) = 0.03749578
#
# Stress axis : x y z
#
# Youngs Moduli (GPa) = 54.99363 44.10132 93.01214
#
# Poissons Ratio (x) = 0.22741 0.07188
# Poissons Ratio (y) = 0.28357 0.10491
# Poissons Ratio (z) = 0.04250 0.04974
#
# Static dielectric constant tensor:
#      x y z
#    x 1.847370 -0.015310 0.051020 
#    y -0.015310 1.833790 0.008720 
#    z 0.051020 0.008720 1.887040 
# 
# From -- ./inp_files/452352.got.cif
#   From: 2010.05.17/outbox.cif.g08.bks.cpg/sg2_227_cif.got.tgz:452352.got - 2010.06.03 11:33:40.
