data_PCOD9036396
_publ_section_title
;
Structure prediction by ZEFSAII (Michael W. Deem and Ramdas Pophale) SiO2 
 PCOD9036396
Probable space group: P -1
;
_chemical_formula_sum "Si O2"
_cell_formula_units_Z 16
_cell_length_a 11.278630
_cell_length_b 9.447936
_cell_length_c 18.830683
_cell_angle_alpha 25.832618
_cell_angle_beta 102.356383
_cell_angle_gamma 107.164866
_cell_volume 828.964763
_symmetry_space_group_name_H-M "P -1"
_symmetry_group_IT_number 2
_symmetry_cell_setting 'triclinic'
loop_
_space_group_symop_operation_xyz
x,y,z
-x,-y,-z
loop_
_atom_site_type_symbol
_atom_site_label
_atom_site_fract_x
_atom_site_fract_y
_atom_site_fract_z
Si Si1 0.495693 0.175834 0.193384
Si Si2 0.890727 0.295736 0.281615
Si Si3 0.385978 0.747016 0.252076
Si Si4 0.557786 0.385647 0.353244
Si Si5 0.896045 0.001527 0.565485
Si Si6 0.154208 0.357475 0.490622
Si Si7 0.269678 0.821593 0.419157
Si Si8 0.682869 0.617384 0.116981
O O1 0.606888 0.287888 0.212945
O O2 0.485630 0.880190 0.268553
O O3 0.368850 0.070750 0.270006
O O4 0.500000 0.500000 0.000000
O O5 0.849429 0.099679 0.439455
O O6 0.827533 0.603716 0.134796
O O7 0.840795 0.032948 0.330152
O O8 0.039357 0.312188 0.291259
O O9 0.448107 0.546465 0.294603
O O10 0.262549 0.537615 0.369635
O O11 0.349523 0.061191 0.067783
O O12 0.653977 0.381502 0.431138
O O13 0.630850 0.572921 0.210203
O O14 0.500000 0.000000 0.500000
O O15 0.797875 0.979135 0.625242
O O16 0.014906 0.307145 0.463801
O O17 0.176327 0.565725 0.471484
#
# Coordination Sequence:
#
# PCOD9036396 Si02
#       8
#     2   2   2   2   2   2   2   2
#     4   9  21  37  56  82 117 146 179 223 287 340
#     4   9  19  34  61  79 111 144 187 232 276 325
#     4  10  23  36  56  81 115 150 182 226 286 333
#     4  12  23  34  57  86 114 143 192 230 276 332
#     4   9  19  35  56  85 108 140 194 234 275 311
#     4   9  20  35  56  82 110 143 189 233 271 326
#     4  11  20  33  59  85 110 146 188 230 273 327
#     4  11  20  39  55  82 117 148 180 232 282 335
#
# _framework density 19.301182000000001
#
# number of rings (size 3 to 8) (size 9 to 14) (size 15 to 20)
#    0.750    1.250    2.500    1.500    1.750    1.000 
#    0.000    0.625    0.000    6.750    0.000    0.000 
#    0.000    0.000    0.000    0.000    0.000    0.000 
#
# Total GULP energy -89110.324138 kJ/mol
# GULP energy per Si atom -5569.395259 kJ/mol
# Density = 1.925725 g / cm^3
# Si number density = 19.301182 Si / 1000 Ang^3
#
#
#
# Elastic Constant Matrix: (Units=GPa)
#
#
# Indices 1 2 3 4 5 6 
#
# 1 58.1040 15.8215 18.9459 -0.2294 25.6104 -26.2246
# 2 15.8215 76.4166 14.2292 5.7517 12.7920 -9.9284
# 3 18.9459 14.2292 41.7447 4.6104 14.0430 -13.7456
# 4 -0.2294 5.7517 4.6104 23.2496 -7.3535 0.9753
# 5 25.6104 12.7920 14.0430 -7.3535 20.3390 -7.5427
# 6 -26.2246 -9.9284 -13.7456 0.9753 -7.5427 45.1520
#
#
#
# Elastic Compliance Matrix: (Units=1/GPa)
#
#
# Indices 1 2 3 4 5 6 
#
# 1 0.072216 0.007514 0.016420 -0.040538 -0.110129 0.031073
# 2 0.007514 0.016731 0.001874 -0.012192 -0.023874 0.004889
# 3 0.016420 0.001874 0.042077 -0.026743 -0.055349 0.014089
# 4 -0.040538 -0.012192 -0.026743 0.083414 0.100125 -0.019443
# 5 -0.110129 -0.023874 -0.055349 0.100125 0.260701 -0.044675
# 6 0.031073 0.004889 0.014089 -0.019443 -0.044675 0.038516
#
#
# Mechanical properties :
#
#
# Convention : Reuss Voigt Hill
#
# Bulk Modulus (GPa) = 5.47524 30.47315 17.97420
# Shear Modulus (GPa) = 9.56171 26.23272 17.89722
#
# Velocity S-wave (km/s) = 2.22816 3.69063 3.04840
# Velocity P-wave (km/s) = 3.07612 5.82954 4.66080
#
# Compressibility (1/GPa) = 0.18264032
#
# Stress axis : x y z
#
# Youngs Moduli (GPa) = 13.84729 59.77047 23.76612
#
# Poissons Ratio (x) = -0.44914 -0.39023
# Poissons Ratio (y) = -0.10406 -0.04455
# Poissons Ratio (z) = -0.22737 -0.11203
#
# Static dielectric constant tensor:
#      x y z
#    x 1.699120 0.025860 0.019840 
#    y 0.025860 1.715570 -0.012160 
#    z 0.019840 -0.012160 1.647070 
# 
# From -- ./inp_files/387240.got.cif
#   From: 2010.05.17/outbox.cif.g08.bks.cpg/sg2_194_cif.got.tgz:387240.got - 2010.06.03 11:33:40.
