data_PCOD9036884
_publ_section_title
;
Structure prediction by ZEFSAII (Michael W. Deem and Ramdas Pophale) SiO2 
 PCOD9036884
Probable space group: P -1
;
_chemical_formula_sum "Si O2"
_cell_formula_units_Z 16
_cell_length_a 9.944016
_cell_length_b 8.177982
_cell_length_c 14.465347
_cell_angle_alpha 43.087403
_cell_angle_beta 90.624304
_cell_angle_gamma 70.006212
_cell_volume 690.123237
_symmetry_space_group_name_H-M "P -1"
_symmetry_group_IT_number 2
_symmetry_cell_setting 'triclinic'
loop_
_space_group_symop_operation_xyz
x,y,z
-x,-y,-z
loop_
_atom_site_type_symbol
_atom_site_label
_atom_site_fract_x
_atom_site_fract_y
_atom_site_fract_z
Si Si1 0.324794 0.698244 0.649665
Si Si2 0.959495 0.458866 0.715389
Si Si3 0.607418 0.698831 0.670471
Si Si4 0.433020 0.241550 0.973331
Si Si5 0.732523 0.682680 0.871733
Si Si6 0.098523 0.068221 0.341387
Si Si7 0.133557 0.152418 0.602299
Si Si8 0.235607 0.893628 0.900250
O O1 0.511026 0.553106 0.701290
O O2 0.236452 0.804237 0.508533
O O3 0.257900 0.976706 0.594957
O O4 0.308269 0.500829 0.804162
O O5 0.789050 0.514273 0.719742
O O6 0.947369 0.543625 0.571648
O O7 0.976495 0.684164 0.684293
O O8 0.104299 0.146207 0.856958
O O9 0.613243 0.760094 0.753236
O O10 0.500000 0.000000 0.500000
O O11 0.350479 0.207344 0.076533
O O12 0.584923 0.252331 0.004854
O O13 0.500000 0.000000 0.000000
O O14 0.839981 0.806782 0.788741
O O15 0.807411 0.346692 0.014600
O O16 0.987405 0.959108 0.351945
O O17 0.227636 0.047996 0.740687
#
# Coordination Sequence:
#
# PCOD9036884 Si02
#       8
#     2   2   2   2   2   2   2   2
#     4  11  20  43  69  97 132 184 225 275 342 410
#     4  10  23  39  65 107 134 180 227 280 342 408
#     4  11  19  39  71 102 134 177 227 280 339 406
#     4  12  28  45  71 101 137 182 231 289 346 414
#     4  11  23  46  68 103 135 185 228 282 353 398
#     4  10  24  41  73  98 137 184 229 281 341 411
#     4  11  22  42  69  97 141 182 234 274 343 413
#     4  12  25  41  69  98 142 178 227 287 340 417
#
# _framework density 23.184263999999999
#
# number of rings (size 3 to 8) (size 9 to 14) (size 15 to 20)
#    0.000    1.000    6.250    3.000    3.500    2.500 
#    2.250    0.625    0.000    0.000    0.000    0.000 
#    0.000    0.000    0.000    0.000    0.000    0.000 
#
# Total GULP energy -89269.162955 kJ/mol
# GULP energy per Si atom -5579.322685 kJ/mol
# Density = 2.313150 g / cm^3
# Si number density = 23.184264 Si / 1000 Ang^3
#
#
#
# Elastic Constant Matrix: (Units=GPa)
#
#
# Indices 1 2 3 4 5 6 
#
# 1 124.1561 18.4282 24.2944 10.8382 -5.7162 -11.4198
# 2 18.4282 75.9160 36.2917 14.2115 -7.5124 -11.3427
# 3 24.2944 36.2917 123.2503 14.6271 -4.1160 -18.4840
# 4 10.8382 14.2115 14.6271 28.2308 -14.7852 -3.5786
# 5 -5.7162 -7.5124 -4.1160 -14.7852 24.0310 3.5352
# 6 -11.4198 -11.3427 -18.4840 -3.5786 3.5352 22.5319
#
#
#
# Elastic Compliance Matrix: (Units=1/GPa)
#
#
# Indices 1 2 3 4 5 6 
#
# 1 0.008806 -0.000923 -0.000748 -0.002210 -0.000131 0.003054
# 2 -0.000923 0.016750 -0.003450 -0.005554 0.000393 0.004191
# 3 -0.000748 -0.003450 0.010642 -0.004241 -0.002986 0.006409
# 4 -0.002210 -0.005554 -0.004241 0.058325 0.033392 -0.003371
# 5 -0.000131 0.000393 -0.002986 0.033392 0.062747 -0.006860
# 6 0.003054 0.004191 0.006409 -0.003371 -0.006860 0.053838
#
#
# Mechanical properties :
#
#
# Convention : Reuss Voigt Hill
#
# Bulk Modulus (GPa) = 38.52598 53.48344 46.00471
# Shear Modulus (GPa) = 21.73912 31.24595 26.49253
#
# Velocity S-wave (km/s) = 3.06546 3.67512 3.38404
# Velocity P-wave (km/s) = 5.40211 6.41308 5.92918
#
# Compressibility (1/GPa) = 0.02595651
#
# Stress axis : x y z
#
# Youngs Moduli (GPa) = 113.56500 59.70082 93.97114
#
# Poissons Ratio (x) = 0.05509 0.07029
# Poissons Ratio (y) = 0.10480 0.32416
# Poissons Ratio (z) = 0.08495 0.20594
#
# Static dielectric constant tensor:
#      x y z
#    x 2.011280 -0.050970 0.023720 
#    y -0.050970 1.955630 -0.157580 
#    z 0.023720 -0.157580 2.279680 
# 
# From -- ./inp_files/513941.got.cif
#   From: 2010.05.17/outbox.cif.g08.bks.cpg/sg2_257_cif.got.tgz:513941.got - 2010.06.03 11:33:40.
