data_PCOD9036361
_publ_section_title
;
Structure prediction by ZEFSAII (Michael W. Deem and Ramdas Pophale) SiO2 
 PCOD9036361
Probable space group: P -1
;
_chemical_formula_sum "Si O2"
_cell_formula_units_Z 16
_cell_length_a 17.978984
_cell_length_b 6.193261
_cell_length_c 8.588609
_cell_angle_alpha 94.707342
_cell_angle_beta 76.383082
_cell_angle_gamma 116.662942
_cell_volume 830.306122
_symmetry_space_group_name_H-M "P -1"
_symmetry_group_IT_number 2
_symmetry_cell_setting 'triclinic'
loop_
_space_group_symop_operation_xyz
x,y,z
-x,-y,-z
loop_
_atom_site_type_symbol
_atom_site_label
_atom_site_fract_x
_atom_site_fract_y
_atom_site_fract_z
Si Si1 0.256304 0.345524 0.705711
Si Si2 0.254851 0.150336 0.033272
Si Si3 0.569505 0.401239 0.496968
Si Si4 0.831493 0.363684 0.121279
Si Si5 0.570117 0.772434 0.943883
Si Si6 0.507502 0.002499 0.246296
Si Si7 0.918578 0.106043 0.207409
Si Si8 0.092908 0.180672 0.113478
O O1 0.334815 0.393106 0.558597
O O2 0.231798 0.566501 0.743459
O O3 0.167849 0.110271 0.697934
O O4 0.280152 0.306431 0.869466
O O5 0.336983 0.216576 0.101262
O O6 0.177610 0.189425 0.151417
O O7 0.218861 0.878715 0.967732
O O8 0.500000 0.500000 0.500000
O O9 0.559378 0.198830 0.361448
O O10 0.549144 0.253528 0.658428
O O11 0.898061 0.330754 0.202608
O O12 0.878926 0.577633 0.988450
O O13 0.545695 0.880722 0.811304
O O14 0.500000 0.500000 0.000000
O O15 0.566307 0.946198 0.093803
O O16 0.006925 0.140319 0.241864
O O17 0.926305 0.025306 0.020837
#
# Coordination Sequence:
#
# PCOD9036361 Si02
#       8
#     2   2   2   2   2   2   2   2
#     4   9  17  27  44  67  93 127 162 197 245 295
#     4   9  17  27  44  67  93 127 162 197 245 295
#     4  11  21  37  53  74 104 135 168 213 253 294
#     4   8  14  24  40  63  94 126 156 199 238 286
#     4  11  21  37  53  74 104 135 168 213 253 294
#     4  10  23  34  54  77  98 134 178 205 249 308
#     4   8  14  23  37  61  91 124 159 194 240 291
#     4   8  14  23  37  61  91 124 159 194 240 291
#
# _framework density 19.27
#
# number of rings (size 3 to 8) (size 9 to 14) (size 15 to 20)
#    0.000    3.250    0.000    3.375    0.000    7.000 
#    0.000    0.000    0.000    0.000    0.000    0.875 
#    0.000    6.000    0.000    0.250    0.000    1.250 
#
# Total GULP energy -89101.471548 kJ/mol
# GULP energy per Si atom -5568.841972 kJ/mol
# Density = 1.922614 g / cm^3
# Si number density = 19.270000 Si / 1000 Ang^3
#
#
#
# Elastic Constant Matrix: (Units=GPa)
#
#
# Indices 1 2 3 4 5 6 
#
# 1 170.5956 42.2236 26.9343 -26.9451 -28.3003 -8.8651
# 2 42.2236 54.6662 5.3352 -9.2992 -5.8496 -21.8580
# 3 26.9343 5.3352 35.0526 -14.8365 -5.6020 0.3183
# 4 -26.9451 -9.2992 -14.8365 24.2618 3.0073 1.6363
# 5 -28.3003 -5.8496 -5.6020 3.0073 25.0387 -5.5044
# 6 -8.8651 -21.8580 0.3183 1.6363 -5.5044 26.6241
#
#
#
# Elastic Compliance Matrix: (Units=1/GPa)
#
#
# Indices 1 2 3 4 5 6 
#
# 1 0.010137 -0.005320 -0.002886 0.006316 0.008920 0.000498
# 2 -0.005320 0.035666 0.002383 0.006226 0.008445 0.028845
# 3 -0.002886 0.002383 0.040218 0.021855 0.003652 -0.000074
# 4 0.006316 0.006226 0.021855 0.062818 0.006933 0.004526
# 5 0.008920 0.008445 0.003652 0.006933 0.056626 0.021141
# 6 0.000498 0.028845 -0.000074 0.004526 0.021141 0.065500
#
#
# Mechanical properties :
#
#
# Convention : Reuss Voigt Hill
#
# Bulk Modulus (GPa) = 13.44542 45.47784 29.46163
# Shear Modulus (GPa) = 16.26531 27.57299 21.91915
#
# Velocity S-wave (km/s) = 2.90845 3.78680 3.37631
# Velocity P-wave (km/s) = 4.27449 6.53998 5.52461
#
# Compressibility (1/GPa) = 0.07437476
#
# Stress axis : x y z
#
# Youngs Moduli (GPa) = 98.64402 28.03799 24.86460
#
# Poissons Ratio (x) = 0.14917 0.07175
# Poissons Ratio (y) = 0.52483 -0.05925
# Poissons Ratio (z) = 0.28464 -0.06681
#
# Static dielectric constant tensor:
#      x y z
#    x 1.755400 0.003670 -0.007030 
#    y 0.003670 1.699910 -0.005660 
#    z -0.007030 -0.005660 1.686240 
# 
# From -- ./inp_files/323686.got.cif
#   From: 2010.05.17/outbox.cif.g08.bks.cpg/sg2_162_cif.got.tgz:323686.got - 2010.06.03 11:33:40.
