data_PCOD9036928
_publ_section_title
;
Structure prediction by ZEFSAII (Michael W. Deem and Ramdas Pophale) SiO2 
 PCOD9036928
Probable space group: P -1
;
_chemical_formula_sum "Si O2"
_cell_formula_units_Z 16
_cell_length_a 11.332988
_cell_length_b 9.318972
_cell_length_c 17.421687
_cell_angle_alpha 61.143719
_cell_angle_beta 57.058995
_cell_angle_gamma 25.572769
_cell_volume 666.376876
_symmetry_space_group_name_H-M "P -1"
_symmetry_group_IT_number 2
_symmetry_cell_setting 'triclinic'
loop_
_space_group_symop_operation_xyz
x,y,z
-x,-y,-z
loop_
_atom_site_type_symbol
_atom_site_label
_atom_site_fract_x
_atom_site_fract_y
_atom_site_fract_z
Si Si1 0.999601 0.720259 0.866381
Si Si2 0.423589 0.680032 0.243746
Si Si3 0.869288 0.575028 0.779925
Si Si4 0.688047 0.369948 0.539769
Si Si5 0.953378 0.732979 0.483003
Si Si6 0.604820 0.975883 0.048071
Si Si7 0.187678 0.596148 0.289846
Si Si8 0.491043 0.056947 0.662351
O O1 0.254065 0.590902 0.811711
O O2 0.171013 0.373081 0.898691
O O3 0.798697 0.956555 0.802597
O O4 0.796441 0.929362 0.959327
O O5 0.391388 0.649433 0.350002
O O6 0.343721 0.608589 0.235841
O O7 0.355587 0.085298 0.273782
O O8 0.917960 0.362894 0.764654
O O9 0.161479 0.378632 0.715746
O O10 0.682436 0.705310 0.884466
O O11 0.500000 0.500000 0.500000
O O12 0.781735 0.459717 0.513487
O O13 0.000000 0.000000 0.500000
O O14 0.000000 0.500000 0.500000
O O15 0.945475 0.842695 0.378234
O O16 0.661728 0.013562 0.561527
O O17 0.500000 0.000000 0.000000
O O18 0.409675 0.224568 0.329514
#
# Coordination Sequence:
#
# PCOD9036928 Si02
#       8
#     2   2   2   2   2   2   2   2
#     4  11  25  43  72  99 126 189 232 289 363 441
#     4  11  23  44  71 100 141 187 239 278 368 443
#     4  10  23  39  66 101 134 174 227 305 358 412
#     4  11  25  46  67 105 153 192 234 303 358 425
#     4   9  19  45  69 106 140 196 245 296 348 428
#     4  11  25  47  70  97 138 174 237 308 368 425
#     4   8  21  41  67 101 143 180 230 298 346 423
#     4   9  21  38  63 104 135 176 234 291 356 408
#
# _framework density 24.010437
#
# number of rings (size 3 to 8) (size 9 to 14) (size 15 to 20)
#    0.750    1.250    1.250    0.750    5.250    2.500 
#    9.000    1.250    0.000    0.000    0.000    0.000 
#    0.000    0.000    0.000    0.000    0.000    0.000 
#
# Total GULP energy -89202.938712 kJ/mol
# GULP energy per Si atom -5575.183670 kJ/mol
# Density = 2.395579 g / cm^3
# Si number density = 24.010437 Si / 1000 Ang^3
#
#
#
# Elastic Constant Matrix: (Units=GPa)
#
#
# Indices 1 2 3 4 5 6 
#
# 1 141.2157 59.3040 84.8684 1.3541 -11.6844 -27.0625
# 2 59.3040 88.2017 61.7335 12.0200 -4.9584 -38.0940
# 3 84.8684 61.7335 238.5157 47.8315 -16.2862 -28.7626
# 4 1.3541 12.0200 47.8315 38.1188 -5.8607 -13.6650
# 5 -11.6844 -4.9584 -16.2862 -5.8607 45.1788 3.1873
# 6 -27.0625 -38.0940 -28.7626 -13.6650 3.1873 46.2362
#
#
#
# Elastic Compliance Matrix: (Units=1/GPa)
#
#
# Indices 1 2 3 4 5 6 
#
# 1 0.012316 -0.005298 -0.004102 0.007533 0.001934 0.002385
# 2 -0.005298 0.022722 -0.002561 0.001322 -0.000648 0.014462
# 3 -0.004102 -0.002561 0.008044 -0.009962 0.000440 -0.002482
# 4 0.007533 0.001322 -0.009962 0.042743 0.003221 0.011712
# 5 0.001934 -0.000648 0.000440 0.003221 0.023124 0.000230
# 6 0.002385 0.014462 -0.002482 0.011712 0.000230 0.036841
#
#
# Mechanical properties :
#
#
# Convention : Reuss Voigt Hill
#
# Bulk Modulus (GPa) = 52.19370 97.74944 74.97157
# Shear Modulus (GPa) = 28.39329 43.37525 35.88427
#
# Velocity S-wave (km/s) = 3.44254 4.25492 3.87011
# Velocity P-wave (km/s) = 6.13079 8.05846 7.15979
#
# Compressibility (1/GPa) = 0.01915940
#
# Stress axis : x y z
#
# Youngs Moduli (GPa) = 81.19279 44.01087 124.32151
#
# Poissons Ratio (x) = 0.23315 0.50999
# Poissons Ratio (y) = 0.43013 0.31843
# Poissons Ratio (z) = 0.33307 0.11273
#
# Static dielectric constant tensor:
#      x y z
#    x 2.032320 0.000620 -0.009230 
#    y 0.000620 2.052270 -0.076850 
#    z -0.009230 -0.076850 2.033540 
# 
# From -- ./inp_files/587965.got.cif
#   From: 2010.05.17/outbox.cif.g08.bks.cpg/sg2_294_cif.got.tgz:587965.got - 2010.06.03 11:33:40.
