data_PCOD9036440
_publ_section_title
;
Structure prediction by ZEFSAII (Michael W. Deem and Ramdas Pophale) SiO2 
 PCOD9036440
Probable space group: P -1
;
_chemical_formula_sum "Si O2"
_cell_formula_units_Z 14
_cell_length_a 8.135472
_cell_length_b 9.586242
_cell_length_c 17.090419
_cell_angle_alpha 41.935163
_cell_angle_beta 136.486726
_cell_angle_gamma 116.115220
_cell_volume 598.836087
_symmetry_space_group_name_H-M "P -1"
_symmetry_group_IT_number 2
_symmetry_cell_setting 'triclinic'
loop_
_space_group_symop_operation_xyz
x,y,z
-x,-y,-z
loop_
_atom_site_type_symbol
_atom_site_label
_atom_site_fract_x
_atom_site_fract_y
_atom_site_fract_z
Si Si1 0.307346 0.700634 0.885541
Si Si2 0.432603 0.050938 0.673404
Si Si3 0.247223 0.561113 0.087651
Si Si4 0.722167 0.186669 0.418921
Si Si5 0.705235 0.176777 0.589255
Si Si6 0.894693 0.517383 0.594717
Si Si7 0.163155 0.475215 0.255512
O O1 0.315639 0.703353 0.981668
O O2 0.457420 0.344973 0.254131
O O3 0.500000 0.500000 0.000000
O O4 0.045996 0.652358 0.788700
O O5 0.390104 0.901913 0.791770
O O6 0.681785 0.031587 0.717212
O O7 0.351424 0.295666 0.570287
O O8 0.261337 0.979712 0.576269
O O9 0.199674 0.630925 0.132132
O O10 0.000000 0.500000 0.000000
O O11 0.761194 0.081195 0.562399
O O12 0.902222 0.347204 0.405896
O O13 0.881600 0.333687 0.605893
O O14 0.430432 0.321780 0.424292
O O15 0.916372 0.427599 0.727818
#
# Coordination Sequence:
#
# PCOD9036440 Si02
#       7
#     2   2   2   2   2   2   2
#     4  11  19  34  55  85 114 147 192 243 277 325
#     4  11  21  35  58  89 117 144 190 239 283 334
#     4   9  19  34  55  85 114 148 184 239 286 318
#     4  11  20  37  61  89 114 144 196 239 279 334
#     4  10  23  37  57  84 122 151 179 232 298 346
#     4  11  21  38  59  85 120 152 181 230 299 345
#     4   9  18  33  56  78 111 147 188 224 289 328
#
# _framework density 23.378685000000001
#
# number of rings (size 3 to 8) (size 9 to 14) (size 15 to 20)
#    0.000    1.714    2.857    3.000    2.000    0.000 
#    2.571    0.000    0.000   15.429    0.000    0.000 
#    0.000    0.000    0.000    0.000    0.000    0.000 
#
# Total GULP energy -78143.133263 kJ/mol
# GULP energy per Si atom -5581.652376 kJ/mol
# Density = 2.332547 g / cm^3
# Si number density = 23.378685 Si / 1000 Ang^3
#
#
#
# Elastic Constant Matrix: (Units=GPa)
#
#
# Indices 1 2 3 4 5 6 
#
# 1 113.3322 18.2600 35.6340 -6.3910 -40.4433 17.3402
# 2 18.2600 74.0192 13.3442 9.1936 -11.2889 12.7180
# 3 35.6340 13.3442 67.2939 -5.6015 -29.4456 0.0900
# 4 -6.3910 9.1936 -5.6015 15.3374 9.0429 -0.5076
# 5 -40.4433 -11.2889 -29.4456 9.0429 67.9614 -5.2333
# 6 17.3402 12.7180 0.0900 -0.5076 -5.2333 30.6547
#
#
#
# Elastic Compliance Matrix: (Units=1/GPa)
#
#
# Indices 1 2 3 4 5 6 
#
# 1 0.013218 -0.000711 -0.004498 0.001030 0.005179 -0.006267
# 2 -0.000711 0.017441 -0.003150 -0.013535 0.002399 -0.006639
# 3 -0.004498 -0.003150 0.020648 0.004458 0.005523 0.004807
# 4 0.001030 -0.013535 0.004458 0.081536 -0.010197 0.004629
# 5 0.005179 0.002399 0.005523 -0.010197 0.021916 -0.000368
# 6 -0.006267 -0.006639 0.004807 0.004629 -0.000368 0.038921
#
#
# Mechanical properties :
#
#
# Convention : Reuss Voigt Hill
#
# Bulk Modulus (GPa) = 28.91107 43.23576 36.07342
# Shear Modulus (GPa) = 22.52990 35.28448 28.90719
#
# Velocity S-wave (km/s) = 3.10771 3.88913 3.52017
# Velocity P-wave (km/s) = 5.02697 6.22101 5.65559
#
# Compressibility (1/GPa) = 0.03458882
#
# Stress axis : x y z
#
# Youngs Moduli (GPa) = 75.65677 57.33583 48.43085
#
# Poissons Ratio (x) = 0.04077 0.21783
# Poissons Ratio (y) = 0.05380 0.15256
# Poissons Ratio (z) = 0.34028 0.18062
#
# Static dielectric constant tensor:
#      x y z
#    x 1.989590 0.005070 -0.026540 
#    y 0.005070 1.834760 -0.033140 
#    z -0.026540 -0.033140 1.943560 
# 
# From -- ./inp_files/494769.got.cif
#   From: 2010.05.17/outbox.cif.g08.bks.cpg/sg2_248_cif.got.tgz:494769.got - 2010.06.03 11:33:40.
