data_PCOD9036665
_publ_section_title
;
Structure prediction by ZEFSAII (Michael W. Deem and Ramdas Pophale) SiO2 
 PCOD9036665
Probable space group: P -1
;
_chemical_formula_sum "Si O2"
_cell_formula_units_Z 16
_cell_length_a 12.404240
_cell_length_b 10.682279
_cell_length_c 24.043238
_cell_angle_alpha 146.090218
_cell_angle_beta 156.056678
_cell_angle_gamma 47.592915
_cell_volume 669.690448
_symmetry_space_group_name_H-M "P -1"
_symmetry_group_IT_number 2
_symmetry_cell_setting 'triclinic'
loop_
_space_group_symop_operation_xyz
x,y,z
-x,-y,-z
loop_
_atom_site_type_symbol
_atom_site_label
_atom_site_fract_x
_atom_site_fract_y
_atom_site_fract_z
Si Si1 0.091985 0.132712 0.268281
Si Si2 0.836300 0.846447 0.813072
Si Si3 0.096317 0.415163 0.645359
Si Si4 0.262647 0.692498 0.661635
Si Si5 0.372820 0.601136 0.270490
Si Si6 0.287318 0.873903 0.419602
Si Si7 0.174928 0.689990 0.412658
Si Si8 0.631642 0.730151 0.946204
O O1 0.415553 0.160939 0.439203
O O2 0.032843 0.375516 0.331478
O O3 0.910467 0.965550 0.170637
O O4 0.025360 0.033758 0.136785
O O5 0.498115 0.804956 0.633516
O O6 0.854518 0.579683 0.720953
O O7 0.000000 0.000000 0.000000
O O8 0.415576 0.563103 0.827846
O O9 0.894222 0.237720 0.437639
O O10 0.049310 0.307897 0.644990
O O11 0.463728 0.556992 0.682831
O O12 0.453475 0.834819 0.856200
O O13 0.000000 0.500000 0.500000
O O14 0.608643 0.855880 0.454703
O O15 0.265846 0.449351 0.108425
O O16 0.166545 0.669554 0.239924
O O17 0.134661 0.825337 0.388415
#
# Coordination Sequence:
#
# PCOD9036665 Si02
#       8
#     2   2   2   2   2   2   2   2
#     4  10  18  29  48  77 103 126 159 214 259 296
#     4   9  19  29  48  76 102 134 172 203 257 312
#     4  10  17  33  49  73 101 126 167 203 260 300
#     4   8  16  30  49  68  96 122 163 206 237 292
#     4   9  19  32  51  72  95 134 175 200 244 309
#     4  10  19  34  49  71 103 133 170 200 253 308
#     4   9  20  32  50  70 106 139 158 217 256 295
#     4   9  19  29  50  74  96 129 164 210 248 294
#
# _framework density 23.891635000000001
#
# number of rings (size 3 to 8) (size 9 to 14) (size 15 to 20)
#    0.750    2.000    1.250    1.125    3.500    0.500 
#    0.000    0.625    0.000    0.000    0.000    3.500 
#    0.000    0.000    0.000    0.000    0.000    0.000 
#
# Total GULP energy -89102.725962 kJ/mol
# GULP energy per Si atom -5568.920373 kJ/mol
# Density = 2.383726 g / cm^3
# Si number density = 23.891635 Si / 1000 Ang^3
#
#
#
# Elastic Constant Matrix: (Units=GPa)
#
#
# Indices 1 2 3 4 5 6 
#
# 1 139.0608 31.5127 28.4253 -4.3051 6.4786 27.1750
# 2 31.5127 49.1535 12.6482 5.0861 -2.4637 -4.9123
# 3 28.4253 12.6482 61.4895 -1.8414 -7.5868 1.8059
# 4 -4.3051 5.0861 -1.8414 13.6589 4.7026 1.5161
# 5 6.4786 -2.4637 -7.5868 4.7026 40.4869 5.2164
# 6 27.1750 -4.9123 1.8059 1.5161 5.2164 29.9127
#
#
#
# Elastic Compliance Matrix: (Units=1/GPa)
#
#
# Indices 1 2 3 4 5 6 
#
# 1 0.013341 -0.010119 -0.003742 0.009959 -0.002861 -0.013562
# 2 -0.010119 0.030878 -0.002238 -0.017740 0.003241 0.014733
# 3 -0.003742 -0.002238 0.018905 0.000775 0.003761 0.001196
# 4 0.009959 -0.017740 0.000775 0.088441 -0.010921 -0.014586
# 5 -0.002861 0.003241 0.003761 -0.010921 0.027500 -0.001338
# 6 -0.013562 0.014733 0.001196 -0.014586 -0.001338 0.049071
#
#
# Mechanical properties :
#
#
# Convention : Reuss Voigt Hill
#
# Bulk Modulus (GPa) = 32.33504 43.87513 38.10508
# Shear Modulus (GPa) = 18.47449 28.61954 23.54701
#
# Velocity S-wave (km/s) = 2.78378 3.46481 3.14279
# Velocity P-wave (km/s) = 4.88835 5.86606 5.39938
#
# Compressibility (1/GPa) = 0.03092620
#
# Stress axis : x y z
#
# Youngs Moduli (GPa) = 74.95695 32.38521 52.89509
#
# Poissons Ratio (x) = 0.32772 0.19795
# Poissons Ratio (y) = 0.75851 0.11836
# Poissons Ratio (z) = 0.28051 0.07247
#
# Static dielectric constant tensor:
#      x y z
#    x 2.054080 0.067910 -0.091100 
#    y 0.067910 1.948320 -0.050690 
#    z -0.091100 -0.050690 2.030050 
# 
# From -- ./inp_files/610221.got.cif
#   From: 2010.05.17/outbox.cif.g08.bks.cpg/sg2_306_cif.got.tgz:610221.got - 2010.06.03 11:33:40.
