data_PCOD9036097
_publ_section_title
;
Structure prediction by ZEFSAII (Michael W. Deem and Ramdas Pophale) SiO2 
 PCOD9036097
Probable space group: P -1
;
_chemical_formula_sum "Si O2"
_cell_formula_units_Z 16
_cell_length_a 14.392072
_cell_length_b 15.057345
_cell_length_c 11.442159
_cell_angle_alpha 50.177757
_cell_angle_beta 70.144046
_cell_angle_gamma 28.386255
_cell_volume 715.474542
_symmetry_space_group_name_H-M "P -1"
_symmetry_group_IT_number 2
_symmetry_cell_setting 'triclinic'
loop_
_space_group_symop_operation_xyz
x,y,z
-x,-y,-z
loop_
_atom_site_type_symbol
_atom_site_label
_atom_site_fract_x
_atom_site_fract_y
_atom_site_fract_z
Si Si1 0.297154 0.925589 0.864594
Si Si2 0.698444 0.827392 0.717876
Si Si3 0.023306 0.769712 0.038921
Si Si4 0.830426 0.718208 0.499119
Si Si5 0.831542 0.457741 0.076418
Si Si6 0.966068 0.102432 0.765775
Si Si7 0.053336 0.057485 0.503721
Si Si8 0.533135 0.681204 0.611634
O O1 0.188445 0.123890 0.642099
O O2 0.576981 0.661188 0.988685
O O3 0.149391 0.106440 0.896326
O O4 0.223906 0.876320 0.896923
O O5 0.869889 0.646130 0.679880
O O6 0.437805 0.047279 0.609966
O O7 0.615893 0.046161 0.598727
O O8 0.795888 0.634018 0.937141
O O9 0.306966 0.453243 0.229449
O O10 0.000758 0.751460 0.931901
O O11 0.958577 0.974488 0.898127
O O12 0.000000 0.500000 0.500000
O O13 0.930988 0.296298 0.287850
O O14 0.746729 0.406278 0.666808
O O15 0.948245 0.146279 0.600523
O O16 0.339764 0.785623 0.623433
O O17 0.000000 0.000000 0.500000
#
# Coordination Sequence:
#
# PCOD9036097 Si02
#       8
#     2   2   2   2   2   2   2   2
#     4  10  21  36  62  94 122 157 202 257 308 361
#     4  10  21  38  60  91 126 164 202 250 307 367
#     4  11  22  39  66  95 124 162 207 259 311 363
#     4  10  17  32  60  92 126 156 198 253 306 365
#     4  11  24  41  63  93 129 163 207 253 307 372
#     4  11  24  41  64  92 125 165 210 257 311 368
#     4  12  27  43  62  91 126 170 208 256 312 368
#     4  11  24  42  65  93 126 162 209 258 309 373
#
# _framework density 22.362780000000001
#
# number of rings (size 3 to 8) (size 9 to 14) (size 15 to 20)
#    0.000    1.250    1.250    7.500    3.500    3.000 
#    0.000    0.625    0.000    0.000    0.000    0.000 
#    0.000    0.000    0.000    0.000    0.000    0.000 
#
# Total GULP energy -89419.195047 kJ/mol
# GULP energy per Si atom -5588.699690 kJ/mol
# Density = 2.231188 g / cm^3
# Si number density = 22.362780 Si / 1000 Ang^3
#
#
#
# Elastic Constant Matrix: (Units=GPa)
#
#
# Indices 1 2 3 4 5 6 
#
# 1 58.2167 19.9516 11.4641 -4.2705 -22.9155 1.8573
# 2 19.9516 121.0496 38.5545 16.6990 -6.1144 -6.5862
# 3 11.4641 38.5545 126.5148 21.4166 -27.1625 -0.9090
# 4 -4.2705 16.6990 21.4166 32.5901 2.5708 -11.0552
# 5 -22.9155 -6.1144 -27.1625 2.5708 34.7272 1.1960
# 6 1.8573 -6.5862 -0.9090 -11.0552 1.1960 23.6141
#
#
#
# Elastic Compliance Matrix: (Units=1/GPa)
#
#
# Indices 1 2 3 4 5 6 
#
# 1 0.025580 -0.004531 0.002750 0.001233 0.018262 -0.003518
# 2 -0.004531 0.010289 -0.002893 -0.003083 -0.003276 0.001837
# 3 0.002750 -0.002893 0.012668 -0.009303 0.012092 -0.005503
# 4 0.001233 -0.003083 -0.009303 0.046560 -0.011177 0.021049
# 5 0.018262 -0.003276 0.012092 -0.011177 0.050889 -0.009695
# 6 -0.003518 0.001837 -0.005503 0.021049 -0.009695 0.053270
#
#
# Mechanical properties :
#
#
# Convention : Reuss Voigt Hill
#
# Bulk Modulus (GPa) = 25.51812 49.52462 37.52137
# Shear Modulus (GPa) = 22.55628 33.90701 28.23164
#
# Velocity S-wave (km/s) = 3.17937 3.89810 3.55694
# Velocity P-wave (km/s) = 4.99136 6.51570 5.80379
#
# Compressibility (1/GPa) = 0.03918785
#
# Stress axis : x y z
#
# Youngs Moduli (GPa) = 39.09375 97.18983 78.93855
#
# Poissons Ratio (x) = 0.44035 -0.21706
# Poissons Ratio (y) = 0.17713 0.22840
# Poissons Ratio (z) = -0.10750 0.28121
#
# Static dielectric constant tensor:
#      x y z
#    x 1.851660 0.021560 -0.012260 
#    y 0.021560 1.819660 -0.016850 
#    z -0.012260 -0.016850 1.852040 
# 
# From -- ./inp_files/455544.got.cif
#   From: 2010.05.17/outbox.cif.g08.bks.cpg/sg2_228_cif.got.tgz:455544.got - 2010.06.03 11:33:40.
