data_PCOD9036593
_publ_section_title
;
Structure prediction by ZEFSAII (Michael W. Deem and Ramdas Pophale) SiO2 
 PCOD9036593
Probable space group: P -1
;
_chemical_formula_sum "Si O2"
_cell_formula_units_Z 16
_cell_length_a 14.518942
_cell_length_b 8.219610
_cell_length_c 14.616293
_cell_angle_alpha 125.183504
_cell_angle_beta 55.306791
_cell_angle_gamma 147.230993
_cell_volume 757.364273
_symmetry_space_group_name_H-M "P -1"
_symmetry_group_IT_number 2
_symmetry_cell_setting 'triclinic'
loop_
_space_group_symop_operation_xyz
x,y,z
-x,-y,-z
loop_
_atom_site_type_symbol
_atom_site_label
_atom_site_fract_x
_atom_site_fract_y
_atom_site_fract_z
Si Si1 0.075560 0.784764 0.833767
Si Si2 0.682175 0.201751 0.846620
Si Si3 0.511635 0.704978 0.934505
Si Si4 0.968913 0.026981 0.260072
Si Si5 0.874244 0.141457 0.963381
Si Si6 0.713530 0.265856 0.638802
Si Si7 0.359156 0.243839 0.570424
Si Si8 0.566286 0.803630 0.287895
O O1 0.074539 0.953249 0.811340
O O2 0.884392 0.432234 0.824627
O O3 0.235963 0.863529 0.738111
O O4 0.109744 0.903633 0.955276
O O5 0.649586 0.139697 0.737674
O O6 0.566203 0.900218 0.875853
O O7 0.637742 0.367089 0.956718
O O8 0.470001 0.425537 0.836861
O O9 0.678246 0.929065 0.979071
O O10 0.109373 0.369649 0.333251
O O11 0.790122 0.795536 0.341043
O O12 0.057489 0.935157 0.168162
O O13 0.000000 0.500000 0.000000
O O14 0.570707 0.208308 0.651815
O O15 0.732129 0.082176 0.518461
O O16 0.500000 0.500000 0.500000
O O17 0.441312 0.298499 0.639513
#
# Coordination Sequence:
#
# PCOD9036593 Si02
#       8
#     2   2   2   2   2   2   2   2
#     4  10  23  38  62  94 129 172 204 252 314 383
#     4  10  23  39  62  92 132 172 206 256 321 384
#     4  11  23  39  60  95 133 170 206 261 321 382
#     4  10  24  42  67  91 127 171 215 260 314 383
#     4  12  23  39  63  98 135 165 210 258 319 381
#     4  11  22  44  66  93 126 168 219 263 315 370
#     4  11  25  45  68  91 125 169 217 267 321 374
#     4  11  24  40  67  95 127 163 219 263 319 373
#
# _framework density 21.125897999999999
#
# number of rings (size 3 to 8) (size 9 to 14) (size 15 to 20)
#    0.000    1.250    2.500    2.625    7.000    3.000 
#    0.000    0.625    0.000    0.000    0.000    0.000 
#    0.000    0.000    0.000    0.000    0.000    0.000 
#
# Total GULP energy -89498.423128 kJ/mol
# GULP energy per Si atom -5593.651446 kJ/mol
# Density = 2.107781 g / cm^3
# Si number density = 21.125898 Si / 1000 Ang^3
#
#
#
# Elastic Constant Matrix: (Units=GPa)
#
#
# Indices 1 2 3 4 5 6 
#
# 1 70.5769 26.0379 16.5127 -8.1763 0.4638 27.5140
# 2 26.0379 79.7855 29.6454 -7.8532 -1.3752 13.9678
# 3 16.5127 29.6454 62.8126 -5.2238 3.0558 4.5754
# 4 -8.1763 -7.8532 -5.2238 38.8066 4.0915 -10.7458
# 5 0.4638 -1.3752 3.0558 4.0915 29.1081 7.6399
# 6 27.5140 13.9678 4.5754 -10.7458 7.6399 18.8798
#
#
#
# Elastic Compliance Matrix: (Units=1/GPa)
#
#
# Indices 1 2 3 4 5 6 
#
# 1 0.050499 0.002787 -0.010635 -0.019743 0.028361 -0.095792
# 2 0.002787 0.018128 -0.008446 -0.003306 0.007503 -0.020343
# 3 -0.010635 -0.008446 0.021978 0.006765 -0.009855 0.024260
# 4 -0.019743 -0.003306 0.006765 0.041543 -0.022780 0.062441
# 5 0.028361 0.007503 -0.009855 -0.022780 0.059941 -0.081715
# 6 -0.095792 -0.020343 0.024260 0.062441 -0.081715 0.270344
#
#
# Mechanical properties :
#
#
# Convention : Reuss Voigt Hill
#
# Bulk Modulus (GPa) = 17.23677 39.72967 28.48322
# Shear Modulus (GPa) = 9.72080 26.75751 18.23915
#
# Velocity S-wave (km/s) = 2.14741 3.56276 2.94148
# Velocity P-wave (km/s) = 3.78487 5.98091 5.00482
#
# Compressibility (1/GPa) = 0.05801550
#
# Stress axis : x y z
#
# Youngs Moduli (GPa) = 19.80227 55.16350 45.50103
#
# Poissons Ratio (x) = -0.15372 0.48390
# Poissons Ratio (y) = -0.05518 0.38432
# Poissons Ratio (z) = 0.21059 0.46593
#
# Static dielectric constant tensor:
#      x y z
#    x 1.747910 -0.003530 0.006830 
#    y -0.003530 1.784750 0.001700 
#    z 0.006830 0.001700 1.739790 
# 
# From -- ./inp_files/199448.got.cif
#   From: 2010.05.17/outbox.cif.g08.bks.cpg/sg2_100_cif.got.tgz:199448.got - 2010.06.03 11:33:40.
