data_PCOD9036605
_publ_section_title
;
Structure prediction by ZEFSAII (Michael W. Deem and Ramdas Pophale) SiO2 
 PCOD9036605
Probable space group: P -1
;
_chemical_formula_sum "Si O2"
_cell_formula_units_Z 12
_cell_length_a 14.240776
_cell_length_b 9.885034
_cell_length_c 7.340281
_cell_angle_alpha 47.619894
_cell_angle_beta 132.476224
_cell_angle_gamma 101.045684
_cell_volume 492.699345
_symmetry_space_group_name_H-M "P -1"
_symmetry_group_IT_number 2
_symmetry_cell_setting 'triclinic'
loop_
_space_group_symop_operation_xyz
x,y,z
-x,-y,-z
loop_
_atom_site_type_symbol
_atom_site_label
_atom_site_fract_x
_atom_site_fract_y
_atom_site_fract_z
Si Si1 0.801671 0.471611 0.740321
Si Si2 0.329184 0.111862 0.222890
Si Si3 0.670003 0.914422 0.325558
Si Si4 0.912428 0.438891 0.579057
Si Si5 0.653974 0.343150 0.938715
Si Si6 0.264386 0.743462 0.472304
O O1 0.742548 0.714509 0.476310
O O2 0.948702 0.393895 0.882413
O O3 0.777465 0.392334 0.975544
O O4 0.715273 0.389955 0.564390
O O5 0.301711 0.143581 0.373503
O O6 0.500000 0.000000 0.500000
O O7 0.269633 0.952073 0.239000
O O8 0.241129 0.343863 0.819000
O O9 0.500000 0.000000 0.000000
O O10 0.699380 0.106540 0.157849
O O11 0.885217 0.248351 0.660458
O O12 0.000000 0.500000 0.500000
O O13 0.500000 0.500000 0.500000
O O14 0.638422 0.353969 0.129634
#
# Coordination Sequence:
#
# PCOD9036605 Si02
#       6
#     2   2   2   2   2   2
#     4  10  23  38  63  89 125 171 219 266 325 376
#     4  11  24  41  68  98 138 170 219 275 334 394
#     4  11  22  37  57  96 130 171 210 268 326 392
#     4  10  24  44  68  94 131 178 227 269 325 391
#     4  11  22  38  59  92 138 168 214 268 333 401
#     4   9  25  41  62  96 129 175 218 266 335 386
#
# _framework density 24.355623000000001
#
# number of rings (size 3 to 8) (size 9 to 14) (size 15 to 20)
#    1.000    0.667    1.667    2.000    7.000    2.000 
#    0.000    4.167    0.000    4.000    0.000    0.000 
#    0.000    0.000    0.000    0.000    0.000    0.000 
#
# Total GULP energy -66856.060532 kJ/mol
# GULP energy per Si atom -5571.338378 kJ/mol
# Density = 2.430019 g / cm^3
# Si number density = 24.355623 Si / 1000 Ang^3
#
#
#
# Elastic Constant Matrix: (Units=GPa)
#
#
# Indices 1 2 3 4 5 6 
#
# 1 105.4080 8.4795 -9.4558 -26.1150 -14.5062 12.2210
# 2 8.4795 152.3564 34.1182 -28.8784 -0.8747 -8.0089
# 3 -9.4558 34.1182 56.2789 -17.4406 -16.3058 -2.7731
# 4 -26.1150 -28.8784 -17.4406 33.5255 5.8944 -15.8282
# 5 -14.5062 -0.8747 -16.3058 5.8944 30.1014 -1.7637
# 6 12.2210 -8.0089 -2.7731 -15.8282 -1.7637 49.9306
#
#
#
# Elastic Compliance Matrix: (Units=1/GPa)
#
#
# Indices 1 2 3 4 5 6 
#
# 1 0.016115 0.000197 0.011414 0.018147 0.010568 0.002847
# 2 0.000197 0.009145 -0.003558 0.008509 -0.003010 0.003812
# 3 0.011414 -0.003558 0.035517 0.024000 0.020343 0.006935
# 4 0.018147 0.008509 0.024000 0.072335 0.009089 0.021508
# 5 0.010568 -0.003010 0.020343 0.009089 0.047620 0.002624
# 6 0.002847 0.003812 0.006935 0.021508 0.002624 0.027238
#
#
# Mechanical properties :
#
#
# Convention : Reuss Voigt Hill
#
# Bulk Modulus (GPa) = 13.00690 42.25858 27.63274
# Shear Modulus (GPa) = 22.98930 41.43828 32.21379
#
# Velocity S-wave (km/s) = 3.07563 4.12926 3.64076
# Velocity P-wave (km/s) = 4.23848 6.33425 5.38922
#
# Compressibility (1/GPa) = 0.07688227
#
# Stress axis : x y z
#
# Youngs Moduli (GPa) = 62.05351 109.34452 28.15580
#
# Poissons Ratio (x) = -0.02155 -0.32137
# Poissons Ratio (y) = -0.01223 0.10019
# Poissons Ratio (z) = -0.70827 0.38909
#
# Static dielectric constant tensor:
#      x y z
#    x 2.070090 0.154510 -0.106330 
#    y 0.154510 3.129220 -0.621120 
#    z -0.106330 -0.621120 2.368300 
# 
# From -- ./inp_files/302144.got.cif
#   From: 2010.05.17/outbox.cif.g08.bks.cpg/sg2_152_cif.got.tgz:302144.got - 2010.06.03 11:33:40.
