data_PCOD9036615
_publ_section_title
;
Structure prediction by ZEFSAII (Michael W. Deem and Ramdas Pophale) SiO2 
 PCOD9036615
Probable space group: P -1
;
_chemical_formula_sum "Si O2"
_cell_formula_units_Z 12
_cell_length_a 13.801128
_cell_length_b 7.382196
_cell_length_c 8.217040
_cell_angle_alpha 52.714170
_cell_angle_beta 40.871455
_cell_angle_gamma 55.068803
_cell_volume 425.183242
_symmetry_space_group_name_H-M "P -1"
_symmetry_group_IT_number 2
_symmetry_cell_setting 'triclinic'
loop_
_space_group_symop_operation_xyz
x,y,z
-x,-y,-z
loop_
_atom_site_type_symbol
_atom_site_label
_atom_site_fract_x
_atom_site_fract_y
_atom_site_fract_z
Si Si1 0.693288 0.827591 0.727082
Si Si2 0.673057 0.329852 0.935474
Si Si3 0.992321 0.920910 0.236642
Si Si4 0.184925 0.383706 0.011558
Si Si5 0.602740 0.287566 0.383929
Si Si6 0.149916 0.626960 0.609984
O O1 0.626260 0.608921 0.879699
O O2 0.868919 0.762082 0.484691
O O3 0.620871 0.060374 0.596632
O O4 0.710961 0.823118 0.903925
O O5 0.707350 0.337717 0.694206
O O6 0.844837 0.187035 0.837621
O O7 0.577907 0.238462 0.251345
O O8 0.913620 0.141512 0.328622
O O9 0.000000 0.000000 0.000000
O O10 0.244427 0.608176 0.873444
O O11 0.199084 0.402437 0.788884
O O12 0.007610 0.399824 0.258425
O O13 0.500000 0.500000 0.500000
#
# Coordination Sequence:
#
# PCOD9036615 Si02
#       6
#     2   2   2   2   2   2
#     4  11  22  40  65  95 130 170 216 265 325 386
#     4  11  24  37  65 101 134 165 213 270 327 390
#     4  12  21  37  65 100 134 171 206 263 340 395
#     4  10  23  38  63  96 132 169 208 264 323 386
#     4  11  25  46  68  91 128 183 229 261 311 386
#     4  11  23  39  63 105 141 162 203 272 340 387
#
# _framework density 28.223126000000001
#
# number of rings (size 3 to 8) (size 9 to 14) (size 15 to 20)
#    0.000    1.000    5.000    2.000    7.000    2.667 
#    0.000    0.833    0.000    5.000    0.000    0.000 
#    0.000    0.000    0.000    0.000    0.000    0.000 
#
# Total GULP energy -67015.195795 kJ/mol
# GULP energy per Si atom -5584.599650 kJ/mol
# Density = 2.815889 g / cm^3
# Si number density = 28.223126 Si / 1000 Ang^3
#
#
#
# Elastic Constant Matrix: (Units=GPa)
#
#
# Indices 1 2 3 4 5 6 
#
# 1 55.0775 26.2928 54.1924 0.7663 24.4753 -2.8832
# 2 26.2928 153.3747 83.8939 -6.1918 28.8075 -19.4194
# 3 54.1924 83.8939 187.3824 4.4699 48.1014 -14.1955
# 4 0.7663 -6.1918 4.4699 66.7400 -7.9443 7.2127
# 5 24.4753 28.8075 48.1014 -7.9443 57.8372 -23.2091
# 6 -2.8832 -19.4194 -14.1955 7.2127 -23.2091 30.7085
#
#
#
# Elastic Compliance Matrix: (Units=1/GPa)
#
#
# Indices 1 2 3 4 5 6 
#
# 1 0.028335 -0.000798 -0.005879 -0.000326 -0.009966 -0.008018
# 2 -0.000798 0.009146 -0.003742 0.000725 0.000750 0.004376
# 3 -0.005879 -0.003742 0.009810 -0.001317 -0.004615 -0.001562
# 4 -0.000326 0.000725 -0.001317 0.015638 0.002115 -0.002256
# 5 -0.009966 0.000750 -0.004615 0.002115 0.034479 0.022967
# 6 -0.008018 0.004376 -0.001562 -0.002256 0.022967 0.051745
#
#
# Mechanical properties :
#
#
# Convention : Reuss Voigt Hill
#
# Bulk Modulus (GPa) = 37.80336 80.51032 59.15684
# Shear Modulus (GPa) = 27.96281 46.48749 37.22515
#
# Velocity S-wave (km/s) = 3.15107 4.06290 3.63569
# Velocity P-wave (km/s) = 5.16358 7.11322 6.21532
#
# Compressibility (1/GPa) = 0.02645268
#
# Stress axis : x y z
#
# Youngs Moduli (GPa) = 35.29202 109.33421 101.93636
#
# Poissons Ratio (x) = 0.08729 0.59924
# Poissons Ratio (y) = 0.02818 0.38149
# Poissons Ratio (z) = 0.20747 0.40917
#
# Static dielectric constant tensor:
#      x y z
#    x 2.523090 0.043850 0.033800 
#    y 0.043850 2.179820 0.020970 
#    z 0.033800 0.020970 2.276740 
# 
# From -- ./inp_files/325528.got.cif
#   From: 2010.05.17/outbox.cif.g08.bks.cpg/sg2_163_cif.got.tgz:325528.got - 2010.06.03 11:33:40.
