data_PCOD9036170
_publ_section_title
;
Structure prediction by ZEFSAII (Michael W. Deem and Ramdas Pophale) SiO2 
 PCOD9036170
Probable space group: P -1
;
_chemical_formula_sum "Si O2"
_cell_formula_units_Z 12
_cell_length_a 9.019470
_cell_length_b 15.094955
_cell_length_c 9.390480
_cell_angle_alpha 29.595187
_cell_angle_beta 43.036678
_cell_angle_gamma 48.397248
_cell_volume 429.384092
_symmetry_space_group_name_H-M "P -1"
_symmetry_group_IT_number 2
_symmetry_cell_setting 'triclinic'
loop_
_space_group_symop_operation_xyz
x,y,z
-x,-y,-z
loop_
_atom_site_type_symbol
_atom_site_label
_atom_site_fract_x
_atom_site_fract_y
_atom_site_fract_z
Si Si1 0.001740 0.486669 0.689058
Si Si2 0.359273 0.075929 0.859979
Si Si3 0.620517 0.405048 0.259388
Si Si4 0.471951 0.207382 0.106753
Si Si5 0.904743 0.147642 0.966577
Si Si6 0.042451 0.182864 0.298698
O O1 0.096955 0.122011 0.984373
O O2 0.000000 0.500000 0.500000
O O3 0.089640 0.677655 0.383364
O O4 0.756108 0.479530 0.928507
O O5 0.451091 0.272365 0.504373
O O6 0.426293 0.925007 0.904416
O O7 0.121052 0.328756 0.923335
O O8 0.500000 0.000000 0.000000
O O9 0.812263 0.277773 0.379730
O O10 0.541392 0.574282 0.175438
O O11 0.218058 0.172038 0.316171
O O12 0.651222 0.153150 0.180891
O O13 0.000000 0.000000 0.000000
O O14 0.000000 0.000000 0.500000
#
# Coordination Sequence:
#
# PCOD9036170 Si02
#       6
#     2   2   2   2   2   2
#     4  10  25  47  73 117 159 207 270 326 402 482
#     4  11  26  47  80 117 158 214 271 331 411 489
#     4  10  25  46  79 115 158 212 273 329 403 481
#     4  11  23  49  75 117 156 211 267 340 398 479
#     4  10  26  48  71 115 160 207 269 334 404 485
#     4  10  22  47  80 115 154 210 269 334 400 483
#
# _framework density 27.947005999999998
#
# number of rings (size 3 to 8) (size 9 to 14) (size 15 to 20)
#    1.000    0.667    1.667    0.500    4.667    4.667 
#    6.000    1.667    0.000    0.000    0.000    0.000 
#    0.000    0.000    0.000    0.000    0.000    0.000 
#
# Total GULP energy -66949.289418 kJ/mol
# GULP energy per Si atom -5579.107452 kJ/mol
# Density = 2.788340 g / cm^3
# Si number density = 27.947006 Si / 1000 Ang^3
#
#
#
# Elastic Constant Matrix: (Units=GPa)
#
#
# Indices 1 2 3 4 5 6 
#
# 1 204.3489 78.8469 68.2984 -4.3169 -13.1902 -59.6159
# 2 78.8469 140.3263 65.0882 -37.7081 -22.5339 -21.4341
# 3 68.2984 65.0882 167.8483 -26.8492 -7.4535 -1.6497
# 4 -4.3169 -37.7081 -26.8492 66.7156 -6.9882 0.1605
# 5 -13.1902 -22.5339 -7.4535 -6.9882 59.5104 7.6366
# 6 -59.6159 -21.4341 -1.6497 0.1605 7.6366 64.3440
#
#
#
# Elastic Compliance Matrix: (Units=1/GPa)
#
#
# Indices 1 2 3 4 5 6 
#
# 1 0.009281 -0.003687 -0.002749 -0.002707 -0.000953 0.007420
# 2 -0.003687 0.012719 -0.002186 0.006538 0.004465 0.000219
# 3 -0.002749 -0.002186 0.008210 0.001921 0.000214 -0.003095
# 4 -0.002707 0.006538 0.001921 0.019760 0.004548 -0.000871
# 5 -0.000953 0.004465 0.000214 0.004548 0.019057 -0.001664
# 6 0.007420 0.000219 -0.003095 -0.000871 -0.001664 0.022610
#
#
# Mechanical properties :
#
#
# Convention : Reuss Voigt Hill
#
# Bulk Modulus (GPa) = 77.12191 104.11006 90.61599
# Shear Modulus (GPa) = 44.16809 58.13332 51.15071
#
# Velocity S-wave (km/s) = 3.97977 4.56579 4.28281
# Velocity P-wave (km/s) = 6.98382 8.07024 7.54661
#
# Compressibility (1/GPa) = 0.01296648
#
# Stress axis : x y z
#
# Youngs Moduli (GPa) = 107.74586 78.62379 121.79693
#
# Poissons Ratio (x) = 0.28988 0.33486
# Poissons Ratio (y) = 0.39725 0.26621
# Poissons Ratio (z) = 0.29623 0.17185
#
# Static dielectric constant tensor:
#      x y z
#    x 2.194720 0.021490 -0.118570 
#    y 0.021490 2.237830 -0.104890 
#    z -0.118570 -0.104890 2.474360 
# 
# From -- ./inp_files/432190.got.cif
#   From: 2010.05.17/outbox.cif.g08.bks.cpg/sg2_217_cif.got.tgz:432190.got - 2010.06.03 11:33:40.
