data_PCOD9036489
_publ_section_title
;
Structure prediction by ZEFSAII (Michael W. Deem and Ramdas Pophale) SiO2 
 PCOD9036489
Probable space group: P -1
;
_chemical_formula_sum "Si O2"
_cell_formula_units_Z 14
_cell_length_a 25.262834
_cell_length_b 10.287413
_cell_length_c 12.923814
_cell_angle_alpha 35.913038
_cell_angle_beta 26.841313
_cell_angle_gamma 26.991071
_cell_volume 686.483020
_symmetry_space_group_name_H-M "P -1"
_symmetry_group_IT_number 2
_symmetry_cell_setting 'triclinic'
loop_
_space_group_symop_operation_xyz
x,y,z
-x,-y,-z
loop_
_atom_site_type_symbol
_atom_site_label
_atom_site_fract_x
_atom_site_fract_y
_atom_site_fract_z
Si Si1 0.889995 0.802801 0.553881
Si Si2 0.400565 0.138611 0.481088
Si Si3 0.102920 0.289777 0.861464
Si Si4 0.081541 0.824720 0.865694
Si Si5 0.914663 0.282497 0.538387
Si Si6 0.324619 0.656501 0.184142
Si Si7 0.697008 0.840835 0.034327
O O1 0.000000 0.500000 0.500000
O O2 0.994786 0.785983 0.471247
O O3 0.842637 0.054244 0.397550
O O4 0.748707 0.846949 0.825080
O O5 0.277848 0.092329 0.718328
O O6 0.304405 0.485987 0.416369
O O7 0.500000 0.000000 0.500000
O O8 0.522448 0.997979 0.265305
O O9 0.092597 0.476153 0.664390
O O10 0.000000 0.500000 0.000000
O O11 0.040949 0.135083 0.024920
O O12 0.201535 0.486389 0.896534
O O13 0.000000 0.000000 0.000000
O O14 0.745122 0.379305 0.771657
O O15 0.000000 0.000000 0.500000
O O16 0.500000 0.500000 0.000000
O O17 0.259939 0.982785 0.094157
#
# Coordination Sequence:
#
# PCOD9036489 Si02
#       7
#     2   2   2   2   2   2   2
#     4  12  24  40  67  95 128 171 219 267 320 381
#     4  10  23  37  63  99 134 169 210 264 333 378
#     4  11  22  38  64  97 128 165 217 267 320 383
#     4  12  24  42  68  94 127 172 220 267 319 383
#     4  11  19  35  61  93 121 163 212 265 313 374
#     4   9  20  37  59  90 128 163 204 264 320 373
#     4  11  22  42  63  91 133 169 214 264 321 379
#
# _framework density 20.393802999999998
#
# number of rings (size 3 to 8) (size 9 to 14) (size 15 to 20)
#    0.000    1.143    4.286    1.714    4.000    2.286 
#    0.000    0.714    0.000    8.571    0.000    0.000 
#    0.000    0.000    0.000    0.000    0.000    0.000 
#
# Total GULP energy -78066.318088 kJ/mol
# GULP energy per Si atom -5576.165578 kJ/mol
# Density = 2.034739 g / cm^3
# Si number density = 20.393803 Si / 1000 Ang^3
#
#
#
# Elastic Constant Matrix: (Units=GPa)
#
#
# Indices 1 2 3 4 5 6 
#
# 1 77.6949 31.0442 26.4062 15.5065 -2.6328 6.4210
# 2 31.0442 107.9161 41.8176 -10.5600 3.2867 -0.8096
# 3 26.4062 41.8176 134.6770 11.1218 3.4187 -1.3777
# 4 15.5065 -10.5600 11.1218 44.3233 -11.2393 6.2494
# 5 -2.6328 3.2867 3.4187 -11.2393 35.3268 -2.2124
# 6 6.4210 -0.8096 -1.3777 6.2494 -2.2124 35.2982
#
#
#
# Elastic Compliance Matrix: (Units=1/GPa)
#
#
# Indices 1 2 3 4 5 6 
#
# 1 0.016741 -0.004995 -0.001202 -0.006551 -0.000385 -0.002071
# 2 -0.004995 0.012570 -0.003413 0.005744 0.000621 0.000086
# 3 -0.001202 -0.003413 0.009035 -0.003202 -0.001605 0.000959
# 4 -0.006551 0.005744 -0.003202 0.029680 0.008509 -0.003523
# 5 -0.000385 0.000621 -0.001605 0.008509 0.031112 0.000465
# 6 -0.002071 0.000086 0.000959 -0.003523 0.000465 0.029399
#
#
# Mechanical properties :
#
#
# Convention : Reuss Voigt Hill
#
# Bulk Modulus (GPa) = 52.28300 57.64712 54.96506
# Shear Modulus (GPa) = 32.43981 37.72432 35.08207
#
# Velocity S-wave (km/s) = 3.99265 4.30559 4.15207
# Velocity P-wave (km/s) = 6.85181 7.28325 7.07083
#
# Compressibility (1/GPa) = 0.01912668
#
# Stress axis : x y z
#
# Youngs Moduli (GPa) = 59.73480 79.55718 110.67470
#
# Poissons Ratio (x) = 0.39738 0.13301
# Poissons Ratio (y) = 0.29837 0.37771
# Poissons Ratio (z) = 0.07179 0.27151
#
# Static dielectric constant tensor:
#      x y z
#    x 1.756040 -0.039090 -0.008560 
#    y -0.039090 1.795250 0.020650 
#    z -0.008560 0.020650 1.810820 
# 
# From -- ./inp_files/332550.got.cif
#   From: 2010.05.17/outbox.cif.g08.bks.cpg/sg2_167_cif.got.tgz:332550.got - 2010.06.03 11:33:40.
