data_PCOD9036450
_publ_section_title
;
Structure prediction by ZEFSAII (Michael W. Deem and Ramdas Pophale) SiO2 
 PCOD9036450
Probable space group: P -1
;
_chemical_formula_sum "Si O2"
_cell_formula_units_Z 16
_cell_length_a 5.222903
_cell_length_b 8.617679
_cell_length_c 18.520034
_cell_angle_alpha 69.723277
_cell_angle_beta 106.390842
_cell_angle_gamma 96.974956
_cell_volume 749.880328
_symmetry_space_group_name_H-M "P -1"
_symmetry_group_IT_number 2
_symmetry_cell_setting 'triclinic'
loop_
_space_group_symop_operation_xyz
x,y,z
-x,-y,-z
loop_
_atom_site_type_symbol
_atom_site_label
_atom_site_fract_x
_atom_site_fract_y
_atom_site_fract_z
Si Si1 0.509710 0.995423 0.250954
Si Si2 0.161821 0.895494 0.973875
Si Si3 0.400897 0.073401 0.575725
Si Si4 0.278388 0.467852 0.878218
Si Si5 0.871138 0.857878 0.589109
Si Si6 0.958106 0.774210 0.764265
Si Si7 0.474335 0.178962 0.867299
Si Si8 0.783185 0.637237 0.952817
O O1 0.562204 0.884161 0.344212
O O2 0.438256 0.880295 0.194776
O O3 0.780045 0.101621 0.235726
O O4 0.287031 0.123568 0.239227
O O5 0.952156 0.800532 0.922346
O O6 0.343965 0.013623 0.920193
O O7 0.300120 0.776168 0.062142
O O8 0.000000 0.000000 0.000000
O O9 0.276861 0.197739 0.487406
O O10 0.679129 0.004882 0.578588
O O11 0.168829 0.927435 0.583696
O O12 0.038610 0.596394 0.832166
O O13 0.292014 0.339194 0.833861
O O14 0.535675 0.589186 0.891724
O O15 0.299478 0.354817 0.970629
O O16 0.890753 0.742593 0.679068
O O17 0.000000 0.500000 0.000000
#
# Coordination Sequence:
#
# PCOD9036450 Si02
#       8
#     2   2   2   2   2   2   2   2
#     4  10  23  37  59  90 118 155 197 245 296 351
#     4  11  24  41  61  80 113 156 203 251 302 356
#     4   8  14  29  52  81 115 148 188 235 284 341
#     4  11  25  40  58  88 117 154 201 249 305 360
#     4   8  14  29  52  81 115 148 188 235 284 341
#     4  10  23  37  59  90 118 155 197 245 296 351
#     4  11  25  40  58  88 117 154 201 249 305 360
#     4  11  24  41  61  80 113 156 203 251 302 356
#
# _framework density 21.336736999999999
#
# number of rings (size 3 to 8) (size 9 to 14) (size 15 to 20)
#    0.000    2.000    2.500    0.000    7.000    0.000 
#    0.000    0.000    0.000    0.750    0.000    0.000 
#    0.000   21.000    0.000    0.000    0.000   11.000 
#
# Total GULP energy -89156.863878 kJ/mol
# GULP energy per Si atom -5572.303992 kJ/mol
# Density = 2.128817 g / cm^3
# Si number density = 21.336737 Si / 1000 Ang^3
#
#
#
# Elastic Constant Matrix: (Units=GPa)
#
#
# Indices 1 2 3 4 5 6 
#
# 1 96.0480 16.5327 12.5461 8.9643 -3.7562 -9.9755
# 2 16.5327 68.0384 33.5899 12.0464 -0.7638 -9.6603
# 3 12.5461 33.5899 148.2466 19.3373 -2.7584 -9.8401
# 4 8.9643 12.0464 19.3373 16.3900 -6.6968 -4.0739
# 5 -3.7562 -0.7638 -2.7584 -6.6968 29.1253 3.4872
# 6 -9.9755 -9.6603 -9.8401 -4.0739 3.4872 40.3792
#
#
#
# Elastic Compliance Matrix: (Units=1/GPa)
#
#
# Indices 1 2 3 4 5 6 
#
# 1 0.011324 -0.001748 0.000164 -0.004558 0.000149 0.001947
# 2 -0.001748 0.018521 -0.002624 -0.009979 -0.002591 0.002577
# 3 0.000164 -0.002624 0.008457 -0.008483 -0.001284 0.000729
# 4 -0.004558 -0.009979 -0.008483 0.088879 0.018570 0.001783
# 5 0.000149 -0.002591 -0.001284 0.018570 0.038717 -0.002366
# 6 0.001947 0.002577 0.000729 0.001783 -0.002366 0.026424
#
#
# Mechanical properties :
#
#
# Convention : Reuss Voigt Hill
#
# Bulk Modulus (GPa) = 33.45878 48.63005 41.04441
# Shear Modulus (GPa) = 23.73033 33.82320 28.77676
#
# Velocity S-wave (km/s) = 3.33856 3.98579 3.67644
# Velocity P-wave (km/s) = 5.52961 6.63500 6.10736
#
# Compressibility (1/GPa) = 0.02988753
#
# Stress axis : x y z
#
# Youngs Moduli (GPa) = 88.30597 53.99152 118.24292
#
# Poissons Ratio (x) = 0.09436 -0.01941
# Poissons Ratio (y) = 0.15433 0.31029
# Poissons Ratio (z) = -0.01450 0.14168
#
# Static dielectric constant tensor:
#      x y z
#    x 1.915210 -0.055690 -0.026790 
#    y -0.055690 1.765540 -0.010820 
#    z -0.026790 -0.010820 1.885630 
# 
# From -- ./inp_files/143081.got.cif
#   From: 2010.05.17/outbox.cif.g08.bks.cpg/sg2_72_cif.got.tgz:143081.got - 2010.06.03 11:33:40.
