data_PCOD9036164
_publ_section_title
;
Structure prediction by ZEFSAII (Michael W. Deem and Ramdas Pophale) SiO2 
 PCOD9036164
Probable space group: P -1
;
_chemical_formula_sum "Si O2"
_cell_formula_units_Z 14
_cell_length_a 11.062199
_cell_length_b 10.566356
_cell_length_c 9.485863
_cell_angle_alpha 83.347567
_cell_angle_beta 28.503410
_cell_angle_gamma 74.246338
_cell_volume 490.721569
_symmetry_space_group_name_H-M "P -1"
_symmetry_group_IT_number 2
_symmetry_cell_setting 'triclinic'
loop_
_space_group_symop_operation_xyz
x,y,z
-x,-y,-z
loop_
_atom_site_type_symbol
_atom_site_label
_atom_site_fract_x
_atom_site_fract_y
_atom_site_fract_z
Si Si1 0.827279 0.540915 0.825695
Si Si2 0.406902 0.066371 0.241107
Si Si3 0.500023 0.199194 0.378307
Si Si4 0.218669 0.475021 0.660185
Si Si5 0.183123 0.084209 0.926834
Si Si6 0.676512 0.263934 0.582305
Si Si7 0.879752 0.293204 0.672646
O O1 0.925237 0.629622 0.603378
O O2 0.077260 0.442326 0.671738
O O3 0.692269 0.430541 0.930410
O O4 0.646941 0.663193 0.097109
O O5 0.498315 0.181126 0.212560
O O6 0.083686 0.152847 0.550610
O O7 0.568513 0.947246 0.204403
O O8 0.500000 0.000000 0.000000
O O9 0.487803 0.344507 0.424169
O O10 0.254383 0.171683 0.718482
O O11 0.755332 0.068348 0.174225
O O12 0.253921 0.612505 0.569676
O O13 0.000000 0.500000 0.000000
O O14 0.904042 0.138990 0.290606
O O15 0.738153 0.254369 0.688257
#
# Coordination Sequence:
#
# PCOD9036164 Si02
#       7
#     2   2   2   2   2   2   2
#     4  10  22  36  56  84 119 147 187 249 289 341
#     4  10  17  32  61  83 108 153 201 232 284 347
#     4   9  18  35  56  83 116 155 190 237 288 345
#     4  11  21  36  60  84 114 155 194 234 291 344
#     4   9  18  33  57  82 113 152 193 233 287 344
#     4  11  21  35  59  88 113 150 196 239 292 348
#     4  10  19  37  57  82 114 150 190 237 298 341
#
# _framework density 28.529418
#
# number of rings (size 3 to 8) (size 9 to 14) (size 15 to 20)
#    0.857    1.143    4.286    0.429    0.000    0.571 
#    0.000    0.714    3.143    0.857    0.000    0.000 
#    0.000    0.000    0.000    0.000    0.000    0.000 
#
# Total GULP energy -78090.849868 kJ/mol
# GULP energy per Si atom -5577.917848 kJ/mol
# Density = 2.846448 g / cm^3
# Si number density = 28.529418 Si / 1000 Ang^3
#
#
#
# Elastic Constant Matrix: (Units=GPa)
#
#
# Indices 1 2 3 4 5 6 
#
# 1 142.5734 7.4790 24.2490 8.6373 19.2776 -24.7714
# 2 7.4790 97.4680 40.5322 25.2296 13.8994 -15.4687
# 3 24.2490 40.5322 153.5999 33.6523 15.9869 -2.2575
# 4 8.6373 25.2296 33.6523 62.1896 -3.3835 11.7236
# 5 19.2776 13.8994 15.9869 -3.3835 46.9940 0.6774
# 6 -24.7714 -15.4687 -2.2575 11.7236 0.6774 25.2102
#
#
#
# Elastic Compliance Matrix: (Units=1/GPa)
#
#
# Indices 1 2 3 4 5 6 
#
# 1 0.011133 0.004795 -0.000617 -0.006743 -0.006508 0.017137
# 2 0.004795 0.018105 -0.001918 -0.011384 -0.007794 0.021152
# 3 -0.000617 -0.001918 0.008204 -0.003850 -0.002260 0.000803
# 4 -0.006743 -0.011384 -0.003850 0.029531 0.009972 -0.027956
# 5 -0.006508 -0.007794 -0.002260 0.009972 0.027983 -0.016769
# 6 0.017137 0.021152 0.000803 -0.027956 -0.016769 0.083007
#
#
# Mechanical properties :
#
#
# Convention : Reuss Voigt Hill
#
# Bulk Modulus (GPa) = 23.83035 59.79573 41.81304
# Shear Modulus (GPa) = 26.67668 48.30418 37.49043
#
# Velocity S-wave (km/s) = 3.06119 4.11924 3.62898
# Velocity P-wave (km/s) = 4.56788 6.60522 5.67867
#
# Compressibility (1/GPa) = 0.04196329
#
# Stress axis : x y z
#
# Youngs Moduli (GPa) = 89.82212 55.23376 121.88503
#
# Poissons Ratio (x) = -0.26486 0.07514
# Poissons Ratio (y) = -0.43071 0.23381
# Poissons Ratio (z) = 0.05538 0.10595
#
# Static dielectric constant tensor:
#      x y z
#    x 2.418770 0.162210 0.146620 
#    y 0.162210 2.418110 0.127320 
#    z 0.146620 0.127320 2.454160 
# 
# From -- ./inp_files/65692.got.cif
#   From: 2010.05.17/outbox.cif.g08.bks.cpg/sg2_33_cif.got.tgz:65692.got - 2010.06.03 11:33:40.
