data_PCOD9036519
_publ_section_title
;
Structure prediction by ZEFSAII (Michael W. Deem and Ramdas Pophale) SiO2 
 PCOD9036519
Probable space group: P -1
;
_chemical_formula_sum "Si O2"
_cell_formula_units_Z 14
_cell_length_a 5.237455
_cell_length_b 15.127978
_cell_length_c 9.564480
_cell_angle_alpha 77.444400
_cell_angle_beta 98.511386
_cell_angle_gamma 67.367961
_cell_volume 659.774795
_symmetry_space_group_name_H-M "P -1"
_symmetry_group_IT_number 2
_symmetry_cell_setting 'triclinic'
loop_
_space_group_symop_operation_xyz
x,y,z
-x,-y,-z
loop_
_atom_site_type_symbol
_atom_site_label
_atom_site_fract_x
_atom_site_fract_y
_atom_site_fract_z
Si Si1 0.064194 0.386932 0.080062
Si Si2 0.664005 0.067933 0.959578
Si Si3 0.608028 0.200016 0.181655
Si Si4 0.862031 0.367493 0.794610
Si Si5 0.251515 0.424655 0.641850
Si Si6 0.734819 0.777412 0.336487
Si Si7 0.869400 0.775434 0.664109
O O1 0.399082 0.317558 0.104396
O O2 0.021613 0.343500 0.242075
O O3 0.000000 0.500000 0.000000
O O4 0.891737 0.350108 0.967449
O O5 0.522754 0.130174 0.786970
O O6 0.616065 0.144330 0.057624
O O7 0.500000 0.000000 0.000000
O O8 0.000000 0.000000 0.000000
O O9 0.432527 0.172103 0.296751
O O10 0.910918 0.186645 0.266383
O O11 0.538479 0.434921 0.696846
O O12 0.075173 0.418875 0.764354
O O13 0.009376 0.268461 0.743332
O O14 0.354273 0.314232 0.621250
O O15 0.000000 0.500000 0.500000
O O16 0.838294 0.792797 0.490631
#
# Coordination Sequence:
#
# PCOD9036519 Si02
#       7
#     2   2   2   2   2   2   2
#     4  10  24  40  67  98 142 187 226 265 344 407
#     4  12  27  47  78 101 127 181 241 286 350 405
#     4  10  23  46  64 101 140 174 223 291 329 413
#     4  10  23  37  67  88 142 176 235 267 323 390
#     4  10  23  38  65  95 134 175 225 275 334 391
#     4  10  25  42  70  99 138 174 232 283 337 405
#     4  10  24  39  70  93 147 171 218 274 356 384
#
# _framework density 21.219363999999999
#
# number of rings (size 3 to 8) (size 9 to 14) (size 15 to 20)
#    1.714    0.000    1.429    1.286   10.000    1.714 
#    0.000    4.286    0.000    0.000    0.000    0.000 
#    0.000    0.000    0.000    0.000    0.000    0.000 
#
# Total GULP energy -77983.778984 kJ/mol
# GULP energy per Si atom -5570.269927 kJ/mol
# Density = 2.117107 g / cm^3
# Si number density = 21.219364 Si / 1000 Ang^3
#
#
#
# Elastic Constant Matrix: (Units=GPa)
#
#
# Indices 1 2 3 4 5 6 
#
# 1 117.1931 21.9376 34.3086 -1.4827 22.7764 -13.3974
# 2 21.9376 56.8925 43.5890 -7.3160 -0.3884 -7.7357
# 3 34.3086 43.5890 173.8012 1.0540 12.4916 -6.3069
# 4 -1.4827 -7.3160 1.0540 34.8132 0.2602 8.6434
# 5 22.7764 -0.3884 12.4916 0.2602 18.6803 -2.9798
# 6 -13.3974 -7.7357 -6.3069 8.6434 -2.9798 23.6155
#
#
#
# Elastic Compliance Matrix: (Units=1/GPa)
#
#
# Indices 1 2 3 4 5 6 
#
# 1 0.012793 -0.004491 -0.000164 -0.001367 -0.014866 0.004367
# 2 -0.004491 0.025085 -0.006053 0.004230 0.010598 0.003842
# 3 -0.000164 -0.006053 0.007671 -0.001439 -0.005058 -0.000138
# 4 -0.001367 0.004230 -0.001439 0.032478 0.000413 -0.011609
# 5 -0.014866 0.010598 -0.005058 0.000413 0.075748 0.003094
# 6 0.004367 0.003842 -0.000138 -0.011609 0.003094 0.050684
#
#
# Mechanical properties :
#
#
# Convention : Reuss Voigt Hill
#
# Bulk Modulus (GPa) = 41.43518 60.83970 51.13744
# Shear Modulus (GPa) = 21.37500 31.95859 26.66679
#
# Velocity S-wave (km/s) = 3.17730 3.88507 3.54887
# Velocity P-wave (km/s) = 5.74715 6.98992 6.39878
#
# Compressibility (1/GPa) = 0.02413408
#
# Stress axis : x y z
#
# Youngs Moduli (GPa) = 78.16984 39.86488 130.35652
#
# Poissons Ratio (x) = 0.17903 0.02135
# Poissons Ratio (y) = 0.35105 0.78901
# Poissons Ratio (z) = 0.01280 0.24129
#
# Static dielectric constant tensor:
#      x y z
#    x 1.815440 0.033180 -0.023270 
#    y 0.033180 1.809660 0.031480 
#    z -0.023270 0.031480 1.821050 
# 
# From -- ./inp_files/137640.got.cif
#   From: 2010.05.17/outbox.cif.g08.bks.cpg/sg2_69_cif.got.tgz:137640.got - 2010.06.03 11:33:40.
