data_PCOD9036952
_publ_section_title
;
Structure prediction by ZEFSAII (Michael W. Deem and Ramdas Pophale) SiO2 
 PCOD9036952
Probable space group: P -1
;
_chemical_formula_sum "Si O2"
_cell_formula_units_Z 16
_cell_length_a 12.646227
_cell_length_b 16.485829
_cell_length_c 8.710568
_cell_angle_alpha 114.501166
_cell_angle_beta 116.914190
_cell_angle_gamma 26.408573
_cell_volume 720.021332
_symmetry_space_group_name_H-M "P -1"
_symmetry_group_IT_number 2
_symmetry_cell_setting 'triclinic'
loop_
_space_group_symop_operation_xyz
x,y,z
-x,-y,-z
loop_
_atom_site_type_symbol
_atom_site_label
_atom_site_fract_x
_atom_site_fract_y
_atom_site_fract_z
Si Si1 0.946996 0.713339 0.762702
Si Si2 0.149483 0.344425 0.097779
Si Si3 0.517682 0.888985 0.137972
Si Si4 0.769486 0.289280 0.041635
Si Si5 0.138995 0.021204 0.827433
Si Si6 0.329453 0.713346 0.702812
Si Si7 0.993852 0.414062 0.616198
Si Si8 0.868323 0.320594 0.654256
O O1 0.003307 0.631360 0.899055
O O2 0.014185 0.606065 0.582152
O O3 0.077491 0.721541 0.832483
O O4 0.659428 0.921372 0.755877
O O5 0.198149 0.385709 0.295164
O O6 0.361122 0.168483 0.992364
O O7 0.000000 0.500000 0.000000
O O8 0.737486 0.727495 0.272455
O O9 0.344395 0.920492 0.002257
O O10 0.758769 0.233572 0.138185
O O11 0.500000 0.500000 0.000000
O O12 0.894919 0.164172 0.877340
O O13 0.066465 0.147586 0.762219
O O14 0.239500 0.865956 0.695295
O O15 0.619547 0.512614 0.726003
O O16 0.212670 0.706490 0.532528
O O17 0.958621 0.346391 0.637895
#
# Coordination Sequence:
#
# PCOD9036952 Si02
#       8
#     2   2   2   2   2   2   2   2
#     4  11  23  42  64  94 133 172 212 267 336 387
#     4  10  23  39  66  96 125 168 220 266 321 397
#     4  10  24  40  65  96 127 168 213 269 325 389
#     4  11  23  41  67  94 131 173 219 275 329 382
#     4  11  24  41  69  98 129 173 220 274 324 392
#     4  11  23  46  65  97 132 172 222 270 326 388
#     4  11  23  42  65  94 134 170 213 269 329 394
#     4  11  24  41  71  94 133 176 217 269 329 389
#
# _framework density 22.221561999999999
#
# number of rings (size 3 to 8) (size 9 to 14) (size 15 to 20)
#    0.000    1.250    2.500    2.625    8.750    2.000 
#    0.000    0.000    0.000    0.000    0.000    0.000 
#    0.000    0.000    0.000    0.000    0.000    0.000 
#
# Total GULP energy -89377.795565 kJ/mol
# GULP energy per Si atom -5586.112223 kJ/mol
# Density = 2.217099 g / cm^3
# Si number density = 22.221562 Si / 1000 Ang^3
#
#
#
# Elastic Constant Matrix: (Units=GPa)
#
#
# Indices 1 2 3 4 5 6 
#
# 1 80.0464 20.9713 10.5753 -4.6803 -13.9381 3.1880
# 2 20.9713 72.2776 11.2308 2.5648 6.7663 5.2621
# 3 10.5753 11.2308 55.9951 18.6617 -3.7085 -8.4206
# 4 -4.6803 2.5648 18.6617 34.6516 -0.9939 4.1328
# 5 -13.9381 6.7663 -3.7085 -0.9939 38.2217 0.4791
# 6 3.1880 5.2621 -8.4206 4.1328 0.4791 32.2157
#
#
#
# Elastic Compliance Matrix: (Units=1/GPa)
#
#
# Indices 1 2 3 4 5 6 
#
# 1 0.015651 -0.004564 -0.003618 0.004876 0.006322 -0.002468
# 2 -0.004564 0.016327 -0.003229 0.000134 -0.004827 -0.003005
# 3 -0.003618 -0.003229 0.025790 -0.015244 0.001238 0.009564
# 4 0.004876 0.000134 -0.015244 0.038890 0.001406 -0.009499
# 5 0.006322 -0.004827 0.001238 0.001406 0.029481 -0.000132
# 6 -0.002468 -0.003005 0.009564 -0.009499 -0.000132 0.035496
#
#
# Mechanical properties :
#
#
# Convention : Reuss Voigt Hill
#
# Bulk Modulus (GPa) = 28.61503 32.65266 30.63384
# Shear Modulus (GPa) = 25.49630 32.05393 28.77511
#
# Velocity S-wave (km/s) = 3.39096 3.80211 3.60240
# Velocity P-wave (km/s) = 5.31381 5.83101 5.57841
#
# Compressibility (1/GPa) = 0.03494668
#
# Stress axis : x y z
#
# Youngs Moduli (GPa) = 63.89504 61.24684 38.77419
#
# Poissons Ratio (x) = 0.27953 0.14028
# Poissons Ratio (y) = 0.29162 0.12520
# Poissons Ratio (z) = 0.23117 0.19776
#
# Static dielectric constant tensor:
#      x y z
#    x 1.827250 0.008870 -0.011690 
#    y 0.008870 1.848340 0.015430 
#    z -0.011690 0.015430 1.852410 
# 
# From -- ./inp_files/273819.got.cif
#   From: 2010.05.17/outbox.cif.g08.bks.cpg/sg2_137_cif.got.tgz:273819.got - 2010.06.03 11:33:40.
