data_PCOD9036490
_publ_section_title
;
Structure prediction by ZEFSAII (Michael W. Deem and Ramdas Pophale) SiO2 
 PCOD9036490
Probable space group: P -1
;
_chemical_formula_sum "Si O2"
_cell_formula_units_Z 12
_cell_length_a 9.065014
_cell_length_b 10.963141
_cell_length_c 19.508787
_cell_angle_alpha 22.059259
_cell_angle_beta 37.540674
_cell_angle_gamma 43.362836
_cell_volume 443.416485
_symmetry_space_group_name_H-M "P -1"
_symmetry_group_IT_number 2
_symmetry_cell_setting 'triclinic'
loop_
_space_group_symop_operation_xyz
x,y,z
-x,-y,-z
loop_
_atom_site_type_symbol
_atom_site_label
_atom_site_fract_x
_atom_site_fract_y
_atom_site_fract_z
Si Si1 0.387914 0.028798 0.601218
Si Si2 0.314807 0.354871 0.200561
Si Si3 0.147771 0.137193 0.091101
Si Si4 0.636871 0.321073 0.651123
Si Si5 0.963015 0.285568 0.770207
Si Si6 0.113996 0.414479 0.823583
O O1 0.322077 0.388649 0.460205
O O2 0.500000 0.000000 0.500000
O O3 0.558681 0.916454 0.659272
O O4 0.132069 0.829237 0.803218
O O5 0.226492 0.591052 0.170350
O O6 0.061391 0.304162 0.278755
O O7 0.500000 0.500000 0.000000
O O8 0.298920 0.024526 0.159294
O O9 0.202548 0.415853 0.869295
O O10 0.164265 0.824417 0.196574
O O11 0.829100 0.438903 0.461704
O O12 0.352811 0.349952 0.724935
O O13 0.048186 0.923771 0.945804
#
# Coordination Sequence:
#
# PCOD9036490 Si02
#       6
#     2   2   2   2   2   2
#     4  11  22  38  64  90 123 163 193 249 312 354
#     4  12  21  41  61  90 129 156 198 249 310 365
#     4   9  19  39  60  88 117 156 208 244 291 354
#     4  11  20  41  63  88 123 154 209 250 288 364
#     4   9  21  38  63  86 115 165 204 244 295 352
#     4  10  23  37  64  89 115 163 206 243 301 351
#
# _framework density 27.062595999999999
#
# number of rings (size 3 to 8) (size 9 to 14) (size 15 to 20)
#    1.000    0.667    1.667    5.000    0.000    1.333 
#    0.000    4.167    0.000    0.000    0.000    0.000 
#    0.000    0.000    0.000    0.000    0.000    0.000 
#
# Total GULP energy -66980.042384 kJ/mol
# GULP energy per Si atom -5581.670199 kJ/mol
# Density = 2.700100 g / cm^3
# Si number density = 27.062596 Si / 1000 Ang^3
#
#
#
# Elastic Constant Matrix: (Units=GPa)
#
#
# Indices 1 2 3 4 5 6 
#
# 1 90.2707 33.2993 61.0492 -0.6094 25.1175 -22.6017
# 2 33.2993 101.8694 26.3171 10.5664 11.4921 3.7143
# 3 61.0492 26.3171 95.3926 4.7480 15.1912 -9.3309
# 4 -0.6094 10.5664 4.7480 54.0714 -19.9343 19.4905
# 5 25.1175 11.4921 15.1912 -19.9343 43.0624 1.6041
# 6 -22.6017 3.7143 -9.3309 19.4905 1.6041 57.3192
#
#
#
# Elastic Compliance Matrix: (Units=1/GPa)
#
#
# Indices 1 2 3 4 5 6 
#
# 1 0.028881 -0.003916 -0.013362 -0.007869 -0.015198 0.012568
# 2 -0.003916 0.011717 -0.000485 -0.002372 -0.001713 -0.001528
# 3 -0.013362 -0.000485 0.018829 -0.000588 0.001083 -0.002002
# 4 -0.007869 -0.002372 -0.000588 0.031731 0.020656 -0.014413
# 5 -0.015198 -0.001713 0.001083 0.020656 0.042242 -0.013911
# 6 0.012568 -0.001528 -0.002002 -0.014413 -0.013911 0.027465
#
#
# Mechanical properties :
#
#
# Convention : Reuss Voigt Hill
#
# Bulk Modulus (GPa) = 41.83859 58.76266 50.30062
# Shear Modulus (GPa) = 24.46694 42.01507 33.24101
#
# Velocity S-wave (km/s) = 3.01007 3.94447 3.50851
# Velocity P-wave (km/s) = 5.25111 6.51965 5.91946
#
# Compressibility (1/GPa) = 0.02390138
#
# Stress axis : x y z
#
# Youngs Moduli (GPa) = 34.62455 85.34718 53.11007
#
# Poissons Ratio (x) = 0.33425 0.70964
# Poissons Ratio (y) = 0.13560 0.02574
# Poissons Ratio (z) = 0.46264 0.04137
#
# Static dielectric constant tensor:
#      x y z
#    x 2.198810 -0.015810 0.011030 
#    y -0.015810 2.066580 -0.015900 
#    z 0.011030 -0.015900 2.251530 
# 
# From -- ./inp_files/231770.got.cif
#   From: 2010.05.17/outbox.cif.g08.bks.cpg/sg2_116_cif.got.tgz:231770.got - 2010.06.03 11:33:40.
