data_PCOD9036293
_publ_section_title
;
Structure prediction by ZEFSAII (Michael W. Deem and Ramdas Pophale) SiO2 
 PCOD9036293
Probable space group: P -1
;
_chemical_formula_sum "Si O2"
_cell_formula_units_Z 12
_cell_length_a 4.995002
_cell_length_b 18.316828
_cell_length_c 5.106661
_cell_angle_alpha 100.794895
_cell_angle_beta 84.161283
_cell_angle_gamma 73.832276
_cell_volume 434.899589
_symmetry_space_group_name_H-M "P -1"
_symmetry_group_IT_number 2
_symmetry_cell_setting 'triclinic'
loop_
_space_group_symop_operation_xyz
x,y,z
-x,-y,-z
loop_
_atom_site_type_symbol
_atom_site_label
_atom_site_fract_x
_atom_site_fract_y
_atom_site_fract_z
Si Si1 0.333686 0.392457 0.977055
Si Si2 0.731173 0.243877 0.616321
Si Si3 0.871717 0.952522 0.276075
Si Si4 0.757956 0.465382 0.253637
Si Si5 0.481815 0.889493 0.669361
Si Si6 0.036918 0.201639 0.063080
O O1 0.454368 0.306560 0.794681
O O2 0.201121 0.454600 0.805811
O O3 0.607452 0.417748 0.048729
O O4 0.078617 0.408996 0.223325
O O5 0.675266 0.161642 0.513324
O O6 0.968047 0.238650 0.809228
O O7 0.836723 0.259923 0.331157
O O8 0.681173 0.913806 0.449064
O O9 0.040123 0.879390 0.033006
O O10 0.695833 0.024149 0.161219
O O11 0.000000 0.000000 0.500000
O O12 0.500000 0.500000 0.500000
O O13 0.667241 0.833219 0.837680
#
# Coordination Sequence:
#
# PCOD9036293 Si02
#       6
#     2   2   2   2   2   2
#     4  10  25  46  74 115 155 198 263 316 388 474
#     4  12  29  47  71 110 151 195 248 320 387 463
#     4  11  23  47  72 102 142 196 257 319 374 461
#     4  10  22  48  80 111 150 204 257 313 387 471
#     4  11  25  45  74 101 144 195 256 310 391 441
#     4  12  26  48  68 105 146 193 252 309 386 456
#
# _framework density 27.592575
#
# number of rings (size 3 to 8) (size 9 to 14) (size 15 to 20)
#    0.000    1.000    3.333    1.000    7.000    2.667 
#    0.000    0.000    0.000    0.000    0.000    0.000 
#    0.000    0.000    0.000    0.000    0.000    0.000 
#
# Total GULP energy -67050.442845 kJ/mol
# GULP energy per Si atom -5587.536904 kJ/mol
# Density = 2.752977 g / cm^3
# Si number density = 27.592575 Si / 1000 Ang^3
#
#
#
# Elastic Constant Matrix: (Units=GPa)
#
#
# Indices 1 2 3 4 5 6 
#
# 1 113.6003 24.9774 43.1921 9.9164 10.1670 -11.0456
# 2 24.9774 92.5431 46.7243 36.9834 -8.3580 -14.0382
# 3 43.1921 46.7243 156.6787 13.4098 17.2379 -15.7745
# 4 9.9164 36.9834 13.4098 40.5798 -8.6997 -17.9137
# 5 10.1670 -8.3580 17.2379 -8.6997 44.6517 3.9421
# 6 -11.0456 -14.0382 -15.7745 -17.9137 3.9421 46.8025
#
#
#
# Elastic Compliance Matrix: (Units=1/GPa)
#
#
# Indices 1 2 3 4 5 6 
#
# 1 0.010245 -0.001706 -0.001939 -0.000142 -0.002052 0.001371
# 2 -0.001706 0.020356 -0.004726 -0.017136 0.002923 -0.002695
# 3 -0.001939 -0.004726 0.008766 0.002070 -0.003616 0.002176
# 4 -0.000142 -0.017136 0.002070 0.046113 0.003876 0.012848
# 5 -0.002052 0.002923 -0.003616 0.003876 0.025694 -0.001507
# 6 0.001371 -0.002695 0.002176 0.012848 -0.001507 0.026659
#
#
# Mechanical properties :
#
#
# Convention : Reuss Voigt Hill
#
# Bulk Modulus (GPa) = 44.20314 65.84553 55.02434
# Shear Modulus (GPa) = 30.84152 42.93536 36.88844
#
# Velocity S-wave (km/s) = 3.34690 3.94896 3.66033
# Velocity P-wave (km/s) = 5.56690 6.68638 6.15215
#
# Compressibility (1/GPa) = 0.02262283
#
# Stress axis : x y z
#
# Youngs Moduli (GPa) = 97.61135 49.12566 114.07203
#
# Poissons Ratio (x) = 0.08383 0.22122
# Poissons Ratio (y) = 0.16657 0.53914
# Poissons Ratio (z) = 0.18930 0.23218
#
# Static dielectric constant tensor:
#      x y z
#    x 2.315270 -0.070610 -0.099640 
#    y -0.070610 2.186730 -0.030440 
#    z -0.099640 -0.030440 2.227160 
# 
# From -- ./inp_files/8559.got.cif
#   From: 2010.05.17/outbox.cif.g08.bks.cpg/sg2_5_cif.got.tgz:8559.got - 2010.06.03 11:33:40.
