data_PCOD9036246
_publ_section_title
;
Structure prediction by ZEFSAII (Michael W. Deem and Ramdas Pophale) SiO2 
 PCOD9036246
Probable space group: P -1
;
_chemical_formula_sum "Si O2"
_cell_formula_units_Z 14
_cell_length_a 15.815645
_cell_length_b 6.037682
_cell_length_c 9.050323
_cell_angle_alpha 76.511068
_cell_angle_beta 132.775660
_cell_angle_gamma 101.139762
_cell_volume 616.117185
_symmetry_space_group_name_H-M "P -1"
_symmetry_group_IT_number 2
_symmetry_cell_setting 'triclinic'
loop_
_space_group_symop_operation_xyz
x,y,z
-x,-y,-z
loop_
_atom_site_type_symbol
_atom_site_label
_atom_site_fract_x
_atom_site_fract_y
_atom_site_fract_z
Si Si1 0.709090 0.513023 0.047453
Si Si2 0.906113 0.385810 0.793568
Si Si3 0.006858 0.888103 0.326850
Si Si4 0.858220 0.736561 0.427644
Si Si5 0.439557 0.106833 0.274087
Si Si6 0.550288 0.237532 0.095787
Si Si7 0.207304 0.795270 0.033903
O O1 0.752140 0.686111 0.200917
O O2 0.661531 0.299501 0.120154
O O3 0.618751 0.648624 0.821983
O O4 0.798176 0.420029 0.050081
O O5 0.859589 0.559552 0.590582
O O6 0.808927 0.279358 0.803633
O O7 0.966369 0.210310 0.785041
O O8 0.000000 0.500000 0.000000
O O9 0.962744 0.728581 0.434344
O O10 0.119638 0.023381 0.503114
O O11 0.901189 0.054145 0.154380
O O12 0.538872 0.158892 0.262697
O O13 0.500000 0.000000 0.500000
O O14 0.330153 0.931245 0.136219
O O15 0.500000 0.500000 0.000000
O O16 0.500000 0.000000 0.000000
#
# Coordination Sequence:
#
# PCOD9036246 Si02
#       7
#     2   2   2   2   2   2   2
#     4  11  25  46  73 104 142 191 248 295 372 443
#     4  12  26  42  67 105 147 186 234 294 357 431
#     4  11  25  45  70 102 145 192 240 289 358 441
#     4  11  25  41  70 101 139 190 237 293 353 435
#     4  11  26  47  71 103 140 187 241 310 371 433
#     4  10  22  48  74 102 140 188 243 306 365 438
#     4  12  25  44  71 100 145 187 234 298 365 432
#
# _framework density 22.722949
#
# number of rings (size 3 to 8) (size 9 to 14) (size 15 to 20)
#    0.000    0.857    4.286    1.714    6.000    0.571 
#    0.000    1.429    0.000    0.000    0.000    0.000 
#    0.000    0.000    0.000    0.000    0.000    0.000 
#
# Total GULP energy -78026.262986 kJ/mol
# GULP energy per Si atom -5573.304499 kJ/mol
# Density = 2.267123 g / cm^3
# Si number density = 22.722949 Si / 1000 Ang^3
#
#
#
# Elastic Constant Matrix: (Units=GPa)
#
#
# Indices 1 2 3 4 5 6 
#
# 1 119.8645 39.5953 56.4471 -5.7627 -47.5883 5.8319
# 2 39.5953 78.4366 54.4277 5.9405 -15.8820 9.2278
# 3 56.4471 54.4277 134.9745 -15.1614 -32.6837 4.0983
# 4 -5.7627 5.9405 -15.1614 48.6002 10.1182 -12.0636
# 5 -47.5883 -15.8820 -32.6837 10.1182 48.1081 -0.7713
# 6 5.8319 9.2278 4.0983 -12.0636 -0.7713 50.4822
#
#
#
# Elastic Compliance Matrix: (Units=1/GPa)
#
#
# Indices 1 2 3 4 5 6 
#
# 1 0.015757 -0.003619 -0.002034 -0.001366 0.013279 -0.001117
# 2 -0.003619 0.020647 -0.007539 -0.006223 -0.000644 -0.004241
# 3 -0.002034 -0.007539 0.012486 0.004350 0.003094 0.001686
# 4 -0.001366 -0.006223 0.004350 0.025437 -0.005689 0.006934
# 5 0.013279 -0.000644 0.003094 -0.005689 0.036969 -0.002462
# 6 -0.001117 -0.004241 0.001686 0.006934 -0.002462 0.022196
#
#
# Mechanical properties :
#
#
# Convention : Reuss Voigt Hill
#
# Bulk Modulus (GPa) = 44.43187 70.46840 57.45013
# Shear Modulus (GPa) = 29.87258 41.62511 35.74885
#
# Velocity S-wave (km/s) = 3.62973 4.28466 3.97072
# Velocity P-wave (km/s) = 6.09613 7.45366 6.80881
#
# Compressibility (1/GPa) = 0.02250637
#
# Stress axis : x y z
#
# Youngs Moduli (GPa) = 63.46368 48.43352 80.08946
#
# Poissons Ratio (x) = 0.17528 0.16293
# Poissons Ratio (y) = 0.22967 0.60376
# Poissons Ratio (z) = 0.12911 0.36512
#
# Static dielectric constant tensor:
#      x y z
#    x 1.932240 0.014780 0.064320 
#    y 0.014780 1.973360 0.004300 
#    z 0.064320 0.004300 1.855980 
# 
# From -- ./inp_files/323607.got.cif
#   From: 2010.05.17/outbox.cif.g08.bks.cpg/sg2_162_cif.got.tgz:323607.got - 2010.06.03 11:33:40.
