data_PCOD9036500
_publ_section_title
;
Structure prediction by ZEFSAII (Michael W. Deem and Ramdas Pophale) SiO2 
 PCOD9036500
Probable space group: P -1
;
_chemical_formula_sum "Si O2"
_cell_formula_units_Z 14
_cell_length_a 23.214792
_cell_length_b 7.638321
_cell_length_c 8.113417
_cell_angle_alpha 105.025277
_cell_angle_beta 138.102965
_cell_angle_gamma 48.833382
_cell_volume 642.578812
_symmetry_space_group_name_H-M "P -1"
_symmetry_group_IT_number 2
_symmetry_cell_setting 'triclinic'
loop_
_space_group_symop_operation_xyz
x,y,z
-x,-y,-z
loop_
_atom_site_type_symbol
_atom_site_label
_atom_site_fract_x
_atom_site_fract_y
_atom_site_fract_z
Si Si1 0.393577 0.756250 0.731689
Si Si2 0.223264 0.303489 0.135096
Si Si3 0.473106 0.957362 0.751951
Si Si4 0.027610 0.127835 0.208438
Si Si5 0.070220 0.793966 0.454828
Si Si6 0.706220 0.802577 0.105782
Si Si7 0.145279 0.099476 0.162959
O O1 0.455226 0.773786 0.715817
O O2 0.328758 0.994637 0.781740
O O3 0.280525 0.810572 0.427091
O O4 0.500000 0.500000 0.000000
O O5 0.179508 0.220407 0.155268
O O6 0.342958 0.213696 0.454560
O O7 0.263174 0.173185 0.007169
O O8 0.103120 0.612562 0.930409
O O9 0.587247 0.848111 0.857079
O O10 0.500000 0.000000 0.000000
O O11 0.082050 0.208471 0.235852
O O12 0.118295 0.892128 0.472372
O O13 0.000000 0.000000 0.000000
O O14 0.178359 0.492593 0.657787
O O15 0.000000 0.000000 0.500000
O O16 0.958325 0.853646 0.144432
#
# Coordination Sequence:
#
# PCOD9036500 Si02
#       7
#     2   2   2   2   2   2   2
#     4  10  24  45  66  95 124 174 220 265 325 381
#     4  11  22  43  62  99 130 169 218 270 331 367
#     4   9  22  40  66  89 128 171 217 262 312 392
#     4  10  23  37  65  92 130 172 213 258 316 394
#     4  11  24  43  62 101 131 168 215 265 331 384
#     4  11  24  41  66  94 133 170 211 271 322 384
#     4  10  25  41  67  93 132 170 218 271 316 391
#
# _framework density 21.787209000000001
#
# number of rings (size 3 to 8) (size 9 to 14) (size 15 to 20)
#    0.000    1.714    1.429    0.857   16.000    5.143 
#    2.571    1.429    0.000    0.000    0.000    0.000 
#    0.000    0.000    0.000    0.000    0.000    0.000 
#
# Total GULP energy -77998.717713 kJ/mol
# GULP energy per Si atom -5571.336979 kJ/mol
# Density = 2.173762 g / cm^3
# Si number density = 21.787209 Si / 1000 Ang^3
#
#
#
# Elastic Constant Matrix: (Units=GPa)
#
#
# Indices 1 2 3 4 5 6 
#
# 1 128.5585 27.8174 32.8602 -9.2765 1.0265 -3.6368
# 2 27.8174 70.6410 26.9900 -24.1031 -1.4439 -2.7143
# 3 32.8602 26.9900 141.9143 -25.9185 14.2443 14.9923
# 4 -9.2765 -24.1031 -25.9185 28.5084 4.9014 -6.6848
# 5 1.0265 -1.4439 14.2443 4.9014 38.6160 -4.9203
# 6 -3.6368 -2.7143 14.9923 -6.6848 -4.9203 17.9862
#
#
#
# Elastic Compliance Matrix: (Units=1/GPa)
#
#
# Indices 1 2 3 4 5 6 
#
# 1 0.008956 -0.002889 -0.002101 -0.000883 0.000930 0.003053
# 2 -0.002889 0.023077 -0.001319 0.020016 0.000355 0.011534
# 3 -0.002101 -0.001319 0.010492 0.006757 -0.005797 -0.008444
# 4 -0.000883 0.020016 0.006757 0.063535 -0.007389 0.018802
# 5 0.000930 0.000355 -0.005797 -0.007389 0.030314 0.010620
# 6 0.003053 0.011534 -0.008444 0.018802 0.010620 0.074888
#
#
# Mechanical properties :
#
#
# Convention : Reuss Voigt Hill
#
# Bulk Modulus (GPa) = 33.43618 57.38322 45.40970
# Shear Modulus (GPa) = 21.38131 33.91855 27.64993
#
# Velocity S-wave (km/s) = 3.13608 3.94992 3.56629
# Velocity P-wave (km/s) = 5.33792 6.87006 6.15187
#
# Compressibility (1/GPa) = 0.02990772
#
# Stress axis : x y z
#
# Youngs Moduli (GPa) = 111.65693 43.33237 95.31249
#
# Poissons Ratio (x) = 0.12517 0.20030
# Poissons Ratio (y) = 0.32254 0.12568
# Poissons Ratio (z) = 0.23464 0.05714
#
# Static dielectric constant tensor:
#      x y z
#    x 1.910840 0.027810 -0.002660 
#    y 0.027810 1.790040 0.026080 
#    z -0.002660 0.026080 1.816700 
# 
# From -- ./inp_files/270210.got.cif
#   From: 2010.05.17/outbox.cif.g08.bks.cpg/sg2_136_cif.got.tgz:270210.got - 2010.06.03 11:33:40.
