data_PCOD9036917
_publ_section_title
;
Structure prediction by ZEFSAII (Michael W. Deem and Ramdas Pophale) SiO2 
 PCOD9036917
Probable space group: P -1
;
_chemical_formula_sum "Si O2"
_cell_formula_units_Z 15
_cell_length_a 11.224052
_cell_length_b 6.829197
_cell_length_c 12.951387
_cell_angle_alpha 85.735310
_cell_angle_beta 141.078260
_cell_angle_gamma 89.594578
_cell_volume 618.621026
_symmetry_space_group_name_H-M "P -1"
_symmetry_group_IT_number 2
_symmetry_cell_setting 'triclinic'
loop_
_space_group_symop_operation_xyz
x,y,z
-x,-y,-z
loop_
_atom_site_type_symbol
_atom_site_label
_atom_site_fract_x
_atom_site_fract_y
_atom_site_fract_z
Si Si1 0.779161 0.144067 0.959721
Si Si2 0.149558 0.841798 0.227377
Si Si3 0.269099 0.279809 0.480183
Si Si4 0.607040 0.007117 0.241267
Si Si5 0.914473 0.503262 0.138670
Si Si6 0.500000 0.000000 0.500000
Si Si7 0.271233 0.601917 0.620387
Si Si8 0.833794 0.720147 0.272042
O O1 0.799527 0.369525 0.993973
O O2 0.755392 0.117720 0.821189
O O3 0.601386 0.065351 0.898292
O O4 0.975319 0.009735 0.120773
O O5 0.320374 0.872799 0.417168
O O6 0.057610 0.637362 0.172384
O O7 0.291531 0.112454 0.589011
O O8 0.348409 0.468948 0.580821
O O9 0.050174 0.350821 0.305850
O O10 0.378045 0.200315 0.455369
O O11 0.727842 0.929292 0.226240
O O12 0.606631 0.234712 0.259032
O O13 0.800235 0.649603 0.136317
O O14 0.238712 0.443188 0.693847
O O15 0.061554 0.707629 0.443964
#
# Coordination Sequence:
#
# PCOD9036917 Si02
#       8
#     2   2   2   2   2   1   2   2
#     4  11  25  46  61  94 137 168 219 260 320 399
#     4  11  26  44  67  93 128 178 207 274 324 376
#     4  10  23  39  65  99 127 159 219 271 307 384
#     4  11  22  42  69  95 134 171 209 270 324 376
#     4  11  24  44  66  94 134 170 216 264 324 379
#     4  12  22  46  66 100 126 160 232 268 310 388
#     4   9  20  40  63  98 132 168 207 269 330 365
#     4   9  21  38  64  99 126 167 220 267 307 388
#
# _framework density 24.247479999999999
#
# number of rings (size 3 to 8) (size 9 to 14) (size 15 to 20)
#    0.000    1.600    2.667    1.600    3.733    4.267 
#    4.800    1.333    0.000    0.000    0.000    0.000 
#    0.000    0.000    0.000    0.000    0.000    0.000 
#
# Total GULP energy -83675.079546 kJ/mol
# GULP energy per Si atom -5578.338636 kJ/mol
# Density = 2.419229 g / cm^3
# Si number density = 24.247480 Si / 1000 Ang^3
#
#
#
# Elastic Constant Matrix: (Units=GPa)
#
#
# Indices 1 2 3 4 5 6 
#
# 1 76.7007 32.7256 8.1609 8.7569 5.2262 -34.9013
# 2 32.7256 127.6651 21.7535 40.0591 7.0358 -14.7400
# 3 8.1609 21.7535 26.9537 3.4976 12.1134 3.6726
# 4 8.7569 40.0591 3.4976 32.9862 13.9867 -0.7488
# 5 5.2262 7.0358 12.1134 13.9867 20.0108 6.4811
# 6 -34.9013 -14.7400 3.6726 -0.7488 6.4811 51.5049
#
#
#
# Elastic Compliance Matrix: (Units=1/GPa)
#
#
# Indices 1 2 3 4 5 6 
#
# 1 0.022611 -0.005922 0.001721 0.007901 -0.015427 0.015561
# 2 -0.005922 0.028440 -0.036404 -0.049568 0.048253 -0.000070
# 3 0.001721 -0.036404 0.102207 0.076025 -0.101809 -0.002624
# 4 0.007901 -0.049568 0.076025 0.133451 -0.125042 0.003422
# 5 -0.015427 0.048253 -0.101809 -0.125042 0.191001 -0.015238
# 6 0.015561 -0.000070 -0.002624 0.003422 -0.015238 0.032094
#
#
# Mechanical properties :
#
#
# Convention : Reuss Voigt Hill
#
# Bulk Modulus (GPa) = 13.87954 39.62216 26.75085
# Shear Modulus (GPa) = 8.12969 32.14568 20.13769
#
# Velocity S-wave (km/s) = 1.83305 3.64501 2.88498
# Velocity P-wave (km/s) = 3.19635 5.83875 4.70679
#
# Compressibility (1/GPa) = 0.07204851
#
# Stress axis : x y z
#
# Youngs Moduli (GPa) = 44.22658 35.16155 9.78405
#
# Poissons Ratio (x) = 0.20822 -0.01684
# Poissons Ratio (y) = 0.26190 0.35618
# Poissons Ratio (z) = -0.07612 1.28003
#
# Static dielectric constant tensor:
#      x y z
#    x 1.954600 -0.027850 -0.037850 
#    y -0.027850 1.935220 -0.000370 
#    z -0.037850 -0.000370 2.013730 
# 
# From -- ./inp_files/288761.got.cif
#   From: 2010.05.17/outbox.cif.g08.bks.cpg/sg2_145_cif.got.tgz:288761.got - 2010.06.03 11:33:40.
