data_PCOD9036705
_publ_section_title
;
Structure prediction by ZEFSAII (Michael W. Deem and Ramdas Pophale) SiO2 
 PCOD9036705
Probable space group: P -1
;
_chemical_formula_sum "Si O2"
_cell_formula_units_Z 14
_cell_length_a 5.272380
_cell_length_b 13.955131
_cell_length_c 8.940847
_cell_angle_alpha 93.435650
_cell_angle_beta 114.166542
_cell_angle_gamma 76.619571
_cell_volume 583.443800
_symmetry_space_group_name_H-M "P -1"
_symmetry_group_IT_number 2
_symmetry_cell_setting 'triclinic'
loop_
_space_group_symop_operation_xyz
x,y,z
-x,-y,-z
loop_
_atom_site_type_symbol
_atom_site_label
_atom_site_fract_x
_atom_site_fract_y
_atom_site_fract_z
Si Si1 0.488204 0.230292 0.202099
Si Si2 0.827915 0.413586 0.451456
Si Si3 0.411010 0.899114 0.251606
Si Si4 0.365773 0.587120 0.267124
Si Si5 0.874417 0.012294 0.302520
Si Si6 0.662052 0.732065 0.507635
Si Si7 0.815814 0.265742 0.005184
O O1 0.495603 0.273648 0.375248
O O2 0.695899 0.122245 0.243936
O O3 0.596306 0.282517 0.092326
O O4 0.154180 0.227676 0.110440
O O5 0.531789 0.473554 0.310957
O O6 0.815756 0.393259 0.623195
O O7 0.000000 0.500000 0.500000
O O8 0.006866 0.318583 0.400314
O O9 0.648206 0.942471 0.227244
O O10 0.573727 0.840903 0.430151
O O11 0.283898 0.820349 0.120657
O O12 0.142111 0.980778 0.253325
O O13 0.572273 0.661383 0.355967
O O14 0.213638 0.631795 0.084364
O O15 0.000000 0.000000 0.500000
#
# Coordination Sequence:
#
# PCOD9036705 Si02
#       7
#     2   2   2   2   2   2   2
#     4  12  27  43  65  99 139 175 220 278 340 388
#     4   9  19  38  72  98 124 165 231 267 318 391
#     4  11  25  43  71  93 131 181 226 273 327 392
#     4   9  21  42  69  97 129 172 222 271 320 405
#     4  12  25  43  68  98 131 172 233 283 320 383
#     4  10  23  38  69  96 128 174 223 272 330 389
#     4  11  27  44  66  99 139 177 217 272 340 399
#
# _framework density 23.995459
#
# number of rings (size 3 to 8) (size 9 to 14) (size 15 to 20)
#    0.000    1.429    1.429    2.143   14.000    3.429 
#    0.000    1.429    0.000    0.000    0.000    0.000 
#    0.000    0.000    0.000    0.000    0.000    0.000 
#
# Total GULP energy -78223.952429 kJ/mol
# GULP energy per Si atom -5587.425173 kJ/mol
# Density = 2.394084 g / cm^3
# Si number density = 23.995459 Si / 1000 Ang^3
#
#
#
# Elastic Constant Matrix: (Units=GPa)
#
#
# Indices 1 2 3 4 5 6 
#
# 1 126.3177 44.2787 27.1542 -8.8752 -6.1222 -25.7627
# 2 44.2787 96.6855 32.7551 -27.2880 -11.3597 -31.0991
# 3 27.1542 32.7551 68.6655 -10.9395 -9.8162 -10.4335
# 4 -8.8752 -27.2880 -10.9395 35.7576 11.3810 -3.2374
# 5 -6.1222 -11.3597 -9.8162 11.3810 29.5993 10.4576
# 6 -25.7627 -31.0991 -10.4335 -3.2374 10.4576 42.3719
#
#
#
# Elastic Compliance Matrix: (Units=1/GPa)
#
#
# Indices 1 2 3 4 5 6 
#
# 1 0.010105 -0.002474 -0.002260 0.000741 -0.001365 0.004165
# 2 -0.002474 0.023871 -0.005551 0.019798 -0.007136 0.017923
# 3 -0.002260 -0.005551 0.018298 -0.000839 0.004545 -0.002129
# 4 0.000741 0.019798 -0.000839 0.051814 -0.020889 0.023889
# 5 -0.001365 -0.007136 0.004545 -0.020889 0.046686 -0.018067
# 6 0.004165 0.017923 -0.002129 0.023889 -0.018067 0.045048
#
#
# Mechanical properties :
#
#
# Convention : Reuss Voigt Hill
#
# Bulk Modulus (GPa) = 31.54275 55.56054 43.55164
# Shear Modulus (GPa) = 22.03041 34.04450 28.03745
#
# Velocity S-wave (km/s) = 3.03332 3.77077 3.42197
# Velocity P-wave (km/s) = 5.04399 6.49331 5.81399
#
# Compressibility (1/GPa) = 0.03170301
#
# Stress axis : x y z
#
# Youngs Moduli (GPa) = 98.96173 41.89254 54.65093
#
# Poissons Ratio (x) = 0.10362 0.12353
# Poissons Ratio (y) = 0.24478 0.30339
# Poissons Ratio (z) = 0.22369 0.23256
#
# Static dielectric constant tensor:
#      x y z
#    x 1.992110 0.040100 0.110650 
#    y 0.040100 1.928390 -0.002580 
#    z 0.110650 -0.002580 2.006800 
# 
# From -- ./inp_files/54867.got.cif
#   From: 2010.05.17/outbox.cif.g08.bks.cpg/sg2_28_cif.got.tgz:54867.got - 2010.06.03 11:33:40.
