data_PCOD9036030
_publ_section_title
;
Structure prediction by ZEFSAII (Michael W. Deem and Ramdas Pophale) SiO2 
 PCOD9036030
Probable space group: P -1
;
_chemical_formula_sum "Si O2"
_cell_formula_units_Z 14
_cell_length_a 13.659146
_cell_length_b 14.680068
_cell_length_c 6.967563
_cell_angle_alpha 108.519969
_cell_angle_beta 55.677033
_cell_angle_gamma 151.041063
_cell_volume 501.836139
_symmetry_space_group_name_H-M "P -1"
_symmetry_group_IT_number 2
_symmetry_cell_setting 'triclinic'
loop_
_space_group_symop_operation_xyz
x,y,z
-x,-y,-z
loop_
_atom_site_type_symbol
_atom_site_label
_atom_site_fract_x
_atom_site_fract_y
_atom_site_fract_z
Si Si1 0.126510 0.974210 0.502923
Si Si2 0.418578 0.470297 0.292277
Si Si3 0.945747 0.779969 0.955371
Si Si4 0.492119 0.116154 0.701117
Si Si5 0.662850 0.388988 0.014809
Si Si6 0.264120 0.850086 0.298370
Si Si7 0.768406 0.448136 0.358667
O O1 0.206153 0.919834 0.388412
O O2 0.859663 0.782900 0.551389
O O3 0.050347 0.931411 0.783189
O O4 0.373554 0.204055 0.292453
O O5 0.358936 0.539801 0.442247
O O6 0.500000 0.500000 0.000000
O O7 0.677699 0.629816 0.230896
O O8 0.825370 0.593154 0.880299
O O9 0.183649 0.915597 0.914109
O O10 0.635931 0.119910 0.590978
O O11 0.584284 0.229833 0.478926
O O12 0.613580 0.272170 0.836815
O O13 0.813461 0.472874 0.099252
O O14 0.022307 0.622677 0.321176
O O15 0.500000 0.000000 0.000000
#
# Coordination Sequence:
#
# PCOD9036030 Si02
#       7
#     2   2   2   2   2   2   2
#     4  10  22  47  70 102 143 182 232 291 347 409
#     4   9  21  45  74 100 142 184 229 290 344 414
#     4  11  25  47  70 103 142 184 231 290 350 412
#     4  12  25  46  70 104 143 183 235 286 348 415
#     4  12  25  45  70 106 139 184 237 281 344 424
#     4  11  22  43  72 101 142 184 232 291 343 416
#     4  11  25  46  71 104 141 186 233 286 353 408
#
# _framework density 27.897552999999998
#
# number of rings (size 3 to 8) (size 9 to 14) (size 15 to 20)
#    0.000    1.143    2.857    3.857    2.000    2.857 
#    5.143    0.000    0.000    0.000    0.000    0.000 
#    0.000    0.000    0.000    0.000    0.000    0.000 
#
# Total GULP energy -78392.451476 kJ/mol
# GULP energy per Si atom -5599.460820 kJ/mol
# Density = 2.783406 g / cm^3
# Si number density = 27.897553 Si / 1000 Ang^3
#
#
#
# Elastic Constant Matrix: (Units=GPa)
#
#
# Indices 1 2 3 4 5 6 
#
# 1 158.3444 44.0680 20.2266 -9.4212 -37.8746 30.6424
# 2 44.0680 119.1982 16.8392 -24.6473 -18.9344 24.1016
# 3 20.2266 16.8392 103.1532 -17.7580 -13.9814 11.6708
# 4 -9.4212 -24.6473 -17.7580 51.0874 9.2380 -10.0754
# 5 -37.8746 -18.9344 -13.9814 9.2380 60.4728 -9.8085
# 6 30.6424 24.1016 11.6708 -10.0754 -9.8085 57.5573
#
#
#
# Elastic Compliance Matrix: (Units=1/GPa)
#
#
# Indices 1 2 3 4 5 6 
#
# 1 0.008472 -0.001966 -0.000592 -0.000948 0.004209 -0.003016
# 2 -0.001966 0.010646 -0.000241 0.004014 0.001030 -0.002484
# 3 -0.000592 -0.000241 0.010673 0.003039 0.001399 -0.000978
# 4 -0.000948 0.004014 0.003039 0.023109 -0.001850 0.001938
# 5 0.004209 0.001030 0.001399 -0.001850 0.020126 0.000150
# 6 -0.003016 -0.002484 -0.000978 0.001938 0.000150 0.020583
#
#
# Mechanical properties :
#
#
# Convention : Reuss Voigt Hill
#
# Bulk Modulus (GPa) = 41.33210 60.32926 50.83068
# Shear Modulus (GPa) = 46.61102 53.79431 50.20266
#
# Velocity S-wave (km/s) = 4.09197 4.39598 4.24670
# Velocity P-wave (km/s) = 6.09700 6.88756 6.50430
#
# Compressibility (1/GPa) = 0.02419427
#
# Stress axis : x y z
#
# Youngs Moduli (GPa) = 118.03334 93.93016 93.69405
#
# Poissons Ratio (x) = 0.18468 0.05544
# Poissons Ratio (y) = 0.23207 0.02255
# Poissons Ratio (z) = 0.06984 0.02261
#
# Static dielectric constant tensor:
#      x y z
#    x 2.271300 0.053600 -0.019150 
#    y 0.053600 2.174750 0.042910 
#    z -0.019150 0.042910 2.248670 
# 
# From -- ./inp_files/315543.got.cif
#   From: 2010.05.17/outbox.cif.g08.bks.cpg/sg2_158_cif.got.tgz:315543.got - 2010.06.03 11:33:40.
