data_PCOD9036581
_publ_section_title
;
Structure prediction by ZEFSAII (Michael W. Deem and Ramdas Pophale) SiO2 
 PCOD9036581
Probable space group: P -1
;
_chemical_formula_sum "Si O2"
_cell_formula_units_Z 16
_cell_length_a 16.769400
_cell_length_b 8.146702
_cell_length_c 22.378648
_cell_angle_alpha 143.141009
_cell_angle_beta 157.350379
_cell_angle_gamma 37.376263
_cell_volume 684.957670
_symmetry_space_group_name_H-M "P -1"
_symmetry_group_IT_number 2
_symmetry_cell_setting 'triclinic'
loop_
_space_group_symop_operation_xyz
x,y,z
-x,-y,-z
loop_
_atom_site_type_symbol
_atom_site_label
_atom_site_fract_x
_atom_site_fract_y
_atom_site_fract_z
Si Si1 0.477882 0.983190 0.050941
Si Si2 0.621688 0.953830 0.321766
Si Si3 0.456513 0.813902 0.534272
Si Si4 0.995272 0.177221 0.775266
Si Si5 0.077610 0.218314 0.162043
Si Si6 0.780215 0.242526 0.415812
Si Si7 0.041575 0.598549 0.644434
Si Si8 0.719998 0.337443 0.050202
O O1 0.568135 0.651160 0.029885
O O2 0.632926 0.139972 0.236782
O O3 0.500000 0.000000 0.000000
O O4 0.239643 0.137845 0.952965
O O5 0.813209 0.676389 0.365417
O O6 0.571656 0.004306 0.371040
O O7 0.680638 0.219034 0.405814
O O8 0.424506 0.878459 0.128006
O O9 0.500000 0.500000 0.500000
O O10 0.227187 0.838363 0.349531
O O11 0.672104 0.868538 0.670891
O O12 0.946475 0.476672 0.796768
O O13 0.023106 0.876718 0.672362
O O14 0.912561 0.274841 0.118351
O O15 0.000000 0.000000 0.000000
O O16 0.835211 0.519148 0.507194
O O17 0.000000 0.000000 0.500000
O O18 0.167082 0.663069 0.808528
#
# Coordination Sequence:
#
# PCOD9036581 Si02
#       8
#     2   2   2   2   2   2   2   2
#     4  12  23  39  68 109 143 174 227 296 355 413
#     4  11  21  39  70  98 136 182 229 275 358 423
#     4  10  25  43  68  94 139 189 242 277 338 408
#     4  11  25  41  67 100 142 169 239 291 344 408
#     4  11  24  46  69  96 134 191 238 282 342 419
#     4  10  23  38  62 100 147 179 219 269 361 422
#     4  11  24  40  69 103 142 176 224 291 369 406
#     4  12  22  42  71 102 139 181 222 290 364 416
#
# _framework density 23.359110000000001
#
# number of rings (size 3 to 8) (size 9 to 14) (size 15 to 20)
#    0.000    1.000    6.250    1.125    7.000    2.500 
#    0.000    1.250    2.750    0.000    0.000    0.000 
#    0.000    0.000    0.000    0.000    0.000    0.000 
#
# Total GULP energy -89228.119861 kJ/mol
# GULP energy per Si atom -5576.757491 kJ/mol
# Density = 2.330594 g / cm^3
# Si number density = 23.359110 Si / 1000 Ang^3
#
#
#
# Elastic Constant Matrix: (Units=GPa)
#
#
# Indices 1 2 3 4 5 6 
#
# 1 59.1508 30.0993 35.5979 7.2880 18.8810 -9.8787
# 2 30.0993 85.8052 33.9977 12.5685 8.0315 3.6982
# 3 35.5979 33.9977 182.4525 -17.7867 23.2228 -4.3329
# 4 7.2880 12.5685 -17.7867 44.4820 -1.2286 13.5218
# 5 18.8810 8.0315 23.2228 -1.2286 46.3146 -2.6378
# 6 -9.8787 3.6982 -4.3329 13.5218 -2.6378 28.0337
#
#
#
# Elastic Compliance Matrix: (Units=1/GPa)
#
#
# Indices 1 2 3 4 5 6 
#
# 1 0.028786 -0.007187 -0.003767 -0.008646 -0.008037 0.013924
# 2 -0.007187 0.015434 -0.001961 -0.002915 0.000967 -0.003375
# 3 -0.003767 -0.001961 0.007209 0.004736 -0.001750 -0.002403
# 4 -0.008646 -0.002915 0.004736 0.031874 0.001524 -0.017161
# 5 -0.008037 0.000967 -0.001750 0.001524 0.025529 -0.001563
# 6 0.013924 -0.003375 -0.002403 -0.017161 -0.001563 0.048782
#
#
# Mechanical properties :
#
#
# Convention : Reuss Voigt Hill
#
# Bulk Modulus (GPa) = 39.06290 58.53316 48.79803
# Shear Modulus (GPa) = 26.04499 38.94697 32.49598
#
# Velocity S-wave (km/s) = 3.34276 4.08771 3.73386
# Velocity P-wave (km/s) = 5.62652 6.88415 6.28686
#
# Compressibility (1/GPa) = 0.02559974
#
# Stress axis : x y z
#
# Youngs Moduli (GPa) = 34.73947 64.79067 138.72342
#
# Poissons Ratio (x) = 0.46563 0.52250
# Poissons Ratio (y) = 0.24966 0.27207
# Poissons Ratio (z) = 0.13085 0.12707
#
# Static dielectric constant tensor:
#      x y z
#    x 1.909870 0.030330 0.066330 
#    y 0.030330 1.966010 -0.064330 
#    z 0.066330 -0.064330 1.825280 
# 
# From -- ./inp_files/613005.got.cif
#   From: 2010.05.17/outbox.cif.g08.bks.cpg/sg2_307_cif.got.tgz:613005.got - 2010.06.03 11:33:40.
