data_PCOD9036511
_publ_section_title
;
Structure prediction by ZEFSAII (Michael W. Deem and Ramdas Pophale) SiO2 
 PCOD9036511
Probable space group: P -1
;
_chemical_formula_sum "Si O2"
_cell_formula_units_Z 16
_cell_length_a 17.441682
_cell_length_b 12.164864
_cell_length_c 9.435147
_cell_angle_alpha 40.198534
_cell_angle_beta 135.647336
_cell_angle_gamma 140.774935
_cell_volume 778.881719
_symmetry_space_group_name_H-M "P -1"
_symmetry_group_IT_number 2
_symmetry_cell_setting 'triclinic'
loop_
_space_group_symop_operation_xyz
x,y,z
-x,-y,-z
loop_
_atom_site_type_symbol
_atom_site_label
_atom_site_fract_x
_atom_site_fract_y
_atom_site_fract_z
Si Si1 0.193640 0.043659 0.533583
Si Si2 0.368893 0.854997 0.888878
Si Si3 0.811294 0.444448 0.606056
Si Si4 0.233523 0.438315 0.283031
Si Si5 0.019759 0.203221 0.711649
Si Si6 0.835765 0.006575 0.883702
Si Si7 0.629742 0.111017 0.475243
Si Si8 0.070766 0.802496 0.887611
O O1 0.268083 0.275537 0.437619
O O2 0.280129 0.950961 0.699272
O O3 0.111736 0.927275 0.676615
O O4 0.090843 0.986068 0.330543
O O5 0.386308 0.844144 0.753082
O O6 0.303297 0.639695 0.087506
O O7 0.500000 0.000000 0.000000
O O8 0.747136 0.516651 0.566732
O O9 0.927032 0.618883 0.501713
O O10 0.719404 0.300861 0.504040
O O11 0.866917 0.334382 0.882026
O O12 0.080427 0.326790 0.170242
O O13 0.944399 0.202426 0.752087
O O14 0.133804 0.165668 0.938961
O O15 0.701835 0.984660 0.691883
O O16 0.864152 0.046245 0.047095
O O17 0.500000 0.000000 0.500000
#
# Coordination Sequence:
#
# PCOD9036511 Si02
#       8
#     2   2   2   2   2   2   2   2
#     4  12  23  43  72 101 142 173 219 284 342 405
#     4  12  28  48  70  95 132 181 237 283 326 400
#     4  11  23  38  67  97 141 178 221 273 347 402
#     4  12  23  41  71 102 137 177 223 273 343 405
#     4  11  21  40  62 108 135 170 218 281 348 407
#     4  10  23  37  66  92 140 171 212 280 338 397
#     4  11  26  47  66  90 133 186 228 277 334 396
#     4  11  21  37  63 105 138 172 210 275 342 406
#
# _framework density 20.542272000000001
#
# number of rings (size 3 to 8) (size 9 to 14) (size 15 to 20)
#    0.000    0.750    5.000    3.000    3.500    1.500 
#    0.000    0.625    0.000    0.000    0.000    0.000 
#    0.000    0.000    0.000    0.000    0.000    0.000 
#
# Total GULP energy -89379.694867 kJ/mol
# GULP energy per Si atom -5586.230929 kJ/mol
# Density = 2.049552 g / cm^3
# Si number density = 20.542272 Si / 1000 Ang^3
#
#
#
# Elastic Constant Matrix: (Units=GPa)
#
#
# Indices 1 2 3 4 5 6 
#
# 1 93.7785 25.9313 33.8807 -6.9186 -13.0187 13.0983
# 2 25.9313 81.1324 37.7969 -6.4410 -4.9601 -0.1825
# 3 33.8807 37.7969 83.0944 -1.2977 -16.0908 3.2301
# 4 -6.9186 -6.4410 -1.2977 37.2808 -9.4525 -2.1025
# 5 -13.0187 -4.9601 -16.0908 -9.4525 41.5978 4.4570
# 6 13.0983 -0.1825 3.2301 -2.1025 4.4570 24.7291
#
#
#
# Elastic Compliance Matrix: (Units=1/GPa)
#
#
# Indices 1 2 3 4 5 6 
#
# 1 0.014558 -0.002500 -0.003612 0.002803 0.004333 -0.007800
# 2 -0.002500 0.016348 -0.006742 0.001952 -0.001289 0.002724
# 3 -0.003612 -0.006742 0.017596 -0.000028 0.005009 -0.001340
# 4 0.002803 0.001952 -0.000028 0.029657 0.007877 -0.000365
# 5 0.004333 -0.001289 0.005009 0.007877 0.029790 -0.007658
# 6 -0.007800 0.002724 -0.001340 -0.000365 -0.007658 0.046114
#
#
# Mechanical properties :
#
#
# Convention : Reuss Voigt Hill
#
# Bulk Modulus (GPa) = 43.87393 50.35812 47.11602
# Shear Modulus (GPa) = 26.68553 31.41464 29.05008
#
# Velocity S-wave (km/s) = 3.60815 3.91483 3.76461
# Velocity P-wave (km/s) = 6.22596 6.70836 6.47166
#
# Compressibility (1/GPa) = 0.02279258
#
# Stress axis : x y z
#
# Youngs Moduli (GPa) = 68.69253 61.17092 56.83251
#
# Poissons Ratio (x) = 0.15293 0.20530
# Poissons Ratio (y) = 0.17174 0.38314
# Poissons Ratio (z) = 0.24814 0.41239
#
# Static dielectric constant tensor:
#      x y z
#    x 1.784210 -0.049630 0.028110 
#    y -0.049630 1.742290 -0.012560 
#    z 0.028110 -0.012560 1.750370 
# 
# From -- ./inp_files/260975.got.cif
#   From: 2010.05.17/outbox.cif.g08.bks.cpg/sg2_131_cif.got.tgz:260975.got - 2010.06.03 11:33:40.
