data_PCOD9036660
_publ_section_title
;
Structure prediction by ZEFSAII (Michael W. Deem and Ramdas Pophale) SiO2 
 PCOD9036660
Probable space group: P -1
;
_chemical_formula_sum "Si O2"
_cell_formula_units_Z 10
_cell_length_a 4.947746
_cell_length_b 9.551687
_cell_length_c 14.872693
_cell_angle_alpha 40.135675
_cell_angle_beta 119.766051
_cell_angle_gamma 99.746313
_cell_volume 364.468888
_symmetry_space_group_name_H-M "P -1"
_symmetry_group_IT_number 2
_symmetry_cell_setting 'triclinic'
loop_
_space_group_symop_operation_xyz
x,y,z
-x,-y,-z
loop_
_atom_site_type_symbol
_atom_site_label
_atom_site_fract_x
_atom_site_fract_y
_atom_site_fract_z
Si Si1 0.377770 0.857456 0.930947
Si Si2 0.667188 0.675373 0.905809
Si Si3 0.118328 0.680164 0.304761
Si Si4 0.442154 0.491655 0.709098
Si Si5 0.671883 0.086515 0.617773
O O1 0.691463 0.806141 0.940225
O O2 0.219729 0.083702 0.856795
O O3 0.463537 0.630451 0.119210
O O4 0.066869 0.929366 0.772571
O O5 0.505958 0.900166 0.704048
O O6 0.500000 0.500000 0.000000
O O7 0.000000 0.500000 0.000000
O O8 0.937591 0.494241 0.379797
O O9 0.296783 0.659085 0.249223
O O10 0.354114 0.722134 0.400910
O O11 0.437606 0.752488 0.566279
#
# Coordination Sequence:
#
# PCOD9036660 Si02
#       5
#     2   2   2   2   2
#     4  10  25  40  68  95 131 168 218 252 321 380
#     4  12  24  46  70  88 122 172 218 276 326 362
#     4  10  23  38  66  96 140 172 199 248 320 384
#     4  12  23  40  64 102 136 166 207 256 308 394
#     4  10  25  40  68  95 131 168 218 252 321 380
#
# _framework density 27.437184999999999
#
# number of rings (size 3 to 8) (size 9 to 14) (size 15 to 20)
#    1.200    0.000    2.000    3.600    5.600    0.000 
#    0.000    2.000    0.000    0.000    0.000    0.000 
#    0.000    0.000    0.000    0.000    0.000    0.000 
#
# Total GULP energy -55770.906434 kJ/mol
# GULP energy per Si atom -5577.090643 kJ/mol
# Density = 2.737474 g / cm^3
# Si number density = 27.437185 Si / 1000 Ang^3
#
#
#
# Elastic Constant Matrix: (Units=GPa)
#
#
# Indices 1 2 3 4 5 6 
#
# 1 162.1801 49.9411 21.5455 -2.6752 -25.2422 -39.6167
# 2 49.9411 80.5291 39.5176 8.9850 -7.2030 -30.3565
# 3 21.5455 39.5176 201.2362 -10.1282 -49.0696 -26.5841
# 4 -2.6752 8.9850 -10.1282 48.1761 8.2674 -12.0047
# 5 -25.2422 -7.2030 -49.0696 8.2674 50.3581 -0.6645
# 6 -39.6167 -30.3565 -26.5841 -12.0047 -0.6645 52.8037
#
#
#
# Elastic Compliance Matrix: (Units=1/GPa)
#
#
# Indices 1 2 3 4 5 6 
#
# 1 0.009883 -0.004488 0.002363 0.002462 0.006298 0.006663
# 2 -0.004488 0.018848 -0.003196 -0.002772 -0.002144 0.005202
# 3 0.002363 -0.003196 0.008087 0.002147 0.008316 0.004600
# 4 0.002462 -0.002772 0.002147 0.023683 -0.000870 0.006708
# 5 0.006298 -0.002144 0.008316 -0.000870 0.031058 0.007872
# 6 0.006663 0.005202 0.004600 0.006708 0.007872 0.030868
#
#
# Mechanical properties :
#
#
# Convention : Reuss Voigt Hill
#
# Bulk Modulus (GPa) = 38.20223 73.99486 56.09854
# Shear Modulus (GPa) = 35.26242 52.46367 43.86304
#
# Velocity S-wave (km/s) = 3.58887 4.37754 4.00268
# Velocity P-wave (km/s) = 5.57916 7.25106 6.46935
#
# Compressibility (1/GPa) = 0.02617648
#
# Stress axis : x y z
#
# Youngs Moduli (GPa) = 101.18787 53.05590 123.64928
#
# Poissons Ratio (x) = 0.23812 -0.29220
# Poissons Ratio (y) = 0.45414 0.39516
# Poissons Ratio (z) = -0.23912 0.16956
#
# Static dielectric constant tensor:
#      x y z
#    x 2.343520 0.046890 0.080450 
#    y 0.046890 2.311250 -0.090070 
#    z 0.080450 -0.090070 2.185200 
# 
# From -- ./inp_files/548542.got.cif
#   From: 2010.05.17/outbox.cif.g08.bks.cpg/sg2_275_cif.got.tgz:548542.got - 2010.06.03 11:33:40.
