data_PCOD9036315
_publ_section_title
;
Structure prediction by ZEFSAII (Michael W. Deem and Ramdas Pophale) SiO2 
 PCOD9036315
Probable space group: P -1
;
_chemical_formula_sum "Si O2"
_cell_formula_units_Z 12
_cell_length_a 6.642915
_cell_length_b 13.376471
_cell_length_c 11.178135
_cell_angle_alpha 147.051857
_cell_angle_beta 106.495740
_cell_angle_gamma 87.264021
_cell_volume 482.173463
_symmetry_space_group_name_H-M "P -1"
_symmetry_group_IT_number 2
_symmetry_cell_setting 'triclinic'
loop_
_space_group_symop_operation_xyz
x,y,z
-x,-y,-z
loop_
_atom_site_type_symbol
_atom_site_label
_atom_site_fract_x
_atom_site_fract_y
_atom_site_fract_z
Si Si1 0.002165 0.110582 0.828857
Si Si2 0.523906 0.825183 0.990071
Si Si3 0.350139 0.316437 0.637348
Si Si4 0.783573 0.375429 0.916307
Si Si5 0.972744 0.403888 0.270783
Si Si6 0.575578 0.276278 0.402913
O O1 0.864207 0.214454 0.832912
O O2 0.259456 0.168796 0.891872
O O3 0.866903 0.881871 0.586718
O O4 0.030844 0.209588 0.064724
O O5 0.296130 0.696812 0.887859
O O6 0.499910 0.738259 0.763245
O O7 0.548236 0.053552 0.209663
O O8 0.563659 0.287057 0.707553
O O9 0.426283 0.346145 0.540765
O O10 0.284896 0.479000 0.861073
O O11 0.000000 0.500000 0.000000
O O12 0.000000 0.500000 0.500000
O O13 0.162789 0.572114 0.394334
#
# Coordination Sequence:
#
# PCOD9036315 Si02
#       6
#     2   2   2   2   2   2
#     4  12  26  44  76 110 146 193 249 309 369 439
#     4  10  24  45  72 114 151 194 245 298 360 450
#     4  11  26  49  76 105 150 197 248 310 368 444
#     4  11  28  51  73 108 142 197 252 312 377 436
#     4  10  23  43  70 108 150 196 245 291 360 442
#     4  10  22  49  74 106 155 199 241 295 373 436
#
# _framework density 24.887309999999999
#
# number of rings (size 3 to 8) (size 9 to 14) (size 15 to 20)
#    0.000    1.333    1.667    1.500    4.667    9.333 
#    0.000    0.000    0.000    0.000    0.000    0.000 
#    0.000    0.000    0.000    0.000    0.000    0.000 
#
# Total GULP energy -67104.675001 kJ/mol
# GULP energy per Si atom -5592.056250 kJ/mol
# Density = 2.483067 g / cm^3
# Si number density = 24.887310 Si / 1000 Ang^3
#
#
#
# Elastic Constant Matrix: (Units=GPa)
#
#
# Indices 1 2 3 4 5 6 
#
# 1 172.7338 42.1055 34.6332 5.5581 44.0056 6.5449
# 2 42.1055 77.9615 18.9340 2.1786 5.9145 5.1577
# 3 34.6332 18.9340 113.4140 13.1888 26.8367 15.6316
# 4 5.5581 2.1786 13.1888 21.9964 9.1710 -0.0585
# 5 44.0056 5.9145 26.8367 9.1710 54.3846 -1.9061
# 6 6.5449 5.1577 15.6316 -0.0585 -1.9061 46.7482
#
#
#
# Elastic Compliance Matrix: (Units=1/GPa)
#
#
# Indices 1 2 3 4 5 6 
#
# 1 0.008478 -0.003963 -0.000418 0.001190 -0.006454 -0.000871
# 2 -0.003963 0.015259 -0.001819 -0.000466 0.002509 -0.000419
# 3 -0.000418 -0.001819 0.011349 -0.004693 -0.004403 -0.003721
# 4 0.001190 -0.000466 -0.004693 0.051008 -0.007155 0.001226
# 5 -0.006454 0.002509 -0.004403 -0.007155 0.026828 0.003184
# 6 -0.000871 -0.000419 -0.003721 0.001226 0.003184 0.022935
#
#
# Mechanical properties :
#
#
# Convention : Reuss Voigt Hill
#
# Bulk Modulus (GPa) = 44.08093 61.71719 52.89906
# Shear Modulus (GPa) = 32.08824 42.52161 37.30493
#
# Velocity S-wave (km/s) = 3.59464 4.13796 3.87583
# Velocity P-wave (km/s) = 5.91432 6.90528 6.42892
#
# Compressibility (1/GPa) = 0.02268555
#
# Stress axis : x y z
#
# Youngs Moduli (GPa) = 117.95060 65.53309 88.11203
#
# Poissons Ratio (x) = 0.25972 0.03687
# Poissons Ratio (y) = 0.46747 0.16027
# Poissons Ratio (z) = 0.04935 0.11920
#
# Static dielectric constant tensor:
#      x y z
#    x 2.052260 -0.095410 -0.030760 
#    y -0.095410 2.010280 -0.046380 
#    z -0.030760 -0.046380 1.954450 
# 
# From -- ./inp_files/32394.got.cif
#   From: 2010.05.17/outbox.cif.g08.bks.cpg/sg2_17_cif.got.tgz:32394.got - 2010.06.03 11:33:40.
