data_PCOD9036353
_publ_section_title
;
Structure prediction by ZEFSAII (Michael W. Deem and Ramdas Pophale) SiO2 
 PCOD9036353
Probable space group: P -1
;
_chemical_formula_sum "Si O2"
_cell_formula_units_Z 14
_cell_length_a 10.546373
_cell_length_b 15.454861
_cell_length_c 8.926601
_cell_angle_alpha 137.853870
_cell_angle_beta 92.528213
_cell_angle_gamma 54.914955
_cell_volume 573.818842
_symmetry_space_group_name_H-M "P -1"
_symmetry_group_IT_number 2
_symmetry_cell_setting 'triclinic'
loop_
_space_group_symop_operation_xyz
x,y,z
-x,-y,-z
loop_
_atom_site_type_symbol
_atom_site_label
_atom_site_fract_x
_atom_site_fract_y
_atom_site_fract_z
Si Si1 0.784036 0.902392 0.656572
Si Si2 0.188255 0.451552 0.251453
Si Si3 0.512842 0.708005 0.687054
Si Si4 0.022643 0.326711 0.950566
Si Si5 0.523513 0.283838 0.810256
Si Si6 0.294683 0.620868 0.953534
Si Si7 0.447708 0.155495 0.421313
O O1 0.873206 0.805821 0.370710
O O2 0.579743 0.973479 0.747318
O O3 0.966274 0.705876 0.527348
O O4 0.688012 0.115647 0.984321
O O5 0.273474 0.423271 0.381469
O O6 0.145082 0.336301 0.064476
O O7 0.362215 0.367192 0.035879
O O8 0.551214 0.543952 0.389165
O O9 0.479136 0.840822 0.723994
O O10 0.923913 0.278441 0.957442
O O11 0.800089 0.591238 0.238300
O O12 0.397753 0.470041 0.915162
O O13 0.590029 0.101099 0.489770
O O14 0.702155 0.231503 0.820333
#
# Coordination Sequence:
#
# PCOD9036353 Si02
#       7
#     2   2   2   2   2   2   2
#     4  11  18  35  58  84 112 141 180 235 267 323
#     4  11  19  35  60  84 106 148 182 226 274 320
#     4  10  23  32  53  91 115 133 181 234 280 314
#     4   9  17  32  57  80 105 143 190 216 264 326
#     4   9  16  34  62  74 105 158 188 203 276 337
#     4   9  19  35  56  81 109 152 181 220 271 335
#     4   9  17  35  55  79 110 150 178 222 273 327
#
# _framework density 24.397943999999999
#
# number of rings (size 3 to 8) (size 9 to 14) (size 15 to 20)
#    0.000    2.571    4.286    1.286    0.000    6.286 
#    0.000    0.714    6.286    0.857    0.000    1.000 
#    0.000    0.000    0.000    0.000    0.000    0.000 
#
# Total GULP energy -78179.623173 kJ/mol
# GULP energy per Si atom -5584.258798 kJ/mol
# Density = 2.434241 g / cm^3
# Si number density = 24.397944 Si / 1000 Ang^3
#
#
#
# Elastic Constant Matrix: (Units=GPa)
#
#
# Indices 1 2 3 4 5 6 
#
# 1 94.7561 34.2825 25.7950 -9.5842 25.1136 -30.0730
# 2 34.2825 62.6862 32.0162 -8.6210 -0.9279 -11.6471
# 3 25.7950 32.0162 103.5617 -22.4240 8.3346 -5.6221
# 4 -9.5842 -8.6210 -22.4240 31.5110 -3.1785 0.6912
# 5 25.1136 -0.9279 8.3346 -3.1785 30.2807 -2.7880
# 6 -30.0730 -11.6471 -5.6221 0.6912 -2.7880 29.8098
#
#
#
# Elastic Compliance Matrix: (Units=1/GPa)
#
#
# Indices 1 2 3 4 5 6 
#
# 1 0.026604 -0.010621 -0.000010 0.002687 -0.020196 0.020736
# 2 -0.010621 0.024785 -0.005859 0.000529 0.011134 -0.001107
# 3 -0.000010 -0.005859 0.013346 0.007587 -0.003071 -0.000245
# 4 0.002687 0.000529 0.007587 0.038021 0.000010 0.003467
# 5 -0.020196 0.011134 -0.003071 0.000010 0.049862 -0.011940
# 6 0.020736 -0.001107 -0.000245 0.003467 -0.011940 0.052790
#
#
# Mechanical properties :
#
#
# Convention : Reuss Voigt Hill
#
# Bulk Modulus (GPa) = 31.48979 49.46570 40.47775
# Shear Modulus (GPa) = 20.08241 29.58099 24.83170
#
# Velocity S-wave (km/s) = 2.87212 3.48579 3.19373
# Velocity P-wave (km/s) = 4.89219 6.04314 5.49786
#
# Compressibility (1/GPa) = 0.03175632
#
# Stress axis : x y z
#
# Youngs Moduli (GPa) = 37.58775 40.34674 74.92609
#
# Poissons Ratio (x) = 0.42853 0.00076
# Poissons Ratio (y) = 0.39922 0.43896
# Poissons Ratio (z) = 0.00038 0.23637
#
# Static dielectric constant tensor:
#      x y z
#    x 1.946030 -0.017450 -0.000730 
#    y -0.017450 1.994500 0.058250 
#    z -0.000730 0.058250 1.986310 
# 
# From -- ./inp_files/280119.got.cif
#   From: 2010.05.17/outbox.cif.g08.bks.cpg/sg2_141_cif.got.tgz:280119.got - 2010.06.03 11:33:40.
