data_PCOD9036491
_publ_section_title
;
Structure prediction by ZEFSAII (Michael W. Deem and Ramdas Pophale) SiO2 
 PCOD9036491
Probable space group: P -1
;
_chemical_formula_sum "Si O2"
_cell_formula_units_Z 14
_cell_length_a 23.487579
_cell_length_b 18.265165
_cell_length_c 5.176932
_cell_angle_alpha 60.975103
_cell_angle_beta 69.939809
_cell_angle_gamma 20.767098
_cell_volume 643.221398
_symmetry_space_group_name_H-M "P -1"
_symmetry_group_IT_number 2
_symmetry_cell_setting 'triclinic'
loop_
_space_group_symop_operation_xyz
x,y,z
-x,-y,-z
loop_
_atom_site_type_symbol
_atom_site_label
_atom_site_fract_x
_atom_site_fract_y
_atom_site_fract_z
Si Si1 0.676184 0.546323 0.382362
Si Si2 0.948909 0.936192 0.582045
Si Si3 0.381437 0.729036 0.686599
Si Si4 0.131040 0.789447 0.957028
Si Si5 0.422737 0.787269 0.025506
Si Si6 0.595430 0.964275 0.865636
Si Si7 0.205400 0.233112 0.621995
O O1 0.593569 0.621044 0.115424
O O2 0.552950 0.774736 0.303236
O O3 0.700512 0.445353 0.738172
O O4 0.874502 0.311078 0.423613
O O5 0.805825 0.062639 0.465717
O O6 0.854502 0.150288 0.360212
O O7 0.035233 0.833200 0.907965
O O8 0.436756 0.700906 0.380400
O O9 0.500000 0.500000 0.000000
O O10 0.379766 0.796922 0.809092
O O11 0.000000 0.000000 0.000000
O O12 0.273479 0.049412 0.848176
O O13 0.698662 0.849196 0.635828
O O14 0.727839 0.805591 0.163618
O O15 0.500000 0.000000 0.000000
O O16 0.000000 0.500000 0.500000
#
# Coordination Sequence:
#
# PCOD9036491 Si02
#       7
#     2   2   2   2   2   2   2
#     4  10  23  40  68  91 133 177 227 279 350 420
#     4  10  23  37  64  94 129 181 230 282 346 403
#     4  12  27  43  65 100 145 179 237 291 343 407
#     4   9  20  37  62  90 131 173 231 272 347 406
#     4  11  26  44  67  98 136 187 229 282 355 427
#     4  11  25  45  73 109 137 177 238 304 356 418
#     4  11  25  48  75 101 144 190 234 286 374 443
#
# _framework density 21.765443999999999
#
# number of rings (size 3 to 8) (size 9 to 14) (size 15 to 20)
#    0.000    1.429    0.000    3.857   16.000    2.286 
#    0.000    0.000    0.000    0.000    0.000    0.000 
#    0.000    0.000    0.000    0.000    0.000    0.000 
#
# Total GULP energy -78001.093998 kJ/mol
# GULP energy per Si atom -5571.506714 kJ/mol
# Density = 2.171590 g / cm^3
# Si number density = 21.765444 Si / 1000 Ang^3
#
#
#
# Elastic Constant Matrix: (Units=GPa)
#
#
# Indices 1 2 3 4 5 6 
#
# 1 94.3612 34.3439 42.6339 -20.4917 27.4223 -14.1503
# 2 34.3439 100.9523 53.4654 -17.5580 7.8266 -21.2654
# 3 42.6339 53.4654 108.6851 -4.6647 26.8226 -4.8087
# 4 -20.4917 -17.5580 -4.6647 51.1633 -1.8365 11.0384
# 5 27.4223 7.8266 26.8226 -1.8365 45.0272 -2.3921
# 6 -14.1503 -21.2654 -4.8087 11.0384 -2.3921 30.5748
#
#
#
# Elastic Compliance Matrix: (Units=1/GPa)
#
#
# Indices 1 2 3 4 5 6 
#
# 1 0.016437 -0.001574 -0.003519 0.004662 -0.007253 0.003709
# 2 -0.001574 0.016720 -0.007928 0.002566 0.003357 0.008990
# 3 -0.003519 -0.007928 0.015721 -0.001959 -0.006160 -0.004445
# 4 0.004662 0.002566 -0.001959 0.023102 -0.001432 -0.004819
# 5 -0.007253 0.003357 -0.006160 -0.001432 0.029698 0.000850
# 6 0.003709 0.008990 -0.004445 -0.004819 0.000850 0.041783
#
#
# Mechanical properties :
#
#
# Convention : Reuss Voigt Hill
#
# Bulk Modulus (GPa) = 43.79272 62.76500 53.27886
# Shear Modulus (GPa) = 28.23027 36.92344 32.57685
#
# Velocity S-wave (km/s) = 3.60533 4.12324 3.87295
# Velocity P-wave (km/s) = 6.12333 7.18107 6.67319
#
# Compressibility (1/GPa) = 0.02283485
#
# Stress axis : x y z
#
# Youngs Moduli (GPa) = 60.83946 59.81033 63.60935
#
# Poissons Ratio (x) = 0.09411 0.22387
# Poissons Ratio (y) = 0.09573 0.50431
# Poissons Ratio (z) = 0.21412 0.47419
#
# Static dielectric constant tensor:
#      x y z
#    x 1.861280 -0.070950 -0.011410 
#    y -0.070950 1.895260 0.121090 
#    z -0.011410 0.121090 1.705410 
# 
# From -- ./inp_files/124669.got.cif
#   From: 2010.05.17/outbox.cif.g08.bks.cpg/sg2_63_cif.got.tgz:124669.got - 2010.06.03 11:33:40.
