data_PCOD9036983
_publ_section_title
;
Structure prediction by ZEFSAII (Michael W. Deem and Ramdas Pophale) SiO2 
 PCOD9036983
Probable space group: P -1
;
_chemical_formula_sum "Si O2"
_cell_formula_units_Z 14
_cell_length_a 9.823210
_cell_length_b 9.918127
_cell_length_c 9.455044
_cell_angle_alpha 91.808424
_cell_angle_beta 41.859811
_cell_angle_gamma 77.662443
_cell_volume 574.251934
_symmetry_space_group_name_H-M "P -1"
_symmetry_group_IT_number 2
_symmetry_cell_setting 'triclinic'
loop_
_space_group_symop_operation_xyz
x,y,z
-x,-y,-z
loop_
_atom_site_type_symbol
_atom_site_label
_atom_site_fract_x
_atom_site_fract_y
_atom_site_fract_z
Si Si1 0.075452 0.395216 0.142138
Si Si2 0.380567 0.910817 0.007543
Si Si3 0.905059 0.241613 0.049498
Si Si4 0.997666 0.836867 0.602398
Si Si5 0.926145 0.338947 0.722760
Si Si6 0.554206 0.333222 0.846335
Si Si7 0.666871 0.045654 0.280066
O O1 0.067898 0.263992 0.240272
O O2 0.963842 0.546861 0.313959
O O3 0.327763 0.387196 0.939338
O O4 0.961046 0.368019 0.088692
O O5 0.471707 0.753901 0.998685
O O6 0.127983 0.999748 0.249417
O O7 0.500000 0.000000 0.000000
O O8 0.407735 0.927106 0.823010
O O9 0.864256 0.282257 0.917062
O O10 0.116957 0.096749 0.885587
O O11 0.726543 0.189615 0.264824
O O12 0.940212 0.788504 0.490450
O O13 0.259979 0.786655 0.395071
O O14 0.709033 0.416325 0.794590
O O15 0.500000 0.000000 0.500000
#
# Coordination Sequence:
#
# PCOD9036983 Si02
#       7
#     2   2   2   2   2   2   2
#     4  12  22  44  65  99 135 173 225 261 320 394
#     4  12  21  42  68  97 128 166 219 280 324 391
#     4  11  24  44  64  99 133 172 212 275 328 391
#     4  10  23  39  67  96 129 172 220 267 333 375
#     4  10  24  43  68  93 137 177 216 270 319 390
#     4  10  23  39  69  94 133 173 216 273 326 383
#     4  11  25  43  67  96 134 167 214 275 337 389
#
# _framework density 24.379543000000002
#
# number of rings (size 3 to 8) (size 9 to 14) (size 15 to 20)
#    0.857    0.286    4.286    1.714    2.000    2.286 
#    0.000    0.000    0.000    3.429    0.000    0.000 
#    0.000    0.000    0.000    0.000    0.000    0.000 
#
# Total GULP energy -78120.696731 kJ/mol
# GULP energy per Si atom -5580.049767 kJ/mol
# Density = 2.432405 g / cm^3
# Si number density = 24.379543 Si / 1000 Ang^3
#
#
#
# Elastic Constant Matrix: (Units=GPa)
#
#
# Indices 1 2 3 4 5 6 
#
# 1 122.5971 20.1972 45.7365 -1.1929 13.4508 23.4987
# 2 20.1972 98.1872 13.8131 -12.6861 10.5284 20.4103
# 3 45.7365 13.8131 94.0777 -7.6176 6.7622 2.3565
# 4 -1.1929 -12.6861 -7.6176 12.2346 5.8239 0.5204
# 5 13.4508 10.5284 6.7622 5.8239 33.1161 1.2365
# 6 23.4987 20.4103 2.3565 0.5204 1.2365 43.2559
#
#
#
# Elastic Compliance Matrix: (Units=1/GPa)
#
#
# Indices 1 2 3 4 5 6 
#
# 1 0.011635 -0.000138 -0.005292 -0.000485 -0.003297 -0.005867
# 2 -0.000138 0.015076 0.000215 0.019867 -0.008011 -0.007060
# 3 -0.005292 0.000215 0.014083 0.009610 -0.002558 0.001963
# 4 -0.000485 0.019867 0.009610 0.122640 -0.029266 -0.010273
# 5 -0.003297 -0.008011 -0.002558 -0.029266 0.039568 0.004932
# 6 -0.005867 -0.007060 0.001963 -0.010273 0.004932 0.029513
#
#
# Mechanical properties :
#
#
# Convention : Reuss Voigt Hill
#
# Bulk Modulus (GPa) = 32.93261 52.70617 42.81939
# Shear Modulus (GPa) = 19.75761 33.39565 26.57663
#
# Velocity S-wave (km/s) = 2.84987 3.70513 3.30528
# Velocity P-wave (km/s) = 4.93626 6.32218 5.67171
#
# Compressibility (1/GPa) = 0.03036504
#
# Stress axis : x y z
#
# Youngs Moduli (GPa) = 85.94521 66.32906 71.00604
#
# Poissons Ratio (x) = 0.00918 0.37573
# Poissons Ratio (y) = 0.01190 -0.01527
# Poissons Ratio (z) = 0.45478 -0.01426
#
# Static dielectric constant tensor:
#      x y z
#    x 2.019950 -0.005280 -0.036450 
#    y -0.005280 2.054180 0.055230 
#    z -0.036450 0.055230 2.047490 
# 
# From -- ./inp_files/187208.got.cif
#   From: 2010.05.17/outbox.cif.g08.bks.cpg/sg2_94_cif.got.tgz:187208.got - 2010.06.03 11:33:40.
