data_PCOD9036138
_publ_section_title
;
Structure prediction by ZEFSAII (Michael W. Deem and Ramdas Pophale) SiO2 
 PCOD9036138
Probable space group: P -1
;
_chemical_formula_sum "Si O2"
_cell_formula_units_Z 15
_cell_length_a 15.557458
_cell_length_b 8.724517
_cell_length_c 8.420031
_cell_angle_alpha 123.067855
_cell_angle_beta 115.640033
_cell_angle_gamma 42.926949
_cell_volume 651.184167
_symmetry_space_group_name_H-M "P -1"
_symmetry_group_IT_number 2
_symmetry_cell_setting 'triclinic'
loop_
_space_group_symop_operation_xyz
x,y,z
-x,-y,-z
loop_
_atom_site_type_symbol
_atom_site_label
_atom_site_fract_x
_atom_site_fract_y
_atom_site_fract_z
Si Si1 0.725214 0.164426 0.886440
Si Si2 0.081170 0.354527 0.330548
Si Si3 0.746592 0.227746 0.294535
Si Si4 0.509535 0.207459 0.606837
Si Si5 0.162548 0.576338 0.337552
Si Si6 0.379327 0.944403 0.736684
Si Si7 0.000000 0.500000 0.000000
Si Si8 0.348235 0.371480 0.077004
O O1 0.600442 0.192998 0.798474
O O2 0.696964 0.395429 0.921046
O O3 0.832348 0.930085 0.738089
O O4 0.773476 0.123371 0.081193
O O5 0.175780 0.401371 0.383073
O O6 0.000000 0.500000 0.500000
O O7 0.999690 0.436063 0.151690
O O8 0.623483 0.517010 0.344713
O O9 0.847438 0.222414 0.464663
O O10 0.713985 0.091292 0.294332
O O11 0.575993 0.155269 0.460547
O O12 0.500000 0.000000 0.500000
O O13 0.279074 0.437035 0.228575
O O14 0.048838 0.640923 0.179010
O O15 0.503964 0.785531 0.857221
O O16 0.327566 0.213908 0.870137
#
# Coordination Sequence:
#
# PCOD9036138 Si02
#       8
#     2   2   2   2   2   2   1   2
#     4  12  26  42  69 111 144 188 242 305 363 445
#     4  10  24  52  79 103 140 185 253 317 371 436
#     4  12  23  42  68 108 152 187 238 287 367 446
#     4  12  24  39  65 105 151 193 234 288 358 450
#     4  10  22  47  75  99 142 190 243 303 373 433
#     4  11  24  40  67 102 154 198 236 283 348 456
#     4   8  24  48  78 100 134 186 246 308 374 424
#     4  11  23  43  69 104 147 196 238 291 364 431
#
# _framework density 23.034956000000001
#
# number of rings (size 3 to 8) (size 9 to 14) (size 15 to 20)
#    0.800    0.267    2.667    4.000    3.733    2.133 
#    2.400    4.000    0.000    0.000    0.000    0.000 
#    0.000    0.000    0.000    0.000    0.000    0.000 
#
# Total GULP energy -83663.401601 kJ/mol
# GULP energy per Si atom -5577.560107 kJ/mol
# Density = 2.298253 g / cm^3
# Si number density = 23.034956 Si / 1000 Ang^3
#
#
#
# Elastic Constant Matrix: (Units=GPa)
#
#
# Indices 1 2 3 4 5 6 
#
# 1 91.7152 40.4557 54.3932 5.3555 19.9860 20.6107
# 2 40.4557 68.5705 35.6558 8.4869 4.2623 8.3330
# 3 54.3932 35.6558 147.9447 -4.0338 25.1200 -9.1994
# 4 5.3555 8.4869 -4.0338 34.5973 -0.5479 7.9029
# 5 19.9860 4.2623 25.1200 -0.5479 54.3794 -0.8674
# 6 20.6107 8.3330 -9.1994 7.9029 -0.8674 28.5857
#
#
#
# Elastic Compliance Matrix: (Units=1/GPa)
#
#
# Indices 1 2 3 4 5 6 
#
# 1 0.023407 -0.008005 -0.006852 0.001411 -0.005072 -0.017292
# 2 -0.008005 0.021057 -0.002667 -0.004201 0.002481 0.000011
# 3 -0.006852 -0.002667 0.010863 0.000916 -0.002139 0.008896
# 4 0.001411 -0.004201 0.000916 0.031707 -0.000425 -0.008277
# 5 -0.005072 0.002481 -0.002139 -0.000425 0.021091 0.003002
# 6 -0.017292 0.000011 0.008896 -0.008277 0.003002 0.052689
#
#
# Mechanical properties :
#
#
# Convention : Reuss Voigt Hill
#
# Bulk Modulus (GPa) = 49.31236 63.24888 56.28062
# Shear Modulus (GPa) = 24.67659 35.36085 30.01872
#
# Velocity S-wave (km/s) = 3.27657 3.92228 3.61388
# Velocity P-wave (km/s) = 5.98069 6.93035 6.47296
#
# Compressibility (1/GPa) = 0.02027889
#
# Stress axis : x y z
#
# Youngs Moduli (GPa) = 42.72270 47.48940 92.05770
#
# Poissons Ratio (x) = 0.38013 0.63080
# Poissons Ratio (y) = 0.34198 0.24553
# Poissons Ratio (z) = 0.29275 0.12666
#
# Static dielectric constant tensor:
#      x y z
#    x 1.861540 -0.048190 0.045580 
#    y -0.048190 1.897890 0.005150 
#    z 0.045580 0.005150 1.852110 
# 
# From -- ./inp_files/296891.got.cif
#   From: 2010.05.17/outbox.cif.g08.bks.cpg/sg2_149_cif.got.tgz:296891.got - 2010.06.03 11:33:40.
