data_PCOD9036318
_publ_section_title
;
Structure prediction by ZEFSAII (Michael W. Deem and Ramdas Pophale) SiO2 
 PCOD9036318
Probable space group: P -1
;
_chemical_formula_sum "Si O2"
_cell_formula_units_Z 14
_cell_length_a 9.981934
_cell_length_b 10.804926
_cell_length_c 12.672005
_cell_angle_alpha 94.181762
_cell_angle_beta 121.552751
_cell_angle_gamma 38.562966
_cell_volume 562.066018
_symmetry_space_group_name_H-M "P -1"
_symmetry_group_IT_number 2
_symmetry_cell_setting 'triclinic'
loop_
_space_group_symop_operation_xyz
x,y,z
-x,-y,-z
loop_
_atom_site_type_symbol
_atom_site_label
_atom_site_fract_x
_atom_site_fract_y
_atom_site_fract_z
Si Si1 0.995028 0.859623 0.459185
Si Si2 0.896727 0.314823 0.948589
Si Si3 0.618730 0.744748 0.869566
Si Si4 0.466661 0.671662 0.236170
Si Si5 0.935060 0.752642 0.226624
Si Si6 0.985934 0.576917 0.666459
Si Si7 0.369175 0.981908 0.303285
O O1 0.081125 0.754519 0.369111
O O2 0.613232 0.082709 0.317789
O O3 0.241086 0.614629 0.616822
O O4 0.000000 0.000000 0.500000
O O5 0.614952 0.602000 0.890499
O O6 0.785728 0.250740 0.910080
O O7 0.938686 0.312008 0.842012
O O8 0.219997 0.118393 0.136356
O O9 0.443995 0.948295 0.896794
O O10 0.000000 0.500000 0.000000
O O11 0.327446 0.860889 0.279656
O O12 0.652688 0.631938 0.228351
O O13 0.009190 0.562746 0.286986
O O14 0.743402 0.740393 0.475615
O O15 0.837497 0.788589 0.690333
#
# Coordination Sequence:
#
# PCOD9036318 Si02
#       7
#     2   2   2   2   2   2   2
#     4  10  22  49  75 108 152 198 255 315 373 456
#     4  12  28  46  79 113 157 197 256 316 388 444
#     4  10  25  44  71 110 150 188 254 318 373 435
#     4  12  25  49  76 110 154 206 246 322 375 462
#     4  10  26  49  77 114 149 206 254 314 379 458
#     4  11  27  49  80 108 155 205 261 302 385 459
#     4  11  27  48  75 113 155 207 250 314 381 462
#
# _framework density 24.908106
#
# number of rings (size 3 to 8) (size 9 to 14) (size 15 to 20)
#    0.857    0.286    2.857    0.857    6.000    6.286 
#    0.000    0.000    0.000    0.000    0.000    0.000 
#    0.000    0.000    0.000    0.000    0.000    0.000 
#
# Total GULP energy -78234.804435 kJ/mol
# GULP energy per Si atom -5588.200317 kJ/mol
# Density = 2.485141 g / cm^3
# Si number density = 24.908106 Si / 1000 Ang^3
#
#
#
# Elastic Constant Matrix: (Units=GPa)
#
#
# Indices 1 2 3 4 5 6 
#
# 1 75.3623 43.7506 60.5899 10.3394 6.6787 14.6677
# 2 43.7506 229.9226 52.4704 -3.7349 3.9319 32.6097
# 3 60.5899 52.4704 121.2099 4.9451 0.1530 8.0545
# 4 10.3394 -3.7349 4.9451 55.2457 13.6673 1.6060
# 5 6.6787 3.9319 0.1530 13.6673 38.1788 -2.7558
# 6 14.6677 32.6097 8.0545 1.6060 -2.7558 41.9916
#
#
#
# Elastic Compliance Matrix: (Units=1/GPa)
#
#
# Indices 1 2 3 4 5 6 
#
# 1 0.025040 -0.001331 -0.011451 -0.002685 -0.003644 -0.005653
# 2 -0.001331 0.005497 -0.001518 0.001105 -0.000984 -0.003620
# 3 -0.011451 -0.001518 0.014454 0.000118 0.002243 0.002548
# 4 -0.002685 0.001105 0.000118 0.020446 -0.007050 -0.001187
# 5 -0.003644 -0.000984 0.002243 -0.007050 0.029722 0.003827
# 6 -0.005653 -0.003620 0.002548 -0.001187 0.003827 0.028408
#
#
# Mechanical properties :
#
#
# Convention : Reuss Voigt Hill
#
# Bulk Modulus (GPa) = 61.00513 82.23519 71.62016
# Shear Modulus (GPa) = 31.71989 45.06213 38.39101
#
# Velocity S-wave (km/s) = 3.57245 4.25801 3.93021
# Velocity P-wave (km/s) = 6.44684 7.56712 7.02933
#
# Compressibility (1/GPa) = 0.01639206
#
# Stress axis : x y z
#
# Youngs Moduli (GPa) = 39.93648 181.91559 69.18466
#
# Poissons Ratio (x) = 0.24214 0.79222
# Poissons Ratio (y) = 0.05316 0.10499
# Poissons Ratio (z) = 0.45730 0.27607
#
# Static dielectric constant tensor:
#      x y z
#    x 2.058850 0.059870 0.042290 
#    y 0.059870 2.023020 0.015410 
#    z 0.042290 0.015410 2.017000 
# 
# From -- ./inp_files/200445.got.cif
#   From: 2010.05.17/outbox.cif.g08.bks.cpg/sg2_101_cif.got.tgz:200445.got - 2010.06.03 11:33:40.
