data_PCOD9036210
_publ_section_title
;
Structure prediction by ZEFSAII (Michael W. Deem and Ramdas Pophale) SiO2 
 PCOD9036210
Probable space group: P -1
;
_chemical_formula_sum "Si O2"
_cell_formula_units_Z 16
_cell_length_a 9.359033
_cell_length_b 5.912370
_cell_length_c 16.259807
_cell_angle_alpha 129.211503
_cell_angle_beta 81.532010
_cell_angle_gamma 96.407996
_cell_volume 689.318795
_symmetry_space_group_name_H-M "P -1"
_symmetry_group_IT_number 2
_symmetry_cell_setting 'triclinic'
loop_
_space_group_symop_operation_xyz
x,y,z
-x,-y,-z
loop_
_atom_site_type_symbol
_atom_site_label
_atom_site_fract_x
_atom_site_fract_y
_atom_site_fract_z
Si Si1 0.741089 0.671122 0.240761
Si Si2 0.149255 0.250466 0.509248
Si Si3 0.920746 0.264541 0.019342
Si Si4 0.771308 0.976251 0.821577
Si Si5 0.708311 0.302291 0.623742
Si Si6 0.572048 0.543462 0.394856
Si Si7 0.976138 0.162392 0.334850
Si Si8 0.466451 0.882375 0.243512
O O1 0.664540 0.589952 0.314226
O O2 0.608317 0.693618 0.193357
O O3 0.850116 0.447956 0.140645
O O4 0.830667 0.972751 0.316929
O O5 0.317892 0.356690 0.520735
O O6 0.074116 0.220914 0.420486
O O7 0.070721 0.520252 0.621464
O O8 0.165894 0.917933 0.463085
O O9 0.800007 0.085779 0.935350
O O10 0.000000 0.500000 0.000000
O O11 0.000000 0.000000 0.000000
O O12 0.749693 0.634161 0.720125
O O13 0.924063 0.029158 0.775482
O O14 0.634164 0.131563 0.830633
O O15 0.579432 0.295116 0.566438
O O16 0.638543 0.191171 0.688955
O O17 0.528449 0.207628 0.325157
#
# Coordination Sequence:
#
# PCOD9036210 Si02
#       8
#     2   2   2   2   2   2   2   2
#     4  11  25  47  73 104 143 186 240 304 370 432
#     4  11  23  40  66 101 140 193 242 288 368 430
#     4  12  30  49  83 115 145 193 240 302 386 443
#     4  11  25  47  73 104 143 186 240 304 370 432
#     4  10  23  42  68 100 142 188 238 301 354 431
#     4  10  23  42  68 100 142 188 238 301 354 431
#     4  11  24  41  68 104 142 187 234 305 358 442
#     4  10  22  48  70  98 146 184 240 306 356 426
#
# _framework density 23.211324000000001
#
# number of rings (size 3 to 8) (size 9 to 14) (size 15 to 20)
#    0.000    1.250    3.750    0.375    7.000    4.000 
#    0.000    5.625    0.000    0.000    0.000    0.000 
#    0.000    0.000    0.000    0.000    0.000    0.000 
#
# Total GULP energy -89328.555143 kJ/mol
# GULP energy per Si atom -5583.034696 kJ/mol
# Density = 2.315849 g / cm^3
# Si number density = 23.211324 Si / 1000 Ang^3
#
#
#
# Elastic Constant Matrix: (Units=GPa)
#
#
# Indices 1 2 3 4 5 6 
#
# 1 143.6879 60.0317 48.1753 8.2156 14.2973 -31.2392
# 2 60.0317 106.7589 27.0365 4.9983 -7.0436 5.4888
# 3 48.1753 27.0365 96.2267 9.2524 1.7712 -10.7479
# 4 8.2156 4.9983 9.2524 20.9336 -9.7785 -4.6145
# 5 14.2973 -7.0436 1.7712 -9.7785 46.4006 5.1163
# 6 -31.2392 5.4888 -10.7479 -4.6145 5.1163 50.0711
#
#
#
# Elastic Compliance Matrix: (Units=1/GPa)
#
#
# Indices 1 2 3 4 5 6 
#
# 1 0.014550 -0.008127 -0.003442 -0.003579 -0.007404 0.009657
# 2 -0.008127 0.014954 -0.001195 0.001264 0.005908 -0.007454
# 3 -0.003442 -0.001195 0.012916 -0.004238 -0.000554 0.000422
# 4 -0.003579 0.001264 -0.004238 0.057156 0.013434 0.000614
# 5 -0.007404 0.005908 -0.000554 0.013434 0.028359 -0.007046
# 6 0.009657 -0.007454 0.000422 0.000614 -0.007046 0.027680
#
#
# Mechanical properties :
#
#
# Convention : Reuss Voigt Hill
#
# Bulk Modulus (GPa) = 59.20581 68.57339 63.88960
# Shear Modulus (GPa) = 26.77027 37.57639 32.17333
#
# Velocity S-wave (km/s) = 3.39975 4.02790 3.72708
# Velocity P-wave (km/s) = 6.40108 7.15815 6.79017
#
# Compressibility (1/GPa) = 0.01689023
#
# Stress axis : x y z
#
# Youngs Moduli (GPa) = 68.72925 66.87375 77.42358
#
# Poissons Ratio (x) = 0.54351 0.26648
# Poissons Ratio (y) = 0.55859 0.09255
# Poissons Ratio (z) = 0.23655 0.07994
#
# Static dielectric constant tensor:
#      x y z
#    x 1.907930 -0.005270 -0.005210 
#    y -0.005270 1.965810 0.017630 
#    z -0.005210 0.017630 1.826170 
# 
# From -- ./inp_files/553934.got.cif
#   From: 2010.05.17/outbox.cif.g08.bks.cpg/sg2_277_cif.got.tgz:553934.got - 2010.06.03 11:33:40.
