data_PCOD9036441
_publ_section_title
;
Structure prediction by ZEFSAII (Michael W. Deem and Ramdas Pophale) SiO2 
 PCOD9036441
Probable space group: P -1
;
_chemical_formula_sum "Si O2"
_cell_formula_units_Z 16
_cell_length_a 12.883395
_cell_length_b 11.957793
_cell_length_c 11.413913
_cell_angle_alpha 78.925480
_cell_angle_beta 43.419932
_cell_angle_gamma 113.159202
_cell_volume 727.394708
_symmetry_space_group_name_H-M "P -1"
_symmetry_group_IT_number 2
_symmetry_cell_setting 'triclinic'
loop_
_space_group_symop_operation_xyz
x,y,z
-x,-y,-z
loop_
_atom_site_type_symbol
_atom_site_label
_atom_site_fract_x
_atom_site_fract_y
_atom_site_fract_z
Si Si1 0.749398 0.761232 0.113233
Si Si2 0.696967 0.357850 0.513755
Si Si3 0.853234 0.203632 0.989850
Si Si4 0.391149 0.548484 0.832865
Si Si5 0.896196 0.539103 0.693840
Si Si6 0.280033 0.808836 0.150937
Si Si7 0.284239 0.705875 0.737911
Si Si8 0.842629 0.827545 0.284472
O O1 0.545524 0.720904 0.226621
O O2 0.741827 0.629759 0.095835
O O3 0.689465 0.731174 0.307888
O O4 0.022740 0.974884 0.836898
O O5 0.622169 0.243570 0.481372
O O6 0.888744 0.572038 0.277628
O O7 0.866467 0.377535 0.451460
O O8 0.713542 0.144622 0.996206
O O9 0.934470 0.123118 0.939751
O O10 0.716960 0.175773 0.217620
O O11 0.386694 0.668593 0.747008
O O12 0.678402 0.688560 0.555239
O O13 0.262117 0.487170 0.075767
O O14 0.731940 0.336172 0.821275
O O15 0.022539 0.681623 0.454990
O O16 0.500000 0.000000 0.000000
O O17 0.000000 0.500000 0.000000
#
# Coordination Sequence:
#
# PCOD9036441 Si02
#       8
#     2   2   2   2   2   2   2   2
#     4  11  23  36  56  91 129 169 194 230 301 376
#     4  10  18  36  61  92 124 154 197 241 299 363
#     4  10  20  39  62  88 119 158 205 247 300 355
#     4  12  20  38  61  84 127 159 191 249 294 357
#     4  10  23  39  66  93 113 155 207 251 300 353
#     4  10  22  42  65  89 114 153 204 263 302 339
#     4  10  17  32  63  93 119 157 196 243 305 350
#     4  11  24  36  56  90 130 166 199 231 299 372
#
# _framework density 21.996310000000001
#
# number of rings (size 3 to 8) (size 9 to 14) (size 15 to 20)
#    0.000    1.500    6.250    1.875    1.750    1.000 
#    0.000    1.250    0.000    1.500    0.000    0.000 
#    0.000    0.000    0.000    0.000    0.000    0.000 
#
# Total GULP energy -89302.710963 kJ/mol
# GULP energy per Si atom -5581.419435 kJ/mol
# Density = 2.194625 g / cm^3
# Si number density = 21.996310 Si / 1000 Ang^3
#
#
#
# Elastic Constant Matrix: (Units=GPa)
#
#
# Indices 1 2 3 4 5 6 
#
# 1 29.9288 11.9117 11.2418 1.8993 -7.6487 6.5601
# 2 11.9117 133.2071 67.4940 0.2019 -10.1018 16.6341
# 3 11.2418 67.4940 97.3545 14.2598 5.7917 12.0605
# 4 1.8993 0.2019 14.2598 38.7506 2.7963 -0.7197
# 5 -7.6487 -10.1018 5.7917 2.7963 20.5846 3.1987
# 6 6.5601 16.6341 12.0605 -0.7197 3.1987 27.4627
#
#
#
# Elastic Compliance Matrix: (Units=1/GPa)
#
#
# Indices 1 2 3 4 5 6 
#
# 1 0.042657 0.002247 -0.006079 -0.001565 0.020636 -0.011326
# 2 0.002247 0.014161 -0.010432 0.002736 0.011245 -0.005771
# 3 -0.006079 -0.010432 0.019772 -0.006038 -0.012175 0.000348
# 4 -0.001565 0.002736 -0.006038 0.028259 -0.001738 0.002311
# 5 0.020636 0.011245 -0.012175 -0.001738 0.067653 -0.014319
# 6 -0.011326 -0.005771 0.000348 0.002311 -0.014319 0.044189
#
#
# Mechanical properties :
#
#
# Convention : Reuss Voigt Hill
#
# Bulk Modulus (GPa) = 20.80626 49.08726 34.94676
# Shear Modulus (GPa) = 19.13951 28.68245 23.91098
#
# Velocity S-wave (km/s) = 2.95299 3.61496 3.30061
# Velocity P-wave (km/s) = 4.59416 6.30782 5.51792
#
# Compressibility (1/GPa) = 0.04806246
#
# Stress axis : x y z
#
# Youngs Moduli (GPa) = 23.44262 70.61607 50.57733
#
# Poissons Ratio (x) = -0.15870 0.30747
# Poissons Ratio (y) = -0.05268 0.52762
# Poissons Ratio (z) = 0.14251 0.73666
#
# Static dielectric constant tensor:
#      x y z
#    x 1.952630 -0.082300 -0.036890 
#    y -0.082300 1.874640 0.039040 
#    z -0.036890 0.039040 1.844820 
# 
# From -- ./inp_files/452346.got.cif
#   From: 2010.05.17/outbox.cif.g08.bks.cpg/sg2_227_cif.got.tgz:452346.got - 2010.06.03 11:33:40.
