data_PCOD9036517
_publ_section_title
;
Structure prediction by ZEFSAII (Michael W. Deem and Ramdas Pophale) SiO2 
 PCOD9036517
Probable space group: P -1
;
_chemical_formula_sum "Si O2"
_cell_formula_units_Z 14
_cell_length_a 20.283454
_cell_length_b 11.926134
_cell_length_c 13.461404
_cell_angle_alpha 42.593908
_cell_angle_beta 157.188726
_cell_angle_gamma 149.510810
_cell_volume 611.915641
_symmetry_space_group_name_H-M "P -1"
_symmetry_group_IT_number 2
_symmetry_cell_setting 'triclinic'
loop_
_space_group_symop_operation_xyz
x,y,z
-x,-y,-z
loop_
_atom_site_type_symbol
_atom_site_label
_atom_site_fract_x
_atom_site_fract_y
_atom_site_fract_z
Si Si1 0.437229 0.944105 0.743185
Si Si2 0.047537 0.959611 0.980874
Si Si3 0.130678 0.647342 0.329900
Si Si4 0.568173 0.711242 0.400077
Si Si5 0.480724 0.335449 0.211221
Si Si6 0.740291 0.846895 0.194556
Si Si7 0.290953 0.721927 0.875259
O O1 0.322057 0.856545 0.533752
O O2 0.502036 0.174284 0.709195
O O3 0.655333 0.968187 0.033366
O O4 0.246845 0.733190 0.692291
O O5 0.853727 0.909164 0.670205
O O6 0.017699 0.739645 0.070422
O O7 0.310819 0.183440 0.166167
O O8 0.000000 0.000000 0.000000
O O9 0.288153 0.628456 0.496193
O O10 0.935595 0.421770 0.274258
O O11 0.500000 0.500000 0.500000
O O12 0.426004 0.643783 0.144466
O O13 0.576041 0.586723 0.176390
O O14 0.317824 0.197538 0.975556
O O15 0.000000 0.000000 0.500000
O O16 0.500000 0.000000 0.000000
#
# Coordination Sequence:
#
# PCOD9036517 Si02
#       7
#     2   2   2   2   2   2   2
#     4  10  23  40  65 100 132 179 238 277 349 414
#     4  12  25  44  70  97 142 185 234 288 352 426
#     4  11  22  45  67  95 144 181 228 289 348 420
#     4  11  23  40  64 100 137 175 228 289 352 408
#     4  10  26  45  67 104 139 187 238 290 357 418
#     4  10  24  43  71  98 141 185 236 292 355 420
#     4  10  23  37  67 100 135 175 229 289 344 402
#
# _framework density 22.878969000000001
#
# number of rings (size 3 to 8) (size 9 to 14) (size 15 to 20)
#    0.000    1.429    2.857    0.857    8.000    5.714 
#    0.000    0.000    0.000    5.143    0.000    0.000 
#    0.000    0.000    0.000    0.000    0.000    0.000 
#
# Total GULP energy -78128.275931 kJ/mol
# GULP energy per Si atom -5580.591138 kJ/mol
# Density = 2.282690 g / cm^3
# Si number density = 22.878969 Si / 1000 Ang^3
#
#
#
# Elastic Constant Matrix: (Units=GPa)
#
#
# Indices 1 2 3 4 5 6 
#
# 1 79.1787 41.7248 28.7542 -5.6396 29.0820 10.2968
# 2 41.7248 118.1330 45.3580 -21.3070 16.4737 3.2433
# 3 28.7542 45.3580 111.0700 -8.7584 34.5519 -6.5354
# 4 -5.6396 -21.3070 -8.7584 44.8183 0.7210 4.8306
# 5 29.0820 16.4737 34.5519 0.7210 30.5545 4.4635
# 6 10.2968 3.2433 -6.5354 4.8306 4.4635 37.1838
#
#
#
# Elastic Compliance Matrix: (Units=1/GPa)
#
#
# Indices 1 2 3 4 5 6 
#
# 1 0.023248 -0.006061 0.003308 0.001354 -0.022219 -0.002836
# 2 -0.006061 0.012623 -0.004664 0.004401 0.004328 -0.001334
# 3 0.003308 -0.004664 0.016738 0.001290 -0.020279 0.004699
# 4 0.001354 0.004401 0.001290 0.025255 -0.005251 -0.003183
# 5 -0.022219 0.004328 -0.020279 -0.005251 0.075500 -0.006170
# 6 -0.002836 -0.001334 0.004699 -0.003183 -0.006170 0.029775
#
#
# Mechanical properties :
#
#
# Convention : Reuss Voigt Hill
#
# Bulk Modulus (GPa) = 26.47128 60.00620 43.23874
# Shear Modulus (GPa) = 23.74558 35.34764 29.54661
#
# Velocity S-wave (km/s) = 3.22511 3.93489 3.59755
# Velocity P-wave (km/s) = 5.04615 6.85048 6.01634
#
# Compressibility (1/GPa) = 0.03777680
#
# Stress axis : x y z
#
# Youngs Moduli (GPa) = 43.01368 79.21762 59.74400
#
# Poissons Ratio (x) = 0.48016 -0.19765
# Poissons Ratio (y) = 0.26072 0.27862
# Poissons Ratio (z) = -0.14230 0.36944
#
# Static dielectric constant tensor:
#      x y z
#    x 1.966870 -0.001970 -0.052050 
#    y -0.001970 1.846690 -0.011410 
#    z -0.052050 -0.011410 1.941130 
# 
# From -- ./inp_files/188499.got.cif
#   From: 2010.05.17/outbox.cif.g08.bks.cpg/sg2_95_cif.got.tgz:188499.got - 2010.06.03 11:33:40.
