data_PCOD9036899
_publ_section_title
;
Structure prediction by ZEFSAII (Michael W. Deem and Ramdas Pophale) SiO2 
 PCOD9036899
Probable space group: P -1
;
_chemical_formula_sum "Si O2"
_cell_formula_units_Z 14
_cell_length_a 12.153631
_cell_length_b 5.262210
_cell_length_c 10.227706
_cell_angle_alpha 64.871892
_cell_angle_beta 79.006377
_cell_angle_gamma 99.461014
_cell_volume 558.747472
_symmetry_space_group_name_H-M "P -1"
_symmetry_group_IT_number 2
_symmetry_cell_setting 'triclinic'
loop_
_space_group_symop_operation_xyz
x,y,z
-x,-y,-z
loop_
_atom_site_type_symbol
_atom_site_label
_atom_site_fract_x
_atom_site_fract_y
_atom_site_fract_z
Si Si1 0.715901 0.894538 0.142642
Si Si2 0.037174 0.209397 0.319874
Si Si3 0.237342 0.551741 0.369015
Si Si4 0.342579 0.116245 0.118372
Si Si5 0.088193 0.295458 0.717133
Si Si6 0.518656 0.578044 0.628222
Si Si7 0.420718 0.728413 0.832570
O O1 0.828525 0.802379 0.177339
O O2 0.600869 0.609513 0.227866
O O3 0.680213 0.111191 0.203630
O O4 0.713599 0.027272 0.972961
O O5 0.162991 0.402052 0.294260
O O6 0.962307 0.445321 0.277896
O O7 0.000000 0.000000 0.500000
O O8 0.009875 0.990673 0.250601
O O9 0.169518 0.420108 0.545118
O O10 0.361392 0.483838 0.348630
O O11 0.261262 0.901793 0.287226
O O12 0.474840 0.117751 0.120829
O O13 0.357174 0.452162 0.004369
O O14 0.500000 0.500000 0.500000
O O15 0.507282 0.848206 0.656771
#
# Coordination Sequence:
#
# PCOD9036899 Si02
#       7
#     2   2   2   2   2   2   2
#     4  11  23  43  64  98 147 173 219 285 349 409
#     4  10  24  47  70  99 133 183 232 288 347 399
#     4  11  22  43  67  97 132 172 237 288 328 422
#     4  10  23  40  64  98 134 186 230 264 346 414
#     4  11  25  45  73  99 137 179 231 295 348 394
#     4  11  23  39  62 106 134 168 222 287 354 403
#     4  10  23  39  65  94 145 186 216 272 346 427
#
# _framework density 25.056042000000001
#
# number of rings (size 3 to 8) (size 9 to 14) (size 15 to 20)
#    0.000    1.429    2.857    2.143    8.000    4.000 
#    0.000    1.429    0.000    0.000    0.000    0.000 
#    0.000    0.000    0.000    0.000    0.000    0.000 
#
# Total GULP energy -77953.517686 kJ/mol
# GULP energy per Si atom -5568.108406 kJ/mol
# Density = 2.499901 g / cm^3
# Si number density = 25.056042 Si / 1000 Ang^3
#
#
#
# Elastic Constant Matrix: (Units=GPa)
#
#
# Indices 1 2 3 4 5 6 
#
# 1 162.8497 69.1217 23.6059 -5.4347 35.1850 1.8551
# 2 69.1217 154.3681 37.9829 -16.5879 25.6797 2.3652
# 3 23.6059 37.9829 66.0319 5.6294 16.2562 19.5048
# 4 -5.4347 -16.5879 5.6294 34.3595 9.4012 -6.7428
# 5 35.1850 25.6797 16.2562 9.4012 26.9812 -5.4615
# 6 1.8551 2.3652 19.5048 -6.7428 -5.4615 52.4199
#
#
#
# Elastic Compliance Matrix: (Units=1/GPa)
#
#
# Indices 1 2 3 4 5 6 
#
# 1 0.009828 -0.002065 0.001027 0.003662 -0.013055 -0.001526
# 2 -0.002065 0.010512 -0.004791 0.007715 -0.006776 0.001668
# 3 0.001027 -0.004791 0.023940 -0.004971 -0.011612 -0.010577
# 4 0.003662 0.007715 -0.004971 0.041261 -0.022625 0.004322
# 5 -0.013055 -0.006776 -0.011612 -0.022625 0.077491 0.010252
# 6 -0.001526 0.001668 -0.010577 0.004322 0.010252 0.024615
#
#
# Mechanical properties :
#
#
# Convention : Reuss Voigt Hill
#
# Bulk Modulus (GPa) = 30.65378 71.63006 51.14192
# Shear Modulus (GPa) = 23.78919 39.58808 31.68863
#
# Velocity S-wave (km/s) = 3.08464 3.97921 3.56013
# Velocity P-wave (km/s) = 4.99473 7.05423 6.11185
#
# Compressibility (1/GPa) = 0.03262241
#
# Stress axis : x y z
#
# Youngs Moduli (GPa) = 101.74498 95.12853 41.77177
#
# Poissons Ratio (x) = 0.19643 -0.04288
# Poissons Ratio (y) = 0.21009 0.20011
# Poissons Ratio (z) = -0.10445 0.45572
#
# Static dielectric constant tensor:
#      x y z
#    x 1.751280 0.977940 0.052480 
#    y 0.977940 -1.907130 -0.220080 
#    z 0.052480 -0.220080 1.970290 
# 
# From -- ./inp_files/408955.got.cif
#   From: 2010.05.17/outbox.cif.g08.bks.cpg/sg2_205_cif.got.tgz:408955.got - 2010.06.03 11:33:40.
