data_PCOD9036105
_publ_section_title
;
Structure prediction by ZEFSAII (Michael W. Deem and Ramdas Pophale) SiO2 
 PCOD9036105
Probable space group: P -1
;
_chemical_formula_sum "Si O2"
_cell_formula_units_Z 14
_cell_length_a 9.873644
_cell_length_b 11.486713
_cell_length_c 8.474025
_cell_angle_alpha 118.321969
_cell_angle_beta 62.969260
_cell_angle_gamma 122.530424
_cell_volume 687.090562
_symmetry_space_group_name_H-M "P -1"
_symmetry_group_IT_number 2
_symmetry_cell_setting 'triclinic'
loop_
_space_group_symop_operation_xyz
x,y,z
-x,-y,-z
loop_
_atom_site_type_symbol
_atom_site_label
_atom_site_fract_x
_atom_site_fract_y
_atom_site_fract_z
Si Si1 0.091573 0.814290 0.058291
Si Si2 0.314542 0.114452 0.549454
Si Si3 0.598573 0.093289 0.857246
Si Si4 0.831483 0.858429 0.664682
Si Si5 0.697656 0.635243 0.131195
Si Si6 0.549294 0.684436 0.925416
Si Si7 0.910498 0.088061 0.201942
O O1 0.221769 0.794022 0.096031
O O2 0.896396 0.708746 0.104817
O O3 0.131397 0.980511 0.190793
O O4 0.134578 0.824599 0.854678
O O5 0.176998 0.125311 0.506566
O O6 0.396814 0.280233 0.669590
O O7 0.391747 0.021350 0.349448
O O8 0.238184 0.026085 0.691702
O O9 0.506355 0.190437 0.908876
O O10 0.500000 0.000000 0.000000
O O11 0.967072 0.821084 0.663405
O O12 0.653962 0.746048 0.750678
O O13 0.666237 0.658876 0.979191
O O14 0.608317 0.466718 0.109142
O O15 0.000000 0.000000 0.000000
#
# Coordination Sequence:
#
# PCOD9036105 Si02
#       7
#     2   2   2   2   2   2   2
#     4  10  19  37  64  85 119 161 206 243 303 356
#     4  11  21  34  64  96 115 158 211 251 298 358
#     4  11  24  40  60  92 130 157 197 257 308 353
#     4  10  18  33  61  88 122 149 210 254 290 345
#     4  11  23  39  66  91 118 165 209 245 304 364
#     4  11  23  43  59  90 132 160 192 259 312 354
#     4  10  17  32  60  93 113 149 210 257 281 345
#
# _framework density 20.375771
#
# number of rings (size 3 to 8) (size 9 to 14) (size 15 to 20)
#    0.000    1.429    7.143    1.286    2.000    1.714 
#    0.000    0.000    0.000    0.857    0.000    0.000 
#    0.000    0.000    0.000    0.000    0.000    0.000 
#
# Total GULP energy -77939.179302 kJ/mol
# GULP energy per Si atom -5567.084236 kJ/mol
# Density = 2.032939 g / cm^3
# Si number density = 20.375771 Si / 1000 Ang^3
#
#
#
# Elastic Constant Matrix: (Units=GPa)
#
#
# Indices 1 2 3 4 5 6 
#
# 1 63.4918 25.0722 4.8627 -7.6122 8.4283 11.0734
# 2 25.0722 121.5682 38.9430 -1.4011 -9.6145 18.0834
# 3 4.8627 38.9430 86.9204 -1.5212 -9.0380 -0.3529
# 4 -7.6122 -1.4011 -1.5212 16.7061 1.6676 -1.9678
# 5 8.4283 -9.6145 -9.0380 1.6676 21.7485 1.3688
# 6 11.0734 18.0834 -0.3529 -1.9678 1.3688 26.7108
#
#
#
# Elastic Compliance Matrix: (Units=1/GPa)
#
#
# Indices 1 2 3 4 5 6 
#
# 1 0.020777 -0.004278 -0.000185 0.009610 -0.010475 -0.004475
# 2 -0.004278 0.012046 -0.004641 -0.002748 0.005702 -0.006938
# 3 -0.000185 -0.004641 0.013993 0.000831 0.003565 0.003282
# 4 0.009610 -0.002748 0.000831 0.065440 -0.009813 0.003211
# 5 -0.010475 0.005702 0.003565 -0.009813 0.054984 -0.003011
# 6 -0.004475 -0.006938 0.003282 0.003211 -0.003011 0.044424
#
#
# Mechanical properties :
#
#
# Convention : Reuss Voigt Hill
#
# Bulk Modulus (GPa) = 34.95509 45.52625 40.24067
# Shear Modulus (GPa) = 20.88489 26.57324 23.72907
#
# Velocity S-wave (km/s) = 3.20501 3.61523 3.41629
# Velocity P-wave (km/s) = 5.55775 6.31018 5.94588
#
# Compressibility (1/GPa) = 0.02860814
#
# Stress axis : x y z
#
# Youngs Moduli (GPa) = 48.13110 83.01455 71.46427
#
# Poissons Ratio (x) = 0.35512 0.01321
# Poissons Ratio (y) = 0.20589 0.33167
# Poissons Ratio (z) = 0.00890 0.38528
#
# Static dielectric constant tensor:
#      x y z
#    x 1.927040 0.012320 0.005080 
#    y 0.012320 1.717230 -0.017190 
#    z 0.005080 -0.017190 1.758150 
# 
# From -- ./inp_files/254821.got.cif
#   From: 2010.05.17/outbox.cif.g08.bks.cpg/sg2_128_cif.got.tgz:254821.got - 2010.06.03 11:33:40.
