data_PCOD9036750
_publ_section_title
;
Structure prediction by ZEFSAII (Michael W. Deem and Ramdas Pophale) SiO2 
 PCOD9036750
Probable space group: P -1
;
_chemical_formula_sum "Si O2"
_cell_formula_units_Z 14
_cell_length_a 15.295724
_cell_length_b 9.514197
_cell_length_c 15.353732
_cell_angle_alpha 36.429261
_cell_angle_beta 28.457645
_cell_angle_gamma 39.259040
_cell_volume 614.314664
_symmetry_space_group_name_H-M "P -1"
_symmetry_group_IT_number 2
_symmetry_cell_setting 'triclinic'
loop_
_space_group_symop_operation_xyz
x,y,z
-x,-y,-z
loop_
_atom_site_type_symbol
_atom_site_label
_atom_site_fract_x
_atom_site_fract_y
_atom_site_fract_z
Si Si1 0.906866 0.017994 0.230507
Si Si2 0.867197 0.843880 0.734853
Si Si3 0.471873 0.811732 0.220474
Si Si4 0.715444 0.429825 0.068420
Si Si5 0.557457 0.850117 0.614035
Si Si6 0.820315 0.346792 0.311318
Si Si7 0.305076 0.073956 0.882397
O O1 0.850178 0.183579 0.111003
O O2 0.827063 0.196652 0.292019
O O3 0.782532 0.816731 0.439952
O O4 0.131645 0.946926 0.081763
O O5 0.974369 0.748253 0.777287
O O6 0.666794 0.030469 0.807328
O O7 0.839188 0.600387 0.832505
O O8 0.000000 0.000000 0.500000
O O9 0.614553 0.592328 0.156956
O O10 0.339345 0.707419 0.456765
O O11 0.582248 0.968829 0.104448
O O12 0.543157 0.372704 0.193888
O O13 0.500000 0.000000 0.500000
O O14 0.453460 0.004456 0.708920
O O15 0.782184 0.635069 0.188666
#
# Coordination Sequence:
#
# PCOD9036750 Si02
#       7
#     2   2   2   2   2   2   2
#     4  11  21  37  64  96 128 157 207 259 309 365
#     4  10  23  39  60  92 125 164 208 260 302 367
#     4  11  22  37  67  90 122 166 208 253 314 361
#     4  11  21  41  59  92 130 162 203 259 312 364
#     4  10  24  39  58  96 134 158 199 259 315 372
#     4  11  19  38  64  96 127 152 214 266 301 357
#     4  12  21  38  67  93 120 166 205 258 310 360
#
# _framework density 22.789622999999999
#
# number of rings (size 3 to 8) (size 9 to 14) (size 15 to 20)
#    0.000    1.143    4.286    3.857    0.000    2.286 
#    5.143    0.714    0.000    1.714    0.000    0.000 
#    0.000    0.000    0.000    0.000    0.000    0.000 
#
# Total GULP energy -78199.448395 kJ/mol
# GULP energy per Si atom -5585.674885 kJ/mol
# Density = 2.273775 g / cm^3
# Si number density = 22.789623 Si / 1000 Ang^3
#
#
#
# Elastic Constant Matrix: (Units=GPa)
#
#
# Indices 1 2 3 4 5 6 
#
# 1 113.2045 28.8944 41.2508 0.8473 -31.9029 -10.5131
# 2 28.8944 27.4336 20.4106 5.0514 -0.6984 -2.5869
# 3 41.2508 20.4106 150.9366 -1.7196 -46.3146 0.8820
# 4 0.8473 5.0514 -1.7196 41.4702 6.4024 -6.1314
# 5 -31.9029 -0.6984 -46.3146 6.4024 55.3250 3.2445
# 6 -10.5131 -2.5869 0.8820 -6.1314 3.2445 30.5379
#
#
#
# Elastic Compliance Matrix: (Units=1/GPa)
#
#
# Indices 1 2 3 4 5 6 
#
# 1 0.015708 -0.016752 0.000798 0.000791 0.009239 0.003143
# 2 -0.016752 0.060935 -0.008444 -0.005014 -0.015396 0.000268
# 3 0.000798 -0.008444 0.010369 -0.000233 0.009164 -0.001760
# 4 0.000791 -0.005014 -0.000233 0.025980 -0.003125 0.005403
# 5 0.009239 -0.015396 0.009164 -0.003125 0.031379 -0.002350
# 6 0.003143 0.000268 -0.001760 0.005403 -0.002350 0.035236
#
#
# Mechanical properties :
#
#
# Convention : Reuss Voigt Hill
#
# Bulk Modulus (GPa) = 26.16830 52.52071 39.34450
# Shear Modulus (GPa) = 20.73457 38.86787 29.80122
#
# Velocity S-wave (km/s) = 3.01960 4.13426 3.62009
# Velocity P-wave (km/s) = 4.86465 6.77387 5.89704
#
# Compressibility (1/GPa) = 0.03821418
#
# Stress axis : x y z
#
# Youngs Moduli (GPa) = 63.66054 16.41084 96.44468
#
# Poissons Ratio (x) = 0.27492 -0.07695
# Poissons Ratio (y) = 1.06647 0.81442
# Poissons Ratio (z) = -0.05079 0.13858
#
# Static dielectric constant tensor:
#      x y z
#    x 1.986180 -0.201010 0.085590 
#    y -0.201010 2.121120 -0.195090 
#    z 0.085590 -0.195090 2.067150 
# 
# From -- ./inp_files/174896.got.cif
#   From: 2010.05.17/outbox.cif.g08.bks.cpg/sg2_88_cif.got.tgz:174896.got - 2010.06.03 11:33:40.
