data_PCOD9036629
_publ_section_title
;
Structure prediction by ZEFSAII (Michael W. Deem and Ramdas Pophale) SiO2 
 PCOD9036629
Probable space group: P -1
;
_chemical_formula_sum "Si O2"
_cell_formula_units_Z 16
_cell_length_a 9.412620
_cell_length_b 9.827020
_cell_length_c 16.060360
_cell_angle_alpha 121.816579
_cell_angle_beta 146.442503
_cell_angle_gamma 61.602485
_cell_volume 695.702694
_symmetry_space_group_name_H-M "P -1"
_symmetry_group_IT_number 2
_symmetry_cell_setting 'triclinic'
loop_
_space_group_symop_operation_xyz
x,y,z
-x,-y,-z
loop_
_atom_site_type_symbol
_atom_site_label
_atom_site_fract_x
_atom_site_fract_y
_atom_site_fract_z
Si Si1 0.023931 0.348386 0.400067
Si Si2 0.380875 0.681946 0.509030
Si Si3 0.703832 0.315286 0.871555
Si Si4 0.524893 0.394820 0.063286
Si Si5 0.258853 0.183552 0.148120
Si Si6 0.207790 0.815793 0.624200
Si Si7 0.568449 0.185001 0.588161
Si Si8 0.544897 0.874845 0.174009
O O1 0.813197 0.368986 0.231516
O O2 0.965777 0.205334 0.389014
O O3 0.000000 0.500000 0.500000
O O4 0.306580 0.302200 0.490070
O O5 0.500000 0.500000 0.500000
O O6 0.614855 0.783565 0.689980
O O7 0.172001 0.707396 0.490114
O O8 0.722992 0.233474 0.597926
O O9 0.635475 0.503691 0.912384
O O10 0.695832 0.242450 0.752985
O O11 0.490641 0.231061 0.795850
O O12 0.985430 0.271622 0.031543
O O13 0.500000 0.500000 0.000000
O O14 0.432426 0.227788 0.931545
O O15 0.492239 0.242019 0.223482
O O16 0.280469 0.993677 0.080664
O O17 0.239603 0.998981 0.673294
O O18 0.500000 0.000000 0.500000
#
# Coordination Sequence:
#
# PCOD9036629 Si02
#       8
#     2   2   2   2   2   2   2   2
#     4  12  24  45  68  90 137 174 218 273 330 395
#     4   9  20  42  66  94 130 174 218 264 341 393
#     4  11  20  39  61 101 128 165 223 270 316 395
#     4  10  23  38  64  94 126 170 219 263 323 391
#     4   8  20  37  69  87 128 167 218 264 328 378
#     4   8  21  41  68  92 123 175 215 266 336 377
#     4  12  26  39  68 101 130 173 226 272 327 397
#     4   8  19  39  64  90 128 170 215 263 330 386
#
# _framework density 22.998331
#
# number of rings (size 3 to 8) (size 9 to 14) (size 15 to 20)
#    1.500    0.500    1.250    2.625    5.250    0.500 
#    0.000    6.250    0.000    0.000    0.000    0.000 
#    0.000    0.000    0.000    0.000    0.000    0.000 
#
# Total GULP energy -89219.982452 kJ/mol
# GULP energy per Si atom -5576.248903 kJ/mol
# Density = 2.294599 g / cm^3
# Si number density = 22.998331 Si / 1000 Ang^3
#
#
#
# Elastic Constant Matrix: (Units=GPa)
#
#
# Indices 1 2 3 4 5 6 
#
# 1 51.5564 10.5428 15.2596 1.3601 -11.8583 11.2670
# 2 10.5428 87.3670 10.3598 17.9004 -14.8877 -17.9459
# 3 15.2596 10.3598 76.9041 1.8688 -23.7704 -4.6792
# 4 1.3601 17.9004 1.8688 34.2525 -9.9940 -7.9744
# 5 -11.8583 -14.8877 -23.7704 -9.9940 35.5027 -2.5632
# 6 11.2670 -17.9459 -4.6792 -7.9744 -2.5632 34.5154
#
#
#
# Elastic Compliance Matrix: (Units=1/GPa)
#
#
# Indices 1 2 3 4 5 6 
#
# 1 0.024380 -0.004071 -0.004011 -0.000195 0.002942 -0.010445
# 2 -0.004071 0.015417 0.000971 -0.004383 0.005160 0.008847
# 3 -0.004011 0.000971 0.017796 0.003717 0.012462 0.006011
# 4 -0.000195 -0.004383 0.003717 0.036360 0.011364 0.007533
# 5 0.002942 0.005160 0.012462 0.011364 0.043526 0.009270
# 6 -0.010445 0.008847 0.006011 0.007533 0.009270 0.040226
#
#
# Mechanical properties :
#
#
# Convention : Reuss Voigt Hill
#
# Bulk Modulus (GPa) = 23.05702 32.01689 27.53695
# Shear Modulus (GPa) = 24.22683 32.83181 28.52932
#
# Velocity S-wave (km/s) = 3.24916 3.78242 3.52589
# Velocity P-wave (km/s) = 4.91155 5.74693 5.34559
#
# Compressibility (1/GPa) = 0.04337075
#
# Stress axis : x y z
#
# Youngs Moduli (GPa) = 41.01677 64.86552 56.19322
#
# Poissons Ratio (x) = 0.26405 0.22538
# Poissons Ratio (y) = 0.16697 -0.05454
# Poissons Ratio (z) = 0.16451 -0.06296
#
# Static dielectric constant tensor:
#      x y z
#    x 1.960260 0.035310 -0.004760 
#    y 0.035310 1.915280 0.010320 
#    z -0.004760 0.010320 1.849320 
# 
# From -- ./inp_files/566160.got.cif
#   From: 2010.05.17/outbox.cif.g08.bks.cpg/sg2_284_cif.got.tgz:566160.got - 2010.06.03 11:33:40.
