data_PCOD9036109
_publ_section_title
;
Structure prediction by ZEFSAII (Michael W. Deem and Ramdas Pophale) SiO2 
 PCOD9036109
Probable space group: P -1
;
_chemical_formula_sum "Si O2"
_cell_formula_units_Z 16
_cell_length_a 7.982314
_cell_length_b 8.344905
_cell_length_c 11.665730
_cell_angle_alpha 55.606269
_cell_angle_beta 83.174049
_cell_angle_gamma 105.339657
_cell_volume 582.175427
_symmetry_space_group_name_H-M "P -1"
_symmetry_group_IT_number 2
_symmetry_cell_setting 'triclinic'
loop_
_space_group_symop_operation_xyz
x,y,z
-x,-y,-z
loop_
_atom_site_type_symbol
_atom_site_label
_atom_site_fract_x
_atom_site_fract_y
_atom_site_fract_z
Si Si1 0.260109 0.991650 0.211032
Si Si2 0.432682 0.540819 0.251471
Si Si3 0.076894 0.711417 0.689568
Si Si4 0.707220 0.534180 0.327086
Si Si5 0.258425 0.445166 0.061682
Si Si6 0.351710 0.879832 0.773421
Si Si7 0.208938 0.023092 0.952366
Si Si8 0.102736 0.351242 0.507122
O O1 0.061461 0.869628 0.327588
O O2 0.277751 0.235471 0.104653
O O3 0.431032 0.992013 0.272336
O O4 0.276648 0.949121 0.090686
O O5 0.506511 0.374597 0.366862
O O6 0.382487 0.531116 0.130151
O O7 0.286323 0.559748 0.337059
O O8 0.141349 0.529479 0.711820
O O9 0.256720 0.894671 0.656733
O O10 0.944148 0.618816 0.846216
O O11 0.965145 0.752397 0.578558
O O12 0.657537 0.719712 0.180422
O O13 0.744636 0.630229 0.407342
O O14 0.315246 0.630750 0.890117
O O15 0.247048 0.921663 0.876367
O O16 0.000000 0.000000 0.000000
O O17 0.000000 0.500000 0.500000
#
# Coordination Sequence:
#
# PCOD9036109 Si02
#       8
#     2   2   2   2   2   2   2   2
#     4  12  26  45  73 108 141 184 235 294 354 413
#     4   9  22  46  73 102 139 190 227 284 358 416
#     4  11  26  44  70 106 140 192 233 286 354 419
#     4  10  22  47  74 100 141 188 235 284 355 418
#     4  11  24  44  73 102 146 181 233 297 350 408
#     4  12  24  46  72 103 143 186 237 288 351 422
#     4  10  25  43  77 104 134 187 236 289 349 418
#     4  11  26  45  73 104 144 184 236 292 349 419
#
# _framework density 27.483122999999999
#
# number of rings (size 3 to 8) (size 9 to 14) (size 15 to 20)
#    0.750    0.500    1.250    3.375    3.500    5.000 
#    0.000    0.000    0.000    0.000    0.000    0.000 
#    0.000    0.000    0.000    0.000    0.000    0.000 
#
# Total GULP energy -89177.834112 kJ/mol
# GULP energy per Si atom -5573.614632 kJ/mol
# Density = 2.742057 g / cm^3
# Si number density = 27.483123 Si / 1000 Ang^3
#
#
#
# Elastic Constant Matrix: (Units=GPa)
#
#
# Indices 1 2 3 4 5 6 
#
# 1 121.9609 26.6924 38.7813 14.3754 9.3115 10.3702
# 2 26.6924 91.4285 33.3626 -2.0671 -1.0464 22.2335
# 3 38.7813 33.3626 129.8400 16.4954 8.6832 38.1199
# 4 14.3754 -2.0671 16.4954 44.9752 13.5751 5.5633
# 5 9.3115 -1.0464 8.6832 13.5751 60.7021 28.9536
# 6 10.3702 22.2335 38.1199 5.5633 28.9536 37.2984
#
#
#
# Elastic Compliance Matrix: (Units=1/GPa)
#
#
# Indices 1 2 3 4 5 6 
#
# 1 0.009905 -0.003009 -0.003214 -0.001811 -0.003087 0.004991
# 2 -0.003009 0.015329 0.000783 0.000951 0.007638 -0.015171
# 3 -0.003214 0.000783 0.014664 -0.004576 0.009609 -0.021336
# 4 -0.001811 0.000951 -0.004576 0.026160 -0.008323 0.007172
# 5 -0.003087 0.007638 0.009609 -0.008323 0.037191 -0.041144
# 6 0.004991 -0.015171 -0.021336 0.007172 -0.041144 0.087142
#
#
# Mechanical properties :
#
#
# Convention : Reuss Voigt Hill
#
# Bulk Modulus (GPa) = 34.46363 60.10022 47.28192
# Shear Modulus (GPa) = 23.70323 44.88801 34.29562
#
# Velocity S-wave (km/s) = 2.93996 4.04579 3.53637
# Velocity P-wave (km/s) = 4.90832 6.61363 5.82373
#
# Compressibility (1/GPa) = 0.02901610
#
# Stress axis : x y z
#
# Youngs Moduli (GPa) = 100.96286 65.23759 68.19636
#
# Poissons Ratio (x) = 0.19629 0.21919
# Poissons Ratio (y) = 0.30378 -0.05337
# Poissons Ratio (z) = 0.32450 -0.05105
#
# Static dielectric constant tensor:
#      x y z
#    x 2.274120 0.219210 -0.036340 
#    y 0.219210 2.523570 -0.306250 
#    z -0.036340 -0.306250 2.276680 
# 
# From -- ./inp_files/378728.got.cif
#   From: 2010.05.17/outbox.cif.g08.bks.cpg/sg2_190_cif.got.tgz:378728.got - 2010.06.03 11:33:40.
