data_PCOD9036253
_publ_section_title
;
Structure prediction by ZEFSAII (Michael W. Deem and Ramdas Pophale) SiO2 
 PCOD9036253
Probable space group: P -1
;
_chemical_formula_sum "Si O2"
_cell_formula_units_Z 13
_cell_length_a 11.240641
_cell_length_b 9.062294
_cell_length_c 13.831822
_cell_angle_alpha 146.687723
_cell_angle_beta 45.643144
_cell_angle_gamma 117.773129
_cell_volume 527.585570
_symmetry_space_group_name_H-M "P -1"
_symmetry_group_IT_number 2
_symmetry_cell_setting 'triclinic'
loop_
_space_group_symop_operation_xyz
x,y,z
-x,-y,-z
loop_
_atom_site_type_symbol
_atom_site_label
_atom_site_fract_x
_atom_site_fract_y
_atom_site_fract_z
Si Si1 0.409640 0.972696 0.815062
Si Si2 0.025641 0.309357 0.285160
Si Si3 0.699696 0.120418 0.389909
Si Si4 0.810447 0.546619 0.090138
Si Si5 0.104716 0.684605 0.296929
Si Si6 0.471429 0.711291 0.822692
Si Si7 0.500000 0.500000 0.000000
O O1 0.383030 0.922784 0.689800
O O2 0.502228 0.717735 0.693670
O O3 0.219399 0.107394 0.044859
O O4 0.508517 0.206603 0.888753
O O5 0.988368 0.532545 0.340253
O O6 0.000000 0.500000 0.500000
O O7 0.896611 0.120256 0.259011
O O8 0.601109 0.438669 0.650526
O O9 0.700686 0.877697 0.333245
O O10 0.712947 0.342002 0.080270
O O11 0.830665 0.480746 0.929304
O O12 0.000000 0.500000 0.000000
O O13 0.286817 0.632954 0.221157
O O14 0.000000 0.000000 0.500000
O O15 0.500000 0.000000 0.000000
#
# Coordination Sequence:
#
# PCOD9036253 Si02
#       7
#     2   2   2   2   2   2   1
#     4  11  24  46  75 105 150 198 256 320 388 466
#     4  11  25  45  72 106 145 196 252 316 388 460
#     4  12  26  48  76 106 152 201 259 324 393 467
#     4  12  28  51  73 112 158 200 262 324 394 471
#     4  11  27  46  77 109 151 203 257 319 392 470
#     4  12  28  47  77 112 152 200 265 322 399 483
#     4  10  22  48  74 106 156 194 262 320 392 464
#
# _framework density 24.640550999999999
#
# number of rings (size 3 to 8) (size 9 to 14) (size 15 to 20)
#    0.000    0.615    3.077    4.154   10.769    2.462 
#    2.769    0.000    0.000    0.000    0.000    0.000 
#    0.000    0.000    0.000    0.000    0.000    0.000 
#
# Total GULP energy -72537.837846 kJ/mol
# GULP energy per Si atom -5579.833680 kJ/mol
# Density = 2.458447 g / cm^3
# Si number density = 24.640551 Si / 1000 Ang^3
#
#
#
# Elastic Constant Matrix: (Units=GPa)
#
#
# Indices 1 2 3 4 5 6 
#
# 1 67.7471 48.2837 23.0018 15.5334 -5.3723 -9.8242
# 2 48.2837 194.8600 21.1497 25.9207 4.1161 0.4587
# 3 23.0018 21.1497 85.3008 28.3487 -7.1265 1.1107
# 4 15.5334 25.9207 28.3487 46.0400 -9.6751 -15.9574
# 5 -5.3723 4.1161 -7.1265 -9.6751 38.9835 -7.5857
# 6 -9.8242 0.4587 1.1107 -15.9574 -7.5857 38.1333
#
#
#
# Elastic Compliance Matrix: (Units=1/GPa)
#
#
# Indices 1 2 3 4 5 6 
#
# 1 0.020959 -0.005093 -0.004893 0.002374 0.004582 0.007508
# 2 -0.005093 0.007030 0.001092 -0.005070 -0.003322 -0.004211
# 3 -0.004893 0.001092 0.016772 -0.012302 -0.002207 -0.007349
# 4 0.002374 -0.005070 -0.012302 0.041305 0.012929 0.020888
# 5 0.004582 -0.003322 -0.002207 0.012929 0.031980 0.013057
# 6 0.007508 -0.004211 -0.007349 0.020888 0.013057 0.039761
#
#
# Mechanical properties :
#
#
# Convention : Reuss Voigt Hill
#
# Bulk Modulus (GPa) = 37.07219 59.19758 48.13489
# Shear Modulus (GPa) = 27.08783 41.66286 34.37535
#
# Velocity S-wave (km/s) = 3.31920 4.11643 3.73912
# Velocity P-wave (km/s) = 5.45594 6.83154 6.18212
#
# Compressibility (1/GPa) = 0.02697440
#
# Stress axis : x y z
#
# Youngs Moduli (GPa) = 47.71106 142.25433 59.62470
#
# Poissons Ratio (x) = 0.72445 0.29174
# Poissons Ratio (y) = 0.24297 -0.06514
# Poissons Ratio (z) = 0.23345 -0.15541
#
# Static dielectric constant tensor:
#      x y z
#    x 2.074640 0.004040 0.016710 
#    y 0.004040 1.927790 0.019690 
#    z 0.016710 0.019690 2.046740 
# 
# From -- ./inp_files/156272.got.cif
#   From: 2010.05.17/outbox.cif.g08.bks.cpg/sg2_79_cif.got.tgz:156272.got - 2010.06.03 11:33:40.
