data_PCOD9036782
_publ_section_title
;
Structure prediction by ZEFSAII (Michael W. Deem and Ramdas Pophale) SiO2 
 PCOD9036782
Probable space group: P -1
;
_chemical_formula_sum "Si O2"
_cell_formula_units_Z 14
_cell_length_a 4.890182
_cell_length_b 17.016054
_cell_length_c 7.157357
_cell_angle_alpha 79.229712
_cell_angle_beta 110.520717
_cell_angle_gamma 111.717251
_cell_volume 517.072956
_symmetry_space_group_name_H-M "P -1"
_symmetry_group_IT_number 2
_symmetry_cell_setting 'triclinic'
loop_
_space_group_symop_operation_xyz
x,y,z
-x,-y,-z
loop_
_atom_site_type_symbol
_atom_site_label
_atom_site_fract_x
_atom_site_fract_y
_atom_site_fract_z
Si Si1 0.954661 0.211819 0.191758
Si Si2 0.632238 0.192299 0.737946
Si Si3 0.663319 0.900829 0.792568
Si Si4 0.015280 0.079395 0.750391
Si Si5 0.757145 0.461726 0.236409
Si Si6 0.957827 0.670573 0.501849
Si Si7 0.380753 0.574313 0.186115
O O1 0.704255 0.135358 0.279346
O O2 0.064047 0.291805 0.316685
O O3 0.216199 0.176074 0.196492
O O4 0.767245 0.227342 0.958717
O O5 0.262481 0.151912 0.657729
O O6 0.789122 0.261516 0.591595
O O7 0.761329 0.115418 0.759124
O O8 0.764038 0.926522 0.019782
O O9 0.836582 0.984929 0.679896
O O10 0.921282 0.408860 0.417184
O O11 0.502335 0.492937 0.260688
O O12 0.030729 0.544014 0.187038
O O13 0.613688 0.407880 0.041071
O O14 0.629351 0.645731 0.330046
#
# Coordination Sequence:
#
# PCOD9036782 Si02
#       7
#     2   2   2   2   2   2   2
#     4  10  23  39  61  97 133 172 223 275 334 396
#     4  10  23  39  61  97 133 172 223 275 334 396
#     4   9  18  38  64  88 126 179 228 276 327 383
#     4   9  18  38  64  88 126 179 228 276 327 383
#     4  10  24  46  72 100 130 173 226 272 324 400
#     4  12  26  44  71 102 142 180 214 276 349 404
#     4  10  24  46  72 100 130 173 226 272 324 400
#
# _framework density 27.075486000000001
#
# number of rings (size 3 to 8) (size 9 to 14) (size 15 to 20)
#    0.000    2.000    0.000    1.714    0.000   16.000 
#    0.000    4.286    0.000    0.000    0.000    0.000 
#    0.000    0.000    0.000    0.000    0.000    0.000 
#
# Total GULP energy -78610.568444 kJ/mol
# GULP energy per Si atom -5615.040603 kJ/mol
# Density = 2.701386 g / cm^3
# Si number density = 27.075486 Si / 1000 Ang^3
#
#
#
# Elastic Constant Matrix: (Units=GPa)
#
#
# Indices 1 2 3 4 5 6 
#
# 1 130.2944 9.1783 21.5239 3.0133 8.3920 -7.1951
# 2 9.1783 50.7781 7.7541 0.6342 -4.8072 2.4758
# 3 21.5239 7.7541 134.4262 12.9620 11.1462 3.2766
# 4 3.0133 0.6342 12.9620 33.7129 1.3380 -4.1715
# 5 8.3920 -4.8072 11.1462 1.3380 39.5969 -1.3959
# 6 -7.1951 2.4758 3.2766 -4.1715 -1.3959 34.4683
#
#
#
# Elastic Compliance Matrix: (Units=1/GPa)
#
#
# Indices 1 2 3 4 5 6 
#
# 1 0.008173 -0.001540 -0.001141 0.000029 -0.001533 0.001867
# 2 -0.001540 0.020517 -0.001142 -0.000127 0.003087 -0.001577
# 3 -0.001141 -0.001142 0.008201 -0.003117 -0.002149 -0.001400
# 4 0.000029 -0.000127 -0.003117 0.031371 -0.000059 0.004106
# 5 -0.001533 0.003087 -0.002149 -0.000059 0.026587 0.000732
# 6 0.001867 -0.001577 -0.001400 0.004106 0.000732 0.030175
#
#
# Mechanical properties :
#
#
# Convention : Reuss Voigt Hill
#
# Bulk Modulus (GPa) = 34.19413 43.60128 38.89770
# Shear Modulus (GPa) = 35.10808 40.02509 37.56658
#
# Velocity S-wave (km/s) = 3.60484 3.84901 3.72892
# Velocity P-wave (km/s) = 5.47568 5.99097 5.73911
#
# Compressibility (1/GPa) = 0.02924479
#
# Stress axis : x y z
#
# Youngs Moduli (GPa) = 122.35390 48.74006 121.94313
#
# Poissons Ratio (x) = 0.07504 0.13914
# Poissons Ratio (y) = 0.18837 0.13930
# Poissons Ratio (z) = 0.13961 0.05568
#
# Static dielectric constant tensor:
#      x y z
#    x 2.030320 0.039130 -0.021520 
#    y 0.039130 2.088560 -0.006440 
#    z -0.021520 -0.006440 2.155370 
# 
# From -- ./inp_files/134531.got.cif
#   From: 2010.05.17/outbox.cif.g08.bks.cpg/sg2_68_cif.got.tgz:134531.got - 2010.06.03 11:33:40.
