data_PCOD9036345
_publ_section_title
;
Structure prediction by ZEFSAII (Michael W. Deem and Ramdas Pophale) SiO2 
 PCOD9036345
Probable space group: P -1
;
_chemical_formula_sum "Si O2"
_cell_formula_units_Z 12
_cell_length_a 8.830951
_cell_length_b 12.803658
_cell_length_c 8.374877
_cell_angle_alpha 61.526324
_cell_angle_beta 130.244077
_cell_angle_gamma 80.763779
_cell_volume 454.820176
_symmetry_space_group_name_H-M "P -1"
_symmetry_group_IT_number 2
_symmetry_cell_setting 'triclinic'
loop_
_space_group_symop_operation_xyz
x,y,z
-x,-y,-z
loop_
_atom_site_type_symbol
_atom_site_label
_atom_site_fract_x
_atom_site_fract_y
_atom_site_fract_z
Si Si1 0.492019 0.144355 0.853423
Si Si2 0.374002 0.180732 0.075062
Si Si3 0.393758 0.297783 0.335180
Si Si4 0.389251 0.555439 0.063405
Si Si5 0.880805 0.249590 0.757666
Si Si6 0.969211 0.121945 0.249622
O O1 0.375810 0.236185 0.535956
O O2 0.321208 0.262982 0.807023
O O3 0.795952 0.075213 0.133361
O O4 0.500000 0.000000 0.000000
O O5 0.309226 0.268824 0.136066
O O6 0.702935 0.023381 0.418402
O O7 0.185156 0.142255 0.977593
O O8 0.263788 0.484509 0.099319
O O9 0.719637 0.202298 0.613952
O O10 0.677647 0.444086 0.437636
O O11 0.500000 0.500000 0.000000
O O12 0.174508 0.750166 0.795252
O O13 0.891741 0.233669 0.964285
#
# Coordination Sequence:
#
# PCOD9036345 Si02
#       6
#     2   2   2   2   2   2
#     4  11  27  42  72 113 157 200 257 304 379 451
#     4  12  25  47  77 114 151 202 248 321 380 447
#     4   9  25  49  76 108 158 199 254 311 379 454
#     4  10  22  50  81 106 152 205 246 315 389 453
#     4   9  24  44  78 107 155 193 256 305 386 450
#     4  11  24  46  78 109 154 193 253 320 380 443
#
# _framework density 26.384053999999999
#
# number of rings (size 3 to 8) (size 9 to 14) (size 15 to 20)
#    1.000    0.667    0.000    2.500    7.000    2.667 
#    0.000    5.833    0.000    0.000    0.000    0.000 
#    0.000    0.000    0.000    0.000    0.000    0.000 
#
# Total GULP energy -67081.784206 kJ/mol
# GULP energy per Si atom -5590.148684 kJ/mol
# Density = 2.632400 g / cm^3
# Si number density = 26.384054 Si / 1000 Ang^3
#
#
#
# Elastic Constant Matrix: (Units=GPa)
#
#
# Indices 1 2 3 4 5 6 
#
# 1 172.6955 68.0091 72.9436 10.8347 -16.2417 3.8160
# 2 68.0091 108.0353 41.5076 4.9646 -12.2067 5.5886
# 3 72.9436 41.5076 96.9849 -2.7098 -10.5527 -3.6042
# 4 10.8347 4.9646 -2.7098 30.5422 0.8862 -4.3920
# 5 -16.2417 -12.2067 -10.5527 0.8862 64.6308 12.7332
# 6 3.8160 5.5886 -3.6042 -4.3920 12.7332 44.0713
#
#
#
# Elastic Compliance Matrix: (Units=1/GPa)
#
#
# Indices 1 2 3 4 5 6 
#
# 1 0.010235 -0.003671 -0.006160 -0.003858 0.001255 -0.001672
# 2 -0.003671 0.012966 -0.002742 -0.001399 0.001517 -0.002128
# 3 -0.006160 -0.002742 0.016343 0.004463 0.000018 0.002657
# 4 -0.003858 -0.001399 0.004463 0.035507 -0.001974 0.004985
# 5 0.001255 0.001517 0.000018 -0.001974 0.017180 -0.005460
# 6 -0.001672 -0.002128 0.002657 0.004985 -0.005460 0.025397
#
#
# Mechanical properties :
#
#
# Convention : Reuss Voigt Hill
#
# Bulk Modulus (GPa) = 69.44947 82.51515 75.98231
# Shear Modulus (GPa) = 33.88151 40.86589 37.37370
#
# Velocity S-wave (km/s) = 3.58741 3.93986 3.76776
# Velocity P-wave (km/s) = 6.59841 7.21382 6.91297
#
# Compressibility (1/GPa) = 0.01439896
#
# Stress axis : x y z
#
# Youngs Moduli (GPa) = 97.70305 77.12424 61.18905
#
# Poissons Ratio (x) = 0.28310 0.37694
# Poissons Ratio (y) = 0.35864 0.16775
# Poissons Ratio (z) = 0.60188 0.21144
#
# Static dielectric constant tensor:
#      x y z
#    x 2.074790 -0.007980 -0.004510 
#    y -0.007980 2.204560 -0.018820 
#    z -0.004510 -0.018820 2.085200 
# 
# From -- ./inp_files/162683.got.cif
#   From: 2010.05.17/outbox.cif.g08.bks.cpg/sg2_82_cif.got.tgz:162683.got - 2010.06.03 11:33:40.
