data_PCOD9036230
_publ_section_title
;
Structure prediction by ZEFSAII (Michael W. Deem and Ramdas Pophale) SiO2 
 PCOD9036230
Probable space group: P -1
;
_chemical_formula_sum "Si O2"
_cell_formula_units_Z 10
_cell_length_a 13.204376
_cell_length_b 15.879227
_cell_length_c 6.075069
_cell_angle_alpha 114.543601
_cell_angle_beta 83.078327
_cell_angle_gamma 152.306163
_cell_volume 436.764240
_symmetry_space_group_name_H-M "P -1"
_symmetry_group_IT_number 2
_symmetry_cell_setting 'triclinic'
loop_
_space_group_symop_operation_xyz
x,y,z
-x,-y,-z
loop_
_atom_site_type_symbol
_atom_site_label
_atom_site_fract_x
_atom_site_fract_y
_atom_site_fract_z
Si Si1 0.893693 0.503401 0.652143
Si Si2 0.349375 0.958381 0.375490
Si Si3 0.867312 0.960493 0.816925
Si Si4 0.007177 0.240494 0.388208
Si Si5 0.270041 0.311475 0.684256
O O1 0.594108 0.225507 0.507232
O O2 0.000000 0.500000 0.500000
O O3 0.872273 0.571400 0.566268
O O4 0.120771 0.726090 0.014978
O O5 0.500000 0.000000 0.500000
O O6 0.198931 0.891933 0.525442
O O7 0.644179 0.704231 0.506847
O O8 0.019121 0.101230 0.695285
O O9 0.857023 0.046955 0.043347
O O10 0.000000 0.000000 0.000000
O O11 0.218156 0.355847 0.593913
O O12 0.500000 0.500000 0.000000
#
# Coordination Sequence:
#
# PCOD9036230 Si02
#       5
#     2   2   2   2   2
#     4  12  27  51  77 112 155 206 252 316 382 452
#     4  12  27  51  78 112 157 199 259 315 376 459
#     4   9  21  46  67 101 143 187 248 309 376 436
#     4  11  25  47  73 114 150 204 250 311 386 452
#     4  10  22  48  72 106 145 192 256 313 373 452
#
# _framework density 22.895647
#
# number of rings (size 3 to 8) (size 9 to 14) (size 15 to 20)
#    0.000    1.200    2.000    2.400    0.000    3.200 
#   46.800    0.000    0.000    0.000    0.000    0.000 
#    0.000    0.000    0.000    0.000    0.000    0.000 
#
# Total GULP energy -55764.704445 kJ/mol
# GULP energy per Si atom -5576.470445 kJ/mol
# Density = 2.284354 g / cm^3
# Si number density = 22.895647 Si / 1000 Ang^3
#
#
#
# Elastic Constant Matrix: (Units=GPa)
#
#
# Indices 1 2 3 4 5 6 
#
# 1 176.1148 90.8327 84.7870 -10.2684 -27.0161 -21.4806
# 2 90.8327 182.7230 68.3662 -3.7871 -18.4460 -16.6318
# 3 84.7870 68.3662 211.1758 -10.9770 -27.1955 -0.3283
# 4 -10.2684 -3.7871 -10.9770 32.7715 8.4103 -3.2457
# 5 -27.0161 -18.4460 -27.1955 8.4103 51.9212 -12.6812
# 6 -21.4806 -16.6318 -0.3283 -3.2457 -12.6812 44.7752
#
#
#
# Elastic Compliance Matrix: (Units=1/GPa)
#
#
# Indices 1 2 3 4 5 6 
#
# 1 0.009558 -0.003092 -0.002300 0.001405 0.003549 0.004527
# 2 -0.003092 0.007671 -0.001140 -0.000563 0.001002 0.001601
# 3 -0.002300 -0.001140 0.006232 0.000803 0.001273 -0.001062
# 4 0.001405 -0.000563 0.000803 0.032320 -0.003863 0.001720
# 5 0.003549 0.001002 0.001273 -0.003863 0.024919 0.008861
# 6 0.004527 0.001601 -0.001062 0.001720 0.008861 0.027727
#
#
# Mechanical properties :
#
#
# Convention : Reuss Voigt Hill
#
# Bulk Modulus (GPa) = 96.16457 117.55394 106.85925
# Shear Modulus (GPa) = 40.01386 47.62876 43.82131
#
# Velocity S-wave (km/s) = 4.18504 4.56593 4.37963
# Velocity P-wave (km/s) = 8.08982 8.90235 8.50579
#
# Compressibility (1/GPa) = 0.01039884
#
# Stress axis : x y z
#
# Youngs Moduli (GPa) = 104.62198 130.35545 160.46716
#
# Poissons Ratio (x) = 0.40301 0.36902
# Poissons Ratio (y) = 0.32345 0.18293
# Poissons Ratio (z) = 0.24060 0.14860
#
# Static dielectric constant tensor:
#      x y z
#    x 1.842900 -0.025160 -0.031610 
#    y -0.025160 2.182760 0.214820 
#    z -0.031610 0.214820 1.930390 
# 
# From -- ./inp_files/1427.got.cif
#   From: 2010.05.17/outbox.cif.g08.bks.cpg/sg2_1_cif.got.tgz:1427.got - 2010.06.03 11:33:40.
