data_PCOD9036979
_publ_section_title
;
Structure prediction by ZEFSAII (Michael W. Deem and Ramdas Pophale) SiO2 
 PCOD9036979
Probable space group: P -1
;
_chemical_formula_sum "Si O2"
_cell_formula_units_Z 14
_cell_length_a 10.390568
_cell_length_b 7.293433
_cell_length_c 20.202126
_cell_angle_alpha 33.948199
_cell_angle_beta 39.101581
_cell_angle_gamma 44.724908
_cell_volume 529.452220
_symmetry_space_group_name_H-M "P -1"
_symmetry_group_IT_number 2
_symmetry_cell_setting 'triclinic'
loop_
_space_group_symop_operation_xyz
x,y,z
-x,-y,-z
loop_
_atom_site_type_symbol
_atom_site_label
_atom_site_fract_x
_atom_site_fract_y
_atom_site_fract_z
Si Si1 0.329792 0.198825 0.934812
Si Si2 0.115213 0.402193 0.554531
Si Si3 0.531885 0.454031 0.420290
Si Si4 0.101951 0.730659 0.970578
Si Si5 0.767436 0.946079 0.641809
Si Si6 0.279209 0.679400 0.217536
Si Si7 0.975443 0.507364 0.216746
O O1 0.149771 0.236298 0.942525
O O2 0.561684 0.243176 0.814103
O O3 0.233889 0.496785 0.934553
O O4 0.338182 0.855771 0.074817
O O5 0.358978 0.268557 0.511103
O O6 0.000000 0.500000 0.500000
O O7 0.962361 0.182439 0.713317
O O8 0.104061 0.747030 0.499430
O O9 0.500000 0.500000 0.500000
O O10 0.773027 0.333090 0.343159
O O11 0.450745 0.832303 0.313297
O O12 0.133619 0.548801 0.082379
O O13 0.123115 0.110965 0.838953
O O14 0.702656 0.717798 0.677583
O O15 0.883154 0.686490 0.725431
#
# Coordination Sequence:
#
# PCOD9036979 Si02
#       7
#     2   2   2   2   2   2   2
#     4  10  23  39  67  94 130 178 219 276 331 388
#     4  10  25  42  66 101 135 169 222 287 329 394
#     4  10  24  41  71 100 130 178 223 268 337 409
#     4  10  23  42  61  98 133 172 222 284 318 401
#     4  10  23  42  68  95 135 176 219 268 337 402
#     4  11  21  42  66  94 132 177 223 262 343 401
#     4  11  22  43  68  96 135 173 225 274 339 390
#
# _framework density 26.442423000000002
#
# number of rings (size 3 to 8) (size 9 to 14) (size 15 to 20)
#    0.857    0.857    1.429    2.143    6.000    0.000 
#    2.571    2.857    0.000    0.000    0.000    0.000 
#    0.000    0.000    0.000    0.000    0.000    0.000 
#
# Total GULP energy -78085.346501 kJ/mol
# GULP energy per Si atom -5577.524750 kJ/mol
# Density = 2.638224 g / cm^3
# Si number density = 26.442423 Si / 1000 Ang^3
#
#
#
# Elastic Constant Matrix: (Units=GPa)
#
#
# Indices 1 2 3 4 5 6 
#
# 1 144.3625 28.0105 43.9184 7.5494 -19.0390 -23.1654
# 2 28.0105 66.8794 21.4662 -4.0907 -18.9106 1.1685
# 3 43.9184 21.4662 69.1830 -4.8703 -6.0623 -11.2511
# 4 7.5494 -4.0907 -4.8703 21.1945 0.3401 -5.9847
# 5 -19.0390 -18.9106 -6.0623 0.3401 53.5640 11.5693
# 6 -23.1654 1.1685 -11.2511 -5.9847 11.5693 31.1859
#
#
#
# Elastic Compliance Matrix: (Units=1/GPa)
#
#
# Indices 1 2 3 4 5 6 
#
# 1 0.010044 -0.002606 -0.005003 -0.003955 0.001120 0.004579
# 2 -0.002606 0.019779 -0.004847 0.001632 0.006942 -0.006688
# 3 -0.005003 -0.004847 0.020434 0.007332 -0.002561 0.006194
# 4 -0.003955 0.001632 0.007332 0.053729 -0.002709 0.010962
# 5 0.001120 0.006942 -0.002561 -0.002709 0.023301 -0.009516
# 6 0.004579 -0.006688 0.006194 0.010962 -0.009516 0.043586
#
#
# Mechanical properties :
#
#
# Convention : Reuss Voigt Hill
#
# Bulk Modulus (GPa) = 39.45696 51.91280 45.68488
# Shear Modulus (GPa) = 24.48167 33.65755 29.06961
#
# Velocity S-wave (km/s) = 3.04608 3.57159 3.31925
# Velocity P-wave (km/s) = 5.22740 6.05668 5.65725
#
# Compressibility (1/GPa) = 0.02534407
#
# Stress axis : x y z
#
# Youngs Moduli (GPa) = 99.56153 50.55822 48.93906
#
# Poissons Ratio (x) = 0.13176 0.24485
# Poissons Ratio (y) = 0.25947 0.23721
# Poissons Ratio (z) = 0.49812 0.24506
#
# Static dielectric constant tensor:
#      x y z
#    x 2.149120 0.026180 -0.036890 
#    y 0.026180 2.160400 0.049920 
#    z -0.036890 0.049920 2.146750 
# 
# From -- ./inp_files/593897.got.cif
#   From: 2010.05.17/outbox.cif.g08.bks.cpg/sg2_297_cif.got.tgz:593897.got - 2010.06.03 11:33:40.
