data_PCOD9036119
_publ_section_title
;
Structure prediction by ZEFSAII (Michael W. Deem and Ramdas Pophale) SiO2 
 PCOD9036119
Probable space group: P -1
;
_chemical_formula_sum "Si O2"
_cell_formula_units_Z 15
_cell_length_a 20.285980
_cell_length_b 5.076413
_cell_length_c 5.220491
_cell_angle_alpha 94.507914
_cell_angle_beta 73.588541
_cell_angle_gamma 95.624602
_cell_volume 512.489712
_symmetry_space_group_name_H-M "P -1"
_symmetry_group_IT_number 2
_symmetry_cell_setting 'triclinic'
loop_
_space_group_symop_operation_xyz
x,y,z
-x,-y,-z
loop_
_atom_site_type_symbol
_atom_site_label
_atom_site_fract_x
_atom_site_fract_y
_atom_site_fract_z
Si Si1 0.302750 0.501002 0.929086
Si Si2 0.575266 0.844464 0.104036
Si Si3 0.000000 0.500000 0.500000
Si Si4 0.131056 0.683864 0.331133
Si Si5 0.806466 0.890695 0.110424
Si Si6 0.731531 0.244730 0.527503
Si Si7 0.056560 0.097499 0.747580
Si Si8 0.503402 0.658036 0.717475
O O1 0.306511 0.725833 0.161201
O O2 0.354128 0.286125 0.936803
O O3 0.305950 0.603870 0.643695
O O4 0.225026 0.362275 0.026018
O O5 0.531673 0.658802 0.374654
O O6 0.558184 0.141451 0.221740
O O7 0.564283 0.852316 0.805526
O O8 0.919572 0.553822 0.735684
O O9 0.968637 0.632737 0.298546
O O10 0.187661 0.659242 0.490469
O O11 0.063545 0.846125 0.521838
O O12 0.168867 0.877396 0.095449
O O13 0.742515 0.966191 0.364339
O O14 0.867014 0.858003 0.233248
O O15 0.000000 0.000000 0.000000
O O16 0.500000 0.500000 0.000000
#
# Coordination Sequence:
#
# PCOD9036119 Si02
#       8
#     2   2   1   2   2   2   2   2
#     4  12  28  45  76 109 146 204 252 310 386 458
#     4  10  25  43  73 113 153 201 261 312 381 463
#     4  12  24  42  70  96 138 186 246 312 396 470
#     4  11  25  45  69 100 145 186 250 317 386 470
#     4  11  26  49  71 104 150 191 252 323 385 467
#     4  11  27  49  70 106 145 195 250 312 384 459
#     4  11  25  44  67 105 140 191 251 320 391 477
#     4  10  22  47  74 113 156 203 252 317 380 451
#
# _framework density 29.268882999999999
#
# number of rings (size 3 to 8) (size 9 to 14) (size 15 to 20)
#    0.000    1.067    2.667    1.600    9.333    0.533 
#    0.000    0.000    0.000    0.000    0.000    0.000 
#    0.000    0.000    0.000    0.000    0.000    0.000 
#
# Total GULP energy -83713.490434 kJ/mol
# GULP energy per Si atom -5580.899362 kJ/mol
# Density = 2.920227 g / cm^3
# Si number density = 29.268883 Si / 1000 Ang^3
#
#
#
# Elastic Constant Matrix: (Units=GPa)
#
#
# Indices 1 2 3 4 5 6 
#
# 1 130.8058 22.0017 42.1425 2.9233 30.9499 -32.1820
# 2 22.0017 151.1779 58.0879 -14.7843 27.0341 -20.7167
# 3 42.1425 58.0879 165.4360 8.2859 31.3066 -1.1920
# 4 2.9233 -14.7843 8.2859 63.0142 7.4148 8.4325
# 5 30.9499 27.0341 31.3066 7.4148 44.5300 -8.6622
# 6 -32.1820 -20.7167 -1.1920 8.4325 -8.6622 58.5338
#
#
#
# Elastic Compliance Matrix: (Units=1/GPa)
#
#
# Indices 1 2 3 4 5 6 
#
# 1 0.010778 0.000919 -0.001965 -0.000089 -0.005604 0.005395
# 2 0.000919 0.008835 -0.002681 0.002506 -0.004025 0.002621
# 3 -0.001965 -0.002681 0.008077 -0.000964 -0.002945 -0.002161
# 4 -0.000089 0.002506 -0.000964 0.017380 -0.004122 -0.002295
# 5 -0.005604 -0.004025 -0.002945 -0.004122 0.031692 0.000718
# 6 0.005395 0.002621 -0.002161 -0.002295 0.000718 0.021371
#
#
# Mechanical properties :
#
#
# Convention : Reuss Voigt Hill
#
# Bulk Modulus (GPa) = 49.41592 76.87601 63.14596
# Shear Modulus (GPa) = 44.51081 54.89478 49.70280
#
# Velocity S-wave (km/s) = 3.90392 4.33544 4.12533
# Velocity P-wave (km/s) = 6.10253 7.16825 6.65675
#
# Compressibility (1/GPa) = 0.02023639
#
# Stress axis : x y z
#
# Youngs Moduli (GPa) = 92.77762 113.18402 123.81600
#
# Poissons Ratio (x) = -0.10401 0.24324
# Poissons Ratio (y) = -0.08525 0.33198
# Poissons Ratio (z) = 0.18226 0.30347
#
# Static dielectric constant tensor:
#      x y z
#    x 1.827110 -0.381640 -0.322390 
#    y -0.381640 1.991720 -0.042510 
#    z -0.322390 -0.042510 2.536710 
# 
# From -- ./inp_files/121530.got.cif
#   From: 2010.05.17/outbox.cif.g08.bks.cpg/sg2_61_cif.got.tgz:121530.got - 2010.06.03 11:33:40.
