data_PCOD9036124
_publ_section_title
;
Structure prediction by ZEFSAII (Michael W. Deem and Ramdas Pophale) SiO2 
 PCOD9036124
Probable space group: P -1
;
_chemical_formula_sum "Si O2"
_cell_formula_units_Z 16
_cell_length_a 25.133074
_cell_length_b 17.477245
_cell_length_c 5.590570
_cell_angle_alpha 55.516402
_cell_angle_beta 123.754757
_cell_angle_gamma 161.742499
_cell_volume 632.620982
_symmetry_space_group_name_H-M "P -1"
_symmetry_group_IT_number 2
_symmetry_cell_setting 'triclinic'
loop_
_space_group_symop_operation_xyz
x,y,z
-x,-y,-z
loop_
_atom_site_type_symbol
_atom_site_label
_atom_site_fract_x
_atom_site_fract_y
_atom_site_fract_z
Si Si1 0.089033 0.971232 0.233273
Si Si2 0.533830 0.468054 0.940952
Si Si3 0.868995 0.827742 0.687537
Si Si4 0.703961 0.268144 0.505553
Si Si5 0.332063 0.711123 0.115948
Si Si6 0.254095 0.020311 0.714401
Si Si7 0.900708 0.349333 0.769133
Si Si8 0.520672 0.292825 0.570687
O O1 0.103536 0.026916 0.439571
O O2 0.122634 0.906761 0.434057
O O3 0.263458 0.252866 0.075941
O O4 0.933201 0.825940 0.011619
O O5 0.497091 0.319019 0.227334
O O6 0.500000 0.500000 0.000000
O O7 0.400900 0.287270 0.708409
O O8 0.673162 0.546962 0.645322
O O9 0.000000 0.000000 0.500000
O O10 0.763255 0.386473 0.705025
O O11 0.754835 0.231476 0.635426
O O12 0.500000 0.000000 0.500000
O O13 0.759690 0.399408 0.174550
O O14 0.407224 0.709606 0.313055
O O15 0.500000 0.000000 0.000000
O O16 0.351391 0.076458 0.689399
O O17 0.164352 0.842911 0.015772
O O18 0.000000 0.500000 0.500000
O O19 0.000000 0.500000 0.000000
#
# Coordination Sequence:
#
# PCOD9036124 Si02
#       8
#     2   2   2   2   2   2   2   2
#     4  11  24  45  70 108 151 192 242 316 380 464
#     4  12  24  42  75 111 148 189 258 318 378 464
#     4  11  24  45  66 103 156 193 239 308 382 458
#     4  10  22  47  75 103 146 191 248 314 379 446
#     4  10  23  40  71 108 146 185 253 318 366 440
#     4  12  27  46  79 105 149 200 267 314 397 470
#     4  12  30  54  79 114 159 207 263 337 403 468
#     4  12  25  42  78 110 141 206 257 310 390 461
#
# _framework density 25.291605000000001
#
# number of rings (size 3 to 8) (size 9 to 14) (size 15 to 20)
#    0.000    0.750    3.750    3.375    7.000    1.000 
#    4.500    0.000    0.000    0.000    0.000    0.000 
#    0.000    0.000    0.000    0.000    0.000    0.000 
#
# Total GULP energy -89334.856284 kJ/mol
# GULP energy per Si atom -5583.428518 kJ/mol
# Density = 2.523404 g / cm^3
# Si number density = 25.291605 Si / 1000 Ang^3
#
#
#
# Elastic Constant Matrix: (Units=GPa)
#
#
# Indices 1 2 3 4 5 6 
#
# 1 92.0705 1.5115 26.8358 -4.2781 0.2435 15.4202
# 2 1.5115 78.5451 24.7437 13.3205 -0.7427 11.4992
# 3 26.8358 24.7437 123.7534 -3.9929 8.3350 7.6635
# 4 -4.2781 13.3205 -3.9929 45.4383 6.8826 3.0944
# 5 0.2435 -0.7427 8.3350 6.8826 56.1877 -6.0532
# 6 15.4202 11.4992 7.6635 3.0944 -6.0532 41.6190
#
#
#
# Elastic Compliance Matrix: (Units=1/GPa)
#
#
# Indices 1 2 3 4 5 6 
#
# 1 0.012397 0.001066 -0.002572 0.000977 -0.000265 -0.004526
# 2 0.001066 0.015001 -0.003215 -0.004469 0.000842 -0.003493
# 3 -0.002572 -0.003215 0.009471 0.001808 -0.001688 -0.000283
# 4 0.000977 -0.004469 0.001808 0.024218 -0.003488 -0.001768
# 5 -0.000265 0.000842 -0.001688 -0.003488 0.018830 0.003175
# 6 -0.004526 -0.003493 -0.000283 -0.001768 0.003175 0.027315
#
#
# Mechanical properties :
#
#
# Convention : Reuss Voigt Hill
#
# Bulk Modulus (GPa) = 36.46015 44.50567 40.48291
# Shear Modulus (GPa) = 39.74072 44.73420 42.23746
#
# Velocity S-wave (km/s) = 3.96826 4.21020 4.09102
# Velocity P-wave (km/s) = 5.95343 6.42414 6.19326
#
# Compressibility (1/GPa) = 0.02742720
#
# Stress axis : x y z
#
# Youngs Moduli (GPa) = 80.66194 66.66128 105.58926
#
# Poissons Ratio (x) = -0.07106 0.27156
# Poissons Ratio (y) = -0.08598 0.33949
# Poissons Ratio (z) = 0.20745 0.21433
#
# Static dielectric constant tensor:
#      x y z
#    x 2.099640 -0.130750 -0.087470 
#    y -0.130750 2.020320 0.001290 
#    z -0.087470 0.001290 2.088630 
# 
# From -- ./inp_files/124658.got.cif
#   From: 2010.05.17/outbox.cif.g08.bks.cpg/sg2_63_cif.got.tgz:124658.got - 2010.06.03 11:33:40.
