data_PCOD9036215
_publ_section_title
;
Structure prediction by ZEFSAII (Michael W. Deem and Ramdas Pophale) SiO2 
 PCOD9036215
Probable space group: P -1
;
_chemical_formula_sum "Si O2"
_cell_formula_units_Z 12
_cell_length_a 21.306482
_cell_length_b 5.674123
_cell_length_c 5.590495
_cell_angle_alpha 102.710115
_cell_angle_beta 55.084555
_cell_angle_gamma 80.496284
_cell_volume 503.572845
_symmetry_space_group_name_H-M "P -1"
_symmetry_group_IT_number 2
_symmetry_cell_setting 'triclinic'
loop_
_space_group_symop_operation_xyz
x,y,z
-x,-y,-z
loop_
_atom_site_type_symbol
_atom_site_label
_atom_site_fract_x
_atom_site_fract_y
_atom_site_fract_z
Si Si1 0.037852 0.302959 0.578998
Si Si2 0.490637 0.726036 0.875419
Si Si3 0.341815 0.394457 0.743007
Si Si4 0.195627 0.898033 0.312637
Si Si5 0.076812 0.748270 0.858605
Si Si6 0.323723 0.122671 0.222439
O O1 0.068436 0.483965 0.728386
O O2 0.000000 0.500000 0.500000
O O3 0.121551 0.055503 0.333356
O O4 0.955518 0.245195 0.803665
O O5 0.565622 0.614132 0.501723
O O6 0.500000 0.500000 0.000000
O O7 0.500000 0.000000 0.000000
O O8 0.397404 0.842113 0.013955
O O9 0.325186 0.261072 0.504342
O O10 0.268691 0.671287 0.974658
O O11 0.338755 0.257872 0.974986
O O12 0.156372 0.782173 0.585678
O O13 0.238175 0.084181 0.372139
O O14 0.000000 0.000000 0.000000
#
# Coordination Sequence:
#
# PCOD9036215 Si02
#       6
#     2   2   2   2   2   2
#     4  10  22  48  71 103 138 191 256 309 393 473
#     4  10  25  49  82 115 162 218 269 321 394 480
#     4  11  27  51  75 114 157 209 260 323 392 464
#     4  11  25  46  75 109 152 195 255 326 394 460
#     4   9  21  46  66 100 134 188 242 308 387 470
#     4  11  27  51  75 115 159 204 263 323 388 473
#
# _framework density 23.829720999999999
#
# number of rings (size 3 to 8) (size 9 to 14) (size 15 to 20)
#    0.000    1.667    0.000    1.500    9.333    3.333 
#   39.000    0.000    0.000    0.000    0.000    0.000 
#    0.000    0.000    0.000    0.000    0.000    0.000 
#
# Total GULP energy -66882.794544 kJ/mol
# GULP energy per Si atom -5573.566212 kJ/mol
# Density = 2.377548 g / cm^3
# Si number density = 23.829721 Si / 1000 Ang^3
#
#
#
# Elastic Constant Matrix: (Units=GPa)
#
#
# Indices 1 2 3 4 5 6 
#
# 1 124.3932 38.4892 43.3631 7.6881 -16.3465 -7.5830
# 2 38.4892 122.5916 41.7622 -5.3909 -5.3293 -29.1133
# 3 43.3631 41.7622 120.2458 5.3045 -22.4329 -14.6826
# 4 7.6881 -5.3909 5.3045 68.3707 2.8418 -3.7195
# 5 -16.3465 -5.3293 -22.4329 2.8418 48.5442 -2.2498
# 6 -7.5830 -29.1133 -14.6826 -3.7195 -2.2498 44.8198
#
#
#
# Elastic Compliance Matrix: (Units=1/GPa)
#
#
# Indices 1 2 3 4 5 6 
#
# 1 0.009923 -0.002432 -0.002387 -0.001243 0.002012 -0.000685
# 2 -0.002432 0.011291 -0.002457 0.001715 -0.000526 0.006234
# 3 -0.002387 -0.002457 0.011062 -0.000861 0.004170 0.001762
# 4 -0.001243 0.001715 -0.000861 0.015126 -0.001430 0.001805
# 5 0.002012 -0.000526 0.004170 -0.001430 0.023342 0.002418
# 6 -0.000685 0.006234 0.001762 0.001805 0.002418 0.027093
#
#
# Mechanical properties :
#
#
# Convention : Reuss Voigt Hill
#
# Bulk Modulus (GPa) = 56.42454 68.27328 62.34891
# Shear Modulus (GPa) = 42.26650 48.58802 45.42726
#
# Velocity S-wave (km/s) = 4.21609 4.52039 4.37089
# Velocity P-wave (km/s) = 6.88695 7.48050 7.18986
#
# Compressibility (1/GPa) = 0.01772278
#
# Stress axis : x y z
#
# Youngs Moduli (GPa) = 100.77309 88.56856 90.40320
#
# Poissons Ratio (x) = 0.21542 0.21581
# Poissons Ratio (y) = 0.24510 0.22212
# Poissons Ratio (z) = 0.24057 0.21761
#
# Static dielectric constant tensor:
#      x y z
#    x 1.983550 0.059480 0.054360 
#    y 0.059480 1.880270 0.020040 
#    z 0.054360 0.020040 1.998710 
# 
# From -- ./inp_files/5782.got.cif
#   From: 2010.05.17/outbox.cif.g08.bks.cpg/sg2_3_cif.got.tgz:5782.got - 2010.06.03 11:33:40.
