data_PCOD9036654
_publ_section_title
;
Structure prediction by ZEFSAII (Michael W. Deem and Ramdas Pophale) SiO2 
 PCOD9036654
Probable space group: P -1
;
_chemical_formula_sum "Si O2"
_cell_formula_units_Z 16
_cell_length_a 5.292005
_cell_length_b 17.486741
_cell_length_c 11.398799
_cell_angle_alpha 120.155864
_cell_angle_beta 106.329672
_cell_angle_gamma 48.391935
_cell_volume 679.724096
_symmetry_space_group_name_H-M "P -1"
_symmetry_group_IT_number 2
_symmetry_cell_setting 'triclinic'
loop_
_space_group_symop_operation_xyz
x,y,z
-x,-y,-z
loop_
_atom_site_type_symbol
_atom_site_label
_atom_site_fract_x
_atom_site_fract_y
_atom_site_fract_z
Si Si1 0.799643 0.452737 0.409327
Si Si2 0.764450 0.982833 0.386356
Si Si3 0.216460 0.376126 0.873354
Si Si4 0.884011 0.015066 0.197589
Si Si5 0.828573 0.778733 0.828648
Si Si6 0.386016 0.619705 0.288154
Si Si7 0.586425 0.210056 0.012294
Si Si8 0.054688 0.154242 0.475541
O O1 0.500000 0.500000 0.500000
O O2 0.635286 0.500552 0.296033
O O3 0.000000 0.500000 0.500000
O O4 0.049115 0.316550 0.327157
O O5 0.883256 0.938745 0.237907
O O6 0.791378 0.895268 0.410425
O O7 0.402142 0.107223 0.422040
O O8 0.000000 0.000000 0.500000
O O9 0.435099 0.368635 0.787751
O O10 0.945366 0.362852 0.781244
O O11 0.439708 0.283188 0.931201
O O12 0.000000 0.500000 0.000000
O O13 0.519839 0.098485 0.155810
O O14 0.948382 0.090913 0.338369
O O15 0.200941 0.924367 0.088823
O O16 0.716598 0.747472 0.905272
O O17 0.136503 0.781080 0.891123
O O18 0.255636 0.716192 0.444188
#
# Coordination Sequence:
#
# PCOD9036654 Si02
#       8
#     2   2   2   2   2   2   2   2
#     4  12  26  47  74 103 137 177 224 282 344 399
#     4   9  21  38  61  94 138 172 219 274 334 396
#     4  12  26  47  72  99 136 179 231 285 338 397
#     4  11  25  40  69  94 140 179 226 268 345 401
#     4  12  27  47  69  98 139 178 235 279 330 408
#     4  12  26  43  74 103 134 177 227 277 347 400
#     4  12  27  46  69 100 137 185 227 280 334 397
#     4  10  23  38  65  99 138 168 225 279 339 401
#
# _framework density 23.538962000000001
#
# number of rings (size 3 to 8) (size 9 to 14) (size 15 to 20)
#    0.000    0.750    0.000    6.375   14.000    0.000 
#    0.000    0.000    0.000    0.000    0.000    0.000 
#    0.000    0.000    0.000    0.000    0.000    0.000 
#
# Total GULP energy -89513.969426 kJ/mol
# GULP energy per Si atom -5594.623089 kJ/mol
# Density = 2.348539 g / cm^3
# Si number density = 23.538962 Si / 1000 Ang^3
#
#
#
# Elastic Constant Matrix: (Units=GPa)
#
#
# Indices 1 2 3 4 5 6 
#
# 1 129.5264 -1.2809 42.1324 3.1170 -8.5768 -5.0768
# 2 -1.2809 97.4169 19.6294 4.5578 -1.1657 -1.9946
# 3 42.1324 19.6294 91.8900 22.5545 7.4381 -2.4515
# 4 3.1170 4.5578 22.5545 53.1855 -3.2325 -10.6770
# 5 -8.5768 -1.1657 7.4381 -3.2325 50.9665 -3.1709
# 6 -5.0768 -1.9946 -2.4515 -10.6770 -3.1709 24.6730
#
#
#
# Elastic Compliance Matrix: (Units=1/GPa)
#
#
# Indices 1 2 3 4 5 6 
#
# 1 0.009756 0.001212 -0.005472 0.002411 0.002806 0.002966
# 2 0.001212 0.010912 -0.003086 0.000609 0.001019 0.001220
# 3 -0.005472 -0.003086 0.016036 -0.007137 -0.003995 -0.003384
# 4 0.002411 0.000609 -0.007137 0.024004 0.003649 0.010692
# 5 0.002806 0.001019 -0.003995 0.003649 0.021215 0.004568
# 6 0.002966 0.001220 -0.003384 0.010692 0.004568 0.046117
#
#
# Mechanical properties :
#
#
# Convention : Reuss Voigt Hill
#
# Bulk Modulus (GPa) = 45.43001 48.86610 47.14805
# Shear Modulus (GPa) = 33.31814 42.98850 38.15332
#
# Velocity S-wave (km/s) = 3.76632 4.27812 4.03036
# Velocity P-wave (km/s) = 6.18510 6.72368 6.46000
#
# Compressibility (1/GPa) = 0.02201188
#
# Stress axis : x y z
#
# Youngs Moduli (GPa) = 102.49707 91.64531 62.36038
#
# Poissons Ratio (x) = -0.11111 0.34124
# Poissons Ratio (y) = -0.12427 0.19246
# Poissons Ratio (z) = 0.56087 0.28285
#
# Static dielectric constant tensor:
#      x y z
#    x 1.946450 0.025590 -0.039690 
#    y 0.025590 1.925500 0.003620 
#    z -0.039690 0.003620 1.937910 
# 
# From -- ./inp_files/370420.got.cif
#   From: 2010.05.17/outbox.cif.g08.bks.cpg/sg2_186_cif.got.tgz:370420.got - 2010.06.03 11:33:40.
