data_PCOD9036263
_publ_section_title
;
Structure prediction by ZEFSAII (Michael W. Deem and Ramdas Pophale) SiO2 
 PCOD9036263
Probable space group: P -1
;
_chemical_formula_sum "Si O2"
_cell_formula_units_Z 14
_cell_length_a 5.256162
_cell_length_b 9.679977
_cell_length_c 12.066441
_cell_angle_alpha 67.255595
_cell_angle_beta 73.652067
_cell_angle_gamma 91.292059
_cell_volume 537.283502
_symmetry_space_group_name_H-M "P -1"
_symmetry_group_IT_number 2
_symmetry_cell_setting 'triclinic'
loop_
_space_group_symop_operation_xyz
x,y,z
-x,-y,-z
loop_
_atom_site_type_symbol
_atom_site_label
_atom_site_fract_x
_atom_site_fract_y
_atom_site_fract_z
Si Si1 0.491091 0.373342 0.918305
Si Si2 0.534215 0.097865 0.854009
Si Si3 0.933966 0.431639 0.166958
Si Si4 0.605554 0.176740 0.178292
Si Si5 0.715984 0.898803 0.543707
Si Si6 0.987581 0.253819 0.617876
Si Si7 0.261278 0.560946 0.572083
O O1 0.468418 0.262261 0.847940
O O2 0.769398 0.491559 0.855976
O O3 0.231902 0.458998 0.918966
O O4 0.514326 0.267766 0.055448
O O5 0.833255 0.130493 0.756885
O O6 0.500000 0.000000 0.000000
O O7 0.878753 0.268728 0.164951
O O8 0.750993 0.410095 0.306645
O O9 0.388655 0.171699 0.304362
O O10 0.500000 0.000000 0.500000
O O11 0.630171 0.008249 0.184773
O O12 0.766562 0.790520 0.468615
O O13 0.000000 0.000000 0.500000
O O14 0.795012 0.291733 0.531227
O O15 0.037841 0.412680 0.626734
O O16 0.500000 0.500000 0.500000
#
# Coordination Sequence:
#
# PCOD9036263 Si02
#       7
#     2   2   2   2   2   2   2
#     4  11  26  50  74 109 149 203 248 315 371 468
#     4  10  22  48  75 108 149 200 249 312 382 458
#     4  12  26  46  77 109 150 192 260 304 383 448
#     4  11  26  47  75 109 153 197 253 313 390 439
#     4  12  29  46  72 106 150 201 248 312 379 455
#     4  11  24  48  73 110 153 196 262 312 387 456
#     4  11  25  42  79 108 148 202 251 323 377 462
#
# _framework density 26.057006000000001
#
# number of rings (size 3 to 8) (size 9 to 14) (size 15 to 20)
#    0.000    0.857    2.857    2.571    8.000    2.286 
#    0.000    3.571    0.000    0.000    0.000    0.000 
#    0.000    0.000    0.000    0.000    0.000    0.000 
#
# Total GULP energy -78387.709365 kJ/mol
# GULP energy per Si atom -5599.122097 kJ/mol
# Density = 2.599770 g / cm^3
# Si number density = 26.057006 Si / 1000 Ang^3
#
#
#
# Elastic Constant Matrix: (Units=GPa)
#
#
# Indices 1 2 3 4 5 6 
#
# 1 131.6341 54.6366 24.9551 -18.3637 -13.3574 1.0941
# 2 54.6366 210.7347 14.3827 15.7120 -14.3361 31.5837
# 3 24.9551 14.3827 155.2812 16.7748 -22.3143 11.5226
# 4 -18.3637 15.7120 16.7748 28.0098 7.0836 -4.0539
# 5 -13.3574 -14.3361 -22.3143 7.0836 35.4668 -5.6766
# 6 1.0941 31.5837 11.5226 -4.0539 -5.6766 51.4952
#
#
#
# Elastic Compliance Matrix: (Units=1/GPa)
#
#
# Indices 1 2 3 4 5 6 
#
# 1 0.011820 -0.004563 -0.003461 0.013388 -0.001572 0.004203
# 2 -0.004563 0.007631 0.002099 -0.010296 0.003872 -0.005437
# 3 -0.003461 0.002099 0.009296 -0.011303 0.007107 -0.003400
# 4 0.013388 -0.010296 -0.011303 0.062996 -0.016948 0.011650
# 5 -0.001572 0.003872 0.007107 -0.016948 0.036832 -0.001206
# 6 0.004203 -0.005437 -0.003400 0.011650 -0.001206 0.024210
#
#
# Mechanical properties :
#
#
# Convention : Reuss Voigt Hill
#
# Bulk Modulus (GPa) = 59.18367 76.17765 67.68066
# Shear Modulus (GPa) = 29.36519 49.90605 39.63562
#
# Velocity S-wave (km/s) = 3.36066 4.38112 3.90437
# Velocity P-wave (km/s) = 6.14989 7.40883 6.80852
#
# Compressibility (1/GPa) = 0.01689655
#
# Stress axis : x y z
#
# Youngs Moduli (GPa) = 84.59999 131.04307 107.56769
#
# Poissons Ratio (x) = 0.59800 0.37229
# Poissons Ratio (y) = 0.38606 -0.22575
# Poissons Ratio (z) = 0.29280 -0.27502
#
# Static dielectric constant tensor:
#      x y z
#    x 2.030240 0.051490 -0.039760 
#    y 0.051490 2.060930 -0.039130 
#    z -0.039760 -0.039130 2.052610 
# 
# From -- ./inp_files/482604.got.cif
#   From: 2010.05.17/outbox.cif.g08.bks.cpg/sg2_242_cif.got.tgz:482604.got - 2010.06.03 11:33:40.
