data_PCOD9036679
_publ_section_title
;
Structure prediction by ZEFSAII (Michael W. Deem and Ramdas Pophale) SiO2 
 PCOD9036679
Probable space group: P -1
;
_chemical_formula_sum "Si O2"
_cell_formula_units_Z 14
_cell_length_a 13.255136
_cell_length_b 9.720946
_cell_length_c 10.419926
_cell_angle_alpha 58.628206
_cell_angle_beta 112.627638
_cell_angle_gamma 64.058117
_cell_volume 621.614059
_symmetry_space_group_name_H-M "P -1"
_symmetry_group_IT_number 2
_symmetry_cell_setting 'triclinic'
loop_
_space_group_symop_operation_xyz
x,y,z
-x,-y,-z
loop_
_atom_site_type_symbol
_atom_site_label
_atom_site_fract_x
_atom_site_fract_y
_atom_site_fract_z
Si Si1 0.929045 0.670794 0.012149
Si Si2 0.566254 0.293804 0.529703
Si Si3 0.693485 0.414308 0.959872
Si Si4 0.859257 0.883475 0.289858
Si Si5 0.237639 0.283310 0.855995
Si Si6 0.462765 0.860301 0.815256
Si Si7 0.305944 0.322474 0.370957
O O1 0.778544 0.990504 0.765127
O O2 0.835713 0.651429 0.067011
O O3 0.000000 0.500000 0.000000
O O4 0.108509 0.530889 0.238872
O O5 0.500000 0.500000 0.500000
O O6 0.481464 0.441257 0.279236
O O7 0.454474 0.265941 0.530431
O O8 0.615878 0.549455 0.995367
O O9 0.744812 0.519488 0.860463
O O10 0.842631 0.095965 0.173031
O O11 0.770757 0.885528 0.128209
O O12 0.073120 0.576086 0.561046
O O13 0.722885 0.992100 0.287038
O O14 0.431896 0.145835 0.031427
O O15 0.402157 0.033575 0.572625
#
# Coordination Sequence:
#
# PCOD9036679 Si02
#       7
#     2   2   2   2   2   2   2
#     4  12  22  40  70  98 125 171 222 273 324 385
#     4  10  23  42  63  94 138 167 214 276 333 378
#     4  10  23  42  63  96 135 161 216 276 325 382
#     4  11  25  44  61  94 133 173 210 268 319 402
#     4  11  24  42  68  90 132 172 221 257 327 395
#     4  12  21  43  67  92 124 176 219 264 325 389
#     4  10  23  38  67  96 127 168 223 265 325 384
#
# _framework density 22.522013000000001
#
# number of rings (size 3 to 8) (size 9 to 14) (size 15 to 20)
#    0.857    0.286    2.857    3.857    0.000    1.143 
#    2.571    0.000    0.000    0.000    0.000    0.000 
#    0.000    0.000    0.000    0.000    0.000    0.000 
#
# Total GULP energy -78040.104934 kJ/mol
# GULP energy per Si atom -5574.293210 kJ/mol
# Density = 2.247075 g / cm^3
# Si number density = 22.522013 Si / 1000 Ang^3
#
#
#
# Elastic Constant Matrix: (Units=GPa)
#
#
# Indices 1 2 3 4 5 6 
#
# 1 56.0355 2.4001 11.9770 -2.3710 5.7248 3.5693
# 2 2.4001 108.8780 2.7977 -16.8731 -18.1007 -0.4936
# 3 11.9770 2.7977 66.3812 -22.2455 0.4167 7.5282
# 4 -2.3710 -16.8731 -22.2455 30.1969 -3.2544 -0.6490
# 5 5.7248 -18.1007 0.4167 -3.2544 31.0893 2.1900
# 6 3.5693 -0.4936 7.5282 -0.6490 2.1900 16.1225
#
#
#
# Elastic Compliance Matrix: (Units=1/GPa)
#
#
# Indices 1 2 3 4 5 6 
#
# 1 0.019261 -0.001541 -0.004156 -0.002942 -0.004565 -0.001869
# 2 -0.001541 0.012048 0.003184 0.009828 0.008392 -0.001521
# 3 -0.004156 0.003184 0.023024 0.018740 0.004952 -0.009651
# 4 -0.002942 0.009828 0.018740 0.053330 0.012109 -0.007296
# 5 -0.004565 0.008392 0.004952 0.012109 0.039510 -0.005924
# 6 -0.001869 -0.001521 -0.009651 -0.007296 -0.005924 0.067410
#
#
# Mechanical properties :
#
#
# Convention : Reuss Voigt Hill
#
# Bulk Modulus (GPa) = 20.28132 29.51604 24.89868
# Shear Modulus (GPa) = 21.18244 29.75640 25.46942
#
# Velocity S-wave (km/s) = 3.07012 3.63879 3.36649
# Velocity P-wave (km/s) = 4.64674 5.54872 5.11764
#
# Compressibility (1/GPa) = 0.04930646
#
# Stress axis : x y z
#
# Youngs Moduli (GPa) = 51.91843 83.00118 43.43355
#
# Poissons Ratio (x) = 0.12791 0.18049
# Poissons Ratio (y) = 0.08001 -0.13828
# Poissons Ratio (z) = 0.21575 -0.26424
#
# Static dielectric constant tensor:
#      x y z
#    x 1.840320 -0.005280 -0.028030 
#    y -0.005280 1.906560 -0.021140 
#    z -0.028030 -0.021140 1.964040 
# 
# From -- ./inp_files/446969.got.cif
#   From: 2010.05.17/outbox.cif.g08.bks.cpg/sg2_224_cif.got.tgz:446969.got - 2010.06.03 11:33:40.
