data_PCOD9036387
_publ_section_title
;
Structure prediction by ZEFSAII (Michael W. Deem and Ramdas Pophale) SiO2 
 PCOD9036387
Probable space group: P -1
;
_chemical_formula_sum "Si O2"
_cell_formula_units_Z 16
_cell_length_a 8.323609
_cell_length_b 11.278041
_cell_length_c 10.424221
_cell_angle_alpha 104.167302
_cell_angle_beta 120.694548
_cell_angle_gamma 113.411597
_cell_volume 635.966197
_symmetry_space_group_name_H-M "P -1"
_symmetry_group_IT_number 2
_symmetry_cell_setting 'triclinic'
loop_
_space_group_symop_operation_xyz
x,y,z
-x,-y,-z
loop_
_atom_site_type_symbol
_atom_site_label
_atom_site_fract_x
_atom_site_fract_y
_atom_site_fract_z
Si Si1 0.138517 0.436639 0.004822
Si Si2 0.019658 0.146365 0.492416
Si Si3 0.504182 0.690173 0.016319
Si Si4 0.579617 0.499703 0.308086
Si Si5 0.070912 0.856875 0.291172
Si Si6 0.379120 0.911310 0.058866
Si Si7 0.753840 0.913572 0.792651
Si Si8 0.875757 0.719972 0.697602
O O1 0.313964 0.448973 0.185338
O O2 0.318929 0.535776 0.985241
O O3 0.929575 0.260084 0.829345
O O4 0.000000 0.500000 0.000000
O O5 0.267159 0.325359 0.649821
O O6 0.855904 0.141731 0.533498
O O7 0.982252 0.149403 0.327438
O O8 0.000000 0.000000 0.500000
O O9 0.425157 0.621250 0.818639
O O10 0.484599 0.819154 0.100086
O O11 0.787369 0.776596 0.151569
O O12 0.727069 0.557578 0.516474
O O13 0.212865 0.018469 0.318157
O O14 0.095782 0.769048 0.886336
O O15 0.392266 0.040601 0.182870
O O16 0.500000 0.000000 0.000000
O O17 0.703383 0.750292 0.701816
O O18 0.000000 0.000000 0.000000
#
# Coordination Sequence:
#
# PCOD9036387 Si02
#       8
#     2   2   2   2   2   2   2   2
#     4  11  20  33  57  87 118 145 192 246 285 344
#     4  10  17  32  63  83 110 151 189 235 291 343
#     4  11  19  35  58  83 117 153 194 236 287 350
#     4   9  19  36  57  85 111 153 188 235 293 342
#     4  11  18  36  60  84 114 152 194 232 291 349
#     4  11  24  37  57  85 116 157 198 240 284 344
#     4  10  20  36  56  81 113 154 195 236 282 344
#     4   9  19  37  57  81 115 149 195 233 283 347
#
# _framework density 25.158569
#
# number of rings (size 3 to 8) (size 9 to 14) (size 15 to 20)
#    0.750    1.000    3.750    3.000    0.000    0.500 
#    0.000    2.500    0.000   29.250    0.000    0.000 
#    0.000    0.000    0.000    0.000    0.000    0.000 
#
# Total GULP energy -89144.255021 kJ/mol
# GULP energy per Si atom -5571.515939 kJ/mol
# Density = 2.510131 g / cm^3
# Si number density = 25.158569 Si / 1000 Ang^3
#
#
#
# Elastic Constant Matrix: (Units=GPa)
#
#
# Indices 1 2 3 4 5 6 
#
# 1 125.0638 19.9216 37.5249 -1.9917 -10.9092 -20.1967
# 2 19.9216 75.8668 -7.2583 10.9776 9.5045 -11.4867
# 3 37.5249 -7.2583 78.7906 12.2442 -13.5776 -19.0290
# 4 -1.9917 10.9776 12.2442 25.8237 0.0743 -7.2902
# 5 -10.9092 9.5045 -13.5776 0.0743 23.9662 6.4912
# 6 -20.1967 -11.4867 -19.0290 -7.2902 6.4912 52.1405
#
#
#
# Elastic Compliance Matrix: (Units=1/GPa)
#
#
# Indices 1 2 3 4 5 6 
#
# 1 0.011023 -0.004416 -0.005627 0.005859 0.003109 0.001675
# 2 -0.004416 0.017534 0.004727 -0.009023 -0.007209 0.003513
# 3 -0.005627 0.004727 0.019302 -0.010554 0.005518 0.003744
# 4 0.005859 -0.009023 -0.010554 0.048972 -0.000800 0.003377
# 5 0.003109 -0.007209 0.005518 -0.000800 0.050418 -0.004758
# 6 0.001675 0.003513 0.003744 0.003377 -0.004758 0.023033
#
#
# Mechanical properties :
#
#
# Convention : Reuss Voigt Hill
#
# Bulk Modulus (GPa) = 26.86289 42.23307 34.54798
# Shear Modulus (GPa) = 25.86361 35.68828 30.77595
#
# Velocity S-wave (km/s) = 3.20976 3.77043 3.50133
# Velocity P-wave (km/s) = 4.94342 5.98147 5.48705
#
# Compressibility (1/GPa) = 0.03722608
#
# Stress axis : x y z
#
# Youngs Moduli (GPa) = 90.72116 57.03346 51.80714
#
# Poissons Ratio (x) = 0.25189 0.29150
# Poissons Ratio (y) = 0.40067 -0.24488
# Poissons Ratio (z) = 0.51046 -0.26959
#
# Static dielectric constant tensor:
#      x y z
#    x 2.069820 0.045200 -0.091720 
#    y 0.045200 2.103740 -0.010990 
#    z -0.091720 -0.010990 2.131760 
# 
# From -- ./inp_files/390809.got.cif
#   From: 2010.05.17/outbox.cif.g08.bks.cpg/sg2_196_cif.got.tgz:390809.got - 2010.06.03 11:33:40.
