data_PCOD9036112
_publ_section_title
;
Structure prediction by ZEFSAII (Michael W. Deem and Ramdas Pophale) SiO2 
 PCOD9036112
Probable space group: P -1
;
_chemical_formula_sum "Si O2"
_cell_formula_units_Z 16
_cell_length_a 7.162820
_cell_length_b 7.245981
_cell_length_c 16.061660
_cell_angle_alpha 52.704447
_cell_angle_beta 88.883260
_cell_angle_gamma 100.540286
_cell_volume 642.861041
_symmetry_space_group_name_H-M "P -1"
_symmetry_group_IT_number 2
_symmetry_cell_setting 'triclinic'
loop_
_space_group_symop_operation_xyz
x,y,z
-x,-y,-z
loop_
_atom_site_type_symbol
_atom_site_label
_atom_site_fract_x
_atom_site_fract_y
_atom_site_fract_z
Si Si1 0.227430 0.805042 0.086159
Si Si2 0.962215 0.779728 0.622200
Si Si3 0.375580 0.313706 0.883493
Si Si4 0.104853 0.572784 0.892920
Si Si5 0.095122 0.059273 0.692436
Si Si6 0.213595 0.718137 0.296320
Si Si7 0.371835 0.652082 0.644658
Si Si8 0.494800 0.843354 0.415441
O O1 0.414207 0.711408 0.086780
O O2 0.248819 0.859537 0.169969
O O3 0.040929 0.593385 0.126852
O O4 0.237859 0.048545 0.969294
O O5 0.934954 0.893664 0.679203
O O6 0.801839 0.556133 0.653477
O O7 0.158819 0.692650 0.647666
O O8 0.000000 0.000000 0.500000
O O9 0.300352 0.494273 0.894733
O O10 0.380255 0.418842 0.761271
O O11 0.140592 0.857415 0.806895
O O12 0.000000 0.500000 0.000000
O O13 0.993154 0.250013 0.678999
O O14 0.287772 0.160741 0.610526
O O15 0.364053 0.791529 0.349003
O O16 0.421438 0.670275 0.541708
O O17 0.501029 0.890925 0.622368
#
# Coordination Sequence:
#
# PCOD9036112 Si02
#       8
#     2   2   2   2   2   2   2   2
#     4  11  27  46  75 114 149 202 254 321 383 453
#     4  11  24  47  73 108 156 201 252 315 378 451
#     4  11  24  49  74 107 156 199 251 320 380 455
#     4  12  25  46  76 107 149 203 251 317 386 454
#     4  11  25  47  72 113 151 196 257 308 381 450
#     4  12  26  48  78 114 154 199 258 315 379 460
#     4  10  22  47  74 105 160 202 252 315 380 451
#     4  10  24  44  74 113 145 208 251 313 377 451
#
# _framework density 24.888738
#
# number of rings (size 3 to 8) (size 9 to 14) (size 15 to 20)
#    0.000    1.000    3.750    1.875    1.750   10.500 
#    0.000    5.000    0.000    0.000    0.000    0.000 
#    0.000    0.000    0.000    0.000    0.000    0.000 
#
# Total GULP energy -89669.592720 kJ/mol
# GULP energy per Si atom -5604.349545 kJ/mol
# Density = 2.483209 g / cm^3
# Si number density = 24.888738 Si / 1000 Ang^3
#
#
#
# Elastic Constant Matrix: (Units=GPa)
#
#
# Indices 1 2 3 4 5 6 
#
# 1 97.1004 29.8759 17.5901 9.0285 -1.9178 -16.8975
# 2 29.8759 132.9391 46.3383 7.9007 -0.8088 5.7711
# 3 17.5901 46.3383 178.3353 4.5644 -17.8208 3.8133
# 4 9.0285 7.9007 4.5644 44.5740 -8.3600 -5.6805
# 5 -1.9178 -0.8088 -17.8208 -8.3600 39.0070 3.4654
# 6 -16.8975 5.7711 3.8133 -5.6805 3.4654 40.0352
#
#
#
# Elastic Compliance Matrix: (Units=1/GPa)
#
#
# Indices 1 2 3 4 5 6 
#
# 1 0.012321 -0.002705 -0.000648 -0.001346 -0.000524 0.005507
# 2 -0.002705 0.009035 -0.002094 -0.001321 -0.000977 -0.002348
# 3 -0.000648 -0.002094 0.006529 0.000301 0.003045 -0.000814
# 4 -0.001346 -0.001321 0.000301 0.024178 0.004996 0.002592
# 5 -0.000524 -0.000977 0.003045 0.004996 0.028239 -0.002106
# 6 0.005507 -0.002348 -0.000814 0.002592 -0.002106 0.028268
#
#
# Mechanical properties :
#
#
# Convention : Reuss Voigt Hill
#
# Bulk Modulus (GPa) = 58.85750 66.22039 62.53895
# Shear Modulus (GPa) = 39.95848 45.69460 42.82654
#
# Velocity S-wave (km/s) = 4.01120 4.28945 4.15266
# Velocity P-wave (km/s) = 6.71956 7.15520 6.94080
#
# Compressibility (1/GPa) = 0.01699019
#
# Stress axis : x y z
#
# Youngs Moduli (GPa) = 81.15899 110.68356 153.15146
#
# Poissons Ratio (x) = 0.29944 0.09925
# Poissons Ratio (y) = 0.21957 0.32075
# Poissons Ratio (z) = 0.05259 0.23181
#
# Static dielectric constant tensor:
#      x y z
#    x 2.004590 0.033970 0.050090 
#    y 0.033970 1.980670 -0.000890 
#    z 0.050090 -0.000890 2.014370 
# 
# From -- ./inp_files/553180.got.cif
#   From: 2010.05.17/outbox.cif.g08.bks.cpg/sg2_277_cif.got.tgz:553180.got - 2010.06.03 11:33:40.
