data_PCOD9036469
_publ_section_title
;
Structure prediction by ZEFSAII (Michael W. Deem and Ramdas Pophale) SiO2 
 PCOD9036469
Probable space group: P -1
;
_chemical_formula_sum "Si O2"
_cell_formula_units_Z 10
_cell_length_a 8.331767
_cell_length_b 9.309833
_cell_length_c 9.828494
_cell_angle_alpha 122.678698
_cell_angle_beta 90.125593
_cell_angle_gamma 132.263784
_cell_volume 384.649664
_symmetry_space_group_name_H-M "P -1"
_symmetry_group_IT_number 2
_symmetry_cell_setting 'triclinic'
loop_
_space_group_symop_operation_xyz
x,y,z
-x,-y,-z
loop_
_atom_site_type_symbol
_atom_site_label
_atom_site_fract_x
_atom_site_fract_y
_atom_site_fract_z
Si Si1 0.739413 0.440055 0.476910
Si Si2 0.441597 0.858288 0.135728
Si Si3 0.861851 0.065751 0.794971
Si Si4 0.232069 0.399287 0.711992
Si Si5 0.316922 0.493988 0.193714
O O1 0.883420 0.657571 0.465593
O O2 0.794549 0.519530 0.674826
O O3 0.434872 0.257035 0.364200
O O4 0.697230 0.202054 0.324170
O O5 0.200407 0.789731 0.096078
O O6 0.409140 0.713598 0.195303
O O7 0.405890 0.708346 0.928117
O O8 0.993877 0.171679 0.701990
O O9 0.080998 0.187594 0.962616
O O10 0.433997 0.414825 0.729943
#
# Coordination Sequence:
#
# PCOD9036469 Si02
#       5
#     2   2   2   2   2
#     4  10  23  37  61  84 115 148 192 230 279 337
#     4   9  20  41  59  79 119 151 184 232 281 336
#     4   9  22  39  61  78 120 149 188 227 286 333
#     4  11  20  38  62  84 114 150 187 236 282 328
#     4  11  20  38  62  84 114 150 187 236 282 328
#
# _framework density 25.997681
#
# number of rings (size 3 to 8) (size 9 to 14) (size 15 to 20)
#    1.200    0.800    0.000    6.600    0.000    1.600 
#    0.000    8.000    0.000    0.000    0.000    0.000 
#    0.000    0.000    0.000    0.000    0.000    0.000 
#
# Total GULP energy -55970.669619 kJ/mol
# GULP energy per Si atom -5597.066962 kJ/mol
# Density = 2.593851 g / cm^3
# Si number density = 25.997681 Si / 1000 Ang^3
#
#
#
# Elastic Constant Matrix: (Units=GPa)
#
#
# Indices 1 2 3 4 5 6 
#
# 1 108.0268 9.4029 4.9908 -10.5087 -1.2711 1.8136
# 2 9.4029 63.0461 26.7593 -30.4977 -1.6909 -9.4649
# 3 4.9908 26.7593 104.9324 -30.5746 -3.8456 -7.1277
# 4 -10.5087 -30.4977 -30.5746 47.2071 -0.3652 1.2262
# 5 -1.2711 -1.6909 -3.8456 -0.3652 40.7340 -5.9513
# 6 1.8136 -9.4649 -7.1277 1.2262 -5.9513 35.5672
#
#
#
# Elastic Compliance Matrix: (Units=1/GPa)
#
#
# Indices 1 2 3 4 5 6 
#
# 1 0.009500 -0.000732 0.000223 0.001805 0.000207 -0.000662
# 2 -0.000732 0.024665 -0.001501 0.014655 0.001883 0.006110
# 3 0.000223 -0.001501 0.012094 0.006872 0.001443 0.002017
# 4 0.001805 0.014655 0.006872 0.035408 0.002265 0.004343
# 5 0.000207 0.001883 0.001443 0.002265 0.025517 0.004971
# 6 -0.000662 0.006110 0.002017 0.004343 0.004971 0.030862
#
#
# Mechanical properties :
#
#
# Convention : Reuss Voigt Hill
#
# Bulk Modulus (GPa) = 23.67463 39.81235 31.74349
# Shear Modulus (GPa) = 32.02153 40.35849 36.19001
#
# Velocity S-wave (km/s) = 3.51338 3.94431 3.73506
# Velocity P-wave (km/s) = 5.05812 6.00754 5.55316
#
# Compressibility (1/GPa) = 0.04223930
#
# Stress axis : x y z
#
# Youngs Moduli (GPa) = 105.26843 40.54373 82.68365
#
# Poissons Ratio (x) = 0.02969 -0.01848
# Poissons Ratio (y) = 0.07709 0.12409
# Poissons Ratio (z) = -0.02353 0.06085
#
# Static dielectric constant tensor:
#      x y z
#    x 2.023260 -0.007040 -0.029390 
#    y -0.007040 2.034530 0.068300 
#    z -0.029390 0.068300 2.049160 
# 
# From -- ./inp_files/144341.got.cif
#   From: 2010.05.17/outbox.cif.g08.bks.cpg/sg2_73_cif.got.tgz:144341.got - 2010.06.03 11:33:40.
