data_PCOD9036250
_publ_section_title
;
Structure prediction by ZEFSAII (Michael W. Deem and Ramdas Pophale) SiO2 
 PCOD9036250
Probable space group: P -1
;
_chemical_formula_sum "Si O2"
_cell_formula_units_Z 12
_cell_length_a 8.395617
_cell_length_b 8.354750
_cell_length_c 8.099650
_cell_angle_alpha 67.907685
_cell_angle_beta 92.437715
_cell_angle_gamma 110.496466
_cell_volume 490.488486
_symmetry_space_group_name_H-M "P -1"
_symmetry_group_IT_number 2
_symmetry_cell_setting 'triclinic'
loop_
_space_group_symop_operation_xyz
x,y,z
-x,-y,-z
loop_
_atom_site_type_symbol
_atom_site_label
_atom_site_fract_x
_atom_site_fract_y
_atom_site_fract_z
Si Si1 0.674356 0.132575 0.537728
Si Si2 0.371921 0.336495 0.795092
Si Si3 0.297566 0.495907 0.410443
Si Si4 0.055438 0.352753 0.963015
Si Si5 0.172819 0.971025 0.092579
Si Si6 0.002747 0.807015 0.641788
O O1 0.672952 0.317723 0.556751
O O2 0.751612 0.034088 0.719804
O O3 0.805954 0.184357 0.371573
O O4 0.500000 0.000000 0.500000
O O5 0.337254 0.353529 0.593271
O O6 0.573567 0.454606 0.760028
O O7 0.236335 0.407444 0.855840
O O8 0.320954 0.126826 0.936810
O O9 0.108531 0.372649 0.396094
O O10 0.066733 0.221865 0.165864
O O11 0.895362 0.244256 0.881049
O O12 0.000000 0.500000 0.000000
O O13 0.000000 0.000000 0.000000
O O14 0.000000 0.000000 0.500000
#
# Coordination Sequence:
#
# PCOD9036250 Si02
#       6
#     2   2   2   2   2   2
#     4  12  28  48  77 112 149 194 258 315 371 445
#     4  10  23  45  70 104 148 197 247 302 380 433
#     4  11  25  47  73 105 155 200 245 314 374 447
#     4  11  22  41  73 108 142 190 248 307 365 445
#     4  10  22  48  74 103 149 199 243 304 372 449
#     4  12  25  45  75 106 146 198 250 295 380 452
#
# _framework density 24.465406000000002
#
# number of rings (size 3 to 8) (size 9 to 14) (size 15 to 20)
#    0.000    1.000    0.000    7.500    7.000    1.333 
#    6.000    0.000    0.000    0.000    0.000    0.000 
#    0.000    0.000    0.000    0.000    0.000    0.000 
#
# Total GULP energy -66955.622806 kJ/mol
# GULP energy per Si atom -5579.635234 kJ/mol
# Density = 2.440972 g / cm^3
# Si number density = 24.465406 Si / 1000 Ang^3
#
#
#
# Elastic Constant Matrix: (Units=GPa)
#
#
# Indices 1 2 3 4 5 6 
#
# 1 115.1391 63.5931 34.1231 -5.4605 -28.8068 12.9866
# 2 63.5931 145.4941 21.2772 6.4129 0.4175 16.9241
# 3 34.1231 21.2772 122.4794 -17.5395 -7.6940 0.4857
# 4 -5.4605 6.4129 -17.5395 38.3622 7.3601 3.1010
# 5 -28.8068 0.4175 -7.6940 7.3601 59.6281 -4.3731
# 6 12.9866 16.9241 0.4857 3.1010 -4.3731 45.1260
#
#
#
# Elastic Compliance Matrix: (Units=1/GPa)
#
#
# Indices 1 2 3 4 5 6 
#
# 1 0.014481 -0.005859 -0.002493 0.000760 0.006522 -0.001364
# 2 -0.005859 0.009859 -0.000540 -0.002003 -0.002879 -0.002147
# 3 -0.002493 -0.000540 0.009515 0.004132 -0.000447 0.000490
# 4 0.000760 -0.002003 0.004132 0.029082 -0.002806 -0.001782
# 5 0.006522 -0.002879 -0.000447 -0.002806 0.020331 0.001371
# 6 -0.001364 -0.002147 0.000490 -0.001782 0.001371 0.023608
#
#
# Mechanical properties :
#
#
# Convention : Reuss Voigt Hill
#
# Bulk Modulus (GPa) = 62.21746 69.01105 65.61426
# Shear Modulus (GPa) = 38.45717 46.23117 42.34417
#
# Velocity S-wave (km/s) = 3.96902 4.35173 4.16477
# Velocity P-wave (km/s) = 6.81837 7.31566 7.07139
#
# Compressibility (1/GPa) = 0.01607266
#
# Stress axis : x y z
#
# Youngs Moduli (GPa) = 69.05522 101.43002 105.10210
#
# Poissons Ratio (x) = 0.59423 0.26200
# Poissons Ratio (y) = 0.40456 0.05672
# Poissons Ratio (z) = 0.17214 0.05474
#
# Static dielectric constant tensor:
#      x y z
#    x 2.123980 -0.136630 0.061550 
#    y -0.136630 2.262280 -0.098630 
#    z 0.061550 -0.098630 1.976290 
# 
# From -- ./inp_files/153424.got.cif
#   From: 2010.05.17/outbox.cif.g08.bks.cpg/sg2_77_cif.got.tgz:153424.got - 2010.06.03 11:33:40.
