data_PCOD9036175
_publ_section_title
;
Structure prediction by ZEFSAII (Michael W. Deem and Ramdas Pophale) SiO2 
 PCOD9036175
Probable space group: P -1
;
_chemical_formula_sum "Si O2"
_cell_formula_units_Z 11
_cell_length_a 13.204806
_cell_length_b 6.656968
_cell_length_c 5.210686
_cell_angle_alpha 61.055869
_cell_angle_beta 97.442178
_cell_angle_gamma 80.771145
_cell_volume 384.093622
_symmetry_space_group_name_H-M "P -1"
_symmetry_group_IT_number 2
_symmetry_cell_setting 'triclinic'
loop_
_space_group_symop_operation_xyz
x,y,z
-x,-y,-z
loop_
_atom_site_type_symbol
_atom_site_label
_atom_site_fract_x
_atom_site_fract_y
_atom_site_fract_z
Si Si1 0.150989 0.579416 0.690572
Si Si2 0.500000 0.500000 0.000000
Si Si3 0.663831 0.810743 0.757169
Si Si4 0.914498 0.220122 0.951084
Si Si5 0.538919 0.230612 0.766408
Si Si6 0.271144 0.894877 0.761164
O O1 0.105789 0.578099 0.396377
O O2 0.214358 0.784614 0.587917
O O3 0.238164 0.352759 0.959167
O O4 0.065992 0.675842 0.829529
O O5 0.563921 0.700846 0.770212
O O6 0.549029 0.534962 0.307597
O O7 0.623410 0.071256 0.701626
O O8 0.708807 0.857786 0.465117
O O9 0.809547 0.129447 0.029130
O O10 0.000000 0.000000 0.000000
O O11 0.611213 0.269237 0.030302
O O12 0.500000 0.000000 0.000000
#
# Coordination Sequence:
#
# PCOD9036175 Si02
#       6
#     2   1   2   2   2   2
#     4  10  24  47  78 112 160 203 257 324 398 458
#     4  12  26  48  68 110 146 206 272 322 382 458
#     4  12  27  48  74 109 158 208 267 328 387 468
#     4  10  22  47  82 117 157 204 258 322 394 480
#     4  12  27  46  74 106 156 209 266 323 394 458
#     4  10  25  46  74 105 160 200 262 318 393 457
#
# _framework density 28.638853000000001
#
# number of rings (size 3 to 8) (size 9 to 14) (size 15 to 20)
#    1.091    0.000    1.818    3.273    5.091    4.364 
#    0.000    1.818    0.000    0.000    0.000    0.000 
#    0.000    0.000    0.000    0.000    0.000    0.000 
#
# Total GULP energy -61244.875910 kJ/mol
# GULP energy per Si atom -5567.715992 kJ/mol
# Density = 2.857367 g / cm^3
# Si number density = 28.638853 Si / 1000 Ang^3
#
#
#
# Elastic Constant Matrix: (Units=GPa)
#
#
# Indices 1 2 3 4 5 6 
#
# 1 115.2690 39.5269 36.6984 -2.3236 -39.9965 -11.3422
# 2 39.5269 206.7543 40.4566 -10.1558 -15.0073 -20.9695
# 3 36.6984 40.4566 107.1232 9.2927 -4.0728 -40.5496
# 4 -2.3236 -10.1558 9.2927 44.7400 -12.6670 6.2217
# 5 -39.9965 -15.0073 -4.0728 -12.6670 33.3410 1.4092
# 6 -11.3422 -20.9695 -40.5496 6.2217 1.4092 55.7175
#
#
#
# Elastic Compliance Matrix: (Units=1/GPa)
#
#
# Indices 1 2 3 4 5 6 
#
# 1 0.021547 -0.000099 -0.008816 0.011824 0.029394 -0.004131
# 2 -0.000099 0.005646 -0.002133 0.002582 0.003135 0.000185
# 3 -0.008816 -0.002133 0.018097 -0.010268 -0.013737 0.012067
# 4 0.011824 0.002582 -0.010268 0.034718 0.027649 -0.008671
# 5 0.029394 0.003135 -0.013737 0.027649 0.075824 -0.007839
# 6 -0.004131 0.000185 0.012067 -0.008671 -0.007839 0.027125
#
#
# Mechanical properties :
#
#
# Convention : Reuss Voigt Hill
#
# Bulk Modulus (GPa) = 43.11481 73.61226 58.36353
# Shear Modulus (GPa) = 23.49786 47.59067 35.54426
#
# Velocity S-wave (km/s) = 2.86753 4.08088 3.52678
# Velocity P-wave (km/s) = 5.10401 6.92562 6.08339
#
# Compressibility (1/GPa) = 0.02319389
#
# Stress axis : x y z
#
# Youngs Moduli (GPa) = 46.40971 177.11345 55.25691
#
# Poissons Ratio (x) = 0.01750 0.48716
# Poissons Ratio (y) = 0.00459 0.11788
# Poissons Ratio (z) = 0.40916 0.37784
#
# Static dielectric constant tensor:
#      x y z
#    x 2.143980 -0.022100 0.335350 
#    y -0.022100 2.490260 -0.034840 
#    z 0.335350 -0.034840 0.377210 
# 
# From -- ./inp_files/103032.got.cif
#   From: 2010.05.17/outbox.cif.g08.bks.cpg/sg2_52_cif.got.tgz:103032.got - 2010.06.03 11:33:40.
