data_PCOD9036198
_publ_section_title
;
Structure prediction by ZEFSAII (Michael W. Deem and Ramdas Pophale) SiO2 
 PCOD9036198
Probable space group: P -1
;
_chemical_formula_sum "Si O2"
_cell_formula_units_Z 13
_cell_length_a 21.694297
_cell_length_b 5.162626
_cell_length_c 13.305097
_cell_angle_alpha 121.918610
_cell_angle_beta 21.541125
_cell_angle_gamma 119.885465
_cell_volume 464.313869
_symmetry_space_group_name_H-M "P -1"
_symmetry_group_IT_number 2
_symmetry_cell_setting 'triclinic'
loop_
_space_group_symop_operation_xyz
x,y,z
-x,-y,-z
loop_
_atom_site_type_symbol
_atom_site_label
_atom_site_fract_x
_atom_site_fract_y
_atom_site_fract_z
Si Si1 0.500000 0.500000 0.500000
Si Si2 0.253003 0.578588 0.154861
Si Si3 0.616461 0.448955 0.532423
Si Si4 0.092234 0.118473 0.781625
Si Si5 0.644923 0.354957 0.685379
Si Si6 0.118710 0.246377 0.489931
Si Si7 0.154594 0.289409 0.041942
O O1 0.574904 0.354280 0.463591
O O2 0.331695 0.286685 0.719172
O O3 0.213566 0.410216 0.284448
O O4 0.193979 0.344770 0.110032
O O5 0.150222 0.888943 0.363190
O O6 0.449479 0.660027 0.851591
O O7 0.596802 0.257071 0.626043
O O8 0.810617 0.568130 0.271854
O O9 0.257711 0.918483 0.469662
O O10 0.962297 0.995728 0.869126
O O11 0.000000 0.000000 0.000000
O O12 0.788054 0.622951 0.525654
O O13 0.500000 0.500000 0.000000
O O14 0.938685 0.399728 0.786799
#
# Coordination Sequence:
#
# PCOD9036198 Si02
#       7
#     1   2   2   2   2   2   2
#     4  10  22  48  70 100 138 200 250 308 374 452
#     4  11  24  45  74 109 151 194 245 312 377 454
#     4  11  24  44  75  98 151 188 252 303 381 446
#     4  11  24  46  71 105 146 198 251 312 376 457
#     4  11  24  43  70 109 148 193 250 307 384 449
#     4  11  24  43  73 110 150 191 248 308 383 446
#     4  10  23  44  70 103 144 192 252 305 376 449
#
# _framework density 27.998304000000001
#
# number of rings (size 3 to 8) (size 9 to 14) (size 15 to 20)
#    0.000    1.231    3.077    1.846    4.308    1.846 
#    2.769    2.308    0.000    0.000    0.000    0.000 
#    0.000    0.000    0.000    0.000    0.000    0.000 
#
# Total GULP energy -72462.389203 kJ/mol
# GULP energy per Si atom -5574.029939 kJ/mol
# Density = 2.793458 g / cm^3
# Si number density = 27.998304 Si / 1000 Ang^3
#
#
#
# Elastic Constant Matrix: (Units=GPa)
#
#
# Indices 1 2 3 4 5 6 
#
# 1 215.7403 48.5801 35.9586 -5.1067 -13.8005 15.8985
# 2 48.5801 124.5464 57.7173 1.4135 0.0191 -0.3069
# 3 35.9586 57.7173 129.3924 -25.8820 -26.8164 21.5630
# 4 -5.1067 1.4135 -25.8820 48.1942 20.1200 0.8828
# 5 -13.8005 0.0191 -26.8164 20.1200 33.7988 -9.4824
# 6 15.8985 -0.3069 21.5630 0.8828 -9.4824 46.3207
#
#
#
# Elastic Compliance Matrix: (Units=1/GPa)
#
#
# Indices 1 2 3 4 5 6 
#
# 1 0.005327 -0.002121 0.000088 -0.000081 0.001874 -0.001498
# 2 -0.002121 0.011919 -0.006526 -0.002636 -0.003595 0.003159
# 3 0.000088 -0.006526 0.013856 0.004990 0.006584 -0.005271
# 4 -0.000081 -0.002636 0.004990 0.030189 -0.015759 -0.006114
# 5 0.001874 -0.003595 0.006584 -0.015759 0.046677 0.006124
# 6 -0.001498 0.003159 -0.005271 -0.006114 0.006124 0.025948
#
#
# Mechanical properties :
#
#
# Convention : Reuss Voigt Hill
#
# Bulk Modulus (GPa) = 71.51818 83.79901 77.65859
# Shear Modulus (GPa) = 32.11406 47.49096 39.80251
#
# Velocity S-wave (km/s) = 3.39041 4.12297 3.77451
# Velocity P-wave (km/s) = 6.39732 7.25674 6.84054
#
# Compressibility (1/GPa) = 0.01398246
#
# Stress axis : x y z
#
# Youngs Moduli (GPa) = 187.73694 83.89862 72.17059
#
# Poissons Ratio (x) = 0.17798 -0.00633
# Poissons Ratio (y) = 0.39827 0.47099
# Poissons Ratio (z) = -0.01648 0.54752
#
# Static dielectric constant tensor:
#      x y z
#    x 2.123250 0.045460 0.084900 
#    y 0.045460 2.316740 -0.036390 
#    z 0.084900 -0.036390 2.182170 
# 
# From -- ./inp_files/542236.got.cif
#   From: 2010.05.17/outbox.cif.g08.bks.cpg/sg2_272_cif.got.tgz:542236.got - 2010.06.03 11:33:40.
