data_PCOD9036576
_publ_section_title
;
Structure prediction by ZEFSAII (Michael W. Deem and Ramdas Pophale) SiO2 
 PCOD9036576
Probable space group: P -1
;
_chemical_formula_sum "Si O2"
_cell_formula_units_Z 16
_cell_length_a 16.744016
_cell_length_b 15.692364
_cell_length_c 8.762957
_cell_angle_alpha 78.105651
_cell_angle_beta 117.171743
_cell_angle_gamma 154.250123
_cell_volume 754.123646
_symmetry_space_group_name_H-M "P -1"
_symmetry_group_IT_number 2
_symmetry_cell_setting 'triclinic'
loop_
_space_group_symop_operation_xyz
x,y,z
-x,-y,-z
loop_
_atom_site_type_symbol
_atom_site_label
_atom_site_fract_x
_atom_site_fract_y
_atom_site_fract_z
Si Si1 0.815429 0.405156 0.442132
Si Si2 0.430523 0.009881 0.057068
Si Si3 0.459191 0.681993 0.685683
Si Si4 0.811540 0.931607 0.392649
Si Si5 0.596601 0.337079 0.700678
Si Si6 0.746822 0.285642 0.776671
Si Si7 0.892238 0.129676 0.118370
Si Si8 0.688539 0.642935 0.240911
O O1 0.781340 0.477455 0.429340
O O2 0.766825 0.321862 0.601312
O O3 0.000000 0.500000 0.500000
O O4 0.655612 0.269046 0.198465
O O5 0.392441 0.925839 0.216753
O O6 0.208004 0.872317 0.885941
O O7 0.500000 0.000000 0.000000
O O8 0.508687 0.742084 0.529932
O O9 0.410056 0.536784 0.718655
O O10 0.685912 0.918141 0.895420
O O11 0.590064 0.791580 0.298438
O O12 0.712875 0.746837 0.337759
O O13 0.915553 0.071687 0.279453
O O14 0.029295 0.120964 0.633209
O O15 0.629868 0.263518 0.765407
O O16 0.855364 0.616283 0.827742
O O17 0.000000 0.500000 0.000000
O O18 0.500000 0.500000 0.000000
#
# Coordination Sequence:
#
# PCOD9036576 Si02
#       8
#     2   2   2   2   2   2   2   2
#     4  10  23  38  61  96 127 172 220 263 323 398
#     4  11  22  37  63  91 127 177 219 267 329 385
#     4  10  23  43  66  94 136 174 212 278 331 385
#     4  11  25  42  72 100 123 178 221 267 340 398
#     4  11  24  43  67  98 135 171 222 277 330 391
#     4  11  21  39  61  91 133 170 215 270 323 383
#     4  11  22  44  65  94 137 170 219 274 325 394
#     4  11  23  46  69  97 135 167 220 278 330 401
#
# _framework density 21.216681000000001
#
# number of rings (size 3 to 8) (size 9 to 14) (size 15 to 20)
#    0.000    1.250    3.750    1.875    1.750    3.500 
#    0.000    1.250    0.000    0.000    0.000    0.000 
#    0.000    0.000    0.000    0.000    0.000    0.000 
#
# Total GULP energy -89083.423076 kJ/mol
# GULP energy per Si atom -5567.713942 kJ/mol
# Density = 2.116839 g / cm^3
# Si number density = 21.216681 Si / 1000 Ang^3
#
#
#
# Elastic Constant Matrix: (Units=GPa)
#
#
# Indices 1 2 3 4 5 6 
#
# 1 61.2820 12.1361 7.4412 -11.1111 12.9162 -3.7447
# 2 12.1361 23.0279 10.8382 -8.8133 3.6124 -3.8023
# 3 7.4412 10.8382 131.3217 15.7582 6.9653 -5.7350
# 4 -11.1111 -8.8133 15.7582 31.1673 -5.9689 16.9797
# 5 12.9162 3.6124 6.9653 -5.9689 34.4417 2.4015
# 6 -3.7447 -3.8023 -5.7350 16.9797 2.4015 30.6880
#
#
#
# Elastic Compliance Matrix: (Units=1/GPa)
#
#
# Indices 1 2 3 4 5 6 
#
# 1 0.019908 -0.007543 -0.000816 0.004766 -0.005624 -0.000854
# 2 -0.007543 0.057659 -0.007437 0.021982 0.002620 -0.007534
# 3 -0.000816 -0.007437 0.010402 -0.012966 -0.003850 0.008398
# 4 0.004766 0.021982 -0.012966 0.070472 0.013473 -0.039164
# 5 -0.005624 0.002620 -0.003850 0.013473 0.034767 -0.011257
# 6 -0.000854 -0.007534 0.008398 -0.039164 -0.011257 0.055668
#
#
# Mechanical properties :
#
#
# Convention : Reuss Voigt Hill
#
# Bulk Modulus (GPa) = 17.73781 30.71805 24.22793
# Shear Modulus (GPa) = 16.70787 31.60715 24.15751
#
# Velocity S-wave (km/s) = 2.80926 3.86389 3.37799
# Velocity P-wave (km/s) = 4.34754 5.86651 5.16319
#
# Compressibility (1/GPa) = 0.05637675
#
# Stress axis : x y z
#
# Youngs Moduli (GPa) = 50.23087 17.34337 96.13804
#
# Poissons Ratio (x) = 0.13081 0.07849
# Poissons Ratio (y) = 0.37887 0.71498
# Poissons Ratio (z) = 0.04101 0.12898
#
# Static dielectric constant tensor:
#      x y z
#    x 1.358700 0.778590 0.471450 
#    y 0.778590 0.408990 -0.859080 
#    z 0.471450 -0.859080 1.238940 
# 
# From -- ./inp_files/315318.got.cif
#   From: 2010.05.17/outbox.cif.g08.bks.cpg/sg2_158_cif.got.tgz:315318.got - 2010.06.03 11:33:40.
