data_PCOD9036680
_publ_section_title
;
Structure prediction by ZEFSAII (Michael W. Deem and Ramdas Pophale) SiO2 
 PCOD9036680
Probable space group: P -1
;
_chemical_formula_sum "Si O2"
_cell_formula_units_Z 16
_cell_length_a 12.260049
_cell_length_b 8.611328
_cell_length_c 7.498065
_cell_angle_alpha 101.911807
_cell_angle_beta 67.502681
_cell_angle_gamma 88.346089
_cell_volume 710.507814
_symmetry_space_group_name_H-M "P -1"
_symmetry_group_IT_number 2
_symmetry_cell_setting 'triclinic'
loop_
_space_group_symop_operation_xyz
x,y,z
-x,-y,-z
loop_
_atom_site_type_symbol
_atom_site_label
_atom_site_fract_x
_atom_site_fract_y
_atom_site_fract_z
Si Si1 0.828520 0.639095 0.298239
Si Si2 0.708539 0.265300 0.668817
Si Si3 0.443201 0.839710 0.936519
Si Si4 0.136224 0.037763 0.445771
Si Si5 0.808241 0.065254 0.008477
Si Si6 0.971615 0.784367 0.977511
Si Si7 0.599354 0.564950 0.568115
Si Si8 0.077627 0.624514 0.556364
O O1 0.901143 0.648931 0.074046
O O2 0.687398 0.642976 0.395451
O O3 0.861792 0.472116 0.336693
O O4 0.862861 0.786522 0.432169
O O5 0.770676 0.088495 0.529161
O O6 0.651853 0.405721 0.608067
O O7 0.834555 0.332843 0.642957
O O8 0.618456 0.238105 0.874899
O O9 0.544511 0.708143 0.764986
O O10 0.331810 0.872449 0.872614
O O11 0.500000 0.000000 0.000000
O O12 0.189749 0.013204 0.207959
O O13 0.000000 0.000000 0.500000
O O14 0.907710 0.189120 0.986408
O O15 0.869833 0.936449 0.079546
O O16 0.004969 0.766172 0.744054
O O17 0.500000 0.500000 0.500000
O O18 0.000000 0.500000 0.500000
#
# Coordination Sequence:
#
# PCOD9036680 Si02
#       8
#     2   2   2   2   2   2   2   2
#     4  11  24  40  65  98 134 173 222 274 335 409
#     4  10  24  42  70  93 131 178 224 275 329 398
#     4  11  25  47  71  96 131 181 237 281 327 404
#     4  11  19  40  67  97 130 170 217 271 342 405
#     4  10  23  38  67  96 129 170 221 274 342 396
#     4  11  23  40  63 101 136 168 213 280 343 410
#     4  11  26  45  65  98 136 181 228 282 332 394
#     4  11  24  39  63  98 133 173 216 269 340 413
#
# _framework density 22.519105
#
# number of rings (size 3 to 8) (size 9 to 14) (size 15 to 20)
#    0.000    1.250    1.250    4.500    7.000    3.000 
#    0.000    1.875    0.000    0.000    0.000    0.000 
#    0.000    0.000    0.000    0.000    0.000    0.000 
#
# Total GULP energy -89097.793072 kJ/mol
# GULP energy per Si atom -5568.612067 kJ/mol
# Density = 2.246785 g / cm^3
# Si number density = 22.519105 Si / 1000 Ang^3
#
#
#
# Elastic Constant Matrix: (Units=GPa)
#
#
# Indices 1 2 3 4 5 6 
#
# 1 111.4855 42.9955 25.7659 -4.9708 -16.5695 7.8178
# 2 42.9955 111.5788 24.6733 -2.7973 -11.9070 -4.8101
# 3 25.7659 24.6733 81.4185 -14.4688 -12.1570 16.4644
# 4 -4.9708 -2.7973 -14.4688 45.0499 13.0354 -16.7490
# 5 -16.5695 -11.9070 -12.1570 13.0354 31.2246 -0.0582
# 6 7.8178 -4.8101 16.4644 -16.7490 -0.0582 49.5075
#
#
#
# Elastic Compliance Matrix: (Units=1/GPa)
#
#
# Indices 1 2 3 4 5 6 
#
# 1 0.011581 -0.003718 -0.001681 -0.001692 0.004775 -0.002198
# 2 -0.003718 0.011203 -0.002529 0.000037 0.001304 0.002531
# 3 -0.001681 -0.002529 0.015311 0.001998 0.003262 -0.004392
# 4 -0.001692 0.000037 0.001998 0.029901 -0.012571 0.009707
# 5 0.004775 0.001304 0.003262 -0.012571 0.041564 -0.005916
# 6 -0.002198 0.002531 -0.004392 0.009707 -0.005916 0.025530
#
#
# Mechanical properties :
#
#
# Convention : Reuss Voigt Hill
#
# Bulk Modulus (GPa) = 44.96793 54.59468 49.78131
# Shear Modulus (GPa) = 31.57352 39.22627 35.39989
#
# Velocity S-wave (km/s) = 3.74849 4.17815 3.96914
# Velocity P-wave (km/s) = 6.22472 6.89726 6.56960
#
# Compressibility (1/GPa) = 0.02223807
#
# Stress axis : x y z
#
# Youngs Moduli (GPa) = 86.35056 89.25824 65.31226
#
# Poissons Ratio (x) = 0.33189 0.10981
# Poissons Ratio (y) = 0.32107 0.16517
# Poissons Ratio (z) = 0.14518 0.22573
#
# Static dielectric constant tensor:
#      x y z
#    x 1.903820 -0.136860 -0.115140 
#    y -0.136860 1.897960 -0.037950 
#    z -0.115140 -0.037950 1.746340 
# 
# From -- ./inp_files/218059.got.cif
#   From: 2010.05.17/outbox.cif.g08.bks.cpg/sg2_110_cif.got.tgz:218059.got - 2010.06.03 11:33:40.
