data_PCOD9036510
_publ_section_title
;
Structure prediction by ZEFSAII (Michael W. Deem and Ramdas Pophale) SiO2 
 PCOD9036510
Probable space group: P -1
;
_chemical_formula_sum "Si O2"
_cell_formula_units_Z 14
_cell_length_a 13.668513
_cell_length_b 11.410556
_cell_length_c 8.966533
_cell_angle_alpha 107.111127
_cell_angle_beta 43.705313
_cell_angle_gamma 137.614694
_cell_volume 558.474658
_symmetry_space_group_name_H-M "P -1"
_symmetry_group_IT_number 2
_symmetry_cell_setting 'triclinic'
loop_
_space_group_symop_operation_xyz
x,y,z
-x,-y,-z
loop_
_atom_site_type_symbol
_atom_site_label
_atom_site_fract_x
_atom_site_fract_y
_atom_site_fract_z
Si Si1 0.326650 0.067788 0.190804
Si Si2 0.514057 0.458799 0.137201
Si Si3 0.226843 0.671403 0.415370
Si Si4 0.075560 0.382945 0.092228
Si Si5 0.572783 0.175194 0.244589
Si Si6 0.494608 0.704375 0.353203
Si Si7 0.853445 0.121934 0.964222
O O1 0.341687 0.224062 0.256749
O O2 0.375486 0.036497 0.281274
O O3 0.114047 0.879463 0.248703
O O4 0.553700 0.187528 0.885096
O O5 0.480159 0.549423 0.318568
O O6 0.500000 0.500000 0.000000
O O7 0.768187 0.580592 0.946515
O O8 0.278675 0.601216 0.451819
O O9 0.000000 0.500000 0.500000
O O10 0.170518 0.748477 0.613114
O O11 0.500788 0.785289 0.527450
O O12 0.047812 0.290093 0.933879
O O13 0.210285 0.601522 0.986738
O O14 0.681309 0.122505 0.161165
O O15 0.723040 0.910116 0.088731
#
# Coordination Sequence:
#
# PCOD9036510 Si02
#       7
#     2   2   2   2   2   2   2
#     4  10  23  37  66  89 124 160 204 248 310 352
#     4  11  20  43  62  89 119 168 204 242 298 380
#     4  11  18  37  60  93 113 159 207 248 292 359
#     4  11  24  36  67  91 123 156 210 250 302 354
#     4  11  22  40  61  94 121 163 199 254 300 361
#     4  11  24  37  67  85 127 163 201 245 310 359
#     4  11  22  40  59  95 123 157 201 257 303 357
#
# _framework density 25.068283000000001
#
# number of rings (size 3 to 8) (size 9 to 14) (size 15 to 20)
#    0.000    1.143    7.143    1.286    2.000    2.857 
#    0.000    0.000    0.000    1.714    0.000    0.000 
#    0.000    0.000    0.000    0.000    0.000    0.000 
#
# Total GULP energy -78305.882181 kJ/mol
# GULP energy per Si atom -5593.277299 kJ/mol
# Density = 2.501123 g / cm^3
# Si number density = 25.068283 Si / 1000 Ang^3
#
#
#
# Elastic Constant Matrix: (Units=GPa)
#
#
# Indices 1 2 3 4 5 6 
#
# 1 104.5044 33.6676 9.5883 6.0842 -2.4329 17.5499
# 2 33.6676 160.2821 3.9640 14.6214 1.1167 5.3689
# 3 9.5883 3.9640 36.3651 3.5781 6.9728 -5.3631
# 4 6.0842 14.6214 3.5781 36.1951 2.9973 -3.2179
# 5 -2.4329 1.1167 6.9728 2.9973 32.9284 4.9681
# 6 17.5499 5.3689 -5.3631 -3.2179 4.9681 57.0321
#
#
#
# Elastic Compliance Matrix: (Units=1/GPa)
#
#
# Indices 1 2 3 4 5 6 
#
# 1 0.011361 -0.002066 -0.003686 -0.001259 0.002397 -0.003928
# 2 -0.002066 0.006900 0.000042 -0.002444 -0.000153 -0.000135
# 3 -0.003686 0.000042 0.030686 -0.001417 -0.007333 0.004575
# 4 -0.001259 -0.002444 -0.001417 0.029406 -0.002746 0.002383
# 5 0.002397 -0.000153 -0.007333 -0.002746 0.033025 -0.004445
# 6 -0.003928 -0.000135 0.004575 0.002383 -0.004445 0.019707
#
#
# Mechanical properties :
#
#
# Convention : Reuss Voigt Hill
#
# Bulk Modulus (GPa) = 26.64517 43.95462 35.29990
# Shear Modulus (GPa) = 32.25527 42.15988 37.20758
#
# Velocity S-wave (km/s) = 3.59095 4.10543 3.85677
# Velocity P-wave (km/s) = 5.27687 6.32809 5.82624
#
# Compressibility (1/GPa) = 0.03753026
#
# Stress axis : x y z
#
# Youngs Moduli (GPa) = 88.01768 144.92048 32.58795
#
# Poissons Ratio (x) = 0.29935 0.12010
# Poissons Ratio (y) = 0.18181 -0.00138
# Poissons Ratio (z) = 0.32439 -0.00614
#
# Static dielectric constant tensor:
#      x y z
#    x 1.948950 0.023840 0.008850 
#    y 0.023840 2.040240 -0.049900 
#    z 0.008850 -0.049900 2.056120 
# 
# From -- ./inp_files/450279.got.cif
#   From: 2010.05.17/outbox.cif.g08.bks.cpg/sg2_226_cif.got.tgz:450279.got - 2010.06.03 11:33:40.
