data_PCOD9036100
_publ_section_title
;
Structure prediction by ZEFSAII (Michael W. Deem and Ramdas Pophale) SiO2 
 PCOD9036100
Probable space group: P -1
;
_chemical_formula_sum "Si O2"
_cell_formula_units_Z 14
_cell_length_a 5.861597
_cell_length_b 24.099227
_cell_length_c 14.319854
_cell_angle_alpha 159.145202
_cell_angle_beta 127.784907
_cell_angle_gamma 51.986732
_cell_volume 562.351985
_symmetry_space_group_name_H-M "P -1"
_symmetry_group_IT_number 2
_symmetry_cell_setting 'triclinic'
loop_
_space_group_symop_operation_xyz
x,y,z
-x,-y,-z
loop_
_atom_site_type_symbol
_atom_site_label
_atom_site_fract_x
_atom_site_fract_y
_atom_site_fract_z
Si Si1 0.852900 0.894038 0.504631
Si Si2 0.800327 0.843518 0.941113
Si Si3 0.317890 0.398279 0.230408
Si Si4 0.436325 0.640556 0.278506
Si Si5 0.328373 0.480608 0.659796
Si Si6 0.740653 0.908567 0.807138
Si Si7 0.308450 0.058666 0.668573
O O1 0.716202 0.877153 0.342984
O O2 0.127699 0.759182 0.377461
O O3 0.563202 0.914074 0.526858
O O4 0.944435 0.070341 0.816703
O O5 0.778537 0.659292 0.650327
O O6 0.770957 0.872558 0.868109
O O7 0.524126 0.964111 0.093698
O O8 0.500000 0.500000 0.500000
O O9 0.474617 0.427111 0.214468
O O10 0.969492 0.447803 0.244713
O O11 0.357312 0.214662 0.980145
O O12 0.458998 0.585070 0.304672
O O13 0.696747 0.744499 0.493885
O O14 0.500000 0.500000 0.000000
O O15 0.000000 0.000000 0.000000
O O16 0.000000 0.000000 0.500000
#
# Coordination Sequence:
#
# PCOD9036100 Si02
#       7
#     2   2   2   2   2   2   2
#     4  10  23  46  72 101 144 195 250 307 377 444
#     4   9  20  38  64 100 137 190 237 298 367 436
#     4  12  28  50  80 109 152 200 253 313 378 444
#     4  10  22  47  73 111 152 199 240 310 390 447
#     4  11  26  46  78 115 152 192 256 310 378 458
#     4   9  19  36  62  98 141 185 243 285 354 450
#     4  11  27  47  73 103 140 195 261 308 363 453
#
# _framework density 24.895441999999999
#
# number of rings (size 3 to 8) (size 9 to 14) (size 15 to 20)
#    0.000    1.714    0.000    3.000   10.000    2.286 
#    5.143    1.429    0.000    0.000    0.000    0.000 
#    0.000    0.000    0.000    0.000    0.000    0.000 
#
# Total GULP energy -78051.351206 kJ/mol
# GULP energy per Si atom -5575.096515 kJ/mol
# Density = 2.483878 g / cm^3
# Si number density = 24.895442 Si / 1000 Ang^3
#
#
#
# Elastic Constant Matrix: (Units=GPa)
#
#
# Indices 1 2 3 4 5 6 
#
# 1 139.2878 44.4469 63.4509 15.4868 15.8562 -5.9105
# 2 44.4469 105.7097 43.7508 0.4782 -4.5800 0.1616
# 3 63.4509 43.7508 190.8203 4.5192 7.9965 -5.2505
# 4 15.4868 0.4782 4.5192 35.0674 0.8422 -1.2798
# 5 15.8562 -4.5800 7.9965 0.8422 32.3876 -0.4415
# 6 -5.9105 0.1616 -5.2505 -1.2798 -0.4415 46.1578
#
#
#
# Elastic Compliance Matrix: (Units=1/GPa)
#
#
# Indices 1 2 3 4 5 6 
#
# 1 0.010452 -0.003634 -0.002312 -0.004116 -0.004940 0.000927
# 2 -0.003634 0.011862 -0.001726 0.001551 0.003834 -0.000624
# 3 -0.002312 -0.001726 0.006441 0.000248 -0.000703 0.000443
# 4 -0.004116 0.001551 0.000248 0.030260 0.001391 0.000348
# 5 -0.004940 0.003834 -0.000703 0.001391 0.033969 -0.000362
# 6 0.000927 -0.000624 0.000443 0.000348 -0.000362 0.021842
#
#
# Mechanical properties :
#
#
# Convention : Reuss Voigt Hill
#
# Bulk Modulus (GPa) = 74.57032 82.12389 78.34710
# Shear Modulus (GPa) = 37.13563 41.66716 39.40140
#
# Velocity S-wave (km/s) = 3.86640 4.09551 3.98260
# Velocity P-wave (km/s) = 7.06756 7.44469 7.25858
#
# Compressibility (1/GPa) = 0.01341016
#
# Stress axis : x y z
#
# Youngs Moduli (GPa) = 95.67795 84.30024 155.26050
#
# Poissons Ratio (x) = 0.30639 0.35897
# Poissons Ratio (y) = 0.34774 0.26795
# Poissons Ratio (z) = 0.22121 0.14549
#
# Static dielectric constant tensor:
#      x y z
#    x 2.412280 -0.059810 -0.153470 
#    y -0.059810 2.021850 0.019240 
#    z -0.153470 0.019240 2.005580 
# 
# From -- ./inp_files/486225.got.cif
#   From: 2010.05.17/outbox.cif.g08.bks.cpg/sg2_244_cif.got.tgz:486225.got - 2010.06.03 11:33:40.
