data_PCOD9036796
_publ_section_title
;
Structure prediction by ZEFSAII (Michael W. Deem and Ramdas Pophale) SiO2 
 PCOD9036796
Probable space group: P -1
;
_chemical_formula_sum "Si O2"
_cell_formula_units_Z 12
_cell_length_a 19.827704
_cell_length_b 5.815977
_cell_length_c 6.322220
_cell_angle_alpha 106.922107
_cell_angle_beta 106.950937
_cell_angle_gamma 122.586631
_cell_volume 488.418861
_symmetry_space_group_name_H-M "P -1"
_symmetry_group_IT_number 2
_symmetry_cell_setting 'triclinic'
loop_
_space_group_symop_operation_xyz
x,y,z
-x,-y,-z
loop_
_atom_site_type_symbol
_atom_site_label
_atom_site_fract_x
_atom_site_fract_y
_atom_site_fract_z
Si Si1 0.694968 0.145990 0.332572
Si Si2 0.821943 0.826169 0.758535
Si Si3 0.633118 0.396015 0.660441
Si Si4 0.451478 0.040417 0.152204
Si Si5 0.955940 0.052804 0.285086
Si Si6 0.122176 0.729676 0.419363
O O1 0.770030 0.539289 0.458408
O O2 0.541538 0.317813 0.456050
O O3 0.766804 0.096717 0.427592
O O4 0.617448 0.930927 0.020300
O O5 0.733361 0.746402 0.778708
O O6 0.889260 0.167279 0.789958
O O7 0.875125 0.785502 0.970999
O O8 0.613742 0.287701 0.854080
O O9 0.642980 0.152046 0.488531
O O10 0.500000 0.000000 0.000000
O O11 0.902270 0.142963 0.381558
O O12 0.045047 0.346655 0.302733
O O13 0.000000 0.000000 0.500000
#
# Coordination Sequence:
#
# PCOD9036796 Si02
#       6
#     2   2   2   2   2   2
#     4   9  21  36  65  88 122 161 203 248 299 360
#     4  10  23  39  62  89 122 160 206 252 304 359
#     4   8  19  34  63  89 120 162 202 244 300 360
#     4   9  16  35  63  93 120 160 199 243 303 360
#     4  11  26  42  63  88 123 164 206 255 308 362
#     4  11  24  41  60  92 123 163 202 258 304 361
#
# _framework density 24.569071999999998
#
# number of rings (size 3 to 8) (size 9 to 14) (size 15 to 20)
#    1.000    1.333    0.000    1.500    4.667    6.667 
#    0.000    0.833    0.000    6.000    0.000    0.000 
#    0.000    0.000    0.000    0.000    0.000    0.000 
#
# Total GULP energy -66909.703232 kJ/mol
# GULP energy per Si atom -5575.808603 kJ/mol
# Density = 2.451315 g / cm^3
# Si number density = 24.569072 Si / 1000 Ang^3
#
#
#
# Elastic Constant Matrix: (Units=GPa)
#
#
# Indices 1 2 3 4 5 6 
#
# 1 117.7063 11.1972 40.3523 -5.0296 19.2653 14.7909
# 2 11.1972 91.5160 33.2528 -24.0039 -6.6171 30.5038
# 3 40.3523 33.2528 119.7906 -13.5373 38.2862 10.2934
# 4 -5.0296 -24.0039 -13.5373 30.9031 3.1718 -4.7459
# 5 19.2653 -6.6171 38.2862 3.1718 37.7195 -10.8177
# 6 14.7909 30.5038 10.2934 -4.7459 -10.8177 32.5090
#
#
#
# Elastic Compliance Matrix: (Units=1/GPa)
#
#
# Indices 1 2 3 4 5 6 
#
# 1 0.010932 0.001947 -0.001120 0.002205 -0.006685 -0.008349
# 2 0.001947 0.021227 -0.003780 0.012392 0.000465 -0.017643
# 3 -0.001120 -0.003780 0.017663 0.005573 -0.020668 -0.007600
# 4 0.002205 0.012392 0.005573 0.044168 -0.011721 -0.011848
# 5 -0.006685 0.000465 -0.020668 -0.011721 0.059813 0.027342
# 6 -0.008349 -0.017643 -0.007600 -0.011848 0.027342 0.060889
#
#
# Mechanical properties :
#
#
# Convention : Reuss Voigt Hill
#
# Bulk Modulus (GPa) = 22.77085 55.40195 39.08640
# Shear Modulus (GPa) = 21.25520 36.50703 28.88111
#
# Velocity S-wave (km/s) = 2.94448 3.85891 3.43229
# Velocity P-wave (km/s) = 4.56598 6.51562 5.62590
#
# Compressibility (1/GPa) = 0.04391580
#
# Stress axis : x y z
#
# Youngs Moduli (GPa) = 91.47539 47.10981 56.61572
#
# Poissons Ratio (x) = -0.09173 0.06340
# Poissons Ratio (y) = -0.17812 0.21403
# Poissons Ratio (z) = 0.10243 0.17810
#
# Static dielectric constant tensor:
#      x y z
#    x 1.980770 -0.043990 -0.005310 
#    y -0.043990 1.996590 0.051110 
#    z -0.005310 0.051110 1.991000 
# 
# From -- ./inp_files/113759.got.cif
#   From: 2010.05.17/outbox.cif.g08.bks.cpg/sg2_57_cif.got.tgz:113759.got - 2010.06.03 11:33:40.
