data_PCOD9036326
_publ_section_title
;
Structure prediction by ZEFSAII (Michael W. Deem and Ramdas Pophale) SiO2 
 PCOD9036326
Probable space group: P -1
;
_chemical_formula_sum "Si O2"
_cell_formula_units_Z 14
_cell_length_a 8.957602
_cell_length_b 8.965745
_cell_length_c 12.004623
_cell_angle_alpha 111.769440
_cell_angle_beta 118.017202
_cell_angle_gamma 115.216582
_cell_volume 538.390303
_symmetry_space_group_name_H-M "P -1"
_symmetry_group_IT_number 2
_symmetry_cell_setting 'triclinic'
loop_
_space_group_symop_operation_xyz
x,y,z
-x,-y,-z
loop_
_atom_site_type_symbol
_atom_site_label
_atom_site_fract_x
_atom_site_fract_y
_atom_site_fract_z
Si Si1 0.783520 0.042307 0.530429
Si Si2 0.277320 0.807993 0.983859
Si Si3 0.438913 0.437977 0.645783
Si Si4 0.758079 0.035045 0.773051
Si Si5 0.670822 0.525081 0.153459
Si Si6 0.273282 0.743961 0.626715
Si Si7 0.901518 0.791773 0.745489
O O1 0.736931 0.071613 0.648176
O O2 0.757938 0.149574 0.452842
O O3 0.072876 0.198828 0.673619
O O4 0.604263 0.768281 0.374623
O O5 0.265719 0.612616 0.898885
O O6 0.436657 0.935523 0.835231
O O7 0.116751 0.818917 0.857384
O O8 0.182496 0.782806 0.069987
O O9 0.438716 0.556369 0.782876
O O10 0.682197 0.599894 0.701695
O O11 0.204073 0.296943 0.441230
O O12 0.487613 0.782199 0.653110
O O13 0.943541 0.012424 0.837857
O O14 0.500000 0.500000 0.000000
O O15 0.000000 0.500000 0.500000
#
# Coordination Sequence:
#
# PCOD9036326 Si02
#       7
#     2   2   2   2   2   2   2
#     4  11  24  49  77 111 156 217 269 323 404 475
#     4  10  25  47  81 115 161 207 265 334 396 490
#     4  10  25  47  82 112 162 215 268 326 398 483
#     4   9  23  45  82 114 156 209 267 329 390 488
#     4  12  28  48  74 118 163 207 266 340 402 472
#     4  10  24  47  77 119 159 206 266 330 407 473
#     4  10  22  49  82 120 153 216 272 326 401 470
#
# _framework density 26.003440000000001
#
# number of rings (size 3 to 8) (size 9 to 14) (size 15 to 20)
#    0.857    0.857    0.000    2.143    4.000    5.714 
#    5.143    2.857    0.000    1.714    0.000    0.000 
#    0.000    0.000    0.000    0.000    0.000    0.000 
#
# Total GULP energy -78413.958032 kJ/mol
# GULP energy per Si atom -5600.997002 kJ/mol
# Density = 2.594425 g / cm^3
# Si number density = 26.003440 Si / 1000 Ang^3
#
#
#
# Elastic Constant Matrix: (Units=GPa)
#
#
# Indices 1 2 3 4 5 6 
#
# 1 171.1475 71.4836 82.1026 -30.2811 -19.4145 -7.4049
# 2 71.4836 147.7226 48.9007 -18.0445 -3.8080 2.0697
# 3 82.1026 48.9007 127.3445 -27.3690 4.0683 -5.8300
# 4 -30.2811 -18.0445 -27.3690 43.5329 -3.8501 -0.3838
# 5 -19.4145 -3.8080 4.0683 -3.8501 53.6300 5.9351
# 6 -7.4049 2.0697 -5.8300 -0.3838 5.9351 48.0141
#
#
#
# Elastic Compliance Matrix: (Units=1/GPa)
#
#
# Indices 1 2 3 4 5 6 
#
# 1 0.010610 -0.002940 -0.005099 0.003331 0.004186 0.000653
# 2 -0.002940 0.008732 -0.001344 0.000704 -0.000185 -0.000965
# 3 -0.005099 -0.001344 0.012563 0.003560 -0.002768 0.001168
# 4 0.003331 0.000704 0.003560 0.028083 0.002916 0.000780
# 5 0.004186 -0.000185 -0.002768 0.002916 0.020815 -0.002232
# 6 0.000653 -0.000965 0.001168 0.000780 -0.002232 0.021393
#
#
# Mechanical properties :
#
#
# Convention : Reuss Voigt Hill
#
# Bulk Modulus (GPa) = 76.11728 94.57651 85.34689
# Shear Modulus (GPa) = 39.89048 45.28392 42.58720
#
# Velocity S-wave (km/s) = 3.92094 4.17761 4.05131
# Velocity P-wave (km/s) = 7.05931 7.72784 7.40113
#
# Compressibility (1/GPa) = 0.01313762
#
# Stress axis : x y z
#
# Youngs Moduli (GPa) = 94.25392 114.52025 79.59612
#
# Poissons Ratio (x) = 0.33674 0.40586
# Poissons Ratio (y) = 0.27715 0.10700
# Poissons Ratio (z) = 0.48060 0.15395
#
# Static dielectric constant tensor:
#      x y z
#    x 2.110000 -0.023390 -0.011780 
#    y -0.023390 2.074060 0.005520 
#    z -0.011780 0.005520 2.059640 
# 
# From -- ./inp_files/383034.got.cif
#   From: 2010.05.17/outbox.cif.g08.bks.cpg/sg2_192_cif.got.tgz:383034.got - 2010.06.03 11:33:40.
