data_PCOD9036239
_publ_section_title
;
Structure prediction by ZEFSAII (Michael W. Deem and Ramdas Pophale) SiO2 
 PCOD9036239
Probable space group: P -1
;
_chemical_formula_sum "Si O2"
_cell_formula_units_Z 14
_cell_length_a 8.792257
_cell_length_b 12.926407
_cell_length_c 11.996844
_cell_angle_alpha 144.935247
_cell_angle_beta 104.094031
_cell_angle_gamma 98.339912
_cell_volume 597.278828
_symmetry_space_group_name_H-M "P -1"
_symmetry_group_IT_number 2
_symmetry_cell_setting 'triclinic'
loop_
_space_group_symop_operation_xyz
x,y,z
-x,-y,-z
loop_
_atom_site_type_symbol
_atom_site_label
_atom_site_fract_x
_atom_site_fract_y
_atom_site_fract_z
Si Si1 0.956997 0.219259 0.539448
Si Si2 0.701056 0.723512 0.942687
Si Si3 0.408593 0.056043 0.630081
Si Si4 0.351970 0.017574 0.234392
Si Si5 0.624524 0.667892 0.296713
Si Si6 0.933540 0.581516 0.728623
Si Si7 0.555950 0.245588 0.253622
O O1 0.942165 0.396278 0.628357
O O2 0.185365 0.323179 0.683350
O O3 0.825263 0.141116 0.559794
O O4 0.842069 0.980933 0.241939
O O5 0.556666 0.548914 0.859527
O O6 0.835135 0.660406 0.861148
O O7 0.563414 0.710622 0.810601
O O8 0.527037 0.068353 0.770646
O O9 0.434487 0.271633 0.773927
O O10 0.500000 0.000000 0.500000
O O11 0.306777 0.121814 0.419536
O O12 0.483694 0.214171 0.340595
O O13 0.156476 0.809614 0.953211
O O14 0.790646 0.456995 0.486353
O O15 0.500000 0.000000 0.000000
#
# Coordination Sequence:
#
# PCOD9036239 Si02
#       7
#     2   2   2   2   2   2   2
#     4  12  25  46  73 109 140 183 243 285 354 426
#     4  12  26  48  72 104 145 186 236 293 352 418
#     4  10  22  48  73 103 146 185 233 292 350 418
#     4  11  24  46  72 104 144 188 235 290 355 415
#     4  11  25  46  73 104 142 187 237 293 350 416
#     4  12  25  45  72 103 144 184 232 293 350 418
#     4  12  25  46  72 104 144 188 236 291 351 422
#
# _framework density 23.439639
#
# number of rings (size 3 to 8) (size 9 to 14) (size 15 to 20)
#    0.000    0.571    5.714    1.714    4.000    2.857 
#    2.571    2.143    0.000    0.000    0.000    0.000 
#    0.000    0.000    0.000    0.000    0.000    0.000 
#
# Total GULP energy -78416.554830 kJ/mol
# GULP energy per Si atom -5601.182488 kJ/mol
# Density = 2.338629 g / cm^3
# Si number density = 23.439639 Si / 1000 Ang^3
#
#
#
# Elastic Constant Matrix: (Units=GPa)
#
#
# Indices 1 2 3 4 5 6 
#
# 1 121.3345 10.8178 8.9473 -3.0300 -2.7738 -21.1526
# 2 10.8178 84.4172 -7.3019 0.8548 8.6377 -21.3221
# 3 8.9473 -7.3019 98.9001 3.1141 3.6960 -11.6553
# 4 -3.0300 0.8548 3.1141 34.8639 -3.9938 -9.8798
# 5 -2.7738 8.6377 3.6960 -3.9938 42.2815 -1.7663
# 6 -21.1526 -21.3221 -11.6553 -9.8798 -1.7663 39.7316
#
#
#
# Elastic Compliance Matrix: (Units=1/GPa)
#
#
# Indices 1 2 3 4 5 6 
#
# 1 0.009321 0.000051 -0.000303 0.002544 0.001101 0.005583
# 2 0.000051 0.014476 0.002138 0.001627 -0.002623 0.008711
# 3 -0.000303 0.002138 0.010827 -0.000025 -0.001234 0.004101
# 4 0.002544 0.001627 -0.000025 0.032184 0.003310 0.010370
# 5 0.001101 -0.002623 -0.001234 0.003310 0.024711 0.000738
# 6 0.005583 0.008711 0.004101 0.010370 0.000738 0.036630
#
#
# Mechanical properties :
#
#
# Convention : Reuss Voigt Hill
#
# Bulk Modulus (GPa) = 26.04453 36.61982 31.33217
# Shear Modulus (GPa) = 36.44929 42.85462 39.65196
#
# Velocity S-wave (km/s) = 3.94766 4.28050 4.11744
# Velocity P-wave (km/s) = 5.64926 6.33144 6.00005
#
# Compressibility (1/GPa) = 0.03839578
#
# Stress axis : x y z
#
# Youngs Moduli (GPa) = 107.27978 69.07777 92.36493
#
# Poissons Ratio (x) = -0.00352 0.02797
# Poissons Ratio (y) = -0.00546 -0.19744
# Poissons Ratio (z) = 0.03249 -0.14766
#
# Static dielectric constant tensor:
#      x y z
#    x 1.885840 0.021350 -0.061780 
#    y 0.021350 1.839690 -0.031200 
#    z -0.061780 -0.031200 1.940830 
# 
# From -- ./inp_files/241475.got.cif
#   From: 2010.05.17/outbox.cif.g08.bks.cpg/sg2_121_cif.got.tgz:241475.got - 2010.06.03 11:33:40.
