data_PCOD9036331
_publ_section_title
;
Structure prediction by ZEFSAII (Michael W. Deem and Ramdas Pophale) SiO2 
 PCOD9036331
Probable space group: P -1
;
_chemical_formula_sum "Si O2"
_cell_formula_units_Z 15
_cell_length_a 8.985351
_cell_length_b 12.532122
_cell_length_c 19.644606
_cell_angle_alpha 141.815576
_cell_angle_beta 48.916548
_cell_angle_gamma 102.166006
_cell_volume 777.739560
_symmetry_space_group_name_H-M "P -1"
_symmetry_group_IT_number 2
_symmetry_cell_setting 'triclinic'
loop_
_space_group_symop_operation_xyz
x,y,z
-x,-y,-z
loop_
_atom_site_type_symbol
_atom_site_label
_atom_site_fract_x
_atom_site_fract_y
_atom_site_fract_z
Si Si1 0.644311 0.413782 0.208983
Si Si2 0.656028 0.068534 0.453042
Si Si3 0.330079 0.345693 0.993950
Si Si4 0.902761 0.136011 0.669786
Si Si5 0.293817 0.157972 0.049177
Si Si6 0.235044 0.339887 0.296883
Si Si7 0.000000 0.000000 0.000000
Si Si8 0.948370 0.694031 0.064804
O O1 0.530216 0.669626 0.382072
O O2 0.409986 0.411380 0.276366
O O3 0.842135 0.235128 0.117460
O O4 0.797990 0.348995 0.059234
O O5 0.500000 0.000000 0.500000
O O6 0.785539 0.918569 0.271487
O O7 0.870666 0.010493 0.414542
O O8 0.174016 0.616183 0.184174
O O9 0.321248 0.257306 0.024341
O O10 0.629237 0.206532 0.810707
O O11 0.195640 0.301773 0.955599
O O12 0.000000 0.000000 0.500000
O O13 0.159731 0.335877 0.240655
O O14 0.133090 0.078364 0.042640
O O15 0.581804 0.923624 0.865803
O O16 0.000000 0.500000 0.500000
O O17 0.000000 0.500000 0.000000
#
# Coordination Sequence:
#
# PCOD9036331 Si02
#       8
#     2   2   2   2   2   2   1   2
#     4  11  25  43  72 100 137 179 231 284 348 416
#     4  12  25  42  68 104 138 181 234 282 342 414
#     4  11  24  43  67  98 137 184 219 288 346 405
#     4  11  26  40  65 102 139 178 229 276 343 411
#     4  10  23  44  71  92 134 171 227 278 346 406
#     4  10  25  45  68  99 130 177 229 285 344 410
#     4  10  22  50  68  98 130 184 220 282 348 404
#     4  12  23  44  70  97 142 185 230 279 347 412
#
# _framework density 19.286662
#
# number of rings (size 3 to 8) (size 9 to 14) (size 15 to 20)
#    0.000    1.067    4.000    0.800    5.600    2.133 
#    2.400    2.000    0.000    0.000    0.000    0.000 
#    0.000    0.000    0.000    0.000    0.000    0.000 
#
# Total GULP energy -83515.445827 kJ/mol
# GULP energy per Si atom -5567.696388 kJ/mol
# Density = 1.924277 g / cm^3
# Si number density = 19.286662 Si / 1000 Ang^3
#
#
#
# Elastic Constant Matrix: (Units=GPa)
#
#
# Indices 1 2 3 4 5 6 
#
# 1 95.2889 45.4604 42.3677 -19.9470 12.9910 -9.0469
# 2 45.4604 141.0439 76.0524 2.3126 4.7260 -12.2638
# 3 42.3677 76.0524 159.1437 -19.6078 26.6823 -5.0037
# 4 -19.9470 2.3126 -19.6078 41.1039 -3.1285 -5.0919
# 5 12.9910 4.7260 26.6823 -3.1285 29.9261 -6.0197
# 6 -9.0469 -12.2638 -5.0037 -5.0919 -6.0197 32.6572
#
#
#
# Elastic Compliance Matrix: (Units=1/GPa)
#
#
# Indices 1 2 3 4 5 6 
#
# 1 0.015179 -0.004574 -0.000088 0.007597 -0.004422 0.002843
# 2 -0.004574 0.011851 -0.005875 -0.004974 0.005333 0.002491
# 3 -0.000088 -0.005875 0.011121 0.004755 -0.008733 -0.001395
# 4 0.007597 -0.004974 0.004755 0.031042 -0.002429 0.005357
# 5 -0.004422 0.005333 -0.008733 -0.002429 0.043447 0.007069
# 6 0.002843 0.002491 -0.001395 0.005357 0.007069 0.034269
#
#
# Mechanical properties :
#
#
# Convention : Reuss Voigt Hill
#
# Bulk Modulus (GPa) = 58.55768 80.35974 69.45871
# Shear Modulus (GPa) = 28.78941 36.17717 32.48329
#
# Velocity S-wave (km/s) = 3.86775 4.33570 4.10840
# Velocity P-wave (km/s) = 7.09744 8.17440 7.65489
#
# Compressibility (1/GPa) = 0.01707718
#
# Stress axis : x y z
#
# Youngs Moduli (GPa) = 65.88109 84.37924 89.92289
#
# Poissons Ratio (x) = 0.38594 0.00795
# Poissons Ratio (y) = 0.30133 0.52825
# Poissons Ratio (z) = 0.00582 0.49569
#
# Static dielectric constant tensor:
#      x y z
#    x 1.664640 0.001570 -0.043690 
#    y 0.001570 1.655660 0.013290 
#    z -0.043690 0.013290 1.586800 
# 
# From -- ./inp_files/80766.got.cif
#   From: 2010.05.17/outbox.cif.g08.bks.cpg/sg2_41_cif.got.tgz:80766.got - 2010.06.03 11:33:40.
