data_PCOD9036148
_publ_section_title
;
Structure prediction by ZEFSAII (Michael W. Deem and Ramdas Pophale) SiO2 
 PCOD9036148
Probable space group: P -1
;
_chemical_formula_sum "Si O2"
_cell_formula_units_Z 13
_cell_length_a 5.118628
_cell_length_b 6.634445
_cell_length_c 17.119226
_cell_angle_alpha 114.974037
_cell_angle_beta 109.539426
_cell_angle_gamma 80.795250
_cell_volume 496.530191
_symmetry_space_group_name_H-M "P -1"
_symmetry_group_IT_number 2
_symmetry_cell_setting 'triclinic'
loop_
_space_group_symop_operation_xyz
x,y,z
-x,-y,-z
loop_
_atom_site_type_symbol
_atom_site_label
_atom_site_fract_x
_atom_site_fract_y
_atom_site_fract_z
Si Si1 0.359817 0.827233 0.897761
Si Si2 0.490176 0.814969 0.339404
Si Si3 0.481486 0.012531 0.783242
Si Si4 0.500000 0.000000 0.500000
Si Si5 0.997942 0.366291 0.559693
Si Si6 0.125446 0.400850 0.253991
Si Si7 0.304916 0.545264 0.063134
O O1 0.582603 0.627184 0.889808
O O2 0.076847 0.691094 0.849062
O O3 0.309351 0.952678 0.831707
O O4 0.500000 0.000000 0.000000
O O5 0.649392 0.878173 0.288415
O O6 0.290434 0.614094 0.277140
O O7 0.705477 0.777226 0.428311
O O8 0.332187 0.012742 0.399571
O O9 0.679596 0.203286 0.866084
O O10 0.651541 0.794645 0.740204
O O11 0.742180 0.206205 0.523030
O O12 0.017403 0.523549 0.665602
O O13 0.000000 0.500000 0.500000
O O14 0.500000 0.500000 0.000000
O O15 0.000000 0.500000 0.000000
#
# Coordination Sequence:
#
# PCOD9036148 Si02
#       7
#     2   2   2   1   2   2   2
#     4  12  28  51  76 114 155 213 269 337 412 484
#     4  10  25  49  74 114 154 205 266 328 403 492
#     4  12  26  45  76 110 156 206 271 331 412 482
#     4   8  22  48  72 112 152 202 256 324 408 492
#     4  10  22  47  76 113 157 205 260 329 410 490
#     4  12  26  45  80 112 156 205 272 332 405 490
#     4  12  28  49  78 113 158 211 277 346 416 494
#
# _framework density 26.181692999999999
#
# number of rings (size 3 to 8) (size 9 to 14) (size 15 to 20)
#    0.923    0.000    1.538    4.615    4.308    3.692 
#    2.769    1.538    0.000    0.000    0.000    0.000 
#    0.000    0.000    0.000    0.000    0.000    0.000 
#
# Total GULP energy -72513.145877 kJ/mol
# GULP energy per Si atom -5577.934298 kJ/mol
# Density = 2.612210 g / cm^3
# Si number density = 26.181693 Si / 1000 Ang^3
#
#
#
# Elastic Constant Matrix: (Units=GPa)
#
#
# Indices 1 2 3 4 5 6 
#
# 1 138.1929 46.0185 51.2435 -3.1777 6.6588 21.9700
# 2 46.0185 82.2858 49.1477 -4.4449 2.7552 25.9957
# 3 51.2435 49.1477 154.8834 10.2787 -11.1257 34.0257
# 4 -3.1777 -4.4449 10.2787 67.2738 4.4063 -5.1105
# 5 6.6588 2.7552 -11.1257 4.4063 53.8594 6.2955
# 6 21.9700 25.9957 34.0257 -5.1105 6.2955 37.3338
#
#
#
# Elastic Compliance Matrix: (Units=1/GPa)
#
#
# Indices 1 2 3 4 5 6 
#
# 1 0.009400 -0.003803 -0.001819 0.000482 -0.001272 -0.000945
# 2 -0.003803 0.018602 -0.003013 0.000935 -0.000269 -0.007794
# 3 -0.001819 -0.003013 0.009924 -0.002543 0.003432 -0.006803
# 4 0.000482 0.000935 -0.002543 0.015794 -0.002386 0.003947
# 5 -0.001272 -0.000269 0.003432 -0.002386 0.020337 -0.005948
# 6 -0.000945 -0.007794 -0.006803 0.003947 -0.005948 0.040512
#
#
# Mechanical properties :
#
#
# Convention : Reuss Voigt Hill
#
# Bulk Modulus (GPa) = 48.41546 74.24236 61.32891
# Shear Modulus (GPa) = 36.04238 46.95690 41.49964
#
# Velocity S-wave (km/s) = 3.71432 4.23957 3.98560
# Velocity P-wave (km/s) = 6.07677 7.23764 6.68246
#
# Compressibility (1/GPa) = 0.02065456
#
# Stress axis : x y z
#
# Youngs Moduli (GPa) = 106.38449 53.75893 100.76214
#
# Poissons Ratio (x) = 0.20446 0.18327
# Poissons Ratio (y) = 0.40461 0.30364
# Poissons Ratio (z) = 0.19350 0.16200
#
# Static dielectric constant tensor:
#      x y z
#    x 2.456600 0.062000 0.011210 
#    y 0.062000 2.125760 0.012490 
#    z 0.011210 0.012490 2.220530 
# 
# From -- ./inp_files/7312.got.cif
#   From: 2010.05.17/outbox.cif.g08.bks.cpg/sg2_4_cif.got.tgz:7312.got - 2010.06.03 11:33:40.
