data_PCOD9036050
_publ_section_title
;
Structure prediction by ZEFSAII (Michael W. Deem and Ramdas Pophale) SiO2 
 PCOD9036050
Probable space group: P -1
;
_chemical_formula_sum "Si O2"
_cell_formula_units_Z 12
_cell_length_a 15.264552
_cell_length_b 8.449073
_cell_length_c 7.738001
_cell_angle_alpha 116.197412
_cell_angle_beta 44.800623
_cell_angle_gamma 138.570250
_cell_volume 456.463082
_symmetry_space_group_name_H-M "P -1"
_symmetry_group_IT_number 2
_symmetry_cell_setting 'triclinic'
loop_
_space_group_symop_operation_xyz
x,y,z
-x,-y,-z
loop_
_atom_site_type_symbol
_atom_site_label
_atom_site_fract_x
_atom_site_fract_y
_atom_site_fract_z
Si Si1 0.656774 0.019843 0.746029
Si Si2 0.908493 0.354397 0.863094
Si Si3 0.364516 0.016531 0.649721
Si Si4 0.108910 0.278056 0.027423
Si Si5 0.566300 0.519381 0.150986
Si Si6 0.120573 0.276013 0.399299
O O1 0.685776 0.046606 0.512461
O O2 0.598214 0.764922 0.754349
O O3 0.803852 0.226117 0.768902
O O4 0.500000 0.000000 0.000000
O O5 0.920873 0.576585 0.969030
O O6 0.082061 0.410065 0.630440
O O7 0.791306 0.159051 0.083075
O O8 0.446814 0.287531 0.706044
O O9 0.500000 0.000000 0.500000
O O10 0.058614 0.264595 0.288640
O O11 0.310257 0.428266 0.838373
O O12 0.000000 0.000000 0.000000
O O13 0.684372 0.592258 0.851099
O O14 0.000000 0.000000 0.500000
#
# Coordination Sequence:
#
# PCOD9036050 Si02
#       6
#     2   2   2   2   2   2
#     4  12  24  47  73 105 144 189 236 291 356 425
#     4  12  24  48  74 107 142 186 240 294 357 423
#     4  12  25  45  70 106 145 186 236 290 357 425
#     4  10  23  44  71 102 141 185 232 292 356 417
#     4  10  24  46  71 103 145 185 238 294 355 422
#     4  10  22  47  71 103 142 182 239 289 353 427
#
# _framework density 26.289095
#
# number of rings (size 3 to 8) (size 9 to 14) (size 15 to 20)
#    1.000    0.000    5.000    1.000    2.333    0.667 
#    6.000    1.667    0.000    0.000    0.000    0.000 
#    0.000    0.000    0.000    0.000    0.000    0.000 
#
# Total GULP energy -67281.743195 kJ/mol
# GULP energy per Si atom -5606.811933 kJ/mol
# Density = 2.622926 g / cm^3
# Si number density = 26.289095 Si / 1000 Ang^3
#
#
#
# Elastic Constant Matrix: (Units=GPa)
#
#
# Indices 1 2 3 4 5 6 
#
# 1 110.4300 54.1238 49.8265 17.2990 18.4488 0.8870
# 2 54.1238 199.9745 43.1808 16.9852 7.5678 -34.5215
# 3 49.8265 43.1808 148.5008 14.5665 18.1137 -15.8884
# 4 17.2990 16.9852 14.5665 45.0004 -9.9671 1.6605
# 5 18.4488 7.5678 18.1137 -9.9671 58.3773 5.8590
# 6 0.8870 -34.5215 -15.8884 1.6605 5.8590 57.1266
#
#
#
# Elastic Compliance Matrix: (Units=1/GPa)
#
#
# Indices 1 2 3 4 5 6 
#
# 1 0.012899 -0.002820 -0.003028 -0.003524 -0.003140 -0.002322
# 2 -0.002820 0.006704 -0.000337 -0.001613 -0.000561 0.004105
# 3 -0.003028 -0.000337 0.008602 -0.002091 -0.002279 0.002530
# 4 -0.003524 -0.001613 -0.002091 0.026476 0.006790 -0.002967
# 5 -0.003140 -0.000561 -0.002279 0.006790 0.020384 -0.003212
# 6 -0.002322 0.004105 0.002530 -0.002967 -0.003212 0.021141
#
#
# Mechanical properties :
#
#
# Convention : Reuss Voigt Hill
#
# Bulk Modulus (GPa) = 63.15409 83.68527 73.41968
# Shear Modulus (GPa) = 43.91597 52.88580 48.40088
#
# Velocity S-wave (km/s) = 4.09161 4.49006 4.29546
# Velocity P-wave (km/s) = 6.81152 7.66699 7.25188
#
# Compressibility (1/GPa) = 0.01583429
#
# Stress axis : x y z
#
# Youngs Moduli (GPa) = 77.52471 149.17324 116.25410
#
# Poissons Ratio (x) = 0.42069 0.35199
# Poissons Ratio (y) = 0.21863 0.03921
# Poissons Ratio (z) = 0.23473 0.05031
#
# Static dielectric constant tensor:
#      x y z
#    x 2.070280 0.022990 -0.036480 
#    y 0.022990 2.035840 -0.005470 
#    z -0.036480 -0.005470 2.075660 
# 
# From -- ./inp_files/325225.got.cif
#   From: 2010.05.17/outbox.cif.g08.bks.cpg/sg2_163_cif.got.tgz:325225.got - 2010.06.03 11:33:40.
