data_PCOD9036381
_publ_section_title
;
Structure prediction by ZEFSAII (Michael W. Deem and Ramdas Pophale) SiO2 
 PCOD9036381
Probable space group: P -1
;
_chemical_formula_sum "Si O2"
_cell_formula_units_Z 16
_cell_length_a 9.340078
_cell_length_b 17.571933
_cell_length_c 11.904010
_cell_angle_alpha 150.071341
_cell_angle_beta 109.862785
_cell_angle_gamma 52.100957
_cell_volume 670.859632
_symmetry_space_group_name_H-M "P -1"
_symmetry_group_IT_number 2
_symmetry_cell_setting 'triclinic'
loop_
_space_group_symop_operation_xyz
x,y,z
-x,-y,-z
loop_
_atom_site_type_symbol
_atom_site_label
_atom_site_fract_x
_atom_site_fract_y
_atom_site_fract_z
Si Si1 0.128750 0.549827 0.042473
Si Si2 0.913826 0.568080 0.339597
Si Si3 0.542801 0.243132 0.133062
Si Si4 0.561013 0.719720 0.589553
Si Si5 0.101676 0.073363 0.296157
Si Si6 0.687336 0.994941 0.510645
Si Si7 0.350448 0.576239 0.318276
Si Si8 0.665109 0.919321 0.166280
O O1 0.305943 0.489013 0.093813
O O2 0.936290 0.794542 0.297567
O O3 0.202354 0.441868 0.804823
O O4 0.000000 0.500000 0.000000
O O5 0.777569 0.645288 0.513436
O O6 0.935597 0.725932 0.501253
O O7 0.127070 0.326185 0.096171
O O8 0.466807 0.293234 0.303697
O O9 0.412980 0.445558 0.280509
O O10 0.507645 0.094442 0.890856
O O11 0.786834 0.100877 0.993436
O O12 0.524760 0.580813 0.344445
O O13 0.383070 0.953948 0.795904
O O14 0.869705 0.187722 0.417790
O O15 0.263355 0.951511 0.290038
O O16 0.640320 0.045535 0.429559
O O17 0.500000 0.000000 0.500000
#
# Coordination Sequence:
#
# PCOD9036381 Si02
#       8
#     2   2   2   2   2   2   2   2
#     4  10  19  37  67  97 121 158 217 255 315 396
#     4  11  22  41  67  98 128 164 209 272 323 374
#     4  12  24  42  68  93 121 182 229 249 307 393
#     4  12  28  43  60  95 138 169 214 267 322 369
#     4  11  22  38  71  99 121 165 220 264 314 383
#     4  10  17  32  62  98 120 147 204 270 312 362
#     4  11  25  45  65  95 132 166 212 275 319 372
#     4  11  23  39  67  96 127 163 218 266 315 382
#
# _framework density 23.849995
#
# number of rings (size 3 to 8) (size 9 to 14) (size 15 to 20)
#    0.000    1.000    6.250    1.500    0.000    3.500 
#    0.000    5.625    0.000    0.000    0.000    0.000 
#    0.000    0.000    0.000    0.000    0.000    0.000 
#
# Total GULP energy -89135.681732 kJ/mol
# GULP energy per Si atom -5570.980108 kJ/mol
# Density = 2.379571 g / cm^3
# Si number density = 23.849995 Si / 1000 Ang^3
#
#
#
# Elastic Constant Matrix: (Units=GPa)
#
#
# Indices 1 2 3 4 5 6 
#
# 1 40.2317 3.5516 -5.0188 7.7316 -0.8357 -0.8076
# 2 3.5516 86.2855 13.4113 18.1858 -5.3941 -8.1416
# 3 -5.0188 13.4113 37.0563 9.1636 -16.1104 -0.7766
# 4 7.7316 18.1858 9.1636 36.0178 -1.8460 -12.3718
# 5 -0.8357 -5.3941 -16.1104 -1.8460 34.1243 -0.0708
# 6 -0.8076 -8.1416 -0.7766 -12.3718 -0.0708 16.0517
#
#
#
# Elastic Compliance Matrix: (Units=1/GPa)
#
#
# Indices 1 2 3 4 5 6 
#
# 1 0.027655 -0.000690 0.007818 -0.009374 0.003740 -0.005789
# 2 -0.000690 0.013469 -0.003698 -0.004668 0.000120 0.003021
# 3 0.007818 -0.003698 0.039913 -0.012068 0.017779 -0.008775
# 4 -0.009374 -0.004668 -0.012068 0.045985 -0.004111 0.032002
# 5 0.003740 0.000120 0.017779 -0.004111 0.037583 -0.001894
# 6 -0.005789 0.003021 -0.008775 0.032002 -0.001894 0.087773
#
#
# Mechanical properties :
#
#
# Convention : Reuss Voigt Hill
#
# Bulk Modulus (GPa) = 11.37705 20.82910 16.10308
# Shear Modulus (GPa) = 18.19386 27.34738 22.77062
#
# Velocity S-wave (km/s) = 2.76496 3.38988 3.09324
# Velocity P-wave (km/s) = 3.86962 4.90653 4.41860
#
# Compressibility (1/GPa) = 0.08789622
#
# Stress axis : x y z
#
# Youngs Moduli (GPa) = 36.15966 74.24450 25.05424
#
# Poissons Ratio (x) = 0.05125 -0.19588
# Poissons Ratio (y) = 0.02496 0.09266
# Poissons Ratio (z) = -0.28270 0.27459
#
# Static dielectric constant tensor:
#      x y z
#    x 1.916500 -0.042620 0.012450 
#    y -0.042620 1.967570 -0.036110 
#    z 0.012450 -0.036110 2.019550 
# 
# From -- ./inp_files/397895.got.cif
#   From: 2010.05.17/outbox.cif.g08.bks.cpg/sg2_199_cif.got.tgz:397895.got - 2010.06.03 11:33:40.
