data_PCOD9036412
_publ_section_title
;
Structure prediction by ZEFSAII (Michael W. Deem and Ramdas Pophale) SiO2 
 PCOD9036412
Probable space group: P -1
;
_chemical_formula_sum "Si O2"
_cell_formula_units_Z 16
_cell_length_a 11.736636
_cell_length_b 14.744155
_cell_length_c 20.696583
_cell_angle_alpha 149.745470
_cell_angle_beta 33.347129
_cell_angle_gamma 124.830962
_cell_volume 832.913964
_symmetry_space_group_name_H-M "P -1"
_symmetry_group_IT_number 2
_symmetry_cell_setting 'triclinic'
loop_
_space_group_symop_operation_xyz
x,y,z
-x,-y,-z
loop_
_atom_site_type_symbol
_atom_site_label
_atom_site_fract_x
_atom_site_fract_y
_atom_site_fract_z
Si Si1 0.057354 0.222280 0.945890
Si Si2 0.098589 0.480123 0.247911
Si Si3 0.523329 0.524483 0.853226
Si Si4 0.598741 0.123106 0.622568
Si Si5 0.944892 0.311147 0.910881
Si Si6 0.218805 0.765224 0.274021
Si Si7 0.793833 0.982911 0.124312
Si Si8 0.655583 0.595006 0.458309
O O1 0.320915 0.189008 0.785856
O O2 0.947190 0.237339 0.937535
O O3 0.137228 0.031833 0.841846
O O4 0.859614 0.435272 0.210729
O O5 0.237690 0.463240 0.238451
O O6 0.150910 0.619260 0.257924
O O7 0.803444 0.603550 0.455193
O O8 0.188232 0.237187 0.036908
O O9 0.629968 0.273432 0.651215
O O10 0.363714 0.636860 0.063022
O O11 0.315231 0.624055 0.958039
O O12 0.623948 0.188577 0.722842
O O13 0.820955 0.882374 0.356861
O O14 0.000000 0.500000 0.000000
O O15 0.000000 0.000000 0.500000
O O16 0.528981 0.181036 0.350892
O O17 0.000000 0.000000 0.000000
O O18 0.500000 0.500000 0.500000
#
# Coordination Sequence:
#
# PCOD9036412 Si02
#       8
#     2   2   2   2   2   2   2   2
#     4  11  24  38  60  95 125 169 216 256 324 383
#     4  10  23  36  60  97 123 163 211 263 331 375
#     4  11  22  40  58  91 132 168 219 251 317 389
#     4  11  23  40  60  90 137 165 214 261 309 395
#     4  12  26  40  60  91 136 185 215 247 306 404
#     4  11  21  37  59  93 129 166 210 265 312 386
#     4  11  22  40  66  95 125 159 212 286 335 371
#     4  11  22  41  66  95 123 158 217 282 336 371
#
# _framework density 19.209665999999999
#
# number of rings (size 3 to 8) (size 9 to 14) (size 15 to 20)
#    0.000    1.000    5.000    4.875    5.250    0.000 
#    0.000    0.000    0.000    1.500    0.000    0.000 
#    0.000    0.000    0.000    0.000    0.000    0.000 
#
# Total GULP energy -89174.969480 kJ/mol
# GULP energy per Si atom -5573.435592 kJ/mol
# Density = 1.916594 g / cm^3
# Si number density = 19.209666 Si / 1000 Ang^3
#
#
#
# Elastic Constant Matrix: (Units=GPa)
#
#
# Indices 1 2 3 4 5 6 
#
# 1 189.8930 44.6886 36.8886 -0.0580 -39.4667 -1.8875
# 2 44.6886 78.9634 28.1849 11.7325 -7.2881 3.9146
# 3 36.8886 28.1849 88.3155 23.8612 -30.7921 2.9718
# 4 -0.0580 11.7325 23.8612 31.4787 -4.8196 -10.8745
# 5 -39.4667 -7.2881 -30.7921 -4.8196 38.8980 1.1302
# 6 -1.8875 3.9146 2.9718 -10.8745 1.1302 25.5946
#
#
#
# Elastic Compliance Matrix: (Units=1/GPa)
#
#
# Indices 1 2 3 4 5 6 
#
# 1 0.007935 -0.004358 -0.000659 0.004199 0.007153 0.002797
# 2 -0.004358 0.017087 -0.003338 -0.006265 -0.004494 -0.005011
# 3 -0.000659 -0.003338 0.022940 -0.017390 0.015009 -0.010253
# 4 0.004199 -0.006265 -0.017390 0.056026 -0.004530 0.027291
# 5 0.007153 -0.004494 0.015009 -0.004530 0.043571 -0.004377
# 6 0.002797 -0.005011 -0.010253 0.027291 -0.004377 0.053022
#
#
# Mechanical properties :
#
#
# Convention : Reuss Voigt Hill
#
# Bulk Modulus (GPa) = 31.99787 64.07733 48.03760
# Shear Modulus (GPa) = 21.95797 35.68826 28.82312
#
# Velocity S-wave (km/s) = 3.38460 4.31493 3.87776
# Velocity P-wave (km/s) = 5.65397 7.63243 6.71645
#
# Compressibility (1/GPa) = 0.03125208
#
# Stress axis : x y z
#
# Youngs Moduli (GPa) = 126.01833 58.52531 43.59241
#
# Poissons Ratio (x) = 0.25507 0.02871
# Poissons Ratio (y) = 0.54923 0.14551
# Poissons Ratio (z) = 0.08298 0.19536
#
# Static dielectric constant tensor:
#      x y z
#    x 1.734310 0.010340 -0.023420 
#    y 0.010340 1.689820 0.003720 
#    z -0.023420 0.003720 1.697710 
# 
# From -- ./inp_files/595509.got.cif
#   From: 2010.05.17/outbox.cif.g08.bks.cpg/sg2_298_cif.got.tgz:595509.got - 2010.06.03 11:33:40.
