data_PCOD9036407
_publ_section_title
;
Structure prediction by ZEFSAII (Michael W. Deem and Ramdas Pophale) SiO2 
 PCOD9036407
Probable space group: P -1
;
_chemical_formula_sum "Si O2"
_cell_formula_units_Z 16
_cell_length_a 8.475984
_cell_length_b 21.363406
_cell_length_c 8.934173
_cell_angle_alpha 75.243996
_cell_angle_beta 120.361805
_cell_angle_gamma 55.468641
_cell_volume 745.495844
_symmetry_space_group_name_H-M "P -1"
_symmetry_group_IT_number 2
_symmetry_cell_setting 'triclinic'
loop_
_space_group_symop_operation_xyz
x,y,z
-x,-y,-z
loop_
_atom_site_type_symbol
_atom_site_label
_atom_site_fract_x
_atom_site_fract_y
_atom_site_fract_z
Si Si1 0.882163 0.886144 0.167120
Si Si2 0.273210 0.423286 0.550624
Si Si3 0.852619 0.591645 0.001619
Si Si4 0.658094 0.048594 0.166524
Si Si5 0.903173 0.966978 0.653106
Si Si6 0.568956 0.732738 0.500960
Si Si7 0.737462 0.269641 0.129836
Si Si8 0.553099 0.887624 0.376944
O O1 0.236947 0.788319 0.327430
O O2 0.881287 0.920200 0.307748
O O3 0.714868 0.865544 0.092376
O O4 0.637103 0.009057 0.891411
O O5 0.259813 0.358604 0.493439
O O6 0.000000 0.500000 0.500000
O O7 0.591848 0.340410 0.858897
O O8 0.150146 0.511157 0.313420
O O9 0.733152 0.683483 0.776110
O O10 0.543719 0.657301 0.918385
O O11 0.000000 0.500000 0.000000
O O12 0.828601 0.057856 0.160139
O O13 0.704366 0.049123 0.362090
O O14 0.111903 0.843141 0.782966
O O15 0.629174 0.037811 0.603344
O O16 0.495790 0.828039 0.366942
O O17 0.053725 0.217102 0.368023
#
# Coordination Sequence:
#
# PCOD9036407 Si02
#       8
#     2   2   2   2   2   2   2   2
#     4  11  22  40  56  95 128 168 197 246 285 383
#     4   9  21  42  65  86 111 150 214 267 308 348
#     4   9  21  44  65  84 111 155 215 268 304 351
#     4  10  23  36  59  80 138 163 207 232 288 349
#     4  11  22  40  56  95 132 169 194 249 288 378
#     4  11  22  39  65  89 121 170 198 247 314 360
#     4  11  22  39  65  91 122 169 197 252 316 355
#     4  12  25  36  57  96 136 161 202 236 300 385
#
# _framework density 21.462226000000001
#
# number of rings (size 3 to 8) (size 9 to 14) (size 15 to 20)
#    0.000    1.500    2.500    2.250    7.000    0.000 
#    0.000    6.250    0.000    6.000    0.000    0.000 
#    0.000    0.000    0.000    0.000    0.000    0.000 
#
# Total GULP energy -89122.749861 kJ/mol
# GULP energy per Si atom -5570.171866 kJ/mol
# Density = 2.141338 g / cm^3
# Si number density = 21.462226 Si / 1000 Ang^3
#
#
#
# Elastic Constant Matrix: (Units=GPa)
#
#
# Indices 1 2 3 4 5 6 
#
# 1 48.8265 28.5036 12.5235 7.0566 2.8649 -12.0182
# 2 28.5036 103.0754 11.8138 1.4546 7.2226 -28.4059
# 3 12.5235 11.8138 104.2647 14.2247 -24.5212 -12.6172
# 4 7.0566 1.4546 14.2247 30.2230 -8.4475 -0.4548
# 5 2.8649 7.2226 -24.5212 -8.4475 38.7030 10.0998
# 6 -12.0182 -28.4059 -12.6172 -0.4548 10.0998 27.9134
#
#
#
# Elastic Compliance Matrix: (Units=1/GPa)
#
#
# Indices 1 2 3 4 5 6 
#
# 1 0.026994 -0.004393 -0.002310 -0.006625 -0.006243 0.008259
# 2 -0.004393 0.016371 -0.000973 -0.001319 -0.008136 0.017250
# 3 -0.002310 -0.000973 0.012199 -0.003140 0.007165 0.000886
# 4 -0.006625 -0.001319 -0.003140 0.038669 0.009373 -0.008375
# 5 -0.006243 -0.008136 0.007165 0.009373 0.040174 -0.022112
# 6 0.008259 0.017250 0.000886 -0.008375 -0.022112 0.065200
#
#
# Mechanical properties :
#
#
# Convention : Reuss Voigt Hill
#
# Bulk Modulus (GPa) = 24.86803 40.20535 32.53669
# Shear Modulus (GPa) = 21.89494 32.92292 27.40893
#
# Velocity S-wave (km/s) = 3.19746 3.92087 3.57750
# Velocity P-wave (km/s) = 5.02431 6.26669 5.67957
#
# Compressibility (1/GPa) = 0.04021227
#
# Stress axis : x y z
#
# Youngs Moduli (GPa) = 37.04497 61.08500 81.97179
#
# Poissons Ratio (x) = 0.26836 0.18932
# Poissons Ratio (y) = 0.16274 0.07978
# Poissons Ratio (z) = 0.08556 0.05945
#
# Static dielectric constant tensor:
#      x y z
#    x 1.820790 -0.050780 -0.064210 
#    y -0.050780 1.837070 0.038840 
#    z -0.064210 0.038840 1.929500 
# 
# From -- ./inp_files/225434.got.cif
#   From: 2010.05.17/outbox.cif.g08.bks.cpg/sg2_113_cif.got.tgz:225434.got - 2010.06.03 11:33:40.
