data_PCOD9036295
_publ_section_title
;
Structure prediction by ZEFSAII (Michael W. Deem and Ramdas Pophale) SiO2 
 PCOD9036295
Probable space group: P -1
;
_chemical_formula_sum "Si O2"
_cell_formula_units_Z 14
_cell_length_a 5.037828
_cell_length_b 10.912739
_cell_length_c 14.493107
_cell_angle_alpha 137.613977
_cell_angle_beta 107.366412
_cell_angle_gamma 62.569566
_cell_volume 475.574879
_symmetry_space_group_name_H-M "P -1"
_symmetry_group_IT_number 2
_symmetry_cell_setting 'triclinic'
loop_
_space_group_symop_operation_xyz
x,y,z
-x,-y,-z
loop_
_atom_site_type_symbol
_atom_site_label
_atom_site_fract_x
_atom_site_fract_y
_atom_site_fract_z
Si Si1 0.781276 0.001359 0.894636
Si Si2 0.433474 0.734980 0.320029
Si Si3 0.239660 0.666967 0.654691
Si Si4 0.698699 0.769404 0.558932
Si Si5 0.787984 0.848776 0.259303
Si Si6 0.830839 0.353021 0.984440
Si Si7 0.650464 0.663081 0.856198
O O1 0.807866 0.149540 0.901254
O O2 0.474419 0.131947 0.986647
O O3 0.952309 0.779566 0.753838
O O4 0.000000 0.000000 0.000000
O O5 0.581657 0.791066 0.454917
O O6 0.595331 0.780210 0.273563
O O7 0.445987 0.511931 0.212241
O O8 0.079711 0.861243 0.345106
O O9 0.315017 0.436900 0.525972
O O10 0.509909 0.694064 0.755383
O O11 0.043024 0.753398 0.590162
O O12 0.456640 0.947581 0.689099
O O13 0.946270 0.700790 0.110552
O O14 0.001941 0.407299 0.118740
O O15 0.500000 0.500000 0.000000
#
# Coordination Sequence:
#
# PCOD9036295 Si02
#       7
#     2   2   2   2   2   2   2
#     4  10  23  47  79 114 163 215 268 335 412 496
#     4  11  27  48  82 120 165 216 267 341 410 489
#     4   9  21  45  82 112 155 214 275 334 405 490
#     4  10  22  48  81 117 161 212 281 337 401 483
#     4  12  28  48  81 120 167 215 269 340 415 486
#     4  12  29  48  82 124 170 215 273 343 419 497
#     4  10  24  47  79 116 165 209 271 336 415 490
#
# _framework density 29.438056
#
# number of rings (size 3 to 8) (size 9 to 14) (size 15 to 20)
#    0.000    1.429    0.000    2.571    8.000    4.000 
#    0.000    0.714   25.143    0.000    0.000    0.000 
#    0.000    0.000    0.000    0.000    0.000    0.000 
#
# Total GULP energy -78355.111454 kJ/mol
# GULP energy per Si atom -5596.793675 kJ/mol
# Density = 2.937105 g / cm^3
# Si number density = 29.438056 Si / 1000 Ang^3
#
#
#
# Elastic Constant Matrix: (Units=GPa)
#
#
# Indices 1 2 3 4 5 6 
#
# 1 196.3498 76.9215 46.3530 4.9994 19.9678 -27.1039
# 2 76.9215 191.8354 47.9420 -11.6821 9.8054 -56.9122
# 3 46.3530 47.9420 166.5513 16.6739 9.3506 -29.5762
# 4 4.9994 -11.6821 16.6739 80.6523 -27.4438 11.5903
# 5 19.9678 9.8054 9.3506 -27.4438 34.3269 -0.2689
# 6 -27.1039 -56.9122 -29.5762 11.5903 -0.2689 62.4770
#
#
#
# Elastic Compliance Matrix: (Units=1/GPa)
#
#
# Indices 1 2 3 4 5 6 
#
# 1 0.006823 -0.002129 -0.000507 -0.002608 -0.005298 0.001242
# 2 -0.002129 0.008077 -0.000670 0.000394 -0.000524 0.006042
# 3 -0.000507 -0.000670 0.007555 -0.003629 -0.004446 0.003401
# 4 -0.002608 0.000394 -0.003629 0.020693 0.018887 -0.006248
# 5 -0.005298 -0.000524 -0.004446 0.018887 0.048610 -0.008176
# 6 0.001242 0.006042 0.003401 -0.006248 -0.008176 0.024782
#
#
# Mechanical properties :
#
#
# Convention : Reuss Voigt Hill
#
# Bulk Modulus (GPa) = 63.11586 99.68552 81.40069
# Shear Modulus (GPa) = 38.93097 61.05924 49.99510
#
# Velocity S-wave (km/s) = 3.64052 4.55924 4.12553
# Velocity P-wave (km/s) = 6.25763 7.85187 7.09964
#
# Compressibility (1/GPa) = 0.01584388
#
# Stress axis : x y z
#
# Youngs Moduli (GPa) = 146.55827 123.80926 132.36485
#
# Poissons Ratio (x) = 0.26357 0.06714
# Poissons Ratio (y) = 0.31200 0.08862
# Poissons Ratio (z) = 0.07434 0.08290
#
# Static dielectric constant tensor:
#      x y z
#    x 2.293570 0.046770 -0.019130 
#    y 0.046770 2.325500 0.027600 
#    z -0.019130 0.027600 2.480020 
# 
# From -- ./inp_files/77688.got.cif
#   From: 2010.05.17/outbox.cif.g08.bks.cpg/sg2_39_cif.got.tgz:77688.got - 2010.06.03 11:33:40.
