data_PCOD9036479
_publ_section_title
;
Structure prediction by ZEFSAII (Michael W. Deem and Ramdas Pophale) SiO2 
 PCOD9036479
Probable space group: P -1
;
_chemical_formula_sum "Si O2"
_cell_formula_units_Z 16
_cell_length_a 16.430410
_cell_length_b 13.308144
_cell_length_c 10.997150
_cell_angle_alpha 47.326189
_cell_angle_beta 134.563605
_cell_angle_gamma 155.786679
_cell_volume 696.731507
_symmetry_space_group_name_H-M "P -1"
_symmetry_group_IT_number 2
_symmetry_cell_setting 'triclinic'
loop_
_space_group_symop_operation_xyz
x,y,z
-x,-y,-z
loop_
_atom_site_type_symbol
_atom_site_label
_atom_site_fract_x
_atom_site_fract_y
_atom_site_fract_z
Si Si1 0.129763 0.844453 0.816881
Si Si2 0.392935 0.046634 0.486654
Si Si3 0.921132 0.138439 0.522570
Si Si4 0.406162 0.254133 0.109471
Si Si5 0.808812 0.346449 0.597621
Si Si6 0.437119 0.682339 0.016113
Si Si7 0.039761 0.097160 0.096766
Si Si8 0.149316 0.570625 0.952615
O O1 0.061871 0.841781 0.620640
O O2 0.187571 0.744311 0.928624
O O3 0.337366 0.123516 0.852252
O O4 0.942199 0.638733 0.883844
O O5 0.290264 0.999100 0.540696
O O6 0.247491 0.800856 0.456525
O O7 0.418183 0.204037 0.296978
O O8 0.608794 0.182855 0.603496
O O9 0.094249 0.411577 0.534428
O O10 0.947448 0.015671 0.705163
O O11 0.500000 0.500000 0.000000
O O12 0.526647 0.276332 0.124173
O O13 0.168382 0.022921 0.006765
O O14 0.972745 0.433954 0.782564
O O15 0.255531 0.391351 0.083762
O O16 0.344961 0.720622 0.956554
O O17 0.000000 0.000000 0.000000
#
# Coordination Sequence:
#
# PCOD9036479 Si02
#       8
#     2   2   2   2   2   2   2   2
#     4  10  24  44  68  97 130 176 224 269 322 394
#     4  11  22  38  60  98 133 166 218 268 334 396
#     4  11  24  42  64  92 133 173 214 272 330 384
#     4  12  24  42  67  98 133 175 220 270 332 393
#     4  10  23  37  62  94 132 169 214 276 330 387
#     4  12  24  42  71  95 131 181 220 269 329 389
#     4  12  24  43  67  97 131 171 219 271 326 396
#     4  10  23  45  68  98 132 173 225 270 325 392
#
# _framework density 22.964369999999999
#
# number of rings (size 3 to 8) (size 9 to 14) (size 15 to 20)
#    0.000    1.000    2.500    3.750    0.000    9.500 
#    0.000    2.500    0.000    0.000    0.000    0.000 
#    0.000    0.000    0.000    0.000    0.000    0.000 
#
# Total GULP energy -89543.895693 kJ/mol
# GULP energy per Si atom -5596.493481 kJ/mol
# Density = 2.291210 g / cm^3
# Si number density = 22.964370 Si / 1000 Ang^3
#
#
#
# Elastic Constant Matrix: (Units=GPa)
#
#
# Indices 1 2 3 4 5 6 
#
# 1 77.7433 -0.5360 -5.0299 0.3814 -12.7969 29.6143
# 2 -0.5360 103.3807 18.0704 -9.1451 2.1942 -1.3780
# 3 -5.0299 18.0704 77.9788 -7.6324 -0.7887 8.8563
# 4 0.3814 -9.1451 -7.6324 28.8351 -1.9552 5.5580
# 5 -12.7969 2.1942 -0.7887 -1.9552 21.0226 -3.5840
# 6 29.6143 -1.3780 8.8563 5.5580 -3.5840 42.5942
#
#
#
# Elastic Compliance Matrix: (Units=1/GPa)
#
#
# Indices 1 2 3 4 5 6 
#
# 1 0.020337 -0.000585 0.003598 0.004012 0.010468 -0.014550
# 2 -0.000585 0.010322 -0.002293 0.002441 -0.001156 0.000802
# 3 0.003598 -0.002293 0.014730 0.004445 0.002370 -0.006019
# 4 0.004012 0.002441 0.004445 0.038479 0.004522 -0.008275
# 5 0.010468 -0.001156 0.002370 0.004522 0.053912 -0.003862
# 6 -0.014550 0.000802 -0.006019 -0.008275 -0.003862 0.035626
#
#
# Mechanical properties :
#
#
# Convention : Reuss Voigt Hill
#
# Bulk Modulus (GPa) = 21.35376 31.56798 26.46087
# Shear Modulus (GPa) = 26.65581 34.93026 30.79304
#
# Velocity S-wave (km/s) = 3.41067 3.90431 3.66581
# Velocity P-wave (km/s) = 4.98288 5.83963 5.42818
#
# Compressibility (1/GPa) = 0.04683016
#
# Stress axis : x y z
#
# Youngs Moduli (GPa) = 49.17040 96.88028 67.88747
#
# Poissons Ratio (x) = 0.05665 -0.24429
# Poissons Ratio (y) = 0.02875 0.15570
# Poissons Ratio (z) = -0.17694 0.22219
#
# Static dielectric constant tensor:
#      x y z
#    x 1.900970 0.009120 0.013050 
#    y 0.009120 1.884090 -0.022900 
#    z 0.013050 -0.022900 1.820250 
# 
# From -- ./inp_files/465820.got.cif
#   From: 2010.05.17/outbox.cif.g08.bks.cpg/sg2_233_cif.got.tgz:465820.got - 2010.06.03 11:33:40.
