data_PCOD9036678
_publ_section_title
;
Structure prediction by ZEFSAII (Michael W. Deem and Ramdas Pophale) SiO2 
 PCOD9036678
Probable space group: P -1
;
_chemical_formula_sum "Si O2"
_cell_formula_units_Z 14
_cell_length_a 8.349777
_cell_length_b 22.153691
_cell_length_c 5.498303
_cell_angle_alpha 125.050547
_cell_angle_beta 58.457770
_cell_angle_gamma 138.268592
_cell_volume 545.818055
_symmetry_space_group_name_H-M "P -1"
_symmetry_group_IT_number 2
_symmetry_cell_setting 'triclinic'
loop_
_space_group_symop_operation_xyz
x,y,z
-x,-y,-z
loop_
_atom_site_type_symbol
_atom_site_label
_atom_site_fract_x
_atom_site_fract_y
_atom_site_fract_z
Si Si1 0.769295 0.384244 0.789837
Si Si2 0.393305 0.232633 0.379218
Si Si3 0.467458 0.394827 0.381210
Si Si4 0.184496 0.733863 0.161853
Si Si5 0.887608 0.037805 0.325015
Si Si6 0.420352 0.925676 0.673047
Si Si7 0.819699 0.589269 0.744016
O O1 0.520306 0.294822 0.660885
O O2 0.838658 0.348470 0.871042
O O3 0.963678 0.415251 0.498081
O O4 0.691377 0.439691 0.111346
O O5 0.391940 0.298212 0.333697
O O6 0.124438 0.141285 0.457314
O O7 0.573396 0.213832 0.083200
O O8 0.584120 0.476130 0.684850
O O9 0.257566 0.380401 0.356608
O O10 0.243439 0.810904 0.495711
O O11 0.943492 0.673833 0.042876
O O12 0.720274 0.051367 0.334946
O O13 0.689182 0.958680 0.487029
O O14 0.000000 0.000000 0.000000
O O15 0.500000 0.000000 0.000000
#
# Coordination Sequence:
#
# PCOD9036678 Si02
#       7
#     2   2   2   2   2   2   2
#     4  10  23  38  67  95 139 176 217 280 337 401
#     4  10  23  44  69  99 139 177 228 278 340 412
#     4  10  23  42  66 102 129 182 227 277 336 400
#     4  10  23  44  66 101 136 181 224 284 340 401
#     4  11  25  47  70  99 135 179 228 287 344 413
#     4  11  27  44  70 102 135 179 231 285 346 408
#     4  10  23  42  67  96 138 175 232 275 333 411
#
# _framework density 25.649573
#
# number of rings (size 3 to 8) (size 9 to 14) (size 15 to 20)
#    0.000    1.714    1.429    0.429    6.000   10.286 
#    0.000    2.857    0.000    0.000    0.000    0.000 
#    0.000    0.000    0.000    0.000    0.000    0.000 
#
# Total GULP energy -78106.000036 kJ/mol
# GULP energy per Si atom -5579.000003 kJ/mol
# Density = 2.559119 g / cm^3
# Si number density = 25.649573 Si / 1000 Ang^3
#
#
#
# Elastic Constant Matrix: (Units=GPa)
#
#
# Indices 1 2 3 4 5 6 
#
# 1 111.1484 40.5085 24.9743 17.9175 5.8614 28.1300
# 2 40.5085 100.6734 29.7461 37.0307 8.5516 39.4517
# 3 24.9743 29.7461 132.0948 30.5104 0.0155 22.3428
# 4 17.9175 37.0307 30.5104 40.5296 21.9907 13.5048
# 5 5.8614 8.5516 0.0155 21.9907 53.9806 8.1527
# 6 28.1300 39.4517 22.3428 13.5048 8.1527 29.9715
#
#
#
# Elastic Compliance Matrix: (Units=1/GPa)
#
#
# Indices 1 2 3 4 5 6 
#
# 1 0.011989 0.000365 0.000179 -0.002925 0.001486 -0.010952
# 2 0.000365 0.031632 0.005281 -0.026996 0.011516 -0.036885
# 3 0.000179 0.005281 0.011247 -0.012905 0.006113 -0.011352
# 4 -0.002925 -0.026996 -0.012905 0.066135 -0.026153 0.025215
# 5 0.001486 0.011516 0.006113 -0.026153 0.029826 -0.017440
# 6 -0.010952 -0.036885 -0.011352 0.025215 -0.017440 0.094041
#
#
# Mechanical properties :
#
#
# Convention : Reuss Voigt Hill
#
# Bulk Modulus (GPa) = 15.03362 59.37492 37.20427
# Shear Modulus (GPa) = 19.57763 41.47552 30.52657
#
# Velocity S-wave (km/s) = 2.76574 4.02556 3.45358
# Velocity P-wave (km/s) = 4.00911 6.69370 5.51718
#
# Compressibility (1/GPa) = 0.06651756
#
# Stress axis : x y z
#
# Youngs Moduli (GPa) = 83.41133 31.61312 88.90976
#
# Poissons Ratio (x) = -0.01153 -0.01593
# Poissons Ratio (y) = -0.03041 -0.46951
# Poissons Ratio (z) = -0.01494 -0.16694
#
# Static dielectric constant tensor:
#      x y z
#    x 2.354990 2.044730 -1.646320 
#    y 2.044730 12.674300 -8.416070 
#    z -1.646320 -8.416070 8.610480 
# 
# From -- ./inp_files/48727.got.cif
#   From: 2010.05.17/outbox.cif.g08.bks.cpg/sg2_25_cif.got.tgz:48727.got - 2010.06.03 11:33:40.
