data_PCOD9036795
_publ_section_title
;
Structure prediction by ZEFSAII (Michael W. Deem and Ramdas Pophale) SiO2 
 PCOD9036795
Probable space group: P -1
;
_chemical_formula_sum "Si O2"
_cell_formula_units_Z 16
_cell_length_a 5.314870
_cell_length_b 19.190750
_cell_length_c 19.244425
_cell_angle_alpha 158.047869
_cell_angle_beta 73.862815
_cell_angle_gamma 96.035604
_cell_volume 638.022056
_symmetry_space_group_name_H-M "P -1"
_symmetry_group_IT_number 2
_symmetry_cell_setting 'triclinic'
loop_
_space_group_symop_operation_xyz
x,y,z
-x,-y,-z
loop_
_atom_site_type_symbol
_atom_site_label
_atom_site_fract_x
_atom_site_fract_y
_atom_site_fract_z
Si Si1 0.939852 0.523688 0.443614
Si Si2 0.669485 0.061054 0.601974
Si Si3 0.494996 0.265180 0.110088
Si Si4 0.081482 0.909140 0.984852
Si Si5 0.623461 0.601165 0.968511
Si Si6 0.879247 0.823320 0.504745
Si Si7 0.513629 0.143895 0.311816
Si Si8 0.082574 0.782561 0.076587
O O1 0.237021 0.484680 0.344259
O O2 0.000000 0.500000 0.500000
O O3 0.672736 0.715702 0.608344
O O4 0.918485 0.314339 0.229070
O O5 0.500586 0.301776 0.857286
O O6 0.500000 0.000000 0.500000
O O7 0.694159 0.937974 0.557885
O O8 0.000000 0.000000 0.500000
O O9 0.595118 0.150886 0.070245
O O10 0.769987 0.276211 0.064131
O O11 0.454419 0.091989 0.908557
O O12 0.851626 0.082223 0.213425
O O13 0.000000 0.000000 0.000000
O O14 0.341854 0.655432 0.992592
O O15 0.819907 0.721086 0.044345
O O16 0.843541 0.367819 0.722738
O O17 0.677900 0.767583 0.522436
O O18 0.985206 0.981870 0.681266
#
# Coordination Sequence:
#
# PCOD9036795 Si02
#       8
#     2   2   2   2   2   2   2   2
#     4  11  23  40  62  90 132 173 232 284 348 421
#     4  11  25  46  72 104 146 188 231 289 354 427
#     4  10  23  39  62  87 129 175 222 288 353 411
#     4  11  24  40  62  91 129 177 224 284 354 414
#     4  11  24  45  72 106 142 184 236 284 355 424
#     4  10  24  45  72 104 139 188 236 296 353 424
#     4  10  23  43  63  95 131 174 232 288 347 418
#     4  10  24  42  69 102 145 179 232 297 350 418
#
# _framework density 25.077504999999999
#
# number of rings (size 3 to 8) (size 9 to 14) (size 15 to 20)
#    0.000    1.500    0.000    3.750    8.750    9.000 
#    2.250    0.000    0.000    0.000    0.000    0.000 
#    0.000    0.000    0.000    0.000    0.000    0.000 
#
# Total GULP energy -89426.048547 kJ/mol
# GULP energy per Si atom -5589.128034 kJ/mol
# Density = 2.502043 g / cm^3
# Si number density = 25.077505 Si / 1000 Ang^3
#
#
#
# Elastic Constant Matrix: (Units=GPa)
#
#
# Indices 1 2 3 4 5 6 
#
# 1 83.7519 19.7011 28.9084 -1.8006 -15.5782 -15.6902
# 2 19.7011 75.1997 23.1576 -7.4883 5.0368 -14.5650
# 3 28.9084 23.1576 179.6783 -5.3074 -18.5847 -1.6222
# 4 -1.8006 -7.4883 -5.3074 35.7652 -0.0561 -0.1359
# 5 -15.5782 5.0368 -18.5847 -0.0561 44.5612 -6.5718
# 6 -15.6902 -14.5650 -1.6222 -0.1359 -6.5718 39.7788
#
#
#
# Elastic Compliance Matrix: (Units=1/GPa)
#
#
# Indices 1 2 3 4 5 6 
#
# 1 0.015316 -0.002821 -0.001431 0.000000 0.005951 0.005933
# 2 -0.002821 0.015873 -0.001768 0.002930 -0.002901 0.004158
# 3 -0.001431 -0.001768 0.006263 0.000488 0.002225 -0.000587
# 4 0.000000 0.002930 0.000488 0.028651 0.000086 0.001205
# 5 0.005951 -0.002901 0.002225 0.000086 0.026629 0.005776
# 6 0.005933 0.004158 -0.000587 0.001205 0.005776 0.029936
#
#
# Mechanical properties :
#
#
# Convention : Reuss Voigt Hill
#
# Bulk Modulus (GPa) = 39.35311 53.57379 46.46345
# Shear Modulus (GPa) = 34.92113 41.81188 38.36650
#
# Velocity S-wave (km/s) = 3.73571 4.08770 3.91566
# Velocity P-wave (km/s) = 5.85952 6.60974 6.24591
#
# Compressibility (1/GPa) = 0.02541095
#
# Stress axis : x y z
#
# Youngs Moduli (GPa) = 65.29006 63.00087 159.66877
#
# Poissons Ratio (x) = 0.17774 0.22856
# Poissons Ratio (y) = 0.18420 0.28226
# Poissons Ratio (z) = 0.09346 0.11137
#
# Static dielectric constant tensor:
#      x y z
#    x 2.116200 0.023620 0.032610 
#    y 0.023620 2.062670 -0.013780 
#    z 0.032610 -0.013780 1.975330 
# 
# From -- ./inp_files/584316.got.cif
#   From: 2010.05.17/outbox.cif.g08.bks.cpg/sg2_293_cif.got.tgz:584316.got - 2010.06.03 11:33:40.
