data_PCOD9036428
_publ_section_title
;
Structure prediction by ZEFSAII (Michael W. Deem and Ramdas Pophale) SiO2 
 PCOD9036428
Probable space group: P -1
;
_chemical_formula_sum "Si O2"
_cell_formula_units_Z 14
_cell_length_a 12.875277
_cell_length_b 8.775610
_cell_length_c 19.515524
_cell_angle_alpha 134.135462
_cell_angle_beta 22.223661
_cell_angle_gamma 136.721372
_cell_volume 569.601417
_symmetry_space_group_name_H-M "P -1"
_symmetry_group_IT_number 2
_symmetry_cell_setting 'triclinic'
loop_
_space_group_symop_operation_xyz
x,y,z
-x,-y,-z
loop_
_atom_site_type_symbol
_atom_site_label
_atom_site_fract_x
_atom_site_fract_y
_atom_site_fract_z
Si Si1 0.698797 0.484262 0.499099
Si Si2 0.811064 0.635043 0.120277
Si Si3 0.987027 0.629585 0.619354
Si Si4 0.332429 0.049349 0.378405
Si Si5 0.296184 0.988865 0.226837
Si Si6 0.376200 0.672747 0.977057
Si Si7 0.417521 0.990334 0.648386
O O1 0.487294 0.461451 0.686464
O O2 0.994260 0.507931 0.366547
O O3 0.653505 0.690827 0.551408
O O4 0.628253 0.257461 0.428373
O O5 0.787810 0.557339 0.031291
O O6 0.823567 0.895711 0.192753
O O7 0.000000 0.500000 0.000000
O O8 0.263894 0.853243 0.522198
O O9 0.000000 0.500000 0.500000
O O10 0.684759 0.676042 0.817715
O O11 0.993635 0.937606 0.569216
O O12 0.392615 0.987114 0.245333
O O13 0.541000 0.004984 0.293749
O O14 0.545059 0.152671 0.079978
O O15 0.216780 0.758944 0.161168
#
# Coordination Sequence:
#
# PCOD9036428 Si02
#       7
#     2   2   2   2   2   2   2
#     4  11  24  42  67  98 134 186 218 270 328 408
#     4  11  24  42  68  98 134 170 229 277 327 397
#     4  11  19  39  69  97 126 172 233 270 322 395
#     4  11  22  44  64  98 137 177 221 270 341 396
#     4  10  23  36  69 101 134 169 222 284 329 389
#     4  11  21  41  68 101 128 173 226 281 325 388
#     4  11  24  41  69  96 134 185 217 269 335 405
#
# _framework density 24.578592
#
# number of rings (size 3 to 8) (size 9 to 14) (size 15 to 20)
#    0.000    1.143    5.714    2.143    4.000    2.286 
#    0.000    3.571    0.000    0.000    0.000    0.000 
#    0.000    0.000    0.000    0.000    0.000    0.000 
#
# Total GULP energy -78233.793825 kJ/mol
# GULP energy per Si atom -5588.128130 kJ/mol
# Density = 2.452265 g / cm^3
# Si number density = 24.578592 Si / 1000 Ang^3
#
#
#
# Elastic Constant Matrix: (Units=GPa)
#
#
# Indices 1 2 3 4 5 6 
#
# 1 140.7860 23.6821 45.8128 21.9938 -3.8401 -15.0420
# 2 23.6821 112.4545 10.8755 32.2611 4.5786 -0.6705
# 3 45.8128 10.8755 86.1362 25.0412 13.9391 2.2683
# 4 21.9938 32.2611 25.0412 31.1937 4.5318 4.5779
# 5 -3.8401 4.5786 13.9391 4.5318 43.3578 14.1265
# 6 -15.0420 -0.6705 2.2683 4.5779 14.1265 39.7942
#
#
#
# Elastic Compliance Matrix: (Units=1/GPa)
#
#
# Indices 1 2 3 4 5 6 
#
# 1 0.009602 -0.000693 -0.004402 -0.003280 0.001468 0.003725
# 2 -0.000693 0.013502 0.003677 -0.016514 -0.001677 0.002251
# 3 -0.004402 0.003677 0.018748 -0.015093 -0.005567 0.001042
# 4 -0.003280 -0.016514 -0.015093 0.064520 0.002482 -0.008961
# 5 0.001468 -0.001677 -0.005567 0.002482 0.027952 -0.009364
# 6 0.003725 0.002251 0.001042 -0.008961 -0.009364 0.030871
#
#
# Mechanical properties :
#
#
# Convention : Reuss Voigt Hill
#
# Bulk Modulus (GPa) = 25.63076 55.56863 40.59969
# Shear Modulus (GPa) = 27.61871 40.13623 33.87747
#
# Velocity S-wave (km/s) = 3.35578 4.04539 3.71662
# Velocity P-wave (km/s) = 5.04636 6.66918 5.91370
#
# Compressibility (1/GPa) = 0.03901563
#
# Stress axis : x y z
#
# Youngs Moduli (GPa) = 104.14103 74.06325 53.33977
#
# Poissons Ratio (x) = 0.05133 0.23479
# Poissons Ratio (y) = 0.07218 -0.19611
# Poissons Ratio (z) = 0.45841 -0.27231
#
# Static dielectric constant tensor:
#      x y z
#    x 1.997380 -0.028060 -0.040280 
#    y -0.028060 2.113900 -0.004580 
#    z -0.040280 -0.004580 1.947950 
# 
# From -- ./inp_files/566894.got.cif
#   From: 2010.05.17/outbox.cif.g08.bks.cpg/sg2_284_cif.got.tgz:566894.got - 2010.06.03 11:33:40.
