data_PCOD9036103
_publ_section_title
;
Structure prediction by ZEFSAII (Michael W. Deem and Ramdas Pophale) SiO2 
 PCOD9036103
Probable space group: P -1
;
_chemical_formula_sum "Si O2"
_cell_formula_units_Z 14
_cell_length_a 13.733148
_cell_length_b 7.176526
_cell_length_c 10.733353
_cell_angle_alpha 79.679266
_cell_angle_beta 149.748447
_cell_angle_gamma 101.299609
_cell_volume 522.501354
_symmetry_space_group_name_H-M "P -1"
_symmetry_group_IT_number 2
_symmetry_cell_setting 'triclinic'
loop_
_space_group_symop_operation_xyz
x,y,z
-x,-y,-z
loop_
_atom_site_type_symbol
_atom_site_label
_atom_site_fract_x
_atom_site_fract_y
_atom_site_fract_z
Si Si1 0.381665 0.624793 0.508751
Si Si2 0.499841 0.281425 0.982283
Si Si3 0.038313 0.552793 0.331922
Si Si4 0.397215 0.080769 0.147646
Si Si5 0.129479 0.742631 0.991490
Si Si6 0.680488 0.786962 0.481358
Si Si7 0.047858 0.791754 0.536334
O O1 0.577176 0.745796 0.748946
O O2 0.252394 0.718881 0.252947
O O3 0.412427 0.407133 0.536446
O O4 0.240426 0.604530 0.478056
O O5 0.384863 0.232233 0.733578
O O6 0.500000 0.500000 0.000000
O O7 0.411625 0.158580 0.014537
O O8 0.721989 0.234918 0.210445
O O9 0.045865 0.374724 0.457196
O O10 0.981555 0.728477 0.330721
O O11 0.891982 0.458992 0.079326
O O12 0.591280 0.974175 0.404700
O O13 0.232513 0.913043 0.005394
O O14 0.907678 0.789544 0.756988
O O15 0.000000 0.000000 0.500000
#
# Coordination Sequence:
#
# PCOD9036103 Si02
#       7
#     2   2   2   2   2   2   2
#     4  11  24  51  80 110 163 211 268 333 402 486
#     4  12  24  51  77 116 170 210 263 348 412 487
#     4  10  22  47  73 118 151 205 264 327 394 471
#     4  12  26  49  76 117 156 210 270 332 409 480
#     4  11  26  50  80 116 160 212 270 333 405 485
#     4  11  25  47  75 112 155 210 262 334 409 476
#     4  11  25  46  81 120 162 213 271 329 409 495
#
# _framework density 26.79419
#
# number of rings (size 3 to 8) (size 9 to 14) (size 15 to 20)
#    0.000    0.857    2.857    4.286    4.000    1.714 
#   12.857    4.286    0.000    0.857    0.000    0.000 
#    0.000    0.000    0.000    0.000    0.000    0.000 
#
# Total GULP energy -78619.536736 kJ/mol
# GULP energy per Si atom -5615.681195 kJ/mol
# Density = 2.673321 g / cm^3
# Si number density = 26.794190 Si / 1000 Ang^3
#
#
#
# Elastic Constant Matrix: (Units=GPa)
#
#
# Indices 1 2 3 4 5 6 
#
# 1 90.3468 42.8530 13.5646 0.5879 17.8105 -23.7555
# 2 42.8530 150.5496 14.8771 -0.1718 9.4836 -18.4062
# 3 13.5646 14.8771 131.5686 4.1880 2.6185 0.3479
# 4 0.5879 -0.1718 4.1880 51.0151 1.0536 -6.6324
# 5 17.8105 9.4836 2.6185 1.0536 41.9419 -3.1131
# 6 -23.7555 -18.4062 0.3479 -6.6324 -3.1131 48.0614
#
#
#
# Elastic Compliance Matrix: (Units=1/GPa)
#
#
# Indices 1 2 3 4 5 6 
#
# 1 0.015421 -0.003183 -0.001167 0.000821 -0.005318 0.006181
# 2 -0.003183 0.007798 -0.000562 0.000302 -0.000277 0.001441
# 3 -0.001167 -0.000562 0.007809 -0.000754 0.000084 -0.000947
# 4 0.000821 0.000302 -0.000754 0.020092 -0.000633 0.003259
# 5 -0.005318 -0.000277 0.000084 -0.000633 0.026090 -0.001133
# 6 0.006181 0.001441 -0.000947 0.003259 -0.001133 0.024797
#
#
# Mechanical properties :
#
#
# Convention : Reuss Voigt Hill
#
# Bulk Modulus (GPa) = 47.15521 57.22829 52.19175
# Shear Modulus (GPa) = 42.05283 48.28171 45.16727
#
# Velocity S-wave (km/s) = 3.96596 4.24954 4.11020
# Velocity P-wave (km/s) = 6.21362 6.74411 6.48429
#
# Compressibility (1/GPa) = 0.02120657
#
# Stress axis : x y z
#
# Youngs Moduli (GPa) = 64.84487 128.24225 128.05365
#
# Poissons Ratio (x) = 0.40816 0.14940
# Poissons Ratio (y) = 0.20638 0.07190
# Poissons Ratio (z) = 0.07565 0.07201
#
# Static dielectric constant tensor:
#      x y z
#    x 2.125080 -0.000140 0.016060 
#    y -0.000140 2.050920 -0.012940 
#    z 0.016060 -0.012940 2.097560 
# 
# From -- ./inp_files/463685.got.cif
#   From: 2010.05.17/outbox.cif.g08.bks.cpg/sg2_232_cif.got.tgz:463685.got - 2010.06.03 11:33:40.
