data_PCOD9036880
_publ_section_title
;
Structure prediction by ZEFSAII (Michael W. Deem and Ramdas Pophale) SiO2 
 PCOD9036880
Probable space group: P -1
;
_chemical_formula_sum "Si O2"
_cell_formula_units_Z 14
_cell_length_a 17.847250
_cell_length_b 11.660684
_cell_length_c 8.591557
_cell_angle_alpha 110.084409
_cell_angle_beta 142.210722
_cell_angle_gamma 43.455642
_cell_volume 631.146810
_symmetry_space_group_name_H-M "P -1"
_symmetry_group_IT_number 2
_symmetry_cell_setting 'triclinic'
loop_
_space_group_symop_operation_xyz
x,y,z
-x,-y,-z
loop_
_atom_site_type_symbol
_atom_site_label
_atom_site_fract_x
_atom_site_fract_y
_atom_site_fract_z
Si Si1 0.539273 0.053258 0.438299
Si Si2 0.234276 0.619843 0.898357
Si Si3 0.615281 0.257703 0.786441
Si Si4 0.029788 0.988977 0.230427
Si Si5 0.009614 0.365420 0.044371
Si Si6 0.731067 0.396826 0.420400
Si Si7 0.811276 0.595649 0.145519
O O1 0.535140 0.200924 0.544071
O O2 0.500000 0.000000 0.500000
O O3 0.761456 0.850017 0.652879
O O4 0.362875 0.173869 0.081193
O O5 0.236324 0.635230 0.724119
O O6 0.278628 0.446623 0.927784
O O7 0.020655 0.832914 0.717855
O O8 0.384261 0.602198 0.209741
O O9 0.483400 0.377228 0.780479
O O10 0.855558 0.056029 0.076415
O O11 0.229528 0.766414 0.511836
O O12 0.000000 0.000000 0.000000
O O13 0.897757 0.472702 0.071281
O O14 0.000000 0.500000 0.000000
O O15 0.891023 0.359567 0.746894
O O16 0.000000 0.500000 0.500000
#
# Coordination Sequence:
#
# PCOD9036880 Si02
#       7
#     2   2   2   2   2   2   2
#     4  12  25  45  73 105 134 190 244 288 356 432
#     4  10  25  43  67 106 145 182 235 298 356 425
#     4  10  24  41  71 101 139 182 240 284 359 418
#     4  10  23  39  65 102 137 182 234 288 353 419
#     4  12  23  44  74  99 138 192 238 294 356 434
#     4  12  21  44  68 101 143 185 236 293 362 420
#     4  12  27  47  70 106 146 185 238 300 359 427
#
# _framework density 22.181844999999999
#
# number of rings (size 3 to 8) (size 9 to 14) (size 15 to 20)
#    0.857    0.000    4.286    2.571    0.000    2.857 
#    0.000    0.000    0.000    0.000    0.000    0.000 
#    0.000    0.000    0.000    0.000    0.000    0.000 
#
# Total GULP energy -78047.582536 kJ/mol
# GULP energy per Si atom -5574.827324 kJ/mol
# Density = 2.213136 g / cm^3
# Si number density = 22.181845 Si / 1000 Ang^3
#
#
#
# Elastic Constant Matrix: (Units=GPa)
#
#
# Indices 1 2 3 4 5 6 
#
# 1 67.7934 26.1739 32.8495 -16.0449 -11.9551 -1.5488
# 2 26.1739 77.9799 45.4579 -14.2194 -6.6638 -11.6240
# 3 32.8495 45.4579 126.2083 -10.2564 -5.8702 3.1643
# 4 -16.0449 -14.2194 -10.2564 32.4444 -0.8731 11.5705
# 5 -11.9551 -6.6638 -5.8702 -0.8731 41.8252 -1.3204
# 6 -1.5488 -11.6240 3.1643 11.5705 -1.3204 54.6300
#
#
#
# Elastic Compliance Matrix: (Units=1/GPa)
#
#
# Indices 1 2 3 4 5 6 
#
# 1 0.020367 -0.003278 -0.003172 0.008330 0.004978 -0.001580
# 2 -0.003278 0.018411 -0.005513 0.003519 0.001404 0.003433
# 3 -0.003172 -0.005513 0.010775 0.000095 -0.000331 -0.001915
# 4 0.008330 0.003519 0.000095 0.039190 0.003545 -0.007235
# 5 0.004978 0.001404 -0.000331 0.003545 0.025594 0.000327
# 6 -0.001580 0.003433 -0.001915 -0.007235 0.000327 0.020642
#
#
# Mechanical properties :
#
#
# Convention : Reuss Voigt Hill
#
# Bulk Modulus (GPa) = 39.02201 53.43825 46.23013
# Shear Modulus (GPa) = 29.86030 36.94660 33.40345
#
# Velocity S-wave (km/s) = 3.67298 4.08563 3.88479
# Velocity P-wave (km/s) = 5.96807 6.81174 6.40381
#
# Compressibility (1/GPa) = 0.02562657
#
# Stress axis : x y z
#
# Youngs Moduli (GPa) = 49.09975 54.31493 92.80653
#
# Poissons Ratio (x) = 0.17805 0.29441
# Poissons Ratio (y) = 0.16095 0.51164
# Poissons Ratio (z) = 0.15576 0.29943
#
# Static dielectric constant tensor:
#      x y z
#    x 1.698940 0.090630 -0.006850 
#    y 0.090630 1.917310 -0.025580 
#    z -0.006850 -0.025580 1.857530 
# 
# From -- ./inp_files/333436.got.cif
#   From: 2010.05.17/outbox.cif.g08.bks.cpg/sg2_167_cif.got.tgz:333436.got - 2010.06.03 11:33:40.
