data_PCOD9036007
_publ_section_title
;
Structure prediction by ZEFSAII (Michael W. Deem and Ramdas Pophale) SiO2 
 PCOD9036007
Probable space group: P -1
;
_chemical_formula_sum "Si O2"
_cell_formula_units_Z 14
_cell_length_a 5.318089
_cell_length_b 13.740317
_cell_length_c 8.646882
_cell_angle_alpha 116.658699
_cell_angle_beta 78.394936
_cell_angle_gamma 92.000287
_cell_volume 552.028197
_symmetry_space_group_name_H-M "P -1"
_symmetry_group_IT_number 2
_symmetry_cell_setting 'triclinic'
loop_
_space_group_symop_operation_xyz
x,y,z
-x,-y,-z
loop_
_atom_site_type_symbol
_atom_site_label
_atom_site_fract_x
_atom_site_fract_y
_atom_site_fract_z
Si Si1 0.030419 0.999270 0.176104
Si Si2 0.164719 0.544746 0.874613
Si Si3 0.259150 0.928908 0.474031
Si Si4 0.390035 0.168947 0.234423
Si Si5 0.735801 0.208004 0.918072
Si Si6 0.506116 0.373489 0.530186
Si Si7 0.075313 0.366232 0.343493
O O1 0.011867 0.874475 0.144788
O O2 0.306967 0.050527 0.207186
O O3 0.829775 0.082489 0.346397
O O4 0.000000 0.000000 0.000000
O O5 0.375885 0.448676 0.732252
O O6 0.987837 0.577757 0.771133
O O7 0.266117 0.662057 0.988801
O O8 0.000000 0.500000 0.000000
O O9 0.327602 0.831255 0.276044
O O10 0.500000 0.000000 0.500000
O O11 0.000000 0.000000 0.500000
O O12 0.445536 0.245572 0.430300
O O13 0.143250 0.237457 0.237178
O O14 0.583501 0.177112 0.071945
O O15 0.668663 0.591749 0.576545
O O16 0.810932 0.378321 0.481383
#
# Coordination Sequence:
#
# PCOD9036007 Si02
#       7
#     2   2   2   2   2   2   2
#     4  11  23  42  75 107 138 185 239 294 357 432
#     4  12  25  44  72 107 147 191 243 292 358 423
#     4  10  24  47  67  99 145 185 226 289 357 420
#     4  10  23  41  77  99 141 177 247 282 362 412
#     4  11  24  45  70 105 150 186 235 299 362 422
#     4  10  24  45  73 100 144 185 238 290 349 413
#     4  10  22  47  69 101 137 188 232 294 343 413
#
# _framework density 25.361021999999998
#
# number of rings (size 3 to 8) (size 9 to 14) (size 15 to 20)
#    0.857    0.571    1.429    3.000    2.000    2.286 
#    0.000    7.857    0.000    0.000    0.000    0.000 
#    0.000    0.000    0.000    0.000    0.000    0.000 
#
# Total GULP energy -78079.060511 kJ/mol
# GULP energy per Si atom -5577.075751 kJ/mol
# Density = 2.530330 g / cm^3
# Si number density = 25.361022 Si / 1000 Ang^3
#
#
#
# Elastic Constant Matrix: (Units=GPa)
#
#
# Indices 1 2 3 4 5 6 
#
# 1 108.3151 17.5277 48.3968 10.1522 -15.2114 3.3691
# 2 17.5277 103.5961 62.9251 24.5315 -13.7584 9.8190
# 3 48.3968 62.9251 230.0402 25.0759 -10.7418 22.5263
# 4 10.1522 24.5315 25.0759 53.2087 8.3964 -7.9260
# 5 -15.2114 -13.7584 -10.7418 8.3964 42.6086 6.9407
# 6 3.3691 9.8190 22.5263 -7.9260 6.9407 41.2823
#
#
#
# Elastic Compliance Matrix: (Units=1/GPa)
#
#
# Indices 1 2 3 4 5 6 
#
# 1 0.010815 0.000490 -0.001862 -0.002237 0.004172 -0.001114
# 2 0.000490 0.013943 -0.002434 -0.007004 0.006162 -0.004409
# 3 -0.001862 -0.002434 0.005957 -0.001930 0.000927 -0.003046
# 4 -0.002237 -0.007004 -0.001930 0.026438 -0.010339 0.009716
# 5 0.004172 0.006162 0.000927 -0.010339 0.030762 -0.009469
# 6 -0.001114 -0.004409 -0.003046 0.009716 -0.009469 0.030482
#
#
# Mechanical properties :
#
#
# Convention : Reuss Voigt Hill
#
# Bulk Modulus (GPa) = 43.28341 77.73899 60.51120
# Shear Modulus (GPa) = 37.39438 48.29335 42.84386
#
# Velocity S-wave (km/s) = 3.84406 4.36849 4.11464
# Velocity P-wave (km/s) = 6.06683 7.49429 6.81802
#
# Compressibility (1/GPa) = 0.02310354
#
# Stress axis : x y z
#
# Youngs Moduli (GPa) = 92.46383 71.71919 167.88371
#
# Poissons Ratio (x) = -0.03517 0.31255
# Poissons Ratio (y) = -0.04534 0.40867
# Poissons Ratio (z) = 0.17214 0.17458
#
# Static dielectric constant tensor:
#      x y z
#    x 2.127700 -0.037820 0.068410 
#    y -0.037820 2.103890 0.005410 
#    z 0.068410 0.005410 2.149390 
# 
# From -- ./inp_files/133573.got.cif
#   From: 2010.05.17/outbox.cif.g08.bks.cpg/sg2_67_cif.got.tgz:133573.got - 2010.06.03 11:33:40.
