data_PCOD9036583
_publ_section_title
;
Structure prediction by ZEFSAII (Michael W. Deem and Ramdas Pophale) SiO2 
 PCOD9036583
Probable space group: P -1
;
_chemical_formula_sum "Si O2"
_cell_formula_units_Z 14
_cell_length_a 11.742497
_cell_length_b 15.295004
_cell_length_c 5.374234
_cell_angle_alpha 74.174615
_cell_angle_beta 107.320163
_cell_angle_gamma 143.130855
_cell_volume 551.856756
_symmetry_space_group_name_H-M "P -1"
_symmetry_group_IT_number 2
_symmetry_cell_setting 'triclinic'
loop_
_space_group_symop_operation_xyz
x,y,z
-x,-y,-z
loop_
_atom_site_type_symbol
_atom_site_label
_atom_site_fract_x
_atom_site_fract_y
_atom_site_fract_z
Si Si1 0.114987 0.606034 0.742061
Si Si2 0.573576 0.867427 0.879187
Si Si3 0.455223 0.329668 0.141774
Si Si4 0.871947 0.721564 0.954275
Si Si5 0.152194 0.833854 0.422457
Si Si6 0.628333 0.487137 0.622051
Si Si7 0.138562 0.996474 0.646681
O O1 0.343523 0.718819 0.815915
O O2 0.148288 0.735791 0.639253
O O3 0.000000 0.500000 0.500000
O O4 0.000000 0.500000 0.000000
O O5 0.653027 0.830619 0.788169
O O6 0.659010 0.016791 0.730285
O O7 0.647584 0.883385 0.191786
O O8 0.316179 0.334309 0.051642
O O9 0.598612 0.419957 0.396678
O O10 0.550628 0.391085 0.888563
O O11 0.826719 0.642318 0.732706
O O12 0.027094 0.891644 0.896519
O O13 0.970781 0.714443 0.214618
O O14 0.121284 0.904953 0.512044
O O15 0.500000 0.500000 0.500000
O O16 0.000000 0.000000 0.500000
#
# Coordination Sequence:
#
# PCOD9036583 Si02
#       7
#     2   2   2   2   2   2   2
#     4  12  33  59  86 118 153 210 288 346 402 467
#     4  11  28  50  80 116 160 213 267 335 402 478
#     4  11  24  41  70 110 157 205 258 318 399 482
#     4  10  23  41  67 110 157 206 259 321 398 484
#     4  11  27  50  81 113 163 213 266 334 404 476
#     4  10  23  38  62 103 154 210 255 310 387 471
#     4  11  25  43  79 118 163 210 265 316 402 495
#
# _framework density 25.368898999999999
#
# number of rings (size 3 to 8) (size 9 to 14) (size 15 to 20)
#    0.000    1.143    0.000    3.857   20.000    2.857 
#    0.000    0.000    0.000    0.000    0.000    0.000 
#    0.000    0.000    0.000    0.000    0.000    0.000 
#
# Total GULP energy -77973.215127 kJ/mol
# GULP energy per Si atom -5569.515366 kJ/mol
# Density = 2.531116 g / cm^3
# Si number density = 25.368899 Si / 1000 Ang^3
#
#
#
# Elastic Constant Matrix: (Units=GPa)
#
#
# Indices 1 2 3 4 5 6 
#
# 1 82.0028 24.5255 48.5627 -7.6595 26.4356 -0.0576
# 2 24.5255 161.3342 83.0687 -4.1636 -5.9851 4.8076
# 3 48.5627 83.0687 174.7568 8.9767 8.5677 -9.0429
# 4 -7.6595 -4.1636 8.9767 63.4400 -6.1942 9.2849
# 5 26.4356 -5.9851 8.5677 -6.1942 36.9711 -4.4260
# 6 -0.0576 4.8076 -9.0429 9.2849 -4.4260 43.9913
#
#
#
# Elastic Compliance Matrix: (Units=1/GPa)
#
#
# Indices 1 2 3 4 5 6 
#
# 1 0.019605 -0.000979 -0.004579 0.002048 -0.013078 -0.002557
# 2 -0.000979 0.008728 -0.004210 0.001627 0.003140 -0.001848
# 3 -0.004579 -0.004210 0.009259 -0.002532 0.000373 0.002929
# 4 0.002048 0.001627 -0.002532 0.017258 0.001779 -0.004159
# 5 -0.013078 0.003140 0.000373 0.001779 0.037492 0.003113
# 6 -0.002557 -0.001848 0.002929 -0.004159 0.003113 0.024724
#
#
# Mechanical properties :
#
#
# Convention : Reuss Voigt Hill
#
# Bulk Modulus (GPa) = 55.38125 81.15641 68.26883
# Shear Modulus (GPa) = 35.05813 46.34294 40.70053
#
# Velocity S-wave (km/s) = 3.72147 4.27870 4.00978
# Velocity P-wave (km/s) = 6.35166 7.51463 6.95749
#
# Compressibility (1/GPa) = 0.01805665
#
# Stress axis : x y z
#
# Youngs Moduli (GPa) = 51.00809 114.56860 108.00018
#
# Poissons Ratio (x) = 0.11213 0.49453
# Poissons Ratio (y) = 0.04992 0.45470
# Poissons Ratio (z) = 0.23357 0.48235
#
# Static dielectric constant tensor:
#      x y z
#    x 2.015920 -0.054970 0.004830 
#    y -0.054970 1.887770 -0.060970 
#    z 0.004830 -0.060970 2.093840 
# 
# From -- ./inp_files/77475.got.cif
#   From: 2010.05.17/outbox.cif.g08.bks.cpg/sg2_39_cif.got.tgz:77475.got - 2010.06.03 11:33:40.
