data_PCOD9036923
_publ_section_title
;
Structure prediction by ZEFSAII (Michael W. Deem and Ramdas Pophale) SiO2 
 PCOD9036923
Probable space group: P -1
;
_chemical_formula_sum "Si O2"
_cell_formula_units_Z 12
_cell_length_a 13.348891
_cell_length_b 6.638616
_cell_length_c 8.597813
_cell_angle_alpha 128.391090
_cell_angle_beta 85.745732
_cell_angle_gamma 111.208473
_cell_volume 544.805968
_symmetry_space_group_name_H-M "P -1"
_symmetry_group_IT_number 2
_symmetry_cell_setting 'triclinic'
loop_
_space_group_symop_operation_xyz
x,y,z
-x,-y,-z
loop_
_atom_site_type_symbol
_atom_site_label
_atom_site_fract_x
_atom_site_fract_y
_atom_site_fract_z
Si Si1 0.068867 0.105347 0.385056
Si Si2 0.570676 0.865568 0.517831
Si Si3 0.807845 0.186337 0.603093
Si Si4 0.427704 0.728705 0.776050
Si Si5 0.194364 0.751700 0.718874
Si Si6 0.007888 0.701321 0.947327
O O1 0.116165 0.433321 0.533998
O O2 0.165760 0.010177 0.370144
O O3 0.000000 0.000000 0.500000
O O4 0.006691 0.967464 0.168504
O O5 0.686565 0.132312 0.641225
O O6 0.588462 0.588626 0.318814
O O7 0.500000 0.000000 0.500000
O O8 0.504629 0.773500 0.639635
O O9 0.800160 0.100737 0.379386
O O10 0.901945 0.497367 0.766208
O O11 0.311830 0.752479 0.758693
O O12 0.500000 0.000000 0.000000
O O13 0.124120 0.803131 0.892413
O O14 0.000000 0.500000 0.000000
#
# Coordination Sequence:
#
# PCOD9036923 Si02
#       6
#     2   2   2   2   2   2
#     4  11  23  42  67  94 135 177 214 275 340 395
#     4  11  24  48  68  97 136 178 227 282 340 390
#     4  11  23  43  66  96 135 171 220 281 330 401
#     4  11  27  43  72  98 134 181 230 279 333 407
#     4  12  23  44  65  96 136 173 222 276 336 396
#     4  10  23  39  66 100 129 172 220 266 335 403
#
# _framework density 22.02619
#
# number of rings (size 3 to 8) (size 9 to 14) (size 15 to 20)
#    0.000    1.000    6.667    0.500    4.667    1.333 
#    0.000    0.000    0.000    0.000    0.000    0.000 
#    0.000    0.000    0.000    0.000    0.000    0.000 
#
# Total GULP energy -66833.235845 kJ/mol
# GULP energy per Si atom -5569.436320 kJ/mol
# Density = 2.197606 g / cm^3
# Si number density = 22.026190 Si / 1000 Ang^3
#
#
#
# Elastic Constant Matrix: (Units=GPa)
#
#
# Indices 1 2 3 4 5 6 
#
# 1 138.2905 21.9759 53.1472 -11.0369 8.2941 24.7552
# 2 21.9759 88.3988 30.0859 -10.2534 -2.4030 9.8287
# 3 53.1472 30.0859 122.6091 -0.2217 0.3978 4.3889
# 4 -11.0369 -10.2534 -0.2217 33.1101 1.1051 -3.5640
# 5 8.2941 -2.4030 0.3978 1.1051 25.6963 -1.3326
# 6 24.7552 9.8287 4.3889 -3.5640 -1.3326 48.5439
#
#
#
# Elastic Compliance Matrix: (Units=1/GPa)
#
#
# Indices 1 2 3 4 5 6 
#
# 1 0.010147 -0.000371 -0.004125 0.002863 -0.003608 -0.004615
# 2 -0.000371 0.013085 -0.002979 0.003667 0.001134 -0.001890
# 3 -0.004125 -0.002979 0.010610 -0.002087 0.001063 0.001623
# 4 0.002863 0.003667 -0.002087 0.032376 -0.001925 0.000310
# 5 -0.003608 0.001134 0.001063 -0.001925 0.040382 0.002482
# 6 -0.004615 -0.001890 0.001623 0.000310 0.002482 0.023280
#
#
# Mechanical properties :
#
#
# Convention : Reuss Voigt Hill
#
# Bulk Modulus (GPa) = 52.93775 62.19073 57.56424
# Shear Modulus (GPa) = 33.08474 37.74269 35.41371
#
# Velocity S-wave (km/s) = 3.87985 4.14398 4.01409
# Velocity P-wave (km/s) = 6.64509 7.15493 6.90471
#
# Compressibility (1/GPa) = 0.01889011
#
# Stress axis : x y z
#
# Youngs Moduli (GPa) = 98.55602 76.42349 94.25276
#
# Poissons Ratio (x) = 0.02838 0.38879
# Poissons Ratio (y) = 0.03660 0.28080
# Poissons Ratio (z) = 0.40654 0.22768
#
# Static dielectric constant tensor:
#      x y z
#    x 2.368990 -0.227040 0.021410 
#    y -0.227040 2.016950 -0.107190 
#    z 0.021410 -0.107190 1.994970 
# 
# From -- ./inp_files/291204.got.cif
#   From: 2010.05.17/outbox.cif.g08.bks.cpg/sg2_146_cif.got.tgz:291204.got - 2010.06.03 11:33:40.
