data_PCOD9036237
_publ_section_title
;
Structure prediction by ZEFSAII (Michael W. Deem and Ramdas Pophale) SiO2 
 PCOD9036237
Probable space group: P -1
;
_chemical_formula_sum "Si O2"
_cell_formula_units_Z 13
_cell_length_a 6.795760
_cell_length_b 7.013243
_cell_length_c 12.304605
_cell_angle_alpha 98.730891
_cell_angle_beta 107.066269
_cell_angle_gamma 63.209772
_cell_volume 500.311874
_symmetry_space_group_name_H-M "P -1"
_symmetry_group_IT_number 2
_symmetry_cell_setting 'triclinic'
loop_
_space_group_symop_operation_xyz
x,y,z
-x,-y,-z
loop_
_atom_site_type_symbol
_atom_site_label
_atom_site_fract_x
_atom_site_fract_y
_atom_site_fract_z
Si Si1 0.833542 0.037491 0.873632
Si Si2 0.594767 0.446187 0.389653
Si Si3 0.895184 0.819582 0.231404
Si Si4 0.000000 0.000000 0.500000
Si Si5 0.828338 0.725221 0.443498
Si Si6 0.383533 0.342498 0.946788
Si Si7 0.599530 0.775625 0.815342
O O1 0.589598 0.167376 0.898659
O O2 0.921003 0.146171 0.806736
O O3 0.791690 0.840258 0.804260
O O4 0.000000 0.000000 0.000000
O O5 0.500000 0.500000 0.500000
O O6 0.636482 0.649828 0.371524
O O7 0.427046 0.402789 0.277232
O O8 0.816183 0.218348 0.420923
O O9 0.951238 0.787832 0.365748
O O10 0.834873 0.632803 0.157293
O O11 0.659809 0.036011 0.203839
O O12 0.783209 0.945103 0.512841
O O13 0.000000 0.500000 0.500000
O O14 0.500000 0.500000 0.000000
O O15 0.334372 0.285085 0.054079
#
# Coordination Sequence:
#
# PCOD9036237 Si02
#       7
#     2   2   2   1   2   2   2
#     4  11  21  42  72 102 137 194 243 280 375 458
#     4  11  25  47  72 106 144 194 262 305 372 453
#     4  11  21  44  71 100 144 190 237 300 377 437
#     4  10  22  48  72  96 144 190 238 326 370 414
#     4  10  23  45  70 101 140 189 247 304 372 433
#     4  11  23  40  66 104 150 178 234 305 363 448
#     4  11  22  44  70 104 149 191 232 312 371 434
#
# _framework density 25.983792000000001
#
# number of rings (size 3 to 8) (size 9 to 14) (size 15 to 20)
#    0.000    1.231    4.615    1.846    0.000    2.462 
#   19.385    0.000    0.000    0.000    0.000    0.000 
#    0.000    0.000    0.000    0.000    0.000    0.000 
#
# Total GULP energy -72370.762458 kJ/mol
# GULP energy per Si atom -5566.981728 kJ/mol
# Density = 2.592465 g / cm^3
# Si number density = 25.983792 Si / 1000 Ang^3
#
#
#
# Elastic Constant Matrix: (Units=GPa)
#
#
# Indices 1 2 3 4 5 6 
#
# 1 116.9043 50.3084 45.5374 15.3750 14.6387 47.2357
# 2 50.3084 130.7518 3.3934 20.4591 8.0035 37.7433
# 3 45.5374 3.3934 86.1762 -1.3146 -8.8467 2.6520
# 4 15.3750 20.4591 -1.3146 48.3459 21.7698 11.8116
# 5 14.6387 8.0035 -8.8467 21.7698 41.8353 5.0073
# 6 47.2357 37.7433 2.6520 11.8116 5.0073 55.7946
#
#
#
# Elastic Compliance Matrix: (Units=1/GPa)
#
#
# Indices 1 2 3 4 5 6 
#
# 1 0.021284 -0.003376 -0.011490 0.001728 -0.008359 -0.014805
# 2 -0.003376 0.010363 0.001606 -0.003072 0.001582 -0.003720
# 3 -0.011490 0.001606 0.018133 -0.001769 0.007574 0.007474
# 4 0.001728 -0.003072 -0.001769 0.029187 -0.015086 -0.004126
# 5 -0.008359 0.001582 0.007574 -0.015086 0.035298 0.005672
# 6 -0.014805 -0.003720 0.007474 -0.004126 0.005672 0.032982
#
#
# Mechanical properties :
#
#
# Convention : Reuss Voigt Hill
#
# Bulk Modulus (GPa) = 42.99337 59.14563 51.06950
# Shear Modulus (GPa) = 27.54498 44.83469 36.18984
#
# Velocity S-wave (km/s) = 3.25942 4.15840 3.73605
# Velocity P-wave (km/s) = 5.54502 6.77262 6.18933
#
# Compressibility (1/GPa) = 0.02325940
#
# Stress axis : x y z
#
# Youngs Moduli (GPa) = 46.98402 96.49643 55.14812
#
# Poissons Ratio (x) = 0.32580 0.63365
# Poissons Ratio (y) = 0.15863 -0.08857
# Poissons Ratio (z) = 0.53985 -0.15498
#
# Static dielectric constant tensor:
#      x y z
#    x 2.222630 -0.005570 0.123590 
#    y -0.005570 2.546050 0.176560 
#    z 0.123590 0.176560 1.966170 
# 
# From -- ./inp_files/360448.got.cif
#   From: 2010.05.17/outbox.cif.g08.bks.cpg/sg2_181_cif.got.tgz:360448.got - 2010.06.03 11:33:40.
