data_PCOD9036877
_publ_section_title
;
Structure prediction by ZEFSAII (Michael W. Deem and Ramdas Pophale) SiO2 
 PCOD9036877
Probable space group: P -1
;
_chemical_formula_sum "Si O2"
_cell_formula_units_Z 14
_cell_length_a 12.014757
_cell_length_b 17.025059
_cell_length_c 8.308585
_cell_angle_alpha 134.522616
_cell_angle_beta 35.401905
_cell_angle_gamma 146.909435
_cell_volume 536.633008
_symmetry_space_group_name_H-M "P -1"
_symmetry_group_IT_number 2
_symmetry_cell_setting 'triclinic'
loop_
_space_group_symop_operation_xyz
x,y,z
-x,-y,-z
loop_
_atom_site_type_symbol
_atom_site_label
_atom_site_fract_x
_atom_site_fract_y
_atom_site_fract_z
Si Si1 0.088369 0.625721 0.387796
Si Si2 0.647832 0.563800 0.675170
Si Si3 0.229355 0.039586 0.396226
Si Si4 0.851817 0.594339 0.120197
Si Si5 0.506277 0.082541 0.818557
Si Si6 0.141531 0.125570 0.143837
Si Si7 0.346690 0.784319 0.629880
O O1 0.222173 0.776250 0.353199
O O2 0.204083 0.665685 0.487050
O O3 0.793138 0.542107 0.599733
O O4 0.149829 0.537798 0.093351
O O5 0.769091 0.587808 0.389391
O O6 0.355706 0.434437 0.799576
O O7 0.704295 0.712002 0.862782
O O8 0.417699 0.176837 0.491582
O O9 0.426926 0.064997 0.073074
O O10 0.000000 0.000000 0.500000
O O11 0.065419 0.911976 0.535468
O O12 0.125306 0.732985 0.941766
O O13 0.442743 0.932221 0.643776
O O14 0.329001 0.107767 0.979137
O O15 0.000000 0.000000 0.000000
#
# Coordination Sequence:
#
# PCOD9036877 Si02
#       7
#     2   2   2   2   2   2   2
#     4  12  24  45  72 103 139 187 235 288 355 412
#     4  11  24  45  73  98 144 192 235 282 350 423
#     4  10  23  39  65 100 136 182 227 288 348 412
#     4  11  26  47  69 101 147 187 238 283 349 429
#     4  11  22  41  69  97 140 180 233 284 345 418
#     4  11  21  41  68 107 139 177 237 295 348 410
#     4  12  24  44  68 106 143 179 232 300 353 412
#
# _framework density 26.088594000000001
#
# number of rings (size 3 to 8) (size 9 to 14) (size 15 to 20)
#    0.000    0.857    1.429    6.000    0.000    0.571 
#    7.714    0.000    0.000    0.000    0.000    0.000 
#    0.000    0.000    0.000    0.000    0.000    0.000 
#
# Total GULP energy -78349.451226 kJ/mol
# GULP energy per Si atom -5596.389373 kJ/mol
# Density = 2.602922 g / cm^3
# Si number density = 26.088594 Si / 1000 Ang^3
#
#
#
# Elastic Constant Matrix: (Units=GPa)
#
#
# Indices 1 2 3 4 5 6 
#
# 1 172.9517 59.1675 31.9437 3.7917 -28.6280 40.6864
# 2 59.1675 112.8114 15.7530 0.7404 -15.4803 21.5987
# 3 31.9437 15.7530 78.3128 -5.3401 6.0501 11.5243
# 4 3.7917 0.7404 -5.3401 59.0425 7.3114 -2.8024
# 5 -28.6280 -15.4803 6.0501 7.3114 36.9807 -10.8233
# 6 40.6864 21.5987 11.5243 -2.8024 -10.8233 52.2586
#
#
#
# Elastic Compliance Matrix: (Units=1/GPa)
#
#
# Indices 1 2 3 4 5 6 
#
# 1 0.009319 -0.002838 -0.003149 -0.001749 0.005624 -0.004317
# 2 -0.002838 0.011133 -0.001025 -0.000405 0.002204 -0.001731
# 3 -0.003149 -0.001025 0.015142 0.002284 -0.006276 -0.001641
# 4 -0.001749 -0.000405 0.002284 0.017945 -0.005177 0.000916
# 5 0.005624 0.002204 -0.006276 -0.005177 0.035282 0.003124
# 6 -0.004317 -0.001731 -0.001641 0.000916 0.003124 0.024270
#
#
# Mechanical properties :
#
#
# Convention : Reuss Voigt Hill
#
# Bulk Modulus (GPa) = 46.36107 64.20047 55.28077
# Shear Modulus (GPa) = 37.22852 46.80382 42.01617
#
# Velocity S-wave (km/s) = 3.78167 4.24020 4.01748
# Velocity P-wave (km/s) = 6.07266 6.97384 6.53879
#
# Compressibility (1/GPa) = 0.02156982
#
# Stress axis : x y z
#
# Youngs Moduli (GPa) = 107.30312 89.82643 66.04170
#
# Poissons Ratio (x) = 0.25496 0.20795
# Poissons Ratio (y) = 0.30457 0.06768
# Poissons Ratio (z) = 0.33788 0.09206
#
# Static dielectric constant tensor:
#      x y z
#    x 2.094130 0.078040 -0.021290 
#    y 0.078040 2.095100 -0.050570 
#    z -0.021290 -0.050570 2.089720 
# 
# From -- ./inp_files/279761.got.cif
#   From: 2010.05.17/outbox.cif.g08.bks.cpg/sg2_140_cif.got.tgz:279761.got - 2010.06.03 11:33:40.
