data_PCOD9036167
_publ_section_title
;
Structure prediction by ZEFSAII (Michael W. Deem and Ramdas Pophale) SiO2 
 PCOD9036167
Probable space group: P -1
;
_chemical_formula_sum "Si O2"
_cell_formula_units_Z 10
_cell_length_a 10.499750
_cell_length_b 4.943027
_cell_length_c 11.192235
_cell_angle_alpha 107.920131
_cell_angle_beta 132.616171
_cell_angle_gamma 88.774602
_cell_volume 391.972272
_symmetry_space_group_name_H-M "P -1"
_symmetry_group_IT_number 2
_symmetry_cell_setting 'triclinic'
loop_
_space_group_symop_operation_xyz
x,y,z
-x,-y,-z
loop_
_atom_site_type_symbol
_atom_site_label
_atom_site_fract_x
_atom_site_fract_y
_atom_site_fract_z
Si Si1 0.127761 0.621215 0.708116
Si Si2 0.002369 0.289680 0.117020
Si Si3 0.380779 0.726275 0.460607
Si Si4 0.297495 0.434794 0.996782
Si Si5 0.454430 0.935414 0.798397
O O1 0.000000 0.500000 0.500000
O O2 0.037160 0.779499 0.774429
O O3 0.186441 0.373317 0.792489
O O4 0.308765 0.824645 0.793347
O O5 0.185421 0.547884 0.268754
O O6 0.839884 0.428823 0.996957
O O7 0.000000 0.000000 0.000000
O O8 0.500000 0.500000 0.500000
O O9 0.463412 0.716275 0.110056
O O10 0.500000 0.000000 0.500000
O O11 0.367019 0.826711 0.601270
O O12 0.382940 0.214598 0.093337
#
# Coordination Sequence:
#
# PCOD9036167 Si02
#       5
#     2   2   2   2   2
#     4  10  22  47  79 112 157 201 258 327 383 471
#     4  10  24  49  77 113 158 204 264 320 397 462
#     4  12  27  48  76 109 156 207 260 320 385 467
#     4  10  25  42  81 108 157 191 261 319 389 457
#     4  12  22  49  73 118 146 204 256 319 390 461
#
# _framework density 25.512007000000001
#
# number of rings (size 3 to 8) (size 9 to 14) (size 15 to 20)
#    1.200    0.000    2.000    3.600    0.000    1.600 
#    0.000   11.000    0.000    0.000    0.000    0.000 
#    0.000    0.000    0.000    0.000    0.000    0.000 
#
# Total GULP energy -56007.243560 kJ/mol
# GULP energy per Si atom -5600.724356 kJ/mol
# Density = 2.545394 g / cm^3
# Si number density = 25.512007 Si / 1000 Ang^3
#
#
#
# Elastic Constant Matrix: (Units=GPa)
#
#
# Indices 1 2 3 4 5 6 
#
# 1 183.1749 43.7692 67.1390 15.1891 -1.0261 8.7501
# 2 43.7692 132.5395 38.8161 3.8730 -3.4834 2.0145
# 3 67.1390 38.8161 217.6692 18.1153 -24.5397 3.7970
# 4 15.1891 3.8730 18.1153 32.9828 4.4342 -4.9142
# 5 -1.0261 -3.4834 -24.5397 4.4342 53.0443 5.6650
# 6 8.7501 2.0145 3.7970 -4.9142 5.6650 46.5850
#
#
#
# Elastic Compliance Matrix: (Units=1/GPa)
#
#
# Indices 1 2 3 4 5 6 
#
# 1 0.006680 -0.001664 -0.001613 -0.002121 -0.000418 -0.001224
# 2 -0.001664 0.008379 -0.001009 0.000345 0.000015 0.000067
# 3 -0.001613 -0.001009 0.005855 -0.002867 0.002935 -0.000790
# 4 -0.002121 0.000345 -0.002867 0.034178 -0.004714 0.004796
# 5 -0.000418 0.000015 0.002935 -0.004714 0.020939 -0.003205
# 6 -0.001224 0.000067 -0.000790 0.004796 -0.003205 0.022653
#
#
# Mechanical properties :
#
#
# Convention : Reuss Voigt Hill
#
# Bulk Modulus (GPa) = 81.02379 92.53691 86.78035
# Shear Modulus (GPa) = 44.89501 52.09972 48.49736
#
# Velocity S-wave (km/s) = 4.19950 4.52393 4.36473
# Velocity P-wave (km/s) = 7.43925 7.97738 7.71301
#
# Compressibility (1/GPa) = 0.01234205
#
# Stress axis : x y z
#
# Youngs Moduli (GPa) = 149.69826 119.34192 170.79862
#
# Poissons Ratio (x) = 0.19859 0.27549
# Poissons Ratio (y) = 0.24910 0.17235
# Poissons Ratio (z) = 0.24146 0.12043
#
# Static dielectric constant tensor:
#      x y z
#    x 2.244930 -0.056420 0.163960 
#    y -0.056420 2.060570 -0.068230 
#    z 0.163960 -0.068230 2.314390 
# 
# From -- ./inp_files/35662.got.cif
#   From: 2010.05.17/outbox.cif.g08.bks.cpg/sg2_18_cif.got.tgz:35662.got - 2010.06.03 11:33:40.
