data_PCOD9036606
_publ_section_title
;
Structure prediction by ZEFSAII (Michael W. Deem and Ramdas Pophale) SiO2 
 PCOD9036606
Probable space group: P -1
;
_chemical_formula_sum "Si O2"
_cell_formula_units_Z 14
_cell_length_a 14.040135
_cell_length_b 13.762807
_cell_length_c 13.778547
_cell_angle_alpha 148.022655
_cell_angle_beta 30.013744
_cell_angle_gamma 149.135659
_cell_volume 623.425430
_symmetry_space_group_name_H-M "P -1"
_symmetry_group_IT_number 2
_symmetry_cell_setting 'triclinic'
loop_
_space_group_symop_operation_xyz
x,y,z
-x,-y,-z
loop_
_atom_site_type_symbol
_atom_site_label
_atom_site_fract_x
_atom_site_fract_y
_atom_site_fract_z
Si Si1 0.469675 0.727329 0.323187
Si Si2 0.678038 0.743955 0.944170
Si Si3 0.505317 0.150921 0.991552
Si Si4 0.073842 0.711987 0.359151
Si Si5 0.113850 0.451551 0.950102
Si Si6 0.160600 0.848349 0.606245
Si Si7 0.083198 0.994684 0.315327
O O1 0.408241 0.496746 0.213807
O O2 0.261018 0.764112 0.529206
O O3 0.657788 0.916095 0.374283
O O4 0.562563 0.749310 0.150205
O O5 0.614925 0.850423 0.003495
O O6 0.931746 0.836950 0.819543
O O7 0.636519 0.379087 0.117720
O O8 0.709249 0.125570 0.752561
O O9 0.317973 0.008097 0.108723
O O10 0.126921 0.711822 0.423943
O O11 0.909358 0.803999 0.571712
O O12 0.013104 0.499865 0.176570
O O13 0.074512 0.219785 0.778540
O O14 0.000000 0.500000 0.000000
O O15 0.000000 0.000000 0.500000
#
# Coordination Sequence:
#
# PCOD9036606 Si02
#       7
#     2   2   2   2   2   2   2
#     4  10  23  38  63  91 124 167 208 260 314 372
#     4  11  21  40  63  92 126 163 212 260 311 372
#     4  10  24  42  62  97 130 163 213 266 308 379
#     4  10  23  43  61  95 132 158 217 263 304 390
#     4  10  23  44  63  95 127 162 215 266 309 382
#     4  11  21  41  61  91 127 165 211 256 317 373
#     4  12  23  44  70  90 126 172 208 262 326 375
#
# _framework density 22.456574
#
# number of rings (size 3 to 8) (size 9 to 14) (size 15 to 20)
#    0.857    0.571    4.286    0.857    2.000    2.857 
#    5.143    0.000    0.000    0.000    0.000    0.000 
#    0.000    0.000    0.000    0.000    0.000    0.000 
#
# Total GULP energy -78118.220156 kJ/mol
# GULP energy per Si atom -5579.872868 kJ/mol
# Density = 2.240546 g / cm^3
# Si number density = 22.456574 Si / 1000 Ang^3
#
#
#
# Elastic Constant Matrix: (Units=GPa)
#
#
# Indices 1 2 3 4 5 6 
#
# 1 64.6688 9.4862 21.3126 -6.2943 -0.0501 14.8432
# 2 9.4862 52.3291 10.0157 1.7027 8.5580 17.1928
# 3 21.3126 10.0157 63.0854 3.9854 -4.3842 11.4582
# 4 -6.2943 1.7027 3.9854 50.4264 14.4851 3.4988
# 5 -0.0501 8.5580 -4.3842 14.4851 31.5250 0.3413
# 6 14.8432 17.1928 11.4582 3.4988 0.3413 26.8903
#
#
#
# Elastic Compliance Matrix: (Units=1/GPa)
#
#
# Indices 1 2 3 4 5 6 
#
# 1 0.019812 0.001012 -0.005565 0.004397 -0.002932 -0.009747
# 2 0.001012 0.026120 -0.002270 0.003053 -0.008628 -0.016579
# 3 -0.005565 -0.002270 0.019237 -0.003297 0.004834 -0.003306
# 4 0.004397 0.003053 -0.003297 0.024543 -0.012492 -0.006009
# 5 -0.002932 -0.008628 0.004834 -0.012492 0.040403 0.006188
# 6 -0.009747 -0.016579 -0.003306 -0.006009 0.006188 0.055280
#
#
# Mechanical properties :
#
#
# Convention : Reuss Voigt Hill
#
# Bulk Modulus (GPa) = 19.40891 29.07912 24.24401
# Shear Modulus (GPa) = 23.12522 31.05295 27.08909
#
# Velocity S-wave (km/s) = 3.21249 3.72264 3.47693
# Velocity P-wave (km/s) = 4.73516 5.60843 5.19020
#
# Compressibility (1/GPa) = 0.05152273
#
# Stress axis : x y z
#
# Youngs Moduli (GPa) = 50.47487 38.28547 51.98385
#
# Poissons Ratio (x) = -0.03876 0.28930
# Poissons Ratio (y) = -0.05111 0.11801
# Poissons Ratio (z) = 0.28090 0.08691
#
# Static dielectric constant tensor:
#      x y z
#    x 1.872470 -0.031590 0.018110 
#    y -0.031590 1.846210 -0.023810 
#    z 0.018110 -0.023810 1.820460 
# 
# From -- ./inp_files/534523.got.cif
#   From: 2010.05.17/outbox.cif.g08.bks.cpg/sg2_268_cif.got.tgz:534523.got - 2010.06.03 11:33:40.
