data_PCOD9036682
_publ_section_title
;
Structure prediction by ZEFSAII (Michael W. Deem and Ramdas Pophale) SiO2 
 PCOD9036682
Probable space group: P -1
;
_chemical_formula_sum "Si O2"
_cell_formula_units_Z 14
_cell_length_a 13.041574
_cell_length_b 22.191242
_cell_length_c 6.953470
_cell_angle_alpha 79.963758
_cell_angle_beta 92.551506
_cell_angle_gamma 22.242935
_cell_volume 625.380776
_symmetry_space_group_name_H-M "P -1"
_symmetry_group_IT_number 2
_symmetry_cell_setting 'triclinic'
loop_
_space_group_symop_operation_xyz
x,y,z
-x,-y,-z
loop_
_atom_site_type_symbol
_atom_site_label
_atom_site_fract_x
_atom_site_fract_y
_atom_site_fract_z
Si Si1 0.303381 0.400990 0.412493
Si Si2 0.735212 0.219922 0.838302
Si Si3 0.309494 0.091000 0.628491
Si Si4 0.266865 0.738216 0.574977
Si Si5 0.421408 0.525111 0.762043
Si Si6 0.223421 0.969854 0.295565
Si Si7 0.598157 0.846335 0.118174
O O1 0.432230 0.351443 0.662345
O O2 0.478625 0.351080 0.313388
O O3 0.466530 0.243039 0.485944
O O4 0.920523 0.623357 0.240250
O O5 0.911405 0.137979 0.699727
O O6 0.606178 0.358216 0.827925
O O7 0.987898 0.056222 0.110944
O O8 0.304288 0.151337 0.740311
O O9 0.950586 0.277794 0.426510
O O10 0.500000 0.000000 0.500000
O O11 0.463830 0.949225 0.849176
O O12 0.477889 0.558445 0.643375
O O13 0.000539 0.879061 0.636411
O O14 0.500000 0.500000 0.000000
O O15 0.340409 0.954429 0.163513
#
# Coordination Sequence:
#
# PCOD9036682 Si02
#       7
#     2   2   2   2   2   2   2
#     4  10  24  44  66  96 139 179 225 273 326 408
#     4  10  23  39  66  95 133 174 225 277 336 382
#     4  11  25  43  67 100 138 173 222 277 346 403
#     4  10  23  38  67  97 131 173 226 278 330 394
#     4  12  22  41  69 100 130 170 225 292 334 391
#     4  12  22  43  67  99 136 179 226 270 333 402
#     4  11  25  44  68  98 140 180 214 279 343 405
#
# _framework density 22.386361000000001
#
# number of rings (size 3 to 8) (size 9 to 14) (size 15 to 20)
#    0.857    0.286    2.857    3.429    2.000    1.143 
#    0.000    0.000    0.000    4.286    0.000    0.000 
#    0.000    0.000    0.000    0.000    0.000    0.000 
#
# Total GULP energy -78120.568768 kJ/mol
# GULP energy per Si atom -5580.040626 kJ/mol
# Density = 2.233541 g / cm^3
# Si number density = 22.386361 Si / 1000 Ang^3
#
#
#
# Elastic Constant Matrix: (Units=GPa)
#
#
# Indices 1 2 3 4 5 6 
#
# 1 52.3967 5.3731 12.6856 6.2357 0.7047 -4.8747
# 2 5.3731 92.2025 44.5843 -0.8105 -0.7373 -11.8816
# 3 12.6856 44.5843 111.0991 -14.2741 7.5835 -10.2756
# 4 6.2357 -0.8105 -14.2741 31.5186 -0.6757 -5.0881
# 5 0.7047 -0.7373 7.5835 -0.6757 34.7631 -4.2416
# 6 -4.8747 -11.8816 -10.2756 -5.0881 -4.2416 31.2224
#
#
#
# Elastic Compliance Matrix: (Units=1/GPa)
#
#
# Indices 1 2 3 4 5 6 
#
# 1 0.020540 0.000447 -0.003069 -0.005181 0.000354 0.001571
# 2 0.000447 0.014033 -0.005708 -0.001704 0.001930 0.003516
# 3 -0.003069 -0.005708 0.012875 0.006615 -0.002455 0.002330
# 4 -0.005181 -0.001704 0.006615 0.036795 0.000163 0.006738
# 5 0.000354 0.001930 -0.002455 0.000163 0.029834 0.004061
# 6 0.001571 0.003516 0.002330 0.006738 0.004061 0.036028
#
#
# Mechanical properties :
#
#
# Convention : Reuss Voigt Hill
#
# Bulk Modulus (GPa) = 32.48029 42.33159 37.40594
# Shear Modulus (GPa) = 28.24379 32.37117 30.30748
#
# Velocity S-wave (km/s) = 3.55583 3.80679 3.68344
# Velocity P-wave (km/s) = 5.60348 6.18650 5.90219
#
# Compressibility (1/GPa) = 0.03078791
#
# Stress axis : x y z
#
# Youngs Moduli (GPa) = 48.68451 71.25905 77.66977
#
# Poissons Ratio (x) = -0.03184 0.23838
# Poissons Ratio (y) = -0.02175 0.44334
# Poissons Ratio (z) = 0.14942 0.40675
#
# Static dielectric constant tensor:
#      x y z
#    x 1.967870 0.069590 0.033320 
#    y 0.069590 1.845510 0.034300 
#    z 0.033320 0.034300 1.920910 
# 
# From -- ./inp_files/319616.got.cif
#   From: 2010.05.17/outbox.cif.g08.bks.cpg/sg2_160_cif.got.tgz:319616.got - 2010.06.03 11:33:40.
