data_PCOD9036512
_publ_section_title
;
Structure prediction by ZEFSAII (Michael W. Deem and Ramdas Pophale) SiO2 
 PCOD9036512
Probable space group: P -1
;
_chemical_formula_sum "Si O2"
_cell_formula_units_Z 15
_cell_length_a 11.608341
_cell_length_b 13.335246
_cell_length_c 13.822656
_cell_angle_alpha 29.518462
_cell_angle_beta 115.615913
_cell_angle_gamma 134.334355
_cell_volume 653.567551
_symmetry_space_group_name_H-M "P -1"
_symmetry_group_IT_number 2
_symmetry_cell_setting 'triclinic'
loop_
_space_group_symop_operation_xyz
x,y,z
-x,-y,-z
loop_
_atom_site_type_symbol
_atom_site_label
_atom_site_fract_x
_atom_site_fract_y
_atom_site_fract_z
Si Si1 0.500000 0.500000 0.000000
Si Si2 0.386195 0.719964 0.122738
Si Si3 0.472359 0.037841 0.245737
Si Si4 0.146692 0.454381 0.535653
Si Si5 0.335011 0.279165 0.760315
Si Si6 0.741037 0.818242 0.957068
Si Si7 0.345475 0.963816 0.523983
Si Si8 0.077637 0.606410 0.189308
O O1 0.695798 0.617069 0.022751
O O2 0.626696 0.778277 0.723650
O O3 0.460930 0.581104 0.291745
O O4 0.177599 0.552377 0.203699
O O5 0.500000 0.000000 0.000000
O O6 0.456682 0.843517 0.936130
O O7 0.264337 0.705822 0.448489
O O8 0.603518 0.029752 0.352110
O O9 0.425447 0.214928 0.118876
O O10 0.286169 0.439327 0.564224
O O11 0.111413 0.570640 0.340795
O O12 0.951156 0.135630 0.763241
O O13 0.299968 0.266010 0.875104
O O14 0.187819 0.947386 0.941520
O O15 0.500000 0.000000 0.500000
O O16 0.138888 0.648596 0.693684
#
# Coordination Sequence:
#
# PCOD9036512 Si02
#       8
#     1   2   2   2   2   2   2   2
#     4  12  24  40  60  90 136 156 206 254 318 376
#     4   9  19  43  64  91 126 163 212 267 300 364
#     4  11  22  41  67  90 130 170 205 257 322 358
#     4  12  21  37  66  92 121 167 212 254 314 375
#     4  10  23  37  66  93 124 163 216 260 306 371
#     4  11  22  38  60  94 127 162 204 268 308 379
#     4  12  26  40  64  93 130 168 198 261 318 377
#     4  11  23  42  63  91 130 164 209 259 311 365
#
# _framework density 22.950956999999999
#
# number of rings (size 3 to 8) (size 9 to 14) (size 15 to 20)
#    0.000    1.067    6.667    1.600    3.733    1.067 
#    0.000    0.000    0.000    4.000    0.000    0.000 
#    0.000    0.000    0.000    0.000    0.000    0.000 
#
# Total GULP energy -83561.670508 kJ/mol
# GULP energy per Si atom -5570.778034 kJ/mol
# Density = 2.289872 g / cm^3
# Si number density = 22.950957 Si / 1000 Ang^3
#
#
#
# Elastic Constant Matrix: (Units=GPa)
#
#
# Indices 1 2 3 4 5 6 
#
# 1 106.3368 26.4744 33.5742 -6.0414 5.2083 20.1506
# 2 26.4744 136.9354 33.7534 -19.5606 0.2057 18.0762
# 3 33.5742 33.7534 60.5030 -19.2761 14.1579 11.0578
# 4 -6.0414 -19.5606 -19.2761 35.1287 0.9640 -9.2303
# 5 5.2083 0.2057 14.1579 0.9640 34.8885 1.6015
# 6 20.1506 18.0762 11.0578 -9.2303 1.6015 30.3647
#
#
#
# Elastic Compliance Matrix: (Units=1/GPa)
#
#
# Indices 1 2 3 4 5 6 
#
# 1 0.012776 -0.000332 -0.007184 -0.003779 0.001431 -0.006889
# 2 -0.000332 0.009065 -0.004111 0.001842 0.001761 -0.003212
# 3 -0.007184 -0.004111 0.029464 0.013243 -0.011277 0.001105
# 4 -0.003779 0.001842 0.013243 0.038552 -0.006283 0.008639
# 5 0.001431 0.001761 -0.011277 -0.006283 0.033260 -0.001555
# 6 -0.006889 -0.003212 0.001105 0.008639 -0.001555 0.041722
#
#
# Mechanical properties :
#
#
# Convention : Reuss Voigt Hill
#
# Bulk Modulus (GPa) = 35.64979 54.59769 45.12374
# Shear Modulus (GPa) = 25.32393 34.07461 29.69927
#
# Velocity S-wave (km/s) = 3.32534 3.85732 3.60117
# Velocity P-wave (km/s) = 5.50551 6.60901 6.08234
#
# Compressibility (1/GPa) = 0.02805065
#
# Stress axis : x y z
#
# Youngs Moduli (GPa) = 78.27451 110.31833 33.93963
#
# Poissons Ratio (x) = 0.03660 0.24382
# Poissons Ratio (y) = 0.02597 0.13952
# Poissons Ratio (z) = 0.56233 0.45351
#
# Static dielectric constant tensor:
#      x y z
#    x 1.979200 -0.086440 0.050170 
#    y -0.086440 2.102130 0.055460 
#    z 0.050170 0.055460 1.982960 
# 
# From -- ./inp_files/268485.got.cif
#   From: 2010.05.17/outbox.cif.g08.bks.cpg/sg2_135_cif.got.tgz:268485.got - 2010.06.03 11:33:40.
