data_PCOD9036905
_publ_section_title
;
Structure prediction by ZEFSAII (Michael W. Deem and Ramdas Pophale) SiO2 
 PCOD9036905
Probable space group: P -1
;
_chemical_formula_sum "Si O2"
_cell_formula_units_Z 14
_cell_length_a 11.808516
_cell_length_b 4.947749
_cell_length_c 14.632554
_cell_angle_alpha 114.199309
_cell_angle_beta 117.494985
_cell_angle_gamma 94.998232
_cell_volume 650.109823
_symmetry_space_group_name_H-M "P -1"
_symmetry_group_IT_number 2
_symmetry_cell_setting 'triclinic'
loop_
_space_group_symop_operation_xyz
x,y,z
-x,-y,-z
loop_
_atom_site_type_symbol
_atom_site_label
_atom_site_fract_x
_atom_site_fract_y
_atom_site_fract_z
Si Si1 0.634589 0.703546 0.387345
Si Si2 0.080535 0.217766 0.945902
Si Si3 0.787624 0.879063 0.842729
Si Si4 0.263367 0.754598 0.354867
Si Si5 0.050686 0.501481 0.795335
Si Si6 0.457192 0.031995 0.294788
Si Si7 0.087283 0.363078 0.582061
O O1 0.548432 0.400881 0.372978
O O2 0.763180 0.613893 0.391141
O O3 0.683848 0.032265 0.507321
O O4 0.543172 0.795952 0.288969
O O5 0.124116 0.404915 0.894502
O O6 0.061907 0.856928 0.865719
O O7 0.178218 0.292907 0.080219
O O8 0.925585 0.169194 0.913483
O O9 0.749575 0.612982 0.711323
O O10 0.660907 0.992795 0.825861
O O11 0.106360 0.727001 0.284212
O O12 0.369772 0.929393 0.340706
O O13 0.094288 0.480283 0.705052
O O14 0.000000 0.500000 0.500000
O O15 0.000000 0.000000 0.500000
#
# Coordination Sequence:
#
# PCOD9036905 Si02
#       7
#     2   2   2   2   2   2   2
#     4  12  27  39  63  94 134 171 210 258 317 394
#     4  10  23  39  65  98 127 167 216 267 322 366
#     4  10  23  39  65  95 136 170 210 261 323 387
#     4  11  23  39  63  96 133 170 202 260 324 389
#     4  11  23  40  68  94 127 164 216 274 315 368
#     4  12  24  40  60  96 136 170 208 251 328 391
#     4  12  25  46  69  91 126 173 218 267 314 371
#
# _framework density 21.534822999999999
#
# number of rings (size 3 to 8) (size 9 to 14) (size 15 to 20)
#    0.000    0.857    4.286    2.571    4.000    1.714 
#    0.000    0.000    0.000    5.143    0.000    0.000 
#    0.000    0.000    0.000    0.000    0.000    0.000 
#
# Total GULP energy -78163.564556 kJ/mol
# GULP energy per Si atom -5583.111754 kJ/mol
# Density = 2.148581 g / cm^3
# Si number density = 21.534823 Si / 1000 Ang^3
#
#
#
# Elastic Constant Matrix: (Units=GPa)
#
#
# Indices 1 2 3 4 5 6 
#
# 1 124.1175 38.2208 56.3661 -17.9219 17.5358 -7.2243
# 2 38.2208 122.3034 35.6854 -18.6527 11.9797 -18.3748
# 3 56.3661 35.6854 74.3527 -12.8295 -0.8171 -8.3011
# 4 -17.9219 -18.6527 -12.8295 44.7839 -3.9671 10.4397
# 5 17.5358 11.9797 -0.8171 -3.9671 30.9670 -9.0868
# 6 -7.2243 -18.3748 -8.3011 10.4397 -9.0868 28.1900
#
#
#
# Elastic Compliance Matrix: (Units=1/GPa)
#
#
# Indices 1 2 3 4 5 6 
#
# 1 0.014618 -0.000699 -0.010830 0.002529 -0.009073 -0.003759
# 2 -0.000699 0.010655 -0.003818 0.001880 -0.002358 0.004186
# 3 -0.010830 -0.003818 0.024263 0.000787 0.009738 0.004728
# 4 0.002529 0.001880 0.000787 0.026097 -0.001120 -0.007920
# 5 -0.009073 -0.002358 0.009738 -0.001120 0.042285 0.013050
# 6 -0.003759 0.004186 0.004728 -0.007920 0.013050 0.045771
#
#
# Mechanical properties :
#
#
# Convention : Reuss Voigt Hill
#
# Bulk Modulus (GPa) = 53.07183 64.59092 58.83137
# Shear Modulus (GPa) = 24.91725 33.48826 29.20275
#
# Velocity S-wave (km/s) = 3.40526 3.94772 3.68648
# Velocity P-wave (km/s) = 6.33713 7.13009 6.74527
#
# Compressibility (1/GPa) = 0.01884239
#
# Stress axis : x y z
#
# Youngs Moduli (GPa) = 68.40680 93.84849 41.21578
#
# Poissons Ratio (x) = 0.06559 0.44635
# Poissons Ratio (y) = 0.04781 0.15738
# Poissons Ratio (z) = 0.74082 0.35836
#
# Static dielectric constant tensor:
#      x y z
#    x 1.894930 0.007840 -0.017500 
#    y 0.007840 1.829480 -0.049160 
#    z -0.017500 -0.049160 1.872390 
# 
# From -- ./inp_files/510023.got.cif
#   From: 2010.05.17/outbox.cif.g08.bks.cpg/sg2_256_cif.got.tgz:510023.got - 2010.06.03 11:33:40.
