data_PCOD9036849
_publ_section_title
;
Structure prediction by ZEFSAII (Michael W. Deem and Ramdas Pophale) SiO2 
 PCOD9036849
Probable space group: P -1
;
_chemical_formula_sum "Si O2"
_cell_formula_units_Z 14
_cell_length_a 10.550756
_cell_length_b 10.468826
_cell_length_c 14.317625
_cell_angle_alpha 123.498688
_cell_angle_beta 34.296304
_cell_angle_gamma 100.933922
_cell_volume 612.244577
_symmetry_space_group_name_H-M "P -1"
_symmetry_group_IT_number 2
_symmetry_cell_setting 'triclinic'
loop_
_space_group_symop_operation_xyz
x,y,z
-x,-y,-z
loop_
_atom_site_type_symbol
_atom_site_label
_atom_site_fract_x
_atom_site_fract_y
_atom_site_fract_z
Si Si1 0.521887 0.660973 0.008281
Si Si2 0.271462 0.026176 0.422829
Si Si3 0.058684 0.398496 0.020140
Si Si4 0.275096 0.468827 0.359950
Si Si5 0.884426 0.595255 0.388912
Si Si6 0.792141 0.987338 0.185881
Si Si7 0.317200 0.808472 0.471837
O O1 0.505713 0.650854 0.902371
O O2 0.500000 0.500000 0.000000
O O3 0.542996 0.014630 0.287273
O O4 0.337116 0.865660 0.245607
O O5 0.318777 0.876987 0.602422
O O6 0.164535 0.981775 0.563254
O O7 0.099097 0.228119 0.561903
O O8 0.378055 0.315366 0.807928
O O9 0.050218 0.219795 0.951842
O O10 0.000000 0.500000 0.000000
O O11 0.860414 0.536580 0.276732
O O12 0.329714 0.375069 0.390396
O O13 0.168630 0.415581 0.180593
O O14 0.000000 0.500000 0.500000
O O15 0.776012 0.330035 0.522681
O O16 0.000000 0.000000 0.000000
#
# Coordination Sequence:
#
# PCOD9036849 Si02
#       7
#     2   2   2   2   2   2   2
#     4  11  21  44  65  89 129 169 213 259 311 367
#     4  11  23  41  66  94 123 167 214 256 314 384
#     4  11  21  39  64  93 127 165 208 257 315 385
#     4  10  23  39  64  89 127 169 205 264 313 361
#     4  11  22  40  65  95 128 160 213 262 315 367
#     4  11  23  39  62  93 130 162 203 268 320 370
#     4  11  21  41  64  90 128 167 210 258 316 376
#
# _framework density 22.866675999999998
#
# number of rings (size 3 to 8) (size 9 to 14) (size 15 to 20)
#    0.000    1.143    4.286    4.286    2.000    2.286 
#    0.000    4.286    0.000    0.000    0.000    0.000 
#    0.000    0.000    0.000    0.000    0.000    0.000 
#
# Total GULP energy -78235.757664 kJ/mol
# GULP energy per Si atom -5588.268405 kJ/mol
# Density = 2.281463 g / cm^3
# Si number density = 22.866676 Si / 1000 Ang^3
#
#
#
# Elastic Constant Matrix: (Units=GPa)
#
#
# Indices 1 2 3 4 5 6 
#
# 1 40.7290 42.5886 34.5147 -1.5572 9.7095 6.0257
# 2 42.5886 170.4753 64.0984 -6.2176 17.1751 10.7529
# 3 34.5147 64.0984 164.5802 -7.0746 49.6668 1.9408
# 4 -1.5572 -6.2176 -7.0746 50.0198 -4.1970 7.7845
# 5 9.7095 17.1751 49.6668 -4.1970 32.9375 3.5631
# 6 6.0257 10.7529 1.9408 7.7845 3.5631 45.1239
#
#
#
# Elastic Compliance Matrix: (Units=1/GPa)
#
#
# Indices 1 2 3 4 5 6 
#
# 1 0.036573 -0.007096 -0.005199 0.000092 0.001102 -0.003072
# 2 -0.007096 0.008410 -0.002048 0.000806 0.001026 -0.001188
# 3 -0.005199 -0.002048 0.013250 -0.000345 -0.017647 0.002065
# 4 0.000092 0.000806 -0.000345 0.020944 0.003180 -0.004054
# 5 0.001102 0.001026 -0.017647 0.003180 0.057023 -0.004684
# 6 -0.003072 -0.001188 0.002065 -0.004054 -0.004684 0.023835
#
#
# Mechanical properties :
#
#
# Convention : Reuss Voigt Hill
#
# Bulk Modulus (GPa) = 33.84375 73.13199 53.48787
# Shear Modulus (GPa) = 25.17995 41.25508 33.21752
#
# Velocity S-wave (km/s) = 3.32198 4.25215 3.81551
# Velocity P-wave (km/s) = 5.43568 7.49393 6.54621
#
# Compressibility (1/GPa) = 0.02954755
#
# Stress axis : x y z
#
# Youngs Moduli (GPa) = 27.34225 118.90860 75.46925
#
# Poissons Ratio (x) = 0.84379 0.39234
# Poissons Ratio (y) = 0.19402 0.15458
# Poissons Ratio (z) = 0.14214 0.24356
#
# Static dielectric constant tensor:
#      x y z
#    x 1.953730 -0.049070 -0.016870 
#    y -0.049070 1.845740 -0.030720 
#    z -0.016870 -0.030720 1.886530 
# 
# From -- ./inp_files/444850.got.cif
#   From: 2010.05.17/outbox.cif.g08.bks.cpg/sg2_223_cif.got.tgz:444850.got - 2010.06.03 11:33:40.
