data_PCOD9036684
_publ_section_title
;
Structure prediction by ZEFSAII (Michael W. Deem and Ramdas Pophale) SiO2 
 PCOD9036684
Probable space group: P -1
;
_chemical_formula_sum "Si O2"
_cell_formula_units_Z 16
_cell_length_a 8.623334
_cell_length_b 7.611908
_cell_length_c 12.122464
_cell_angle_alpha 90.689461
_cell_angle_beta 93.571906
_cell_angle_gamma 60.414581
_cell_volume 690.468501
_symmetry_space_group_name_H-M "P -1"
_symmetry_group_IT_number 2
_symmetry_cell_setting 'triclinic'
loop_
_space_group_symop_operation_xyz
x,y,z
-x,-y,-z
loop_
_atom_site_type_symbol
_atom_site_label
_atom_site_fract_x
_atom_site_fract_y
_atom_site_fract_z
Si Si1 0.682295 0.489703 0.777586
Si Si2 0.066344 0.731973 0.396245
Si Si3 0.269095 0.166302 0.765309
Si Si4 0.708030 0.937650 0.999170
Si Si5 0.339295 0.095298 0.235134
Si Si6 0.702179 0.446051 0.177304
Si Si7 0.993653 0.821166 0.638808
Si Si8 0.080335 0.760544 0.021702
O O1 0.751643 0.432379 0.655116
O O2 0.670600 0.700894 0.809395
O O3 0.493789 0.505547 0.795126
O O4 0.838555 0.318452 0.856616
O O5 0.896784 0.751144 0.322604
O O6 0.050165 0.703709 0.524739
O O7 0.049500 0.951024 0.382063
O O8 0.277733 0.355114 0.819169
O O9 0.459783 0.036931 0.713414
O O10 0.262347 0.033871 0.867780
O O11 0.692448 0.017001 0.871790
O O12 0.905452 0.739099 0.991635
O O13 0.500000 0.000000 0.000000
O O14 0.185034 0.158853 0.316911
O O15 0.758989 0.354297 0.057398
O O16 0.847486 0.289484 0.267738
O O17 0.000000 0.000000 0.000000
#
# Coordination Sequence:
#
# PCOD9036684 Si02
#       8
#     2   2   2   2   2   2   2   2
#     4  12  26  42  68 100 136 179 225 273 329 400
#     4  11  25  46  70  97 132 174 224 281 339 398
#     4  11  24  43  69  98 138 176 221 277 334 398
#     4  10  23  38  67  98 136 173 214 265 330 400
#     4  11  24  43  69  98 138 176 221 277 334 398
#     4  12  26  42  68 100 136 179 225 273 329 400
#     4  11  25  46  70  97 132 174 224 281 339 398
#     4  12  26  42  69 101 141 180 218 273 332 401
#
# _framework density 23.172671000000001
#
# number of rings (size 3 to 8) (size 9 to 14) (size 15 to 20)
#    0.000    0.750    2.500    4.125    7.000    4.000 
#    0.000    0.000    0.000    0.000    0.000    0.000 
#    0.000    0.000    0.000    0.000    0.000    0.000 
#
# Total GULP energy -89319.492099 kJ/mol
# GULP energy per Si atom -5582.468256 kJ/mol
# Density = 2.311993 g / cm^3
# Si number density = 23.172671 Si / 1000 Ang^3
#
#
#
# Elastic Constant Matrix: (Units=GPa)
#
#
# Indices 1 2 3 4 5 6 
#
# 1 124.5443 24.8916 25.5479 12.9883 -22.9642 -22.1082
# 2 24.8916 65.4721 -7.5945 9.6234 -8.7957 -0.8418
# 3 25.5479 -7.5945 108.6372 22.7467 -24.7687 -12.3952
# 4 12.9883 9.6234 22.7467 32.4906 -5.1766 -8.7433
# 5 -22.9642 -8.7957 -24.7687 -5.1766 28.9771 12.1538
# 6 -22.1082 -0.8418 -12.3952 -8.7433 12.1538 53.3924
#
#
#
# Elastic Compliance Matrix: (Units=1/GPa)
#
#
# Indices 1 2 3 4 5 6 
#
# 1 0.010396 -0.003203 -0.000991 -0.000972 0.005113 0.002701
# 2 -0.003203 0.019129 0.005023 -0.007469 0.007386 -0.002763
# 3 -0.000991 0.005023 0.014349 -0.009593 0.011819 -0.001262
# 4 -0.000972 -0.007469 -0.009593 0.040532 -0.006222 0.005306
# 5 0.005113 0.007386 0.011819 -0.006222 0.053215 -0.008155
# 6 0.002701 -0.002763 -0.001262 0.005306 -0.008155 0.022237
#
#
# Mechanical properties :
#
#
# Convention : Reuss Voigt Hill
#
# Bulk Modulus (GPa) = 21.96340 42.70485 32.33413
# Shear Modulus (GPa) = 28.83885 40.02593 34.43239
#
# Velocity S-wave (km/s) = 3.53160 4.16058 3.85893
# Velocity P-wave (km/s) = 5.11159 6.44589 5.81712
#
# Compressibility (1/GPa) = 0.04553029
#
# Stress axis : x y z
#
# Youngs Moduli (GPa) = 96.18723 52.27778 69.69292
#
# Poissons Ratio (x) = 0.16745 0.06910
# Poissons Ratio (y) = 0.30810 -0.35007
# Poissons Ratio (z) = 0.09537 -0.26259
#
# Static dielectric constant tensor:
#      x y z
#    x 2.137750 0.149500 0.013400 
#    y 0.149500 1.926980 0.027320 
#    z 0.013400 0.027320 1.858870 
# 
# From -- ./inp_files/382313.got.cif
#   From: 2010.05.17/outbox.cif.g08.bks.cpg/sg2_192_cif.got.tgz:382313.got - 2010.06.03 11:33:40.
