data_PCOD9036039
_publ_section_title
;
Structure prediction by ZEFSAII (Michael W. Deem and Ramdas Pophale) SiO2 
 PCOD9036039
Probable space group: P -1
;
_chemical_formula_sum "Si O2"
_cell_formula_units_Z 14
_cell_length_a 6.384721
_cell_length_b 19.419520
_cell_length_c 12.632819
_cell_angle_alpha 144.745770
_cell_angle_beta 122.540050
_cell_angle_gamma 81.021367
_cell_volume 619.807537
_symmetry_space_group_name_H-M "P -1"
_symmetry_group_IT_number 2
_symmetry_cell_setting 'triclinic'
loop_
_space_group_symop_operation_xyz
x,y,z
-x,-y,-z
loop_
_atom_site_type_symbol
_atom_site_label
_atom_site_fract_x
_atom_site_fract_y
_atom_site_fract_z
Si Si1 0.713129 0.854502 0.790006
Si Si2 0.202362 0.386851 0.532805
Si Si3 0.378899 0.389269 0.231891
Si Si4 0.647772 0.368492 0.759880
Si Si5 0.661841 0.961353 0.349848
Si Si6 0.704099 0.235290 0.804833
Si Si7 0.499870 0.824371 0.917605
O O1 0.583113 0.588745 0.279633
O O2 0.448414 0.761825 0.514477
O O3 0.624698 0.892668 0.922774
O O4 0.000000 0.000000 0.000000
O O5 0.367935 0.533308 0.693564
O O6 0.206997 0.262660 0.312401
O O7 0.851213 0.312388 0.366546
O O8 0.500000 0.500000 0.500000
O O9 0.323580 0.241075 0.071080
O O10 0.064802 0.356678 0.065641
O O11 0.585467 0.302667 0.777531
O O12 0.000000 0.500000 0.000000
O O13 0.449669 0.822169 0.194693
O O14 0.660050 0.094943 0.560538
O O15 0.541749 0.927463 0.154193
O O16 0.000000 0.000000 0.500000
#
# Coordination Sequence:
#
# PCOD9036039 Si02
#       7
#     2   2   2   2   2   2   2
#     4  10  25  44  70  98 136 187 224 283 343 409
#     4  10  24  42  67 102 130 179 226 283 340 405
#     4  12  21  43  72  95 138 179 222 288 347 404
#     4  10  22  47  70  95 141 183 226 280 354 403
#     4  11  26  43  69 105 136 182 228 290 341 406
#     4  11  24  44  70 100 143 178 225 285 347 405
#     4  12  25  44  71 102 136 175 242 278 346 413
#
# _framework density 22.587658999999999
#
# number of rings (size 3 to 8) (size 9 to 14) (size 15 to 20)
#    0.857    0.286    4.286    1.286    4.000    0.571 
#    2.571    0.714    0.000    0.000    0.000    0.000 
#    0.000    0.000    0.000    0.000    0.000    0.000 
#
# Total GULP energy -78246.474791 kJ/mol
# GULP energy per Si atom -5589.033914 kJ/mol
# Density = 2.253625 g / cm^3
# Si number density = 22.587659 Si / 1000 Ang^3
#
#
#
# Elastic Constant Matrix: (Units=GPa)
#
#
# Indices 1 2 3 4 5 6 
#
# 1 44.7725 26.3369 21.4203 -6.3403 6.7814 22.2550
# 2 26.3369 117.2668 45.1820 -8.0676 9.4318 31.0112
# 3 21.4203 45.1820 126.0834 -10.6446 6.7101 28.9635
# 4 -6.3403 -8.0676 -10.6446 34.2637 -2.1787 7.0089
# 5 6.7814 9.4318 6.7101 -2.1787 43.8644 7.1377
# 6 22.2550 31.0112 28.9635 7.0089 7.1377 45.1551
#
#
#
# Elastic Compliance Matrix: (Units=1/GPa)
#
#
# Indices 1 2 3 4 5 6 
#
# 1 0.033087 -0.002497 -0.000388 0.008464 -0.001592 -0.015405
# 2 -0.002497 0.011684 -0.002184 0.002731 -0.000729 -0.005701
# 3 -0.000388 -0.002184 0.010372 0.003774 0.000034 -0.005553
# 4 0.008464 0.002731 0.003774 0.035584 0.001613 -0.014246
# 5 -0.001592 -0.000729 0.000034 0.001613 0.023721 -0.002737
# 6 -0.015405 -0.005701 -0.005553 -0.014246 -0.002737 0.039860
#
#
# Mechanical properties :
#
#
# Convention : Reuss Voigt Hill
#
# Bulk Modulus (GPa) = 22.21965 52.66678 37.44322
# Shear Modulus (GPa) = 27.86337 37.66888 32.76612
#
# Velocity S-wave (km/s) = 3.51603 4.08815 3.81283
# Velocity P-wave (km/s) = 5.13242 6.75657 5.99970
#
# Compressibility (1/GPa) = 0.04500521
#
# Stress axis : x y z
#
# Youngs Moduli (GPa) = 30.22340 85.58734 96.41106
#
# Poissons Ratio (x) = 0.21373 0.03742
# Poissons Ratio (y) = 0.07547 0.21053
# Poissons Ratio (z) = 0.01173 0.18690
#
# Static dielectric constant tensor:
#      x y z
#    x 1.868270 -0.010620 -0.039680 
#    y -0.010620 1.826810 -0.005910 
#    z -0.039680 -0.005910 1.825890 
# 
# From -- ./inp_files/370461.got.cif
#   From: 2010.05.17/outbox.cif.g08.bks.cpg/sg2_186_cif.got.tgz:370461.got - 2010.06.03 11:33:40.
