data_PCOD9036201
_publ_section_title
;
Structure prediction by ZEFSAII (Michael W. Deem and Ramdas Pophale) SiO2 
 PCOD9036201
Probable space group: P -1
;
_chemical_formula_sum "Si O2"
_cell_formula_units_Z 14
_cell_length_a 5.143288
_cell_length_b 8.837555
_cell_length_c 15.600043
_cell_angle_alpha 61.622441
_cell_angle_beta 118.815551
_cell_angle_gamma 121.497880
_cell_volume 505.492091
_symmetry_space_group_name_H-M "P -1"
_symmetry_group_IT_number 2
_symmetry_cell_setting 'triclinic'
loop_
_space_group_symop_operation_xyz
x,y,z
-x,-y,-z
loop_
_atom_site_type_symbol
_atom_site_label
_atom_site_fract_x
_atom_site_fract_y
_atom_site_fract_z
Si Si1 0.402987 0.354632 0.612731
Si Si2 0.157784 0.517603 0.676757
Si Si3 0.296930 0.174883 0.470378
Si Si4 0.491466 0.035686 0.798815
Si Si5 0.232283 0.650301 0.930266
Si Si6 0.146753 0.335862 0.880553
Si Si7 0.591957 0.919046 0.660894
O O1 0.263929 0.485730 0.606915
O O2 0.317248 0.321907 0.508252
O O3 0.784223 0.415329 0.663936
O O4 0.295033 0.156620 0.698836
O O5 0.301034 0.401705 0.793596
O O6 0.264519 0.732312 0.659254
O O7 0.252724 0.173368 0.361458
O O8 0.584272 0.103395 0.562035
O O9 0.000000 0.000000 0.500000
O O10 0.249900 0.857226 0.859815
O O11 0.632333 0.969976 0.753918
O O12 0.804021 0.165862 0.867486
O O13 0.137772 0.528539 0.862397
O O14 0.596533 0.695733 0.007779
O O15 0.000000 0.500000 0.000000
#
# Coordination Sequence:
#
# PCOD9036201 Si02
#       7
#     2   2   2   2   2   2   2
#     4  10  26  44  72 102 145 185 241 294 355 424
#     4  11  24  46  71 105 140 188 240 294 353 427
#     4  10  24  43  65 103 139 187 240 293 354 421
#     4  10  22  48  70 102 141 195 231 294 363 424
#     4  11  24  45  69 105 139 184 238 298 355 426
#     4  10  24  43  69 103 142 178 241 292 353 434
#     4  10  23  43  71  98 142 189 233 294 355 424
#
# _framework density 27.695784
#
# number of rings (size 3 to 8) (size 9 to 14) (size 15 to 20)
#    0.000    1.714    1.429    0.429   14.000    1.714 
#   12.857    0.000    0.000    0.000    0.000    0.000 
#    0.000    0.000    0.000    0.000    0.000    0.000 
#
# Total GULP energy -78236.952611 kJ/mol
# GULP energy per Si atom -5588.353758 kJ/mol
# Density = 2.763275 g / cm^3
# Si number density = 27.695784 Si / 1000 Ang^3
#
#
#
# Elastic Constant Matrix: (Units=GPa)
#
#
# Indices 1 2 3 4 5 6 
#
# 1 73.9780 26.5118 25.3072 8.9694 -11.0635 -13.9962
# 2 26.5118 189.3621 46.4276 22.6367 7.4137 -8.8607
# 3 25.3072 46.4276 99.5609 8.9855 -12.4893 -1.7256
# 4 8.9694 22.6367 8.9855 57.6143 1.5514 4.6294
# 5 -11.0635 7.4137 -12.4893 1.5514 42.5832 4.3233
# 6 -13.9962 -8.8607 -1.7256 4.6294 4.3233 39.9996
#
#
#
# Elastic Compliance Matrix: (Units=1/GPa)
#
#
# Indices 1 2 3 4 5 6 
#
# 1 0.016739 -0.001226 -0.002990 -0.002175 0.003220 0.005360
# 2 -0.001226 0.006541 -0.002831 -0.001985 -0.002355 0.001382
# 3 -0.002990 -0.002831 0.012579 -0.000362 0.003568 -0.001475
# 4 -0.002175 -0.001985 -0.000362 0.018817 -0.000674 -0.003322
# 5 0.003220 -0.002355 0.003568 -0.000674 0.026002 -0.001973
# 6 0.005360 0.001382 -0.001475 -0.003322 -0.001973 0.027716
#
#
# Mechanical properties :
#
#
# Convention : Reuss Voigt Hill
#
# Bulk Modulus (GPa) = 45.94419 62.15490 54.04955
# Shear Modulus (GPa) = 38.53793 45.68306 42.11050
#
# Velocity S-wave (km/s) = 3.73429 4.06576 3.90355
# Velocity P-wave (km/s) = 5.93449 6.67317 6.31464
#
# Compressibility (1/GPa) = 0.02176554
#
# Stress axis : x y z
#
# Youngs Moduli (GPa) = 59.73993 152.88689 79.49773
#
# Poissons Ratio (x) = 0.18739 0.23771
# Poissons Ratio (y) = 0.07322 0.22505
# Poissons Ratio (z) = 0.17863 0.43281
#
# Static dielectric constant tensor:
#      x y z
#    x 2.299060 0.000930 0.039960 
#    y 0.000930 2.287540 -0.067000 
#    z 0.039960 -0.067000 2.256290 
# 
# From -- ./inp_files/139451.got.cif
#   From: 2010.05.17/outbox.cif.g08.bks.cpg/sg2_70_cif.got.tgz:139451.got - 2010.06.03 11:33:40.
