data_PCOD9036308
_publ_section_title
;
Structure prediction by ZEFSAII (Michael W. Deem and Ramdas Pophale) SiO2 
 PCOD9036308
Probable space group: P -1
;
_chemical_formula_sum "Si O2"
_cell_formula_units_Z 16
_cell_length_a 9.085147
_cell_length_b 14.208393
_cell_length_c 8.123801
_cell_angle_alpha 87.258290
_cell_angle_beta 71.820394
_cell_angle_gamma 47.584360
_cell_volume 715.513640
_symmetry_space_group_name_H-M "P -1"
_symmetry_group_IT_number 2
_symmetry_cell_setting 'triclinic'
loop_
_space_group_symop_operation_xyz
x,y,z
-x,-y,-z
loop_
_atom_site_type_symbol
_atom_site_label
_atom_site_fract_x
_atom_site_fract_y
_atom_site_fract_z
Si Si1 0.888429 0.687208 0.436746
Si Si2 0.696167 0.593639 0.651372
Si Si3 0.085630 0.174353 0.834673
Si Si4 0.785133 0.233292 0.231878
Si Si5 0.182421 0.361512 0.046582
Si Si6 0.848499 0.018908 0.410087
Si Si7 0.122834 0.193690 0.267528
Si Si8 0.512230 0.091716 0.775864
O O1 0.731076 0.664862 0.505205
O O2 0.950534 0.706976 0.241147
O O3 0.799839 0.801710 0.583587
O O4 0.112208 0.557504 0.445188
O O5 0.464865 0.645065 0.718878
O O6 0.743107 0.613633 0.817440
O O7 0.334753 0.085492 0.805138
O O8 0.055907 0.110858 0.706909
O O9 0.930600 0.207389 0.031910
O O10 0.809680 0.113210 0.275573
O O11 0.891105 0.242955 0.347309
O O12 0.103215 0.293466 0.150289
O O13 0.391154 0.234019 0.884076
O O14 0.000000 0.500000 0.000000
O O15 0.632148 0.076706 0.571917
O O16 0.000000 0.000000 0.500000
O O17 0.297318 0.038978 0.174694
#
# Coordination Sequence:
#
# PCOD9036308 Si02
#       8
#     2   2   2   2   2   2   2   2
#     4  10  22  49  71  98 136 187 239 278 343 428
#     4  10  25  43  75  99 139 187 234 285 346 419
#     4  12  25  42  71 100 140 182 230 290 346 423
#     4  12  26  43  66 107 144 176 228 296 356 406
#     4  11  25  46  71 106 141 183 235 288 346 424
#     4  12  26  43  66 104 141 177 230 288 356 406
#     4  11  24  45  72 103 141 181 236 290 348 416
#     4  12  24  44  76  98 139 189 237 280 351 413
#
# _framework density 22.361559
#
# number of rings (size 3 to 8) (size 9 to 14) (size 15 to 20)
#    0.000    0.750    3.750    2.625    5.250    3.000 
#    0.000    0.000    0.000    0.000    0.000    0.000 
#    0.000    0.000    0.000    0.000    0.000    0.000 
#
# Total GULP energy -89303.342937 kJ/mol
# GULP energy per Si atom -5581.458934 kJ/mol
# Density = 2.231066 g / cm^3
# Si number density = 22.361559 Si / 1000 Ang^3
#
#
#
# Elastic Constant Matrix: (Units=GPa)
#
#
# Indices 1 2 3 4 5 6 
#
# 1 78.6340 25.9459 25.2032 8.6638 -22.5213 -19.2740
# 2 25.9459 122.1238 32.9294 -6.6589 -9.2399 -3.9060
# 3 25.2032 32.9294 118.5320 -7.1470 -33.6658 6.2600
# 4 8.6638 -6.6589 -7.1470 44.5336 8.4618 -5.4760
# 5 -22.5213 -9.2399 -33.6658 8.4618 44.9478 5.6225
# 6 -19.2740 -3.9060 6.2600 -5.4760 5.6225 37.2287
#
#
#
# Elastic Compliance Matrix: (Units=1/GPa)
#
#
# Indices 1 2 3 4 5 6 
#
# 1 0.018876 -0.002977 -0.001788 -0.004841 0.007426 0.007927
# 2 -0.002977 0.009456 -0.002399 0.001996 -0.001772 0.000416
# 3 -0.001788 -0.002399 0.012045 -0.000191 0.008228 -0.004473
# 4 -0.004841 0.001996 -0.000191 0.025357 -0.007252 0.002561
# 5 0.007426 -0.001772 0.008228 -0.007252 0.033617 -0.003868
# 6 0.007927 0.000416 -0.004473 0.002561 -0.003868 0.032722
#
#
# Mechanical properties :
#
#
# Convention : Reuss Voigt Hill
#
# Bulk Modulus (GPa) = 38.38851 54.16078 46.27465
# Shear Modulus (GPa) = 32.24102 41.02278 36.63190
#
# Velocity S-wave (km/s) = 3.80123 4.28778 4.05181
# Velocity P-wave (km/s) = 6.03906 6.98473 6.52904
#
# Compressibility (1/GPa) = 0.02604946
#
# Stress axis : x y z
#
# Youngs Moduli (GPa) = 52.97834 105.75631 83.02314
#
# Poissons Ratio (x) = 0.31480 0.14842
# Poissons Ratio (y) = 0.15770 0.19916
# Poissons Ratio (z) = 0.09471 0.25370
#
# Static dielectric constant tensor:
#      x y z
#    x 1.817520 -0.017000 0.057790 
#    y -0.017000 1.867490 -0.050500 
#    z 0.057790 -0.050500 1.902690 
# 
# From -- ./inp_files/206803.got.cif
#   From: 2010.05.17/outbox.cif.g08.bks.cpg/sg2_104_cif.got.tgz:206803.got - 2010.06.03 11:33:40.
