data_PCOD9036674
_publ_section_title
;
Structure prediction by ZEFSAII (Michael W. Deem and Ramdas Pophale) SiO2 
 PCOD9036674
Probable space group: P -1
;
_chemical_formula_sum "Si O2"
_cell_formula_units_Z 14
_cell_length_a 9.268856
_cell_length_b 11.927880
_cell_length_c 18.323368
_cell_angle_alpha 35.676883
_cell_angle_beta 147.936858
_cell_angle_gamma 130.791823
_cell_volume 623.143637
_symmetry_space_group_name_H-M "P -1"
_symmetry_group_IT_number 2
_symmetry_cell_setting 'triclinic'
loop_
_space_group_symop_operation_xyz
x,y,z
-x,-y,-z
loop_
_atom_site_type_symbol
_atom_site_label
_atom_site_fract_x
_atom_site_fract_y
_atom_site_fract_z
Si Si1 0.865121 0.685619 0.386359
Si Si2 0.278296 0.762533 0.145026
Si Si3 0.876319 0.588551 0.165965
Si Si4 0.668767 0.810481 0.088346
Si Si5 0.892850 0.012320 0.572450
Si Si6 0.320287 0.811920 0.746392
Si Si7 0.934089 0.281797 0.080957
O O1 0.576950 0.651682 0.316359
O O2 0.776389 0.835549 0.202931
O O3 0.000000 0.500000 0.500000
O O4 0.044535 0.795122 0.460373
O O5 0.088835 0.756733 0.994768
O O6 0.137262 0.665848 0.201637
O O7 0.321910 0.986654 0.055560
O O8 0.850777 0.643607 0.210593
O O9 0.850339 0.366923 0.253058
O O10 0.609464 0.713772 0.950509
O O11 0.367889 0.745112 0.003028
O O12 0.149263 0.934131 0.671180
O O13 0.866440 0.855402 0.707693
O O14 0.659337 0.064933 0.384054
O O15 0.000000 0.500000 0.000000
#
# Coordination Sequence:
#
# PCOD9036674 Si02
#       7
#     2   2   2   2   2   2   2
#     4  11  22  41  67  95 127 177 220 274 334 386
#     4  11  22  40  67  97 130 175 219 273 326 397
#     4  11  22  41  65 101 129 177 232 253 336 404
#     4  11  21  42  67  94 133 177 213 276 328 393
#     4  11  20  43  64  94 135 176 218 272 338 380
#     4  10  23  38  67  93 139 179 209 280 324 391
#     4  11  21  38  68  95 129 176 223 266 327 395
#
# _framework density 22.466729999999998
#
# number of rings (size 3 to 8) (size 9 to 14) (size 15 to 20)
#    0.000    1.143    4.286    3.000    2.000    0.000 
#    0.000    9.286    0.000    0.000    0.000    0.000 
#    0.000    0.000    0.000    0.000    0.000    0.000 
#
# Total GULP energy -78273.125764 kJ/mol
# GULP energy per Si atom -5590.937555 kJ/mol
# Density = 2.241559 g / cm^3
# Si number density = 22.466730 Si / 1000 Ang^3
#
#
#
# Elastic Constant Matrix: (Units=GPa)
#
#
# Indices 1 2 3 4 5 6 
#
# 1 92.6609 26.2217 -0.4350 -15.5176 0.5649 -11.3898
# 2 26.2217 97.2236 11.9402 -28.6038 -2.1226 -18.4980
# 3 -0.4350 11.9402 69.1605 -12.6832 -10.2802 -9.2257
# 4 -15.5176 -28.6038 -12.6832 35.5939 -17.4329 -3.9246
# 5 0.5649 -2.1226 -10.2802 -17.4329 38.6899 -1.3473
# 6 -11.3898 -18.4980 -9.2257 -3.9246 -1.3473 36.4794
#
#
#
# Elastic Compliance Matrix: (Units=1/GPa)
#
#
# Indices 1 2 3 4 5 6 
#
# 1 0.013434 0.001011 0.004132 0.012243 0.006729 0.007318
# 2 0.001011 0.021933 0.006792 0.030968 0.017544 0.017135
# 3 0.004132 0.006792 0.022684 0.025950 0.018518 0.013947
# 4 0.012243 0.030968 0.025950 0.098304 0.054055 0.038661
# 5 0.006729 0.017544 0.018518 0.054055 0.056809 0.023594
# 6 0.007318 0.017135 0.013947 0.038661 0.023594 0.046944
#
#
# Mechanical properties :
#
#
# Convention : Reuss Voigt Hill
#
# Bulk Modulus (GPa) = 12.20690 37.16653 24.68672
# Shear Modulus (GPa) = 18.97199 36.90719 27.93959
#
# Velocity S-wave (km/s) = 2.90909 4.05748 3.53029
# Velocity P-wave (km/s) = 4.09009 6.20723 5.25636
#
# Compressibility (1/GPa) = 0.08192086
#
# Stress axis : x y z
#
# Youngs Moduli (GPa) = 74.43649 45.59330 44.08308
#
# Poissons Ratio (x) = -0.04607 -0.18213
# Poissons Ratio (y) = -0.07522 -0.29943
# Poissons Ratio (z) = -0.30754 -0.30969
#
# Static dielectric constant tensor:
#      x y z
#    x 1.803440 -0.031970 -0.011400 
#    y -0.031970 1.800850 0.020140 
#    z -0.011400 0.020140 1.912830 
# 
# From -- ./inp_files/153883.got.cif
#   From: 2010.05.17/outbox.cif.g08.bks.cpg/sg2_77_cif.got.tgz:153883.got - 2010.06.03 11:33:40.
