data_PCOD9036305
_publ_section_title
;
Structure prediction by ZEFSAII (Michael W. Deem and Ramdas Pophale) SiO2 
 PCOD9036305
Probable space group: P -1
;
_chemical_formula_sum "Si O2"
_cell_formula_units_Z 16
_cell_length_a 9.343321
_cell_length_b 14.261479
_cell_length_c 18.370128
_cell_angle_alpha 18.971818
_cell_angle_beta 52.287210
_cell_angle_gamma 51.658630
_cell_volume 621.141013
_symmetry_space_group_name_H-M "P -1"
_symmetry_group_IT_number 2
_symmetry_cell_setting 'triclinic'
loop_
_space_group_symop_operation_xyz
x,y,z
-x,-y,-z
loop_
_atom_site_type_symbol
_atom_site_label
_atom_site_fract_x
_atom_site_fract_y
_atom_site_fract_z
Si Si1 0.557240 0.815797 0.744121
Si Si2 0.961781 0.041795 0.823191
Si Si3 0.425925 0.694362 0.253400
Si Si4 0.980180 0.618244 0.761926
Si Si5 0.755818 0.227463 0.890480
Si Si6 0.212032 0.167013 0.534980
Si Si7 0.537353 0.079457 0.717011
Si Si8 0.068274 0.099027 0.283305
O O1 0.771918 0.755983 0.704406
O O2 0.418864 0.004541 0.593752
O O3 0.531856 0.962145 0.723156
O O4 0.500000 0.500000 0.000000
O O5 0.921999 0.088221 0.887585
O O6 0.779682 0.229892 0.707393
O O7 0.131906 0.157881 0.649176
O O8 0.973183 0.707520 0.042452
O O9 0.392948 0.612282 0.240179
O O10 0.532823 0.426820 0.460467
O O11 0.500000 0.000000 0.000000
O O12 0.643152 0.001519 0.128812
O O13 0.101066 0.823436 0.532769
O O14 0.990754 0.642421 0.828997
O O15 0.802309 0.492049 0.730627
O O16 0.085196 0.984235 0.661944
O O17 0.733254 0.909880 0.808669
#
# Coordination Sequence:
#
# PCOD9036305 Si02
#       8
#     2   2   2   2   2   2   2   2
#     4  11  23  45  75 103 149 199 240 313 371 442
#     4  10  23  43  73 104 153 189 246 307 369 438
#     4  10  23  44  74 108 147 198 236 309 368 434
#     4  10  22  49  70 105 148 194 246 301 378 442
#     4  10  26  44  76 110 148 199 241 310 373 442
#     4  12  24  47  72 113 149 189 255 309 375 435
#     4  11  24  50  76 109 150 196 256 296 376 448
#     4  10  26  44  76 108 141 195 247 312 363 444
#
# _framework density 25.759046000000001
#
# number of rings (size 3 to 8) (size 9 to 14) (size 15 to 20)
#    0.750    0.750    2.500    1.125    3.500    2.500 
#    0.000    1.875    0.000    0.000    0.000    0.000 
#    0.000    0.000    0.000    0.000    0.000    0.000 
#
# Total GULP energy -89538.528605 kJ/mol
# GULP energy per Si atom -5596.158038 kJ/mol
# Density = 2.570042 g / cm^3
# Si number density = 25.759046 Si / 1000 Ang^3
#
#
#
# Elastic Constant Matrix: (Units=GPa)
#
#
# Indices 1 2 3 4 5 6 
#
# 1 128.1149 54.3597 15.3612 -23.5841 -10.3588 -1.5128
# 2 54.3597 138.3604 41.0439 2.0614 1.9600 -1.2480
# 3 15.3612 41.0439 132.8523 -25.2742 -20.2455 -0.6804
# 4 -23.5841 2.0614 -25.2742 47.3329 -6.7931 -3.3325
# 5 -10.3588 1.9600 -20.2455 -6.7931 38.7702 -5.1552
# 6 -1.5128 -1.2480 -0.6804 -3.3325 -5.1552 47.3279
#
#
#
# Elastic Compliance Matrix: (Units=1/GPa)
#
#
# Indices 1 2 3 4 5 6 
#
# 1 0.012281 -0.006034 0.003317 0.009304 0.007177 0.001718
# 2 -0.006034 0.011307 -0.005134 -0.007224 -0.006285 -0.001162
# 3 0.003317 -0.005134 0.012030 0.009777 0.009387 0.001855
# 4 0.009304 -0.007224 0.009777 0.033661 0.014411 0.004187
# 5 0.007177 -0.006285 0.009387 0.014411 0.036140 0.005150
# 6 0.001718 -0.001162 0.001855 0.004187 0.005150 0.022036
#
#
# Mechanical properties :
#
#
# Convention : Reuss Voigt Hill
#
# Bulk Modulus (GPa) = 50.20915 68.98413 59.59664
# Shear Modulus (GPa) = 33.37880 45.92371 39.65125
#
# Velocity S-wave (km/s) = 3.60364 4.22692 3.92767
# Velocity P-wave (km/s) = 6.07035 7.11767 6.61477
#
# Compressibility (1/GPa) = 0.01991669
#
# Stress axis : x y z
#
# Youngs Moduli (GPa) = 81.42468 88.44015 83.12730
#
# Poissons Ratio (x) = 0.53363 -0.27570
# Poissons Ratio (y) = 0.49130 0.42674
# Poissons Ratio (z) = -0.27005 0.45401
#
# Static dielectric constant tensor:
#      x y z
#    x 2.073770 0.026820 0.015890 
#    y 0.026820 2.113910 0.020580 
#    z 0.015890 0.020580 2.022280 
# 
# From -- ./inp_files/299129.got.cif
#   From: 2010.05.17/outbox.cif.g08.bks.cpg/sg2_150_cif.got.tgz:299129.got - 2010.06.03 11:33:40.
