data_PCOD9036611
_publ_section_title
;
Structure prediction by ZEFSAII (Michael W. Deem and Ramdas Pophale) SiO2 
 PCOD9036611
Probable space group: P -1
;
_chemical_formula_sum "Si O2"
_cell_formula_units_Z 16
_cell_length_a 15.056557
_cell_length_b 8.449483
_cell_length_c 11.442974
_cell_angle_alpha 71.471356
_cell_angle_beta 144.606104
_cell_angle_gamma 97.483428
_cell_volume 777.168553
_symmetry_space_group_name_H-M "P -1"
_symmetry_group_IT_number 2
_symmetry_cell_setting 'triclinic'
loop_
_space_group_symop_operation_xyz
x,y,z
-x,-y,-z
loop_
_atom_site_type_symbol
_atom_site_label
_atom_site_fract_x
_atom_site_fract_y
_atom_site_fract_z
Si Si1 0.312842 0.276732 0.412790
Si Si2 0.031093 0.093793 0.131762
Si Si3 0.078116 0.736778 0.355565
Si Si4 0.264544 0.186185 0.925193
Si Si5 0.376483 0.431777 0.808245
Si Si6 0.216025 0.666187 0.288778
Si Si7 0.517045 0.809882 0.615267
Si Si8 0.525146 0.118878 0.887580
O O1 0.163179 0.200044 0.243075
O O2 0.274201 0.466604 0.378261
O O3 0.397654 0.297808 0.377122
O O4 0.410643 0.146278 0.644801
O O5 0.085214 0.937040 0.316244
O O6 0.862440 0.228114 0.933841
O O7 0.000000 0.000000 0.000000
O O8 0.233580 0.597036 0.592718
O O9 0.076643 0.684003 0.230425
O O10 0.914570 0.743932 0.242496
O O11 0.379535 0.202734 0.153860
O O12 0.312239 0.990946 0.970689
O O13 0.300360 0.304198 0.832213
O O14 0.480489 0.312370 0.847198
O O15 0.500000 0.500000 0.000000
O O16 0.351086 0.755352 0.462971
O O17 0.500000 0.000000 0.500000
O O18 0.500000 0.000000 0.000000
#
# Coordination Sequence:
#
# PCOD9036611 Si02
#       8
#     2   2   2   2   2   2   2   2
#     4  12  23  42  68  96 138 178 231 285 338 406
#     4  10  23  38  63  94 133 175 220 274 342 401
#     4  11  22  43  66  98 134 176 224 276 345 406
#     4  11  24  42  68  99 137 175 225 281 340 405
#     4  11  24  45  73  96 133 179 231 280 338 408
#     4  11  23  41  63 100 137 179 227 277 340 407
#     4  12  22  39  68 100 135 180 225 278 344 402
#     4  10  24  43  70  96 132 175 233 274 338 397
#
# _framework density 20.587554000000001
#
# number of rings (size 3 to 8) (size 9 to 14) (size 15 to 20)
#    0.000    1.000    2.500    5.625    3.500    0.000 
#    0.000    1.875    0.000    0.000    0.000    0.000 
#    0.000    0.000    0.000    0.000    0.000    0.000 
#
# Total GULP energy -89075.314451 kJ/mol
# GULP energy per Si atom -5567.207153 kJ/mol
# Density = 2.054070 g / cm^3
# Si number density = 20.587554 Si / 1000 Ang^3
#
#
#
# Elastic Constant Matrix: (Units=GPa)
#
#
# Indices 1 2 3 4 5 6 
#
# 1 86.8889 30.4710 23.4275 -4.5327 15.3820 -15.8622
# 2 30.4710 100.7683 55.9821 -18.1693 15.8389 -3.5306
# 3 23.4275 55.9821 130.5199 -24.8262 0.4475 -5.0676
# 4 -4.5327 -18.1693 -24.8262 43.3813 3.1018 1.8974
# 5 15.3820 15.8389 0.4475 3.1018 34.3584 -5.9481
# 6 -15.8622 -3.5306 -5.0676 1.8974 -5.9481 32.9975
#
#
#
# Elastic Compliance Matrix: (Units=1/GPa)
#
#
# Indices 1 2 3 4 5 6 
#
# 1 0.014648 -0.002988 -0.001175 -0.000353 -0.004126 0.005818
# 2 -0.002988 0.015437 -0.005461 0.003570 -0.006372 -0.001977
# 3 -0.001175 -0.005461 0.010924 0.003612 0.002715 0.000810
# 4 -0.000353 0.003570 0.003612 0.026947 -0.004235 -0.001546
# 5 -0.004126 -0.006372 0.002715 -0.004235 0.034981 0.004301
# 6 0.005818 -0.001977 0.000810 -0.001546 0.004301 0.033879
#
#
# Mechanical properties :
#
#
# Convention : Reuss Voigt Hill
#
# Bulk Modulus (GPa) = 45.95158 59.77094 52.86126
# Shear Modulus (GPa) = 30.61538 36.03387 33.32463
#
# Velocity S-wave (km/s) = 3.86045 4.18817 4.02764
# Velocity P-wave (km/s) = 6.49918 7.24453 6.88195
#
# Compressibility (1/GPa) = 0.02176204
#
# Stress axis : x y z
#
# Youngs Moduli (GPa) = 68.27082 64.77936 91.54234
#
# Poissons Ratio (x) = 0.19355 0.10753
# Poissons Ratio (y) = 0.20398 0.49988
# Poissons Ratio (z) = 0.08019 0.35374
#
# Static dielectric constant tensor:
#      x y z
#    x 1.736600 -0.119920 0.004790 
#    y -0.119920 1.689050 -0.065350 
#    z 0.004790 -0.065350 1.823980 
# 
# From -- ./inp_files/382574.got.cif
#   From: 2010.05.17/outbox.cif.g08.bks.cpg/sg2_192_cif.got.tgz:382574.got - 2010.06.03 11:33:40.
