data_PCOD9036339
_publ_section_title
;
Structure prediction by ZEFSAII (Michael W. Deem and Ramdas Pophale) SiO2 
 PCOD9036339
Probable space group: P -1
;
_chemical_formula_sum "Si O2"
_cell_formula_units_Z 14
_cell_length_a 9.859478
_cell_length_b 23.810839
_cell_length_c 5.251667
_cell_angle_alpha 133.447417
_cell_angle_beta 124.647169
_cell_angle_gamma 40.942302
_cell_volume 583.422931
_symmetry_space_group_name_H-M "P -1"
_symmetry_group_IT_number 2
_symmetry_cell_setting 'triclinic'
loop_
_space_group_symop_operation_xyz
x,y,z
-x,-y,-z
loop_
_atom_site_type_symbol
_atom_site_label
_atom_site_fract_x
_atom_site_fract_y
_atom_site_fract_z
Si Si1 0.934445 0.093597 0.384489
Si Si2 0.398541 0.993299 0.620776
Si Si3 0.891254 0.354059 0.695398
Si Si4 0.570399 0.169033 0.595056
Si Si5 0.803769 0.552307 0.265328
Si Si6 0.608315 0.297015 0.381652
Si Si7 0.147428 0.294357 0.305794
O O1 0.795398 0.103313 0.500223
O O2 0.784513 0.196297 0.398751
O O3 0.150023 0.074361 0.616711
O O4 0.000000 0.000000 0.000000
O O5 0.500000 0.000000 0.500000
O O6 0.438880 0.890168 0.373210
O O7 0.500000 0.000000 0.000000
O O8 0.710600 0.346302 0.547218
O O9 0.013018 0.294129 0.384626
O O10 0.798749 0.466035 0.895037
O O11 0.047193 0.312183 0.976238
O O12 0.387134 0.201704 0.303553
O O13 0.540665 0.262282 0.968349
O O14 0.589344 0.630583 0.427413
O O15 0.848397 0.614829 0.338431
O O16 0.000000 0.500000 0.500000
#
# Coordination Sequence:
#
# PCOD9036339 Si02
#       7
#     2   2   2   2   2   2   2
#     4  12  27  52  75 108 153 200 251 310 383 453
#     4  12  30  48  77 108 147 194 250 313 375 443
#     4  11  27  45  77 112 157 195 254 311 378 442
#     4  12  27  48  78 107 152 199 254 306 387 446
#     4  10  22  50  75 110 153 202 248 309 378 449
#     4  12  27  47  76 113 153 197 256 311 375 449
#     4  11  25  47  76 112 149 201 250 312 373 450
#
# _framework density 23.996314000000002
#
# number of rings (size 3 to 8) (size 9 to 14) (size 15 to 20)
#    0.000    0.571    2.857    3.857    8.000    1.143 
#    0.000    4.286    0.000    0.000    0.000    0.000 
#    0.000    0.000    0.000    0.000    0.000    0.000 
#
# Total GULP energy -78453.521121 kJ/mol
# GULP energy per Si atom -5603.822937 kJ/mol
# Density = 2.394170 g / cm^3
# Si number density = 23.996314 Si / 1000 Ang^3
#
#
#
# Elastic Constant Matrix: (Units=GPa)
#
#
# Indices 1 2 3 4 5 6 
#
# 1 188.1292 32.5039 41.9304 10.8331 -9.8608 -8.7820
# 2 32.5039 113.2483 23.9851 -4.0421 -9.1128 -22.6458
# 3 41.9304 23.9851 82.2318 3.3170 -6.3806 -9.6612
# 4 10.8331 -4.0421 3.3170 38.4631 4.0930 1.1433
# 5 -9.8608 -9.1128 -6.3806 4.0930 42.7765 4.8696
# 6 -8.7820 -22.6458 -9.6612 1.1433 4.8696 45.9491
#
#
#
# Elastic Compliance Matrix: (Units=1/GPa)
#
#
# Indices 1 2 3 4 5 6 
#
# 1 0.006280 -0.001221 -0.002704 -0.001765 0.000956 -0.000028
# 2 -0.001221 0.010611 -0.001924 0.001381 0.001054 0.004446
# 3 -0.002704 -0.001924 0.014387 -0.000834 0.001025 0.001472
# 4 -0.001765 0.001381 -0.000834 0.027017 -0.002799 -0.000208
# 5 0.000956 0.001054 0.001025 -0.002799 0.024425 -0.001601
# 6 -0.000028 0.004446 0.001472 -0.000208 -0.001601 0.024433
#
#
# Mechanical properties :
#
#
# Convention : Reuss Voigt Hill
#
# Bulk Modulus (GPa) = 51.07316 64.49423 57.78369
# Shear Modulus (GPa) = 39.87968 44.45041 42.16505
#
# Velocity S-wave (km/s) = 4.08107 4.30860 4.19638
# Velocity P-wave (km/s) = 6.59825 7.18938 6.90014
#
# Compressibility (1/GPa) = 0.01957976
#
# Stress axis : x y z
#
# Youngs Moduli (GPa) = 159.24749 94.23991 69.50894
#
# Poissons Ratio (x) = 0.11509 0.18793
# Poissons Ratio (y) = 0.19449 0.13373
# Poissons Ratio (z) = 0.43054 0.18131
#
# Static dielectric constant tensor:
#      x y z
#    x 1.938730 -0.071670 0.090250 
#    y -0.071670 2.122290 -0.138500 
#    z 0.090250 -0.138500 1.955740 
# 
# From -- ./inp_files/55765.got.cif
#   From: 2010.05.17/outbox.cif.g08.bks.cpg/sg2_28_cif.got.tgz:55765.got - 2010.06.03 11:33:40.
