data_PCOD9036000
_publ_section_title
;
Structure prediction by ZEFSAII (Michael W. Deem and Ramdas Pophale) SiO2 
 PCOD9036000
Probable space group: P -1
;
_chemical_formula_sum "Si O2"
_cell_formula_units_Z 16
_cell_length_a 12.423351
_cell_length_b 28.574852
_cell_length_c 5.301134
_cell_angle_alpha 123.415519
_cell_angle_beta 69.696763
_cell_angle_gamma 149.240895
_cell_volume 767.419578
_symmetry_space_group_name_H-M "P -1"
_symmetry_group_IT_number 2
_symmetry_cell_setting 'triclinic'
loop_
_space_group_symop_operation_xyz
x,y,z
-x,-y,-z
loop_
_atom_site_type_symbol
_atom_site_label
_atom_site_fract_x
_atom_site_fract_y
_atom_site_fract_z
Si Si1 0.625992 0.463265 0.706109
Si Si2 0.005904 0.418188 0.608089
Si Si3 0.283703 0.139586 0.437888
Si Si4 0.218575 0.041266 0.692304
Si Si5 0.692018 0.379855 0.681560
Si Si6 0.446848 0.913536 0.342508
Si Si7 0.182677 0.770547 0.633838
Si Si8 0.698888 0.593538 0.423908
O O1 0.825102 0.546926 0.592834
O O2 0.613923 0.393447 0.586899
O O3 0.389603 0.387756 0.586705
O O4 0.695880 0.537616 0.080863
O O5 0.842971 0.390651 0.501269
O O6 0.865165 0.316207 0.585936
O O7 0.156585 0.520728 0.960007
O O8 0.300580 0.104024 0.552962
O O9 0.483350 0.266117 0.650775
O O10 0.282342 0.106391 0.073667
O O11 0.045874 0.070271 0.442769
O O12 0.332646 0.029654 0.611998
O O13 0.295409 0.839558 0.492131
O O14 0.500000 0.000000 0.500000
O O15 0.327223 0.841106 0.973763
O O16 0.944118 0.700830 0.646376
O O17 0.500000 0.500000 0.500000
#
# Coordination Sequence:
#
# PCOD9036000 Si02
#       8
#     2   2   2   2   2   2   2   2
#     4  11  22  40  62  92 142 177 227 271 326 400
#     4  11  23  40  62 101 140 176 219 271 336 420
#     4  10  23  42  71  97 132 181 217 281 339 405
#     4  10  22  47  68  95 133 172 229 278 348 394
#     4  11  23  38  63 101 139 172 225 272 333 403
#     4  12  27  46  71 101 130 171 238 292 336 399
#     4  12  25  46  72  97 134 186 222 274 358 398
#     4  11  23  42  65  92 136 181 229 269 330 417
#
# _framework density 20.849091000000001
#
# number of rings (size 3 to 8) (size 9 to 14) (size 15 to 20)
#    0.000    1.000    2.500    3.750    3.500    1.000 
#    2.250    0.000    0.000    0.000    0.000    0.000 
#    0.000    0.000    0.000    0.000    0.000    0.000 
#
# Total GULP energy -89418.986666 kJ/mol
# GULP energy per Si atom -5588.686667 kJ/mol
# Density = 2.080164 g / cm^3
# Si number density = 20.849091 Si / 1000 Ang^3
#
#
#
# Elastic Constant Matrix: (Units=GPa)
#
#
# Indices 1 2 3 4 5 6 
#
# 1 189.8200 50.7360 31.0622 15.6866 -1.6882 -2.8756
# 2 50.7360 106.5003 46.6156 8.9604 -11.4144 -18.7941
# 3 31.0622 46.6156 75.9690 -1.6176 5.6347 -5.1479
# 4 15.6866 8.9604 -1.6176 36.2356 -0.5972 -1.2036
# 5 -1.6882 -11.4144 5.6347 -0.5972 26.1731 -4.5047
# 6 -2.8756 -18.7941 -5.1479 -1.2036 -4.5047 33.2136
#
#
#
# Elastic Compliance Matrix: (Units=1/GPa)
#
#
# Indices 1 2 3 4 5 6 
#
# 1 0.006307 -0.002719 -0.000984 -0.002160 -0.000847 -0.001338
# 2 -0.002719 0.018704 -0.010633 -0.003387 0.011949 0.010198
# 3 -0.000984 -0.010633 0.020615 0.003679 -0.009760 -0.004097
# 4 -0.002160 -0.003387 0.003679 0.029480 -0.001859 -0.000717
# 5 -0.000847 0.011949 -0.009760 -0.001859 0.047408 0.011538
# 6 -0.001338 0.010198 -0.004097 -0.000717 0.011538 0.036667
#
#
# Mechanical properties :
#
#
# Convention : Reuss Voigt Hill
#
# Bulk Modulus (GPa) = 58.98345 69.90190 64.44268
# Shear Modulus (GPa) = 25.83941 35.38283 30.61112
#
# Velocity S-wave (km/s) = 3.52427 4.12405 3.83590
# Velocity P-wave (km/s) = 6.70169 7.50182 7.11302
#
# Compressibility (1/GPa) = 0.01695391
#
# Stress axis : x y z
#
# Youngs Moduli (GPa) = 158.56393 53.46419 48.50897
#
# Poissons Ratio (x) = 0.14535 0.04775
# Poissons Ratio (y) = 0.43109 0.51579
# Poissons Ratio (z) = 0.15607 0.56847
#
# Static dielectric constant tensor:
#      x y z
#    x 1.805350 -0.016560 0.050340 
#    y -0.016560 1.777380 -0.057130 
#    z 0.050340 -0.057130 1.809730 
# 
# From -- ./inp_files/84889.got.cif
#   From: 2010.05.17/outbox.cif.g08.bks.cpg/sg2_43_cif.got.tgz:84889.got - 2010.06.03 11:33:40.
