data_PCOD9036485
_publ_section_title
;
Structure prediction by ZEFSAII (Michael W. Deem and Ramdas Pophale) SiO2 
 PCOD9036485
Probable space group: P -1
;
_chemical_formula_sum "Si O2"
_cell_formula_units_Z 16
_cell_length_a 19.951479
_cell_length_b 8.898123
_cell_length_c 11.554121
_cell_angle_alpha 41.144616
_cell_angle_beta 147.918972
_cell_angle_gamma 125.499293
_cell_volume 707.082778
_symmetry_space_group_name_H-M "P -1"
_symmetry_group_IT_number 2
_symmetry_cell_setting 'triclinic'
loop_
_space_group_symop_operation_xyz
x,y,z
-x,-y,-z
loop_
_atom_site_type_symbol
_atom_site_label
_atom_site_fract_x
_atom_site_fract_y
_atom_site_fract_z
Si Si1 0.716425 0.045109 0.483425
Si Si2 0.372737 0.582584 0.689432
Si Si3 0.478871 0.778448 0.283176
Si Si4 0.699182 0.370307 0.060441
Si Si5 0.988109 0.311672 0.492152
Si Si6 0.044321 0.161669 0.188587
Si Si7 0.869817 0.623713 0.576863
Si Si8 0.484885 0.782041 0.530674
O O1 0.693956 0.166104 0.505100
O O2 0.710626 0.273891 0.262293
O O3 0.603382 0.896962 0.379490
O O4 0.849710 0.896834 0.723736
O O5 0.274688 0.403669 0.648023
O O6 0.412881 0.615288 0.597096
O O7 0.500000 0.500000 0.000000
O O8 0.500000 0.500000 0.500000
O O9 0.418483 0.869309 0.263633
O O10 0.383073 0.799833 0.025130
O O11 0.837303 0.352226 0.217339
O O12 0.623454 0.630001 0.796508
O O13 0.000000 0.500000 0.500000
O O14 0.065790 0.319522 0.482749
O O15 0.017661 0.062948 0.741819
O O16 0.111028 0.218118 0.375265
O O17 0.942352 0.374333 0.872552
O O18 0.500000 0.000000 0.500000
#
# Coordination Sequence:
#
# PCOD9036485 Si02
#       8
#     2   2   2   2   2   2   2   2
#     4  11  22  43  68  97 140 182 226 281 344 415
#     4  12  26  44  68 102 140 179 229 281 352 416
#     4  10  23  37  63  96 131 176 222 275 339 402
#     4  10  23  41  66  97 134 179 227 278 342 413
#     4  11  25  46  73 103 137 182 237 289 351 419
#     4  10  26  47  72 105 137 185 242 284 351 418
#     4  11  26  47  74 101 143 185 230 301 343 416
#     4  11  23  41  62  99 137 174 222 279 339 407
#
# _framework density 22.628184999999998
#
# number of rings (size 3 to 8) (size 9 to 14) (size 15 to 20)
#    0.000    1.250    2.500    2.250    7.000    6.000 
#    0.000    0.000    0.000    0.000    0.000    0.000 
#    0.000    0.000    0.000    0.000    0.000    0.000 
#
# Total GULP energy -89394.273617 kJ/mol
# GULP energy per Si atom -5587.142101 kJ/mol
# Density = 2.257668 g / cm^3
# Si number density = 22.628185 Si / 1000 Ang^3
#
#
#
# Elastic Constant Matrix: (Units=GPa)
#
#
# Indices 1 2 3 4 5 6 
#
# 1 107.1633 2.7442 14.1677 1.7920 3.4524 19.5016
# 2 2.7442 93.0669 13.4246 -4.7157 4.8240 6.1944
# 3 14.1677 13.4246 50.9893 -6.5918 3.7881 2.1653
# 4 1.7920 -4.7157 -6.5918 29.6037 -1.3095 2.9098
# 5 3.4524 4.8240 3.7881 -1.3095 17.7670 0.4277
# 6 19.5016 6.1944 2.1653 2.9098 0.4277 48.3447
#
#
#
# Elastic Compliance Matrix: (Units=1/GPa)
#
#
# Indices 1 2 3 4 5 6 
#
# 1 0.010507 0.000409 -0.002853 -0.000870 -0.001510 -0.004097
# 2 0.000409 0.011418 -0.002710 0.001234 -0.002473 -0.001559
# 3 -0.002853 -0.002710 0.021910 0.004457 -0.003059 0.000276
# 4 -0.000870 0.001234 0.004457 0.035300 0.001537 -0.002145
# 5 -0.001510 -0.002473 -0.003059 0.001537 0.058004 0.000457
# 6 -0.004097 -0.001559 0.000276 -0.002145 0.000457 0.022650
#
#
# Mechanical properties :
#
#
# Convention : Reuss Voigt Hill
#
# Bulk Modulus (GPa) = 29.82799 34.65474 32.24136
# Shear Modulus (GPa) = 27.58243 33.86861 30.72552
#
# Velocity S-wave (km/s) = 3.49512 3.87298 3.68889
# Velocity P-wave (km/s) = 5.43123 5.94542 5.69413
#
# Compressibility (1/GPa) = 0.03352556
#
# Stress axis : x y z
#
# Youngs Moduli (GPa) = 95.17329 87.57821 45.64092
#
# Poissons Ratio (x) = -0.03579 0.13023
# Poissons Ratio (y) = -0.03889 0.12370
# Poissons Ratio (z) = 0.27157 0.23736
#
# Static dielectric constant tensor:
#      x y z
#    x 1.761380 0.043060 0.120820 
#    y 0.043060 1.792860 -0.091760 
#    z 0.120820 -0.091760 1.743300 
# 
# From -- ./inp_files/353793.got.cif
#   From: 2010.05.17/outbox.cif.g08.bks.cpg/sg2_177_cif.got.tgz:353793.got - 2010.06.03 11:33:40.
