data_PCOD9036555
_publ_section_title
;
Structure prediction by ZEFSAII (Michael W. Deem and Ramdas Pophale) SiO2 
 PCOD9036555
Probable space group: P -1
;
_chemical_formula_sum "Si O2"
_cell_formula_units_Z 16
_cell_length_a 13.759197
_cell_length_b 14.909496
_cell_length_c 14.165601
_cell_angle_alpha 137.059719
_cell_angle_beta 29.333855
_cell_angle_gamma 151.190958
_cell_volume 679.775981
_symmetry_space_group_name_H-M "P -1"
_symmetry_group_IT_number 2
_symmetry_cell_setting 'triclinic'
loop_
_space_group_symop_operation_xyz
x,y,z
-x,-y,-z
loop_
_atom_site_type_symbol
_atom_site_label
_atom_site_fract_x
_atom_site_fract_y
_atom_site_fract_z
Si Si1 0.168567 0.589796 0.830302
Si Si2 0.208378 0.028742 0.585161
Si Si3 0.693545 0.466267 0.832542
Si Si4 0.846392 0.273273 0.508270
Si Si5 0.296155 0.003215 0.286367
Si Si6 0.710104 0.466382 0.499020
Si Si7 0.324690 0.526906 0.923040
Si Si8 0.283839 0.043993 0.120558
O O1 0.492162 0.771641 0.716470
O O2 0.151987 0.467911 0.671651
O O3 0.000000 0.500000 0.000000
O O4 0.998694 0.628816 0.955811
O O5 0.140816 0.937701 0.467354
O O6 0.512247 0.243006 0.496804
O O7 0.217085 0.908689 0.555384
O O8 0.959947 0.021386 0.795508
O O9 0.616339 0.282507 0.717440
O O10 0.987225 0.636525 0.661287
O O11 0.500000 0.500000 0.000000
O O12 0.688262 0.459734 0.944155
O O13 0.062223 0.417344 0.521146
O O14 0.156024 0.947800 0.259017
O O15 0.508995 0.980332 0.093507
O O16 0.495788 0.482485 0.711291
O O17 0.494712 0.730416 0.893146
#
# Coordination Sequence:
#
# PCOD9036555 Si02
#       8
#     2   2   2   2   2   2   2   2
#     4  11  23  41  60  94 130 172 218 262 318 387
#     4  11  23  42  63  95 132 166 220 265 318 388
#     4  11  22  41  72  98 125 169 219 269 327 388
#     4  11  23  43  70  94 128 172 214 269 330 381
#     4  10  23  38  60  92 129 174 219 265 316 382
#     4  11  24  41  67  95 130 171 214 269 320 383
#     4  12  22  40  69  93 131 175 215 268 329 382
#     4  11  21  38  62  91 128 177 214 265 325 374
#
# _framework density 23.537165999999999
#
# number of rings (size 3 to 8) (size 9 to 14) (size 15 to 20)
#    0.000    1.000    5.000    1.875    0.000    0.500 
#    2.250    3.125    2.750    0.000    0.000    0.000 
#    0.000    0.000    0.000    0.000    0.000    0.000 
#
# Total GULP energy -89333.216324 kJ/mol
# GULP energy per Si atom -5583.326020 kJ/mol
# Density = 2.348359 g / cm^3
# Si number density = 23.537166 Si / 1000 Ang^3
#
#
#
# Elastic Constant Matrix: (Units=GPa)
#
#
# Indices 1 2 3 4 5 6 
#
# 1 47.4351 10.3882 25.6320 -0.7018 2.4564 -25.5943
# 2 10.3882 71.2651 3.7013 5.6437 7.8429 -11.7265
# 3 25.6320 3.7013 143.5318 9.7214 7.8622 -19.9216
# 4 -0.7018 5.6437 9.7214 27.5627 -6.6938 -4.5561
# 5 2.4564 7.8429 7.8622 -6.6938 43.6111 -10.2444
# 6 -25.5943 -11.7265 -19.9216 -4.5561 -10.2444 36.9841
#
#
#
# Elastic Compliance Matrix: (Units=1/GPa)
#
#
# Indices 1 2 3 4 5 6 
#
# 1 0.037555 -0.002400 -0.003988 0.008713 0.006467 0.025945
# 2 -0.002400 0.015337 0.000771 -0.003754 -0.002778 0.002385
# 3 -0.003988 0.000771 0.008114 -0.003363 -0.001663 0.000980
# 4 0.008713 -0.003754 -0.003363 0.042696 0.009937 0.011041
# 5 0.006467 -0.002778 -0.001663 0.009937 0.027608 0.011571
# 6 0.025945 0.002385 0.000980 0.011041 0.011571 0.050843
#
#
# Mechanical properties :
#
#
# Convention : Reuss Voigt Hill
#
# Bulk Modulus (GPa) = 20.09155 37.96389 29.02772
# Shear Modulus (GPa) = 23.81184 36.46562 30.13873
#
# Velocity S-wave (km/s) = 3.18413 3.94036 3.58225
# Velocity P-wave (km/s) = 4.69817 6.07176 5.42859
#
# Compressibility (1/GPa) = 0.04977218
#
# Stress axis : x y z
#
# Youngs Moduli (GPa) = 26.62756 65.20019 123.23857
#
# Poissons Ratio (x) = 0.15647 0.49148
# Poissons Ratio (y) = 0.06390 -0.09496
# Poissons Ratio (z) = 0.10619 -0.05024
#
# Static dielectric constant tensor:
#      x y z
#    x 1.824670 -0.067100 -0.101780 
#    y -0.067100 1.872840 -0.050020 
#    z -0.101780 -0.050020 1.864250 
# 
# From -- ./inp_files/349398.got.cif
#   From: 2010.05.17/outbox.cif.g08.bks.cpg/sg2_175_cif.got.tgz:349398.got - 2010.06.03 11:33:40.
