data_PCOD9036036
_publ_section_title
;
Structure prediction by ZEFSAII (Michael W. Deem and Ramdas Pophale) SiO2 
 PCOD9036036
Probable space group: P -1
;
_chemical_formula_sum "Si O2"
_cell_formula_units_Z 12
_cell_length_a 7.723666
_cell_length_b 11.869590
_cell_length_c 8.097161
_cell_angle_alpha 69.037872
_cell_angle_beta 38.252995
_cell_angle_gamma 78.321478
_cell_volume 425.203677
_symmetry_space_group_name_H-M "P -1"
_symmetry_group_IT_number 2
_symmetry_cell_setting 'triclinic'
loop_
_space_group_symop_operation_xyz
x,y,z
-x,-y,-z
loop_
_atom_site_type_symbol
_atom_site_label
_atom_site_fract_x
_atom_site_fract_y
_atom_site_fract_z
Si Si1 0.956302 0.769082 0.998978
Si Si2 0.382631 0.910370 0.784610
Si Si3 0.223161 0.459066 0.613408
Si Si4 0.611779 0.646203 0.796897
Si Si5 0.228245 0.912812 0.406707
Si Si6 0.585634 0.293035 0.748432
O O1 0.009053 0.628516 0.064809
O O2 0.622458 0.748123 0.226101
O O3 0.055002 0.862364 0.021781
O O4 0.117371 0.828219 0.689106
O O5 0.498711 0.778305 0.765617
O O6 0.500000 0.000000 0.500000
O O7 0.488384 0.997914 0.810547
O O8 0.500000 0.500000 0.500000
O O9 0.252079 0.380609 0.468159
O O10 0.177672 0.591353 0.514543
O O11 0.500000 0.500000 0.000000
O O12 0.626120 0.681792 0.962914
O O13 0.247444 0.819383 0.292630
O O14 0.000000 0.000000 0.500000
#
# Coordination Sequence:
#
# PCOD9036036 Si02
#       6
#     2   2   2   2   2   2
#     4  10  23  44  72 107 139 193 240 311 358 424
#     4  10  24  44  68 107 145 190 247 303 356 439
#     4   9  21  43  75 107 141 187 247 301 362 431
#     4  10  22  47  70 103 151 191 244 299 364 444
#     4  11  25  47  72 106 148 195 248 294 369 446
#     4  10  23  47  74 104 150 194 238 304 368 441
#
# _framework density 28.221768000000001
#
# number of rings (size 3 to 8) (size 9 to 14) (size 15 to 20)
#    0.000    2.000    0.000    1.000    9.333    4.000 
#   18.000    1.667    0.000    0.000    0.000    0.000 
#    0.000    0.000    0.000    0.000    0.000    0.000 
#
# Total GULP energy -66858.445531 kJ/mol
# GULP energy per Si atom -5571.537128 kJ/mol
# Density = 2.815753 g / cm^3
# Si number density = 28.221768 Si / 1000 Ang^3
#
#
#
# Elastic Constant Matrix: (Units=GPa)
#
#
# Indices 1 2 3 4 5 6 
#
# 1 79.4805 62.5716 42.5572 -22.8222 5.4539 26.5289
# 2 62.5716 244.1708 64.0406 -33.0624 -4.1799 7.5639
# 3 42.5572 64.0406 159.5261 -60.0775 17.0940 -5.7020
# 4 -22.8222 -33.0624 -60.0775 67.4360 -5.9895 3.3062
# 5 5.4539 -4.1799 17.0940 -5.9895 43.6981 -18.1819
# 6 26.5289 7.5639 -5.7020 3.3062 -18.1819 39.0247
#
#
#
# Elastic Compliance Matrix: (Units=1/GPa)
#
#
# Indices 1 2 3 4 5 6 
#
# 1 0.029683 -0.005492 -0.003659 0.004211 -0.013081 -0.026100
# 2 -0.005492 0.005714 -0.000975 0.000171 0.003305 0.004009
# 3 -0.003659 -0.000975 0.010773 0.007597 -0.001623 0.002851
# 4 0.004211 0.000171 0.007597 0.023137 -0.002318 -0.004825
# 5 -0.013081 0.003305 -0.001623 -0.002318 0.035437 0.024721
# 6 -0.026100 0.004009 0.002851 -0.004825 0.024721 0.054933
#
#
# Mechanical properties :
#
#
# Convention : Reuss Voigt Hill
#
# Bulk Modulus (GPa) = 38.58448 91.27958 64.93203
# Shear Modulus (GPa) = 26.51543 50.96563 38.74053
#
# Velocity S-wave (km/s) = 3.06851 4.25420 3.70904
# Velocity P-wave (km/s) = 5.12405 7.51963 6.43431
#
# Compressibility (1/GPa) = 0.02591716
#
# Stress axis : x y z
#
# Youngs Moduli (GPa) = 33.68934 175.00099 92.82283
#
# Poissons Ratio (x) = 0.96113 0.33967
# Poissons Ratio (y) = 0.18503 0.09052
# Poissons Ratio (z) = 0.12328 0.17067
#
# Static dielectric constant tensor:
#      x y z
#    x 3.991740 -0.712140 -0.863990 
#    y -0.712140 2.465640 0.351950 
#    z -0.863990 0.351950 2.731200 
# 
# From -- ./inp_files/185596.got.cif
#   From: 2010.05.17/outbox.cif.g08.bks.cpg/sg2_93_cif.got.tgz:185596.got - 2010.06.03 11:33:40.
