data_PCOD9036999
_publ_section_title
;
Structure prediction by ZEFSAII (Michael W. Deem and Ramdas Pophale) SiO2 
 PCOD9036999
Probable space group: P -1
;
_chemical_formula_sum "Si O2"
_cell_formula_units_Z 16
_cell_length_a 11.954495
_cell_length_b 22.842656
_cell_length_c 11.441333
_cell_angle_alpha 42.582530
_cell_angle_beta 42.539206
_cell_angle_gamma 20.780403
_cell_volume 734.637171
_symmetry_space_group_name_H-M "P -1"
_symmetry_group_IT_number 2
_symmetry_cell_setting 'triclinic'
loop_
_space_group_symop_operation_xyz
x,y,z
-x,-y,-z
loop_
_atom_site_type_symbol
_atom_site_label
_atom_site_fract_x
_atom_site_fract_y
_atom_site_fract_z
Si Si1 0.596558 0.621150 0.365552
Si Si2 0.805108 0.352530 0.661654
Si Si3 0.301262 0.801410 0.577817
Si Si4 0.239506 0.818435 0.125495
Si Si5 0.196564 0.120737 0.141491
Si Si6 0.335639 0.336451 0.188939
Si Si7 0.647237 0.486164 0.014007
Si Si8 0.552744 0.845332 0.454417
O O1 0.653567 0.493229 0.487750
O O2 0.463392 0.694985 0.490084
O O3 0.355174 0.771737 0.237950
O O4 0.954845 0.496031 0.256205
O O5 0.889512 0.221373 0.736746
O O6 0.109095 0.259702 0.629107
O O7 0.540895 0.455831 0.811262
O O8 0.553335 0.758399 0.501607
O O9 0.092571 0.814247 0.772470
O O10 0.000000 0.000000 0.500000
O O11 0.545351 0.694127 0.986711
O O12 0.000000 0.000000 0.000000
O O13 0.325125 0.018020 0.313118
O O14 0.016504 0.293198 0.033640
O O15 0.500000 0.000000 0.000000
O O16 0.404918 0.388398 0.140066
O O17 0.516856 0.169912 0.344705
O O18 0.500000 0.500000 0.000000
#
# Coordination Sequence:
#
# PCOD9036999 Si02
#       8
#     2   2   2   2   2   2   2   2
#     4  11  23  45  71  95 138 183 228 276 338 400
#     4  10  23  44  67  98 132 179 224 284 329 410
#     4  10  23  39  68 102 142 177 221 273 340 408
#     4  11  26  46  71  98 132 177 234 290 338 396
#     4  11  23  39  61  94 141 181 217 269 324 407
#     4  10  25  41  69  98 133 181 225 279 335 406
#     4  11  22  38  62  99 138 175 220 269 335 401
#     4  10  23  43  66 100 142 169 227 265 350 397
#
# _framework density 21.779458999999999
#
# number of rings (size 3 to 8) (size 9 to 14) (size 15 to 20)
#    0.000    1.500    1.250    2.250    8.750    3.000 
#    2.250    2.500    0.000    0.000    0.000    0.000 
#    0.000    0.000    0.000    0.000    0.000    0.000 
#
# Total GULP energy -89164.796199 kJ/mol
# GULP energy per Si atom -5572.799762 kJ/mol
# Density = 2.172989 g / cm^3
# Si number density = 21.779459 Si / 1000 Ang^3
#
#
#
# Elastic Constant Matrix: (Units=GPa)
#
#
# Indices 1 2 3 4 5 6 
#
# 1 59.5105 10.2486 9.8223 18.1402 -5.7726 -10.7172
# 2 10.2486 72.0400 27.5977 -4.3513 -11.0318 -13.7837
# 3 9.8223 27.5977 90.0048 -3.9632 -15.2049 -10.4546
# 4 18.1402 -4.3513 -3.9632 48.8188 -11.3286 1.2862
# 5 -5.7726 -11.0318 -15.2049 -11.3286 15.7542 -7.0867
# 6 -10.7172 -13.7837 -10.4546 1.2862 -7.0867 28.5166
#
#
#
# Elastic Compliance Matrix: (Units=1/GPa)
#
#
# Indices 1 2 3 4 5 6 
#
# 1 0.021370 -0.000423 -0.000168 -0.006621 0.007023 0.009809
# 2 -0.000423 0.022407 0.000981 0.008995 0.031220 0.018384
# 3 -0.000168 0.000981 0.017938 0.008247 0.030222 0.014126
# 4 -0.006621 0.008995 0.008247 0.033904 0.042468 0.013907
# 5 0.007023 0.031220 0.030222 0.042468 0.179816 0.071581
# 6 0.009809 0.018384 0.014126 0.013907 0.071581 0.069980
#
#
# Mechanical properties :
#
#
# Convention : Reuss Voigt Hill
#
# Bulk Modulus (GPa) = 16.00136 35.21027 25.60581
# Shear Modulus (GPa) = 13.68115 30.21037 21.94576
#
# Velocity S-wave (km/s) = 2.50905 3.72842 3.17777
# Velocity P-wave (km/s) = 3.96947 5.89378 5.02461
#
# Compressibility (1/GPa) = 0.06249471
#
# Stress axis : x y z
#
# Youngs Moduli (GPa) = 46.79362 44.62882 55.74890
#
# Poissons Ratio (x) = 0.01890 0.00936
# Poissons Ratio (y) = 0.01981 -0.05470
# Poissons Ratio (z) = 0.00786 -0.04379
#
# Static dielectric constant tensor:
#      x y z
#    x 1.848320 -0.005580 -0.004770 
#    y -0.005580 1.784540 -0.038470 
#    z -0.004770 -0.038470 1.848680 
# 
# From -- ./inp_files/439240.got.cif
#   From: 2010.05.17/outbox.cif.g08.bks.cpg/sg2_220_cif.got.tgz:439240.got - 2010.06.03 11:33:40.
