data_PCOD9036642
_publ_section_title
;
Structure prediction by ZEFSAII (Michael W. Deem and Ramdas Pophale) SiO2 
 PCOD9036642
Probable space group: P -1
;
_chemical_formula_sum "Si O2"
_cell_formula_units_Z 14
_cell_length_a 12.893001
_cell_length_b 15.549494
_cell_length_c 9.012500
_cell_angle_alpha 113.997299
_cell_angle_beta 112.411998
_cell_angle_gamma 25.453500
_cell_volume 708.959391
_symmetry_space_group_name_H-M "P -1"
_symmetry_group_IT_number 2
_symmetry_cell_setting 'triclinic'
loop_
_space_group_symop_operation_xyz
x,y,z
-x,-y,-z
loop_
_atom_site_type_symbol
_atom_site_label
_atom_site_fract_x
_atom_site_fract_y
_atom_site_fract_z
Si Si1 0.623768 0.740505 0.856973
Si Si2 0.247659 0.939338 0.012910
Si Si3 0.808845 0.570706 0.371783
Si Si4 0.255645 0.727443 0.978585
Si Si5 0.998311 0.224980 0.317507
Si Si6 0.166121 0.322349 0.798752
Si Si7 0.642374 0.010218 0.414914
O O1 0.456535 0.895435 0.737501
O O2 0.881785 0.506134 0.780607
O O3 0.450827 0.805538 0.909990
O O4 0.720364 0.750472 0.027460
O O5 0.210933 0.052162 0.188103
O O6 0.292327 0.810533 0.037212
O O7 0.972326 0.126611 0.936607
O O8 0.821762 0.586650 0.215976
O O9 0.556617 0.792419 0.454011
O O10 0.000000 0.500000 0.500000
O O11 0.872404 0.417288 0.343717
O O12 0.171055 0.737707 0.788559
O O13 0.500000 0.500000 0.000000
O O14 0.107060 0.140443 0.481660
O O15 0.317333 0.132210 0.658653
#
# Coordination Sequence:
#
# PCOD9036642 Si02
#       7
#     2   2   2   2   2   2   2
#     4  11  24  39  61  88 130 164 204 246 306 365
#     4   9  22  41  65  95 114 157 207 256 309 358
#     4  12  23  38  60  93 124 167 208 250 292 359
#     4   9  21  41  67  93 114 150 210 263 307 359
#     4  10  23  38  65  92 118 158 205 258 303 356
#     4  11  25  40  58  90 129 171 210 239 297 367
#     4  12  23  39  57  88 131 163 205 245 306 358
#
# _framework density 19.747253000000001
#
# number of rings (size 3 to 8) (size 9 to 14) (size 15 to 20)
#    0.857    0.571    2.857    1.714    6.000    3.429 
#    0.000    0.714    0.000    4.286    0.000    0.000 
#    0.000    0.000    0.000    0.000    0.000    0.000 
#
# Total GULP energy -77941.972042 kJ/mol
# GULP energy per Si atom -5567.283717 kJ/mol
# Density = 1.970231 g / cm^3
# Si number density = 19.747253 Si / 1000 Ang^3
#
#
#
# Elastic Constant Matrix: (Units=GPa)
#
#
# Indices 1 2 3 4 5 6 
#
# 1 62.5854 54.3206 18.8710 9.5418 -4.0535 -1.5331
# 2 54.3206 147.5558 44.7499 0.8297 -0.4388 6.7418
# 3 18.8710 44.7499 81.2923 -16.8421 -2.8442 7.7419
# 4 9.5418 0.8297 -16.8421 41.9581 2.5297 8.1716
# 5 -4.0535 -0.4388 -2.8442 2.5297 23.5058 10.1088
# 6 -1.5331 6.7418 7.7419 8.1716 10.1088 23.3093
#
#
#
# Elastic Compliance Matrix: (Units=1/GPa)
#
#
# Indices 1 2 3 4 5 6 
#
# 1 0.026574 -0.008928 -0.003872 -0.009102 0.001401 0.008199
# 2 -0.008928 0.011316 -0.003764 0.000843 -0.000768 -0.002572
# 3 -0.003872 -0.003764 0.018668 0.010325 0.005254 -0.011265
# 4 -0.009102 0.000843 0.010325 0.033219 0.003646 -0.017499
# 5 0.001401 -0.000768 0.005254 0.003646 0.054307 -0.026261
# 6 0.008199 -0.002572 -0.011265 -0.017499 -0.026261 0.065449
#
#
# Mechanical properties :
#
#
# Convention : Reuss Voigt Hill
#
# Bulk Modulus (GPa) = 42.67978 58.59072 50.63525
# Shear Modulus (GPa) = 19.96246 29.32077 24.64162
#
# Velocity S-wave (km/s) = 3.18291 3.85749 3.53632
# Velocity P-wave (km/s) = 5.93025 7.04096 6.50934
#
# Compressibility (1/GPa) = 0.02343030
#
# Stress axis : x y z
#
# Youngs Moduli (GPa) = 37.63109 88.37253 53.56808
#
# Poissons Ratio (x) = 0.78897 0.20741
# Poissons Ratio (y) = 0.33596 0.20162
# Poissons Ratio (z) = 0.14570 0.33262
#
# Static dielectric constant tensor:
#      x y z
#    x 1.689450 -0.027490 0.009270 
#    y -0.027490 1.749160 -0.016590 
#    z 0.009270 -0.016590 1.757070 
# 
# From -- ./inp_files/268093.got.cif
#   From: 2010.05.17/outbox.cif.g08.bks.cpg/sg2_135_cif.got.tgz:268093.got - 2010.06.03 11:33:40.
