data_PCOD9036267
_publ_section_title
;
Structure prediction by ZEFSAII (Michael W. Deem and Ramdas Pophale) SiO2 
 PCOD9036267
Probable space group: P -1
;
_chemical_formula_sum "Si O2"
_cell_formula_units_Z 15
_cell_length_a 8.758581
_cell_length_b 16.274058
_cell_length_c 11.029981
_cell_angle_alpha 44.936505
_cell_angle_beta 80.294738
_cell_angle_gamma 48.147082
_cell_volume 675.375067
_symmetry_space_group_name_H-M "P -1"
_symmetry_group_IT_number 2
_symmetry_cell_setting 'triclinic'
loop_
_space_group_symop_operation_xyz
x,y,z
-x,-y,-z
loop_
_atom_site_type_symbol
_atom_site_label
_atom_site_fract_x
_atom_site_fract_y
_atom_site_fract_z
Si Si1 0.798227 0.868378 0.401044
Si Si2 0.889334 0.562604 0.814261
Si Si3 0.211252 0.631044 0.394658
Si Si4 0.553292 0.544880 0.828716
Si Si5 0.019233 0.930678 0.437570
Si Si6 0.000000 0.500000 0.500000
Si Si7 0.987718 0.161662 0.023987
Si Si8 0.694801 0.805264 0.028500
O O1 0.789191 0.744621 0.587500
O O2 0.058956 0.718654 0.448692
O O3 0.813939 0.953001 0.418031
O O4 0.576017 0.033739 0.165964
O O5 0.668883 0.599061 0.796784
O O6 0.000000 0.500000 0.000000
O O7 0.110108 0.384943 0.881805
O O8 0.500000 0.500000 0.500000
O O9 0.071751 0.805042 0.143867
O O10 0.157370 0.532987 0.450255
O O11 0.292449 0.714432 0.621400
O O12 0.751607 0.365686 0.903980
O O13 0.500000 0.500000 0.000000
O O14 0.000000 0.000000 0.500000
O O15 0.005947 0.031391 0.227424
O O16 0.756308 0.713903 0.246840
O O17 0.218741 0.111539 0.068926
#
# Coordination Sequence:
#
# PCOD9036267 Si02
#       8
#     2   2   2   2   2   1   2   2
#     4  12  27  46  72 108 143 196 244 305 368 446
#     4  11  25  43  72 103 141 191 239 303 361 434
#     4  11  25  48  76 108 146 192 251 302 369 445
#     4  11  22  44  70  99 140 190 232 292 368 423
#     4  12  26  42  67 101 144 184 238 300 358 431
#     4  10  22  48  76 100 150 190 230 318 364 432
#     4  10  24  45  68 104 139 189 240 300 360 433
#     4  10  24  46  72 102 143 186 245 295 374 437
#
# _framework density 22.209879999999998
#
# number of rings (size 3 to 8) (size 9 to 14) (size 15 to 20)
#    0.000    1.067    2.667    2.400    5.600    4.267 
#    9.600    0.000    0.000    0.000    0.000    0.000 
#    0.000    0.000    0.000    0.000    0.000    0.000 
#
# Total GULP energy -83625.735368 kJ/mol
# GULP energy per Si atom -5575.049025 kJ/mol
# Density = 2.215933 g / cm^3
# Si number density = 22.209880 Si / 1000 Ang^3
#
#
#
# Elastic Constant Matrix: (Units=GPa)
#
#
# Indices 1 2 3 4 5 6 
#
# 1 141.5277 20.1043 95.0436 -4.3046 1.4560 -6.1120
# 2 20.1043 38.6005 10.2632 6.1669 -4.1213 -6.7445
# 3 95.0436 10.2632 162.4425 2.8497 -8.5148 -1.1119
# 4 -4.3046 6.1669 2.8497 25.1278 -12.2668 1.5797
# 5 1.4560 -4.1213 -8.5148 -12.2668 53.0907 -0.7947
# 6 -6.1120 -6.7445 -1.1119 1.5797 -0.7947 20.8623
#
#
#
# Elastic Compliance Matrix: (Units=1/GPa)
#
#
# Indices 1 2 3 4 5 6 
#
# 1 0.012926 -0.005249 -0.007343 0.003733 -0.001056 0.001376
# 2 -0.005249 0.031446 0.001351 -0.008933 0.000879 0.009410
# 3 -0.007343 0.001351 0.010475 -0.001978 0.001515 -0.000949
# 4 0.003733 -0.008933 -0.001978 0.048011 0.009903 -0.005158
# 5 -0.001056 0.000879 0.001515 0.009903 0.021466 0.000123
# 6 0.001376 0.009410 -0.000949 -0.005158 0.000123 0.051723
#
#
# Mechanical properties :
#
#
# Convention : Reuss Voigt Hill
#
# Bulk Modulus (GPa) = 30.89643 65.93254 48.41449
# Shear Modulus (GPa) = 23.88726 34.29347 29.09037
#
# Velocity S-wave (km/s) = 3.28308 3.93372 3.62303
# Velocity P-wave (km/s) = 5.32097 7.09808 6.27278
#
# Compressibility (1/GPa) = 0.03236620
#
# Stress axis : x y z
#
# Youngs Moduli (GPa) = 77.36122 31.80059 95.46970
#
# Poissons Ratio (x) = 0.16692 0.70103
# Poissons Ratio (y) = 0.40606 -0.12903
# Poissons Ratio (z) = 0.56806 -0.04298
#
# Static dielectric constant tensor:
#      x y z
#    x 1.822370 0.047450 0.010230 
#    y 0.047450 1.918610 0.034680 
#    z 0.010230 0.034680 1.788170 
# 
# From -- ./inp_files/401812.got.cif
#   From: 2010.05.17/outbox.cif.g08.bks.cpg/sg2_201_cif.got.tgz:401812.got - 2010.06.03 11:33:40.
