data_PCOD9036857
_publ_section_title
;
Structure prediction by ZEFSAII (Michael W. Deem and Ramdas Pophale) SiO2 
 PCOD9036857
Probable space group: P -1
;
_chemical_formula_sum "Si O2"
_cell_formula_units_Z 16
_cell_length_a 16.576705
_cell_length_b 8.881808
_cell_length_c 7.621207
_cell_angle_alpha 128.555182
_cell_angle_beta 52.955869
_cell_angle_gamma 93.754894
_cell_volume 607.898359
_symmetry_space_group_name_H-M "P -1"
_symmetry_group_IT_number 2
_symmetry_cell_setting 'triclinic'
loop_
_space_group_symop_operation_xyz
x,y,z
-x,-y,-z
loop_
_atom_site_type_symbol
_atom_site_label
_atom_site_fract_x
_atom_site_fract_y
_atom_site_fract_z
Si Si1 0.515852 0.862313 0.158015
Si Si2 0.420632 0.301949 0.432607
Si Si3 0.899453 0.872106 0.170243
Si Si4 0.049864 0.734065 0.522085
Si Si5 0.676905 0.226564 0.536985
Si Si6 0.746938 0.600350 0.790295
Si Si7 0.116993 0.265776 0.557038
Si Si8 0.678365 0.217969 0.112886
O O1 0.579766 0.752886 0.810681
O O2 0.447839 0.741455 0.227062
O O3 0.622631 0.828132 0.116736
O O4 0.423004 0.112234 0.409677
O O5 0.550733 0.261300 0.264068
O O6 0.326707 0.555319 0.776819
O O7 0.929867 0.054617 0.344073
O O8 0.770444 0.013297 0.365332
O O9 0.922045 0.691166 0.157535
O O10 0.977212 0.766949 0.819735
O O11 0.166555 0.498132 0.229866
O O12 0.975454 0.744737 0.460000
O O13 0.705186 0.419925 0.687890
O O14 0.694029 0.198992 0.287030
O O15 0.822440 0.615368 0.540334
O O16 0.223297 0.010751 0.256601
#
# Coordination Sequence:
#
# PCOD9036857 Si02
#       8
#     2   2   2   2   2   2   2   2
#     4  11  22  43  66  96 137 186 229 279 351 408
#     4  10  23  39  64  94 135 181 229 284 332 419
#     4  10  23  42  74 100 135 185 224 288 350 405
#     4  10  23  46  69 103 139 175 238 284 341 410
#     4  11  23  41  68  97 142 184 224 285 350 404
#     4  11  24  42  68 101 137 186 229 287 337 416
#     4  12  23  45  73 101 141 181 232 285 348 404
#     4  11  22  40  62 100 138 177 226 289 335 411
#
# _framework density 26.320188000000002
#
# number of rings (size 3 to 8) (size 9 to 14) (size 15 to 20)
#    0.000    1.250    3.750    1.875    1.750    1.000 
#    2.250    0.000    8.250    0.000    0.000    0.000 
#    0.000    0.000    0.000    0.000    0.000    0.000 
#
# Total GULP energy -89693.284401 kJ/mol
# GULP energy per Si atom -5605.830275 kJ/mol
# Density = 2.626028 g / cm^3
# Si number density = 26.320188 Si / 1000 Ang^3
#
#
#
# Elastic Constant Matrix: (Units=GPa)
#
#
# Indices 1 2 3 4 5 6 
#
# 1 129.0889 40.4365 28.6960 -4.0796 -23.7289 -16.9251
# 2 40.4365 155.0213 44.9643 0.7425 -10.6134 -13.6863
# 3 28.6960 44.9643 31.4342 -8.0236 -6.4572 -0.5453
# 4 -4.0796 0.7425 -8.0236 47.7319 -1.4288 3.9698
# 5 -23.7289 -10.6134 -6.4572 -1.4288 41.4600 3.1449
# 6 -16.9251 -13.6863 -0.5453 3.9698 3.1449 50.0870
#
#
#
# Elastic Compliance Matrix: (Units=1/GPa)
#
#
# Indices 1 2 3 4 5 6 
#
# 1 0.011141 0.000800 -0.010557 -0.001001 0.004625 0.003657
# 2 0.000800 0.012029 -0.018739 -0.003563 0.000221 0.003622
# 3 -0.010557 -0.018739 0.071499 0.012195 0.001397 -0.008964
# 4 -0.001001 -0.003563 0.012195 0.023273 0.001453 -0.003115
# 5 0.004625 0.000221 0.001397 0.001453 0.027105 -0.000178
# 6 0.003657 0.003622 -0.008964 -0.003115 -0.000178 0.022351
#
#
# Mechanical properties :
#
#
# Convention : Reuss Voigt Hill
#
# Bulk Modulus (GPa) = 26.54091 60.41533 43.47812
# Shear Modulus (GPa) = 21.10173 41.28560 31.19366
#
# Velocity S-wave (km/s) = 2.83456 3.96484 3.44635
# Velocity P-wave (km/s) = 4.56275 6.63052 5.69133
#
# Compressibility (1/GPa) = 0.03767768
#
# Stress axis : x y z
#
# Youngs Moduli (GPa) = 89.76075 83.13131 13.98626
#
# Poissons Ratio (x) = -0.06654 0.14766
# Poissons Ratio (y) = -0.07185 0.26209
# Poissons Ratio (z) = 0.94762 1.55778
#
# Static dielectric constant tensor:
#      x y z
#    x 2.011480 0.006770 -0.015810 
#    y 0.006770 2.063280 0.075930 
#    z -0.015810 0.075930 2.178900 
# 
# From -- ./inp_files/329399.got.cif
#   From: 2010.05.17/outbox.cif.g08.bks.cpg/sg2_165_cif.got.tgz:329399.got - 2010.06.03 11:33:40.
