data_PCOD9036359
_publ_section_title
;
Structure prediction by ZEFSAII (Michael W. Deem and Ramdas Pophale) SiO2 
 PCOD9036359
Probable space group: P -1
;
_chemical_formula_sum "Si O2"
_cell_formula_units_Z 14
_cell_length_a 5.384842
_cell_length_b 18.303808
_cell_length_c 9.167280
_cell_angle_alpha 139.013661
_cell_angle_beta 97.727933
_cell_angle_gamma 79.069336
_cell_volume 581.818775
_symmetry_space_group_name_H-M "P -1"
_symmetry_group_IT_number 2
_symmetry_cell_setting 'triclinic'
loop_
_space_group_symop_operation_xyz
x,y,z
-x,-y,-z
loop_
_atom_site_type_symbol
_atom_site_label
_atom_site_fract_x
_atom_site_fract_y
_atom_site_fract_z
Si Si1 0.209391 0.468750 0.253559
Si Si2 0.050773 0.162164 0.063039
Si Si3 0.722047 0.447549 0.287593
Si Si4 0.612515 0.810461 0.389806
Si Si5 0.165385 0.350336 0.582575
Si Si6 0.054377 0.861454 0.298340
Si Si7 0.405917 0.962732 0.091171
O O1 0.476271 0.397188 0.143397
O O2 0.247325 0.534678 0.510266
O O3 0.987908 0.398140 0.168711
O O4 0.087510 0.561796 0.270178
O O5 0.336066 0.115825 0.961017
O O6 0.905959 0.182340 0.929638
O O7 0.855678 0.088782 0.015266
O O8 0.088481 0.257623 0.325777
O O9 0.681876 0.570306 0.387225
O O10 0.696750 0.708213 0.355211
O O11 0.317492 0.823837 0.345800
O O12 0.817569 0.815280 0.286138
O O13 0.641011 0.926587 0.650151
O O14 0.000000 0.000000 0.500000
O O15 0.500000 0.000000 0.000000
#
# Coordination Sequence:
#
# PCOD9036359 Si02
#       7
#     2   2   2   2   2   2   2
#     4   8  16  31  53  79 112 136 164 209 277 332
#     4  12  25  36  58  74 113 143 190 226 275 319
#     4   8  16  32  51  81 111 137 161 213 275 334
#     4  12  24  37  60  74 109 145 196 228 269 313
#     4  10  23  33  58  89 107 134 179 241 268 312
#     4  12  24  42  52  74 104 160 191 223 269 332
#     4  12  23  37  54  83 103 142 186 242 275 312
#
# _framework density 24.062474999999999
#
# number of rings (size 3 to 8) (size 9 to 14) (size 15 to 20)
#    0.857    0.571    4.286    1.714    6.000    0.000 
#    0.000    0.000    0.000    0.000    0.000    8.000 
#    0.000    0.000    0.000    0.000    0.000    0.000 
#
# Total GULP energy -78096.868649 kJ/mol
# GULP energy per Si atom -5578.347761 kJ/mol
# Density = 2.400771 g / cm^3
# Si number density = 24.062475 Si / 1000 Ang^3
#
#
#
# Elastic Constant Matrix: (Units=GPa)
#
#
# Indices 1 2 3 4 5 6 
#
# 1 176.1329 47.9988 13.1293 4.1696 14.4626 -7.2699
# 2 47.9988 130.8781 20.8038 -15.3554 11.2992 -13.1165
# 3 13.1293 20.8038 49.6503 -9.1998 -5.5265 -2.6360
# 4 4.1696 -15.3554 -9.1998 32.2985 -3.1550 -0.6753
# 5 14.4626 11.2992 -5.5265 -3.1550 29.0839 -5.3551
# 6 -7.2699 -13.1165 -2.6360 -0.6753 -5.3551 46.4933
#
#
#
# Elastic Compliance Matrix: (Units=1/GPa)
#
#
# Indices 1 2 3 4 5 6 
#
# 1 0.006736 -0.002262 -0.001689 -0.002731 -0.003102 -0.000078
# 2 -0.002262 0.009814 -0.002953 0.003919 -0.002451 0.002022
# 3 -0.001689 -0.002953 0.023898 0.006373 0.007442 0.001207
# 4 -0.002731 0.003919 0.006373 0.035556 0.005302 0.002167
# 5 -0.003102 -0.002451 0.007442 0.005302 0.039582 0.003881
# 6 -0.000078 0.002022 0.001207 0.002167 0.003881 0.022614
#
#
# Mechanical properties :
#
#
# Convention : Reuss Voigt Hill
#
# Bulk Modulus (GPa) = 37.53788 57.83614 47.68701
# Shear Modulus (GPa) = 31.07742 39.89043 35.48393
#
# Velocity S-wave (km/s) = 3.59769 4.07601 3.84429
# Velocity P-wave (km/s) = 5.73514 6.79999 6.29014
#
# Compressibility (1/GPa) = 0.02663976
#
# Stress axis : x y z
#
# Youngs Moduli (GPa) = 148.45378 101.89549 41.84420
#
# Poissons Ratio (x) = 0.23052 0.07066
# Poissons Ratio (y) = 0.33586 0.12357
# Poissons Ratio (z) = 0.25070 0.30091
#
# Static dielectric constant tensor:
#      x y z
#    x 1.808630 -0.059910 0.081830 
#    y -0.059910 2.082390 -0.045740 
#    z 0.081830 -0.045740 1.883500 
# 
# From -- ./inp_files/115997.got.cif
#   From: 2010.05.17/outbox.cif.g08.bks.cpg/sg2_58_cif.got.tgz:115997.got - 2010.06.03 11:33:40.
