data_PCOD9036357
_publ_section_title
;
Structure prediction by ZEFSAII (Michael W. Deem and Ramdas Pophale) SiO2 
 PCOD9036357
Probable space group: P -1
;
_chemical_formula_sum "Si O2"
_cell_formula_units_Z 16
_cell_length_a 27.561669
_cell_length_b 27.815540
_cell_length_c 11.242081
_cell_angle_alpha 150.168865
_cell_angle_beta 151.085069
_cell_angle_gamma 10.612843
_cell_volume 765.018265
_symmetry_space_group_name_H-M "P -1"
_symmetry_group_IT_number 2
_symmetry_cell_setting 'triclinic'
loop_
_space_group_symop_operation_xyz
x,y,z
-x,-y,-z
loop_
_atom_site_type_symbol
_atom_site_label
_atom_site_fract_x
_atom_site_fract_y
_atom_site_fract_z
Si Si1 0.981799 0.630076 0.221102
Si Si2 0.499708 0.651257 0.471018
Si Si3 0.036332 0.181565 0.900954
Si Si4 0.628137 0.393117 0.363822
Si Si5 0.573052 0.141187 0.545749
Si Si6 0.762865 0.167236 0.926066
Si Si7 0.540686 0.661630 0.021349
Si Si8 0.102908 0.183672 0.795818
O O1 0.285405 0.396497 0.405578
O O2 0.896488 0.732974 0.122769
O O3 0.748381 0.887822 0.355934
O O4 0.000000 0.500000 0.000000
O O5 0.416547 0.658963 0.421695
O O6 0.478144 0.619556 0.229760
O O7 0.808907 0.400284 0.613967
O O8 0.325179 0.904427 0.641166
O O9 0.855539 0.251941 0.616638
O O10 0.114501 0.182616 0.961503
O O11 0.834834 0.411376 0.056578
O O12 0.306622 0.902451 0.944926
O O13 0.739753 0.245247 0.165225
O O14 0.501920 0.415163 0.208754
O O15 0.777372 0.042179 0.725380
O O16 0.498802 0.241222 0.734592
O O17 0.000000 0.000000 0.000000
#
# Coordination Sequence:
#
# PCOD9036357 Si02
#       8
#     2   2   2   2   2   2   2   2
#     4  12  24  46  75 100 127 157 206 282 346 394
#     4  11  21  37  54  87 132 168 208 261 314 376
#     4  11  22  39  59  84 126 176 223 259 300 360
#     4  10  23  33  55  87 124 178 228 255 293 363
#     4  11  25  43  67  98 133 166 216 262 324 396
#     4  11  21  35  58  90 138 176 207 251 318 380
#     4  11  24  41  60  85 130 179 218 259 300 366
#     4  11  22  40  64  92 122 159 211 270 326 385
#
# _framework density 20.914532999999999
#
# number of rings (size 3 to 8) (size 9 to 14) (size 15 to 20)
#    0.000    1.000    2.500    5.250    0.000    6.000 
#    0.000    0.000    0.000    4.500    0.000    0.000 
#    0.000    0.000    0.000    0.000    0.000    0.000 
#
# Total GULP energy -89337.418256 kJ/mol
# GULP energy per Si atom -5583.588641 kJ/mol
# Density = 2.086693 g / cm^3
# Si number density = 20.914533 Si / 1000 Ang^3
#
#
#
# Elastic Constant Matrix: (Units=GPa)
#
#
# Indices 1 2 3 4 5 6 
#
# 1 155.4910 50.5313 47.2056 31.0252 0.6716 12.1921
# 2 50.5313 114.7081 22.8634 33.0034 4.3103 5.2955
# 3 47.2056 22.8634 54.7847 21.7846 5.3093 5.8466
# 4 31.0252 33.0034 21.7846 35.4583 3.0637 -1.8446
# 5 0.6716 4.3103 5.3093 3.0637 26.2042 11.2538
# 6 12.1921 5.2955 5.8466 -1.8446 11.2538 41.3400
#
#
#
# Elastic Compliance Matrix: (Units=1/GPa)
#
#
# Indices 1 2 3 4 5 6 
#
# 1 0.009890 -0.002181 -0.006378 -0.003094 0.002903 -0.002664
# 2 -0.002181 0.012568 0.000975 -0.010434 -0.000356 -0.001473
# 3 -0.006378 0.000975 0.029053 -0.012975 -0.003519 -0.001974
# 4 -0.003094 -0.010434 -0.012975 0.049381 -0.004585 0.007536
# 5 0.002903 -0.000356 -0.003519 -0.004585 0.044862 -0.012730
# 6 -0.002664 -0.001473 -0.001974 0.007536 -0.012730 0.029245
#
#
# Mechanical properties :
#
#
# Convention : Reuss Voigt Hill
#
# Bulk Modulus (GPa) = 27.51587 62.90939 45.21263
# Shear Modulus (GPa) = 24.71794 34.22608 29.47201
#
# Velocity S-wave (km/s) = 3.44154 4.04972 3.75796
# Velocity P-wave (km/s) = 5.38304 7.21191 6.36352
#
# Compressibility (1/GPa) = 0.03634266
#
# Stress axis : x y z
#
# Youngs Moduli (GPa) = 101.10941 79.56856 34.41948
#
# Poissons Ratio (x) = 0.17358 0.21954
# Poissons Ratio (y) = 0.22057 -0.03358
# Poissons Ratio (z) = 0.64492 -0.07762
#
# Static dielectric constant tensor:
#      x y z
#    x 1.852750 0.028710 -0.007140 
#    y 0.028710 1.763950 0.016590 
#    z -0.007140 0.016590 1.774330 
# 
# From -- ./inp_files/477249.got.cif
#   From: 2010.05.17/outbox.cif.g08.bks.cpg/sg2_239_cif.got.tgz:477249.got - 2010.06.03 11:33:40.
