data_PCOD9036078
_publ_section_title
;
Structure prediction by ZEFSAII (Michael W. Deem and Ramdas Pophale) SiO2 
 PCOD9036078
Probable space group: P -1
;
_chemical_formula_sum "Si O2"
_cell_formula_units_Z 16
_cell_length_a 7.293257
_cell_length_b 5.732125
_cell_length_c 21.408400
_cell_angle_alpha 102.422992
_cell_angle_beta 131.214711
_cell_angle_gamma 97.051473
_cell_volume 613.397612
_symmetry_space_group_name_H-M "P -1"
_symmetry_group_IT_number 2
_symmetry_cell_setting 'triclinic'
loop_
_space_group_symop_operation_xyz
x,y,z
-x,-y,-z
loop_
_atom_site_type_symbol
_atom_site_label
_atom_site_fract_x
_atom_site_fract_y
_atom_site_fract_z
Si Si1 0.238148 0.394151 0.045475
Si Si2 0.014995 0.311420 0.234828
Si Si3 0.182216 0.385920 0.573775
Si Si4 0.079647 0.889976 0.934084
Si Si5 0.391335 0.902651 0.700827
Si Si6 0.159684 0.063838 0.439890
Si Si7 0.490137 0.917539 0.132725
Si Si8 0.279719 0.921681 0.330425
O O1 0.505719 0.632326 0.120809
O O2 0.172651 0.218690 0.082988
O O3 0.000000 0.500000 0.000000
O O4 0.174442 0.195506 0.963190
O O5 0.980502 0.267076 0.150561
O O6 0.128828 0.616783 0.288247
O O7 0.727878 0.178512 0.191059
O O8 0.147529 0.110852 0.278828
O O9 0.381541 0.614676 0.671390
O O10 0.988505 0.186203 0.566236
O O11 0.000000 0.500000 0.500000
O O12 0.299004 0.272812 0.536170
O O13 0.319792 0.880062 0.029110
O O14 0.092291 0.883148 0.642180
O O15 0.572085 0.054589 0.806416
O O16 0.488374 0.044111 0.664914
O O17 0.328212 0.036548 0.417801
#
# Coordination Sequence:
#
# PCOD9036078 Si02
#       8
#     2   2   2   2   2   2   2   2
#     4   9  21  38  61  93 126 178 233 296 351 418
#     4  12  28  46  66 104 143 189 243 299 351 417
#     4   9  21  43  77 104 140 181 230 285 352 432
#     4  10  23  40  65  93 135 185 241 299 352 416
#     4  11  24  43  70 105 141 190 235 287 358 418
#     4  10  22  47  72 105 143 184 228 290 356 422
#     4  11  23  41  67  96 135 189 234 297 352 411
#     4  12  29  46  72 106 148 188 238 296 345 425
#
# _framework density 26.084223999999999
#
# number of rings (size 3 to 8) (size 9 to 14) (size 15 to 20)
#    0.000    1.500    1.250    1.875   14.000    2.000 
#    0.000    5.625    0.000    0.000    0.000    0.000 
#    0.000    0.000    0.000    0.000    0.000    0.000 
#
# Total GULP energy -89303.489898 kJ/mol
# GULP energy per Si atom -5581.468119 kJ/mol
# Density = 2.602486 g / cm^3
# Si number density = 26.084224 Si / 1000 Ang^3
#
#
#
# Elastic Constant Matrix: (Units=GPa)
#
#
# Indices 1 2 3 4 5 6 
#
# 1 71.0040 -1.8412 13.1062 -8.2848 -14.2106 13.0038
# 2 -1.8412 109.5497 30.6141 16.8037 6.8474 -4.5339
# 3 13.1062 30.6141 123.6762 -24.1414 -14.0091 -13.1096
# 4 -8.2848 16.8037 -24.1414 48.4710 4.1117 3.8337
# 5 -14.2106 6.8474 -14.0091 4.1117 41.2619 1.0413
# 6 13.0038 -4.5339 -13.1096 3.8337 1.0413 33.8805
#
#
#
# Elastic Compliance Matrix: (Units=1/GPa)
#
#
# Indices 1 2 3 4 5 6 
#
# 1 0.017105 -0.000341 -0.001441 0.002468 0.005404 -0.007614
# 2 -0.000341 0.011411 -0.004183 -0.005918 -0.002862 0.000797
# 3 -0.001441 -0.004183 0.011241 0.006243 0.003303 0.003535
# 4 0.002468 -0.005918 0.006243 0.026281 0.001392 -0.002340
# 5 0.005404 -0.002862 0.003303 0.001392 0.027610 -0.002185
# 6 -0.007614 0.000797 0.003535 -0.002340 -0.002185 0.034244
#
#
# Mechanical properties :
#
#
# Convention : Reuss Voigt Hill
#
# Bulk Modulus (GPa) = 35.93809 43.10979 39.52394
# Shear Modulus (GPa) = 33.53468 42.21274 37.87371
#
# Velocity S-wave (km/s) = 3.58946 4.02720 3.81462
# Velocity P-wave (km/s) = 5.56656 6.17961 5.88108
#
# Compressibility (1/GPa) = 0.02782563
#
# Stress axis : x y z
#
# Youngs Moduli (GPa) = 58.46279 87.63261 88.95660
#
# Poissons Ratio (x) = 0.02990 0.12822
# Poissons Ratio (y) = 0.01994 0.37215
# Poissons Ratio (z) = 0.08427 0.36661
#
# Static dielectric constant tensor:
#      x y z
#    x 2.207410 -0.099850 0.082560 
#    y -0.099850 2.206350 0.031300 
#    z 0.082560 0.031300 2.043810 
# 
# From -- ./inp_files/585745.got.cif
#   From: 2010.05.17/outbox.cif.g08.bks.cpg/sg2_293_cif.got.tgz:585745.got - 2010.06.03 11:33:40.
