data_PCOD9036532
_publ_section_title
;
Structure prediction by ZEFSAII (Michael W. Deem and Ramdas Pophale) SiO2 
 PCOD9036532
Probable space group: P -1
;
_chemical_formula_sum "Si O2"
_cell_formula_units_Z 14
_cell_length_a 8.522790
_cell_length_b 13.072824
_cell_length_c 10.151031
_cell_angle_alpha 75.866884
_cell_angle_beta 120.707650
_cell_angle_gamma 141.997763
_cell_volume 571.340623
_symmetry_space_group_name_H-M "P -1"
_symmetry_group_IT_number 2
_symmetry_cell_setting 'triclinic'
loop_
_space_group_symop_operation_xyz
x,y,z
-x,-y,-z
loop_
_atom_site_type_symbol
_atom_site_label
_atom_site_fract_x
_atom_site_fract_y
_atom_site_fract_z
Si Si1 0.929650 0.990051 0.659743
Si Si2 0.155178 0.750832 0.163572
Si Si3 0.793109 0.001048 0.873385
Si Si4 0.652300 0.647134 0.625262
Si Si5 0.473561 0.860286 0.026570
Si Si6 0.836560 0.135556 0.397606
Si Si7 0.084728 0.422058 0.609220
O O1 0.312097 0.210130 0.419238
O O2 0.235162 0.070802 0.813116
O O3 0.992731 0.104399 0.539707
O O4 0.782454 0.988326 0.716765
O O5 0.204123 0.712319 0.059701
O O6 0.989670 0.622210 0.254533
O O7 0.033809 0.813012 0.067266
O O8 0.493417 0.940349 0.296222
O O9 0.494790 0.848534 0.882653
O O10 0.000000 0.000000 0.000000
O O11 0.500000 0.500000 0.500000
O O12 0.993883 0.767805 0.699819
O O13 0.428942 0.542763 0.687364
O O14 0.500000 0.000000 0.000000
O O15 0.890784 0.252969 0.488121
O O16 0.000000 0.500000 0.500000
#
# Coordination Sequence:
#
# PCOD9036532 Si02
#       7
#     2   2   2   2   2   2   2
#     4  11  19  37  66  88 125 158 207 261 296 369
#     4  11  20  38  63  91 123 152 210 262 297 372
#     4   9  20  36  60  95 113 155 219 266 294 334
#     4  10  23  38  53  91 131 161 189 236 325 384
#     4   9  20  36  61  93 116 156 216 266 291 337
#     4  11  22  37  60  95 117 163 207 246 322 367
#     4  11  24  36  54  92 133 159 190 244 322 383
#
# _framework density 24.503771
#
# number of rings (size 3 to 8) (size 9 to 14) (size 15 to 20)
#    0.000    1.714    2.857    1.714    4.000    0.000 
#    0.000    0.000    0.000    8.571    0.000    0.000 
#    0.000    0.000    0.000    0.000    0.000    0.000 
#
# Total GULP energy -78002.116710 kJ/mol
# GULP energy per Si atom -5571.579765 kJ/mol
# Density = 2.444800 g / cm^3
# Si number density = 24.503771 Si / 1000 Ang^3
#
#
#
# Elastic Constant Matrix: (Units=GPa)
#
#
# Indices 1 2 3 4 5 6 
#
# 1 143.5674 37.4023 30.6708 -25.0216 -25.3609 30.1359
# 2 37.4023 70.9268 26.4008 -16.6035 -14.0720 12.3661
# 3 30.6708 26.4008 81.8354 -28.3484 -16.6659 24.1515
# 4 -25.0216 -16.6035 -28.3484 38.7872 15.0470 -15.9248
# 5 -25.3609 -14.0720 -16.6659 15.0470 66.3837 -18.3930
# 6 30.1359 12.3661 24.1515 -15.9248 -18.3930 55.0843
#
#
#
# Elastic Compliance Matrix: (Units=1/GPa)
#
#
# Indices 1 2 3 4 5 6 
#
# 1 0.009210 -0.003357 -0.000354 0.002516 0.001328 -0.002959
# 2 -0.003357 0.017952 -0.003508 0.002715 0.001171 0.000520
# 3 -0.000354 -0.003508 0.018111 0.009715 0.000348 -0.004035
# 4 0.002516 0.002715 0.009715 0.038633 -0.003766 0.003666
# 5 0.001328 0.001171 0.000348 -0.003766 0.017788 0.003709
# 6 -0.002959 0.000520 -0.004035 0.003666 0.003709 0.023723
#
#
# Mechanical properties :
#
#
# Convention : Reuss Voigt Hill
#
# Bulk Modulus (GPa) = 32.42945 53.91971 43.17458
# Shear Modulus (GPa) = 33.30386 45.50809 39.40598
#
# Velocity S-wave (km/s) = 3.69064 4.31418 4.01454
# Velocity P-wave (km/s) = 5.60574 6.84607 6.25672
#
# Compressibility (1/GPa) = 0.03083617
#
# Stress axis : x y z
#
# Youngs Moduli (GPa) = 108.58301 55.70388 55.21483
#
# Poissons Ratio (x) = 0.18698 0.01952
# Poissons Ratio (y) = 0.36447 0.19370
# Poissons Ratio (z) = 0.03839 0.19542
#
# Static dielectric constant tensor:
#      x y z
#    x 2.103460 0.057000 0.010380 
#    y 0.057000 1.968990 -0.007120 
#    z 0.010380 -0.007120 2.050130 
# 
# From -- ./inp_files/394099.got.cif
#   From: 2010.05.17/outbox.cif.g08.bks.cpg/sg2_198_cif.got.tgz:394099.got - 2010.06.03 11:33:40.
