data_PCOD9036037
_publ_section_title
;
Structure prediction by ZEFSAII (Michael W. Deem and Ramdas Pophale) SiO2 
 PCOD9036037
Probable space group: P -1
;
_chemical_formula_sum "Si O2"
_cell_formula_units_Z 16
_cell_length_a 12.265618
_cell_length_b 14.876351
_cell_length_c 9.672277
_cell_angle_alpha 37.090922
_cell_angle_beta 104.506050
_cell_angle_gamma 129.365893
_cell_volume 688.364107
_symmetry_space_group_name_H-M "P -1"
_symmetry_group_IT_number 2
_symmetry_cell_setting 'triclinic'
loop_
_space_group_symop_operation_xyz
x,y,z
-x,-y,-z
loop_
_atom_site_type_symbol
_atom_site_label
_atom_site_fract_x
_atom_site_fract_y
_atom_site_fract_z
Si Si1 0.759405 0.581181 0.915637
Si Si2 0.896866 0.502776 0.570509
Si Si3 0.865841 0.927291 0.373004
Si Si4 0.468948 0.393946 0.477316
Si Si5 0.676892 0.026211 0.166377
Si Si6 0.807155 0.667552 0.126674
Si Si7 0.038450 0.688782 0.694098
Si Si8 0.424856 0.085594 0.414844
O O1 0.813480 0.809158 0.649293
O O2 0.899909 0.658668 0.759789
O O3 0.788007 0.558854 0.109675
O O4 0.569978 0.348802 0.103060
O O5 0.849446 0.605011 0.346965
O O6 0.000000 0.500000 0.500000
O O7 0.994408 0.627609 0.592651
O O8 0.732550 0.243169 0.874439
O O9 0.705589 0.711291 0.502649
O O10 0.841802 0.082773 0.171652
O O11 0.037948 0.069572 0.174479
O O12 0.500000 0.500000 0.500000
O O13 0.630579 0.573313 0.212856
O O14 0.430394 0.177753 0.725447
O O15 0.590566 0.935616 0.398199
O O16 0.236423 0.920378 0.496683
O O17 0.000000 0.500000 0.000000
O O18 0.500000 0.000000 0.500000
#
# Coordination Sequence:
#
# PCOD9036037 Si02
#       8
#     2   2   2   2   2   2   2   2
#     4  12  25  48  76 109 142 197 248 307 365 436
#     4  12  24  45  75 110 148 195 240 302 377 442
#     4  10  25  47  72 105 145 189 258 295 361 435
#     4  10  25  47  70 105 152 190 243 302 362 449
#     4  10  22  47  70 106 145 187 248 303 356 444
#     4  12  25  46  80 103 147 197 241 302 380 426
#     4  12  25  45  76 109 150 186 250 306 360 445
#     4  12  24  45  75 107 147 189 247 304 368 427
#
# _framework density 23.243514000000001
#
# number of rings (size 3 to 8) (size 9 to 14) (size 15 to 20)
#    0.750    0.000    5.000    1.875    1.750    4.000 
#    6.750    0.000    0.000    0.000    0.000    0.000 
#    0.000    0.000    0.000    0.000    0.000    0.000 
#
# Total GULP energy -89310.975324 kJ/mol
# GULP energy per Si atom -5581.935958 kJ/mol
# Density = 2.319061 g / cm^3
# Si number density = 23.243514 Si / 1000 Ang^3
#
#
#
# Elastic Constant Matrix: (Units=GPa)
#
#
# Indices 1 2 3 4 5 6 
#
# 1 70.2831 63.7754 40.9809 -7.5796 -27.7083 2.7278
# 2 63.7754 177.4265 95.4589 -5.9749 -22.0538 -0.3264
# 3 40.9809 95.4589 180.0434 -35.5424 -4.6741 14.0566
# 4 -7.5796 -5.9749 -35.5424 46.7822 14.8950 -16.4715
# 5 -27.7083 -22.0538 -4.6741 14.8950 46.8525 2.9483
# 6 2.7278 -0.3264 14.0566 -16.4715 2.9483 37.4125
#
#
#
# Elastic Compliance Matrix: (Units=1/GPa)
#
#
# Indices 1 2 3 4 5 6 
#
# 1 0.027307 -0.006583 -0.002962 -0.004765 0.014533 -0.004179
# 2 -0.006583 0.010786 -0.004980 -0.003860 0.001876 0.000598
# 3 -0.002962 -0.004980 0.010426 0.008924 -0.005934 0.000652
# 4 -0.004765 -0.003860 0.008924 0.037332 -0.016538 0.014700
# 5 0.014533 0.001876 -0.005934 -0.016538 0.036049 -0.008936
# 6 -0.004179 0.000598 0.000652 0.014700 -0.008936 0.033970
#
#
# Mechanical properties :
#
#
# Convention : Reuss Voigt Hill
#
# Bulk Modulus (GPa) = 51.36889 92.02038 71.69464
# Shear Modulus (GPa) = 26.12178 41.37863 33.75021
#
# Velocity S-wave (km/s) = 3.35600 4.22385 3.81468
# Velocity P-wave (km/s) = 6.09633 7.96640 7.09326
#
# Compressibility (1/GPa) = 0.01946704
#
# Stress axis : x y z
#
# Youngs Moduli (GPa) = 36.62083 92.70912 95.91662
#
# Poissons Ratio (x) = 0.61034 0.28412
# Poissons Ratio (y) = 0.24109 0.47770
# Poissons Ratio (z) = 0.10848 0.46173
#
# Static dielectric constant tensor:
#      x y z
#    x 2.370240 0.346120 0.409450 
#    y 0.346120 2.148200 0.273280 
#    z 0.409450 0.273280 2.257310 
# 
# From -- ./inp_files/316911.got.cif
#   From: 2010.05.17/outbox.cif.g08.bks.cpg/sg2_159_cif.got.tgz:316911.got - 2010.06.03 11:33:40.
