data_PCOD9036875
_publ_section_title
;
Structure prediction by ZEFSAII (Michael W. Deem and Ramdas Pophale) SiO2 
 PCOD9036875
Probable space group: P -1
;
_chemical_formula_sum "Si O2"
_cell_formula_units_Z 12
_cell_length_a 10.942600
_cell_length_b 12.711613
_cell_length_c 9.476122
_cell_angle_alpha 70.479171
_cell_angle_beta 128.299816
_cell_angle_gamma 66.066866
_cell_volume 546.063513
_symmetry_space_group_name_H-M "P -1"
_symmetry_group_IT_number 2
_symmetry_cell_setting 'triclinic'
loop_
_space_group_symop_operation_xyz
x,y,z
-x,-y,-z
loop_
_atom_site_type_symbol
_atom_site_label
_atom_site_fract_x
_atom_site_fract_y
_atom_site_fract_z
Si Si1 0.585398 0.911620 0.257028
Si Si2 0.608259 0.498123 0.245245
Si Si3 0.074007 0.498194 0.397381
Si Si4 0.994569 0.817908 0.782639
Si Si5 0.769729 0.833256 0.865734
Si Si6 0.778117 0.169098 0.387531
O O1 0.733377 0.706964 0.440935
O O2 0.800124 0.869811 0.504664
O O3 0.321336 0.054478 0.104962
O O4 0.500000 0.000000 0.000000
O O5 0.769459 0.477502 0.480417
O O6 0.787913 0.286251 0.413356
O O7 0.516986 0.638032 0.990527
O O8 0.308307 0.638873 0.028099
O O9 0.000000 0.500000 0.500000
O O10 0.831495 0.672164 0.036961
O O11 0.996188 0.751641 0.961437
O O12 0.843211 0.028274 0.601528
O O13 0.500000 0.000000 0.500000
O O14 0.000000 0.000000 0.500000
#
# Coordination Sequence:
#
# PCOD9036875 Si02
#       6
#     2   2   2   2   2   2
#     4  11  23  42  71  98 135 176 226 273 331 402
#     4  10  23  39  64  99 131 173 228 272 334 397
#     4  12  26  41  69  98 136 174 227 281 332 396
#     4  10  23  42  68  97 135 175 220 277 340 391
#     4  10  25  44  65 101 136 177 222 274 344 399
#     4   9  20  37  64  94 133 172 219 268 331 396
#
# _framework density 21.975466000000001
#
# number of rings (size 3 to 8) (size 9 to 14) (size 15 to 20)
#    0.000    1.667    1.667    1.000    9.333    7.333 
#    0.000    1.667    0.000    0.000    0.000    0.000 
#    0.000    0.000    0.000    0.000    0.000    0.000 
#
# Total GULP energy -66907.102506 kJ/mol
# GULP energy per Si atom -5575.591876 kJ/mol
# Density = 2.192545 g / cm^3
# Si number density = 21.975466 Si / 1000 Ang^3
#
#
#
# Elastic Constant Matrix: (Units=GPa)
#
#
# Indices 1 2 3 4 5 6 
#
# 1 121.6606 42.4803 46.6387 -4.1427 -19.0508 -20.3932
# 2 42.4803 152.8286 56.3661 -41.2917 -9.5145 12.1460
# 3 46.6387 56.3661 104.4044 -13.0219 -22.6783 3.3140
# 4 -4.1427 -41.2917 -13.0219 42.2256 5.8880 -4.4228
# 5 -19.0508 -9.5145 -22.6783 5.8880 48.3461 5.0555
# 6 -20.3932 12.1460 3.3140 -4.4228 5.0555 35.9606
#
#
#
# Elastic Compliance Matrix: (Units=1/GPa)
#
#
# Indices 1 2 3 4 5 6 
#
# 1 0.012381 -0.003173 -0.003979 -0.002551 0.001874 0.007882
# 2 -0.003173 0.011717 -0.003903 0.009741 -0.001545 -0.003982
# 3 -0.003979 -0.003903 0.014530 -0.000727 0.004888 -0.003054
# 4 -0.002551 0.009741 -0.000727 0.033206 -0.003463 -0.000099
# 5 0.001874 -0.001545 0.004888 -0.003463 0.024114 -0.002682
# 6 0.007882 -0.003982 -0.003054 -0.000099 -0.002682 0.034269
#
#
# Mechanical properties :
#
#
# Convention : Reuss Voigt Hill
#
# Bulk Modulus (GPa) = 60.53500 74.42930 67.48215
# Shear Modulus (GPa) = 31.67937 40.86705 36.27321
#
# Velocity S-wave (km/s) = 3.80093 4.31706 4.06719
# Velocity P-wave (km/s) = 6.84611 7.66761 7.26847
#
# Compressibility (1/GPa) = 0.01651937
#
# Stress axis : x y z
#
# Youngs Moduli (GPa) = 80.77186 85.34854 68.82091
#
# Poissons Ratio (x) = 0.27079 0.27383
# Poissons Ratio (y) = 0.25627 0.26858
# Poissons Ratio (z) = 0.32138 0.33308
#
# Static dielectric constant tensor:
#      x y z
#    x 1.896810 -0.034580 0.024870 
#    y -0.034580 1.490290 0.258840 
#    z 0.024870 0.258840 1.680170 
# 
# From -- ./inp_files/256362.got.cif
#   From: 2010.05.17/outbox.cif.g08.bks.cpg/sg2_129_cif.got.tgz:256362.got - 2010.06.03 11:33:40.
