data_PCOD9036113
_publ_section_title
;
Structure prediction by ZEFSAII (Michael W. Deem and Ramdas Pophale) SiO2 
 PCOD9036113
Probable space group: P -1
;
_chemical_formula_sum "Si O2"
_cell_formula_units_Z 14
_cell_length_a 17.863761
_cell_length_b 5.294737
_cell_length_c 11.810898
_cell_angle_alpha 77.936739
_cell_angle_beta 150.971075
_cell_angle_gamma 99.241340
_cell_volume 529.536108
_symmetry_space_group_name_H-M "P -1"
_symmetry_group_IT_number 2
_symmetry_cell_setting 'triclinic'
loop_
_space_group_symop_operation_xyz
x,y,z
-x,-y,-z
loop_
_atom_site_type_symbol
_atom_site_label
_atom_site_fract_x
_atom_site_fract_y
_atom_site_fract_z
Si Si1 0.095233 0.159641 0.956325
Si Si2 0.569526 0.765746 0.533995
Si Si3 0.957414 0.022096 0.310195
Si Si4 0.705319 0.925142 0.309145
Si Si5 0.137121 0.685909 0.182474
Si Si6 0.404561 0.617148 0.705373
Si Si7 0.377166 0.990724 0.063875
O O1 0.245647 0.275510 0.199356
O O2 0.145637 0.857154 0.066344
O O3 0.057780 0.226303 0.771023
O O4 0.940474 0.171411 0.823590
O O5 0.500000 0.500000 0.500000
O O6 0.500000 0.000000 0.500000
O O7 0.516993 0.849571 0.330466
O O8 0.776538 0.103757 0.070520
O O9 0.000000 0.000000 0.500000
O O10 0.109217 0.142999 0.444661
O O11 0.623697 0.656556 0.248596
O O12 0.658960 0.150472 0.316491
O O13 0.655327 0.034679 0.109782
O O14 0.303408 0.611544 0.457959
O O15 0.000000 0.500000 0.000000
O O16 0.576565 0.706434 0.894347
#
# Coordination Sequence:
#
# PCOD9036113 Si02
#       7
#     2   2   2   2   2   2   2
#     4  11  23  46  68 106 143 191 247 300 368 440
#     4  12  28  45  71 103 144 190 235 301 369 439
#     4  10  22  47  74 107 147 195 244 305 370 445
#     4  11  26  48  75 106 149 197 246 304 366 449
#     4  11  25  40  75 102 144 194 248 304 361 444
#     4  12  25  47  75 110 146 194 250 307 368 435
#     4  11  25  48  73 111 147 194 245 306 374 437
#
# _framework density 26.438236
#
# number of rings (size 3 to 8) (size 9 to 14) (size 15 to 20)
#    0.000    0.857    4.286    1.714    4.000    3.429 
#    0.000    3.571    0.000    0.000    0.000    0.000 
#    0.000    0.000    0.000    0.000    0.000    0.000 
#
# Total GULP energy -78161.391972 kJ/mol
# GULP energy per Si atom -5582.956569 kJ/mol
# Density = 2.637806 g / cm^3
# Si number density = 26.438236 Si / 1000 Ang^3
#
#
#
# Elastic Constant Matrix: (Units=GPa)
#
#
# Indices 1 2 3 4 5 6 
#
# 1 128.7258 47.9584 60.7630 -4.2870 -12.2733 8.6896
# 2 47.9584 139.4987 30.0487 12.8190 8.9693 15.8999
# 3 60.7630 30.0487 169.8405 30.6086 0.2984 5.6498
# 4 -4.2870 12.8190 30.6086 32.4354 3.8137 10.2851
# 5 -12.2733 8.9693 0.2984 3.8137 70.4371 7.7723
# 6 8.6896 15.8999 5.6498 10.2851 7.7723 38.5181
#
#
#
# Elastic Compliance Matrix: (Units=1/GPa)
#
#
# Indices 1 2 3 4 5 6 
#
# 1 0.012408 -0.003725 -0.005268 0.008851 0.002551 -0.003367
# 2 -0.003725 0.008971 0.000490 -0.003817 -0.001407 -0.001631
# 3 -0.005268 0.000490 0.009511 -0.010593 -0.000730 0.002567
# 4 0.008851 -0.003817 -0.010593 0.047090 0.000804 -0.011603
# 5 0.002551 -0.001407 -0.000730 0.000804 0.015128 -0.003155
# 6 -0.003367 -0.001631 0.002567 -0.011603 -0.003155 0.030753
#
#
# Mechanical properties :
#
#
# Convention : Reuss Voigt Hill
#
# Bulk Modulus (GPa) = 72.02042 79.51168 75.76605
# Shear Modulus (GPa) = 34.36567 48.23111 41.29839
#
# Velocity S-wave (km/s) = 3.60925 4.27581 3.95659
# Velocity P-wave (km/s) = 6.68349 7.38353 7.04222
#
# Compressibility (1/GPa) = 0.01388495
#
# Stress axis : x y z
#
# Youngs Moduli (GPa) = 80.59376 111.47497 105.14422
#
# Poissons Ratio (x) = 0.41520 0.55387
# Poissons Ratio (y) = 0.30018 -0.05154
# Poissons Ratio (z) = 0.42454 -0.05464
#
# Static dielectric constant tensor:
#      x y z
#    x 2.201990 -0.141880 0.076340 
#    y -0.141880 2.217080 -0.192830 
#    z 0.076340 -0.192830 2.493390 
# 
# From -- ./inp_files/459490.got.cif
#   From: 2010.05.17/outbox.cif.g08.bks.cpg/sg2_230_cif.got.tgz:459490.got - 2010.06.03 11:33:40.
