data_PCOD9036347
_publ_section_title
;
Structure prediction by ZEFSAII (Michael W. Deem and Ramdas Pophale) SiO2 
 PCOD9036347
Probable space group: P -1
;
_chemical_formula_sum "Si O2"
_cell_formula_units_Z 14
_cell_length_a 5.092406
_cell_length_b 23.801452
_cell_length_c 4.767560
_cell_angle_alpha 56.596289
_cell_angle_beta 88.608189
_cell_angle_gamma 99.396578
_cell_volume 471.336460
_symmetry_space_group_name_H-M "P -1"
_symmetry_group_IT_number 2
_symmetry_cell_setting 'triclinic'
loop_
_space_group_symop_operation_xyz
x,y,z
-x,-y,-z
loop_
_atom_site_type_symbol
_atom_site_label
_atom_site_fract_x
_atom_site_fract_y
_atom_site_fract_z
Si Si1 0.936702 0.045848 0.624916
Si Si2 0.219311 0.721593 0.031330
Si Si3 0.159894 0.307629 0.372047
Si Si4 0.000000 0.500000 0.000000
Si Si5 0.817206 0.841882 0.311355
Si Si6 0.367361 0.603958 0.664818
Si Si7 0.368218 0.869431 0.860877
Si Si8 0.500000 0.500000 0.500000
O O1 0.116851 0.121045 0.494712
O O2 0.651639 0.065715 0.510885
O O3 0.000000 0.000000 0.500000
O O4 0.000000 0.000000 0.000000
O O5 0.951563 0.705244 0.276186
O O6 0.390459 0.668779 0.286488
O O7 0.106006 0.704153 0.776729
O O8 0.347388 0.800615 0.866871
O O9 0.278247 0.240633 0.462129
O O10 0.402368 0.375056 0.169342
O O11 0.067541 0.581534 0.849582
O O12 0.754025 0.509768 0.696193
O O13 0.606736 0.874806 0.057265
O O14 0.100811 0.858001 0.094231
O O15 0.323791 0.533813 0.664662
#
# Coordination Sequence:
#
# PCOD9036347 Si02
#       8
#     2   2   2   1   2   2   2   1
#     4  12  26  50  78 123 176 234 294 372 464 558
#     4  11  25  48  81 122 167 231 300 378 463 554
#     4  11  25  48  81 122 167 231 300 378 463 554
#     4   8  20  46  94 130 188 244 306 392 484 590
#     4  11  25  50  81 120 170 229 299 378 451 557
#     4  10  22  50  84 127 176 238 300 392 480 566
#     4  11  25  50  81 120 170 229 299 378 451 557
#     4   8  20  46  94 130 188 244 306 392 484 590
#
# _framework density 29.702776
#
# number of rings (size 3 to 8) (size 9 to 14) (size 15 to 20)
#    0.857    0.571    4.286    0.000    0.000    4.571 
#    0.000    2.857    0.000    0.000    0.000    0.000 
#    0.000    0.000    0.000    0.000    0.000    0.000 
#
# Total GULP energy -78075.853414 kJ/mol
# GULP energy per Si atom -5576.846672 kJ/mol
# Density = 2.963517 g / cm^3
# Si number density = 29.702776 Si / 1000 Ang^3
#
#
#
# Elastic Constant Matrix: (Units=GPa)
#
#
# Indices 1 2 3 4 5 6 
#
# 1 157.9659 65.5010 43.0656 20.9313 36.2742 21.0371
# 2 65.5010 186.5878 34.3650 32.5715 5.0937 14.4919
# 3 43.0656 34.3650 127.6099 39.2420 37.1875 -3.0162
# 4 20.9313 32.5715 39.2420 45.0454 4.6280 -3.3231
# 5 36.2742 5.0937 37.1875 4.6280 57.7426 2.8135
# 6 21.0371 14.4919 -3.0162 -3.3231 2.8135 55.5723
#
#
#
# Elastic Compliance Matrix: (Units=1/GPa)
#
#
# Indices 1 2 3 4 5 6 
#
# 1 0.009245 -0.002500 -0.000536 -0.001711 -0.004972 -0.002727
# 2 -0.002500 0.007028 -0.000332 -0.003877 0.001535 -0.001214
# 3 -0.000536 -0.000332 0.013552 -0.010482 -0.007559 0.000781
# 4 -0.001711 -0.003877 -0.010482 0.034604 0.005253 0.002893
# 5 -0.004972 0.001535 -0.007559 0.005253 0.024747 0.000133
# 6 -0.002727 -0.001214 0.000781 0.002893 0.000133 0.019552
#
#
# Mechanical properties :
#
#
# Convention : Reuss Voigt Hill
#
# Bulk Modulus (GPa) = 43.31427 84.22520 63.76974
# Shear Modulus (GPa) = 40.59735 53.62086 47.10910
#
# Velocity S-wave (km/s) = 3.70102 4.25343 3.98680
# Velocity P-wave (km/s) = 5.73390 7.24843 6.53519
#
# Compressibility (1/GPa) = 0.02308708
#
# Stress axis : x y z
#
# Youngs Moduli (GPa) = 108.16471 142.29616 73.79252
#
# Poissons Ratio (x) = 0.35581 0.03955
# Poissons Ratio (y) = 0.27046 0.02452
# Poissons Ratio (z) = 0.05797 0.04727
#
# Static dielectric constant tensor:
#      x y z
#    x -2.604130 1.368250 0.447440 
#    y 1.368250 1.962400 -0.264520 
#    z 0.447440 -0.264520 2.677580 
# 
# From -- ./inp_files/12859.got.cif
#   From: 2010.05.17/outbox.cif.g08.bks.cpg/sg2_7_cif.got.tgz:12859.got - 2010.06.03 11:33:40.
