data_PCOD9036960
_publ_section_title
;
Structure prediction by ZEFSAII (Michael W. Deem and Ramdas Pophale) SiO2 
 PCOD9036960
Probable space group: P -1
;
_chemical_formula_sum "Si O2"
_cell_formula_units_Z 16
_cell_length_a 11.605953
_cell_length_b 10.736839
_cell_length_c 22.847200
_cell_angle_alpha 145.777585
_cell_angle_beta 150.859020
_cell_angle_gamma 28.361644
_cell_volume 637.339919
_symmetry_space_group_name_H-M "P -1"
_symmetry_group_IT_number 2
_symmetry_cell_setting 'triclinic'
loop_
_space_group_symop_operation_xyz
x,y,z
-x,-y,-z
loop_
_atom_site_type_symbol
_atom_site_label
_atom_site_fract_x
_atom_site_fract_y
_atom_site_fract_z
Si Si1 0.670838 0.329421 0.196428
Si Si2 0.678176 0.506506 0.773823
Si Si3 0.322798 0.758036 0.108089
Si Si4 0.893626 0.226394 0.450936
Si Si5 0.710878 0.666092 0.146145
Si Si6 0.230762 0.066319 0.011099
Si Si7 0.162614 0.637794 0.398396
Si Si8 0.814144 0.928342 0.600323
O O1 0.480973 0.399180 0.197323
O O2 0.503294 0.579647 0.174918
O O3 0.969305 0.265870 0.328649
O O4 0.734367 0.066596 0.087781
O O5 0.871456 0.624649 0.907438
O O6 0.828461 0.188244 0.710660
O O7 0.431166 0.629228 0.661612
O O8 0.517248 0.813581 0.176161
O O9 0.301034 0.564695 0.978856
O O10 0.995763 0.968932 0.067901
O O11 0.917813 0.371900 0.574028
O O12 0.008840 0.935632 0.417432
O O13 0.079193 0.190890 0.463197
O O14 0.040238 0.521494 0.255300
O O15 0.548117 0.900414 0.116619
O O16 0.500000 0.500000 0.500000
O O17 0.500000 0.000000 0.500000
#
# Coordination Sequence:
#
# PCOD9036960 Si02
#       8
#     2   2   2   2   2   2   2   2
#     4  10  24  41  63 102 134 168 232 269 335 406
#     4  11  23  42  68  95 135 175 219 284 336 400
#     4  10  23  39  66  97 134 180 213 275 344 393
#     4  10  24  41  62 100 128 170 230 278 329 400
#     4  10  23  42  63  98 136 170 227 277 329 410
#     4  11  22  41  70  98 135 175 222 278 342 402
#     4  11  23  40  67  97 134 179 224 281 336 389
#     4  11  26  45  68  96 135 184 229 278 345 405
#
# _framework density 25.104341999999999
#
# number of rings (size 3 to 8) (size 9 to 14) (size 15 to 20)
#    0.000    1.500    1.250    2.250    3.500    9.000 
#    0.000    0.000    0.000    0.000    0.000    0.000 
#    0.000    0.000    0.000    0.000    0.000    0.000 
#
# Total GULP energy -89489.534078 kJ/mol
# GULP energy per Si atom -5593.095880 kJ/mol
# Density = 2.504720 g / cm^3
# Si number density = 25.104342 Si / 1000 Ang^3
#
#
#
# Elastic Constant Matrix: (Units=GPa)
#
#
# Indices 1 2 3 4 5 6 
#
# 1 95.2434 20.3894 71.8508 -20.8923 -19.2213 -8.2441
# 2 20.3894 72.1276 29.3762 -10.4267 -14.5002 5.8919
# 3 71.8508 29.3762 123.8181 -30.7305 -38.0483 -0.2831
# 4 -20.8923 -10.4267 -30.7305 43.8769 6.2076 -4.4390
# 5 -19.2213 -14.5002 -38.0483 6.2076 41.5468 -4.6714
# 6 -8.2441 5.8919 -0.2831 -4.4390 -4.6714 36.0982
#
#
#
# Elastic Compliance Matrix: (Units=1/GPa)
#
#
# Indices 1 2 3 4 5 6 
#
# 1 0.019657 -0.001443 -0.010913 0.002019 -0.001173 0.004736
# 2 -0.001443 0.015937 -0.001789 0.001204 0.002802 -0.002434
# 3 -0.010913 -0.001789 0.020166 0.006866 0.011806 0.000330
# 4 0.002019 0.001204 0.006866 0.028744 0.003836 0.004349
# 5 -0.001173 0.002802 0.011806 0.003836 0.035238 0.004399
# 6 0.004736 -0.002434 0.000330 0.004349 0.004399 0.030288
#
#
# Mechanical properties :
#
#
# Convention : Reuss Voigt Hill
#
# Bulk Modulus (GPa) = 36.40325 59.38023 47.89174
# Shear Modulus (GPa) = 26.66974 35.60923 31.13949
#
# Velocity S-wave (km/s) = 3.26292 3.77032 3.52576
# Velocity P-wave (km/s) = 5.35983 6.53134 5.97437
#
# Compressibility (1/GPa) = 0.02747008
#
# Stress axis : x y z
#
# Youngs Moduli (GPa) = 50.87233 62.74598 49.58757
#
# Poissons Ratio (x) = 0.09053 0.54115
# Poissons Ratio (y) = 0.07340 0.08873
# Poissons Ratio (z) = 0.55517 0.11228
#
# Static dielectric constant tensor:
#      x y z
#    x 2.044770 0.000020 0.080300 
#    y 0.000020 2.007530 0.025340 
#    z 0.080300 0.025340 1.978040 
# 
# From -- ./inp_files/71248.got.cif
#   From: 2010.05.17/outbox.cif.g08.bks.cpg/sg2_36_cif.got.tgz:71248.got - 2010.06.03 11:33:40.
