data_PCOD9036810
_publ_section_title
;
Structure prediction by ZEFSAII (Michael W. Deem and Ramdas Pophale) SiO2 
 PCOD9036810
Probable space group: P -1
;
_chemical_formula_sum "Si O2"
_cell_formula_units_Z 12
_cell_length_a 9.366003
_cell_length_b 12.649362
_cell_length_c 9.335376
_cell_angle_alpha 47.327070
_cell_angle_beta 67.955154
_cell_angle_gamma 105.767761
_cell_volume 479.027621
_symmetry_space_group_name_H-M "P -1"
_symmetry_group_IT_number 2
_symmetry_cell_setting 'triclinic'
loop_
_space_group_symop_operation_xyz
x,y,z
-x,-y,-z
loop_
_atom_site_type_symbol
_atom_site_label
_atom_site_fract_x
_atom_site_fract_y
_atom_site_fract_z
Si Si1 0.212962 0.620454 0.946883
Si Si2 0.648118 0.804556 0.037579
Si Si3 0.083628 0.957516 0.831736
Si Si4 0.444727 0.524556 0.840884
Si Si5 0.712655 0.026273 0.544102
Si Si6 0.104351 0.483703 0.607237
O O1 0.227250 0.479988 0.989948
O O2 0.435855 0.783973 0.826335
O O3 0.268178 0.791844 0.663007
O O4 0.978953 0.491643 0.243380
O O5 0.402044 0.368044 0.888716
O O6 0.392048 0.667276 0.324558
O O7 0.748213 0.999807 0.715658
O O8 0.857308 0.901999 0.974997
O O9 0.330653 0.217501 0.534186
O O10 0.127855 0.943869 0.660656
O O11 0.023364 0.765360 0.109775
O O12 0.500000 0.500000 0.000000
O O13 0.000000 0.500000 0.500000
#
# Coordination Sequence:
#
# PCOD9036810 Si02
#       6
#     2   2   2   2   2   2
#     4   9  18  36  59  90 122 159 209 249 301 369
#     4  12  22  38  68  93 122 163 209 253 311 363
#     4  10  23  39  62  94 128 156 209 259 303 366
#     4  11  21  38  66  94 120 160 212 258 302 362
#     4   9  17  34  61  85 117 164 200 246 304 358
#     4  11  21  39  64  91 124 174 200 242 322 378
#
# _framework density 25.050747000000001
#
# number of rings (size 3 to 8) (size 9 to 14) (size 15 to 20)
#    0.000    1.667    5.000    2.000    0.000    0.667 
#    0.000    3.333    3.667    9.000    0.000    0.000 
#    0.000    0.000    0.000    0.000    0.000    0.000 
#
# Total GULP energy -67299.379769 kJ/mol
# GULP energy per Si atom -5608.281647 kJ/mol
# Density = 2.499373 g / cm^3
# Si number density = 25.050747 Si / 1000 Ang^3
#
#
#
# Elastic Constant Matrix: (Units=GPa)
#
#
# Indices 1 2 3 4 5 6 
#
# 1 158.1659 18.8836 67.7629 2.6168 -11.6864 -22.8994
# 2 18.8836 63.7691 21.8709 -0.5323 -9.2007 -20.5830
# 3 67.7629 21.8709 159.4806 1.6995 0.1967 -19.7317
# 4 2.6168 -0.5323 1.6995 24.6010 -8.6027 -3.9437
# 5 -11.6864 -9.2007 0.1967 -8.6027 56.1089 9.5007
# 6 -22.8994 -20.5830 -19.7317 -3.9437 9.5007 40.6185
#
#
#
# Elastic Compliance Matrix: (Units=1/GPa)
#
#
# Indices 1 2 3 4 5 6 
#
# 1 0.008162 -0.000313 -0.003099 0.000200 0.001238 0.002667
# 2 -0.000313 0.019417 -0.001482 0.002673 0.002057 0.008721
# 3 -0.003099 -0.001482 0.007999 -0.000433 -0.001261 0.001641
# 4 0.000200 0.002673 -0.000433 0.043624 0.006497 0.003973
# 5 0.001238 0.002057 -0.001261 0.006497 0.019909 -0.002898
# 6 0.002667 0.008721 0.001641 0.003973 -0.002898 0.032403
#
#
# Mechanical properties :
#
#
# Convention : Reuss Voigt Hill
#
# Bulk Modulus (GPa) = 38.77321 66.49450 52.63386
# Shear Modulus (GPa) = 33.35612 42.45891 37.90752
#
# Velocity S-wave (km/s) = 3.65299 4.12140 3.89424
# Velocity P-wave (km/s) = 5.77095 7.01780 6.42469
#
# Compressibility (1/GPa) = 0.02579100
#
# Stress axis : x y z
#
# Youngs Moduli (GPa) = 122.52280 51.50244 125.00983
#
# Poissons Ratio (x) = 0.01611 0.38736
# Poissons Ratio (y) = 0.03834 0.18524
# Poissons Ratio (z) = 0.37966 0.07632
#
# Static dielectric constant tensor:
#      x y z
#    x 1.985230 0.054550 -0.025290 
#    y 0.054550 2.002340 -0.007010 
#    z -0.025290 -0.007010 1.959910 
# 
# From -- ./inp_files/151245.got.cif
#   From: 2010.05.17/outbox.cif.g08.bks.cpg/sg2_76_cif.got.tgz:151245.got - 2010.06.03 11:33:40.
