data_PCOD9036937
_publ_section_title
;
Structure prediction by ZEFSAII (Michael W. Deem and Ramdas Pophale) SiO2 
 PCOD9036937
Probable space group: P -1
;
_chemical_formula_sum "Si O2"
_cell_formula_units_Z 16
_cell_length_a 19.083014
_cell_length_b 9.586571
_cell_length_c 5.023179
_cell_angle_alpha 100.205295
_cell_angle_beta 50.478576
_cell_angle_gamma 113.215373
_cell_volume 647.936858
_symmetry_space_group_name_H-M "P -1"
_symmetry_group_IT_number 2
_symmetry_cell_setting 'triclinic'
loop_
_space_group_symop_operation_xyz
x,y,z
-x,-y,-z
loop_
_atom_site_type_symbol
_atom_site_label
_atom_site_fract_x
_atom_site_fract_y
_atom_site_fract_z
Si Si1 0.906472 0.387400 0.353285
Si Si2 0.605153 0.074364 0.415072
Si Si3 0.709498 0.591178 0.743752
Si Si4 0.011984 0.172586 0.979441
Si Si5 0.421605 0.521523 0.410202
Si Si6 0.314832 0.726925 0.207689
Si Si7 0.403298 0.242203 0.747694
Si Si8 0.107172 0.330976 0.294966
O O1 0.800082 0.336663 0.455481
O O2 0.899519 0.502028 0.640004
O O3 0.930447 0.237675 0.302725
O O4 0.000000 0.500000 0.000000
O O5 0.618201 0.162618 0.691890
O O6 0.500000 0.000000 0.500000
O O7 0.629912 0.922616 0.350447
O O8 0.675292 0.182685 0.059896
O O9 0.683435 0.517856 0.487106
O O10 0.657325 0.421997 0.952656
O O11 0.802364 0.654179 0.729383
O O12 0.672861 0.732814 0.854494
O O13 0.102101 0.268661 0.989634
O O14 0.023667 0.215597 0.652545
O O15 0.000000 0.000000 0.000000
O O16 0.409449 0.382540 0.590294
O O17 0.486688 0.696718 0.383052
O O18 0.500000 0.500000 0.000000
#
# Coordination Sequence:
#
# PCOD9036937 Si02
#       8
#     2   2   2   2   2   2   2   2
#     4   9  22  46  72  97 134 175 227 281 337 405
#     4  12  28  45  66  98 146 182 223 277 347 403
#     4  10  23  39  66  92 127 164 230 276 320 393
#     4  11  23  40  65  96 130 165 206 266 337 398
#     4   9  20  37  63  91 122 170 233 274 328 387
#     4  11  27  44  69 102 136 181 228 279 345 408
#     4  10  23  39  66  90 128 180 227 274 336 394
#     4  10  23  40  65  95 124 171 210 263 330 399
#
# _framework density 24.693764000000002
#
# number of rings (size 3 to 8) (size 9 to 14) (size 15 to 20)
#    0.000    1.750    0.000    1.875   12.250    9.000 
#    0.000    0.000    0.000    0.000    0.000    0.000 
#    0.000    0.000    0.000    0.000    0.000    0.000 
#
# Total GULP energy -89133.088473 kJ/mol
# GULP energy per Si atom -5570.818030 kJ/mol
# Density = 2.463756 g / cm^3
# Si number density = 24.693764 Si / 1000 Ang^3
#
#
#
# Elastic Constant Matrix: (Units=GPa)
#
#
# Indices 1 2 3 4 5 6 
#
# 1 108.3690 22.5530 3.2051 5.6379 -8.6013 3.8678
# 2 22.5530 153.7547 11.8119 24.4065 -5.1052 -23.8795
# 3 3.2051 11.8119 39.8011 -2.4471 2.6757 -1.5826
# 4 5.6379 24.4065 -2.4471 25.6096 0.3025 1.1162
# 5 -8.6013 -5.1052 2.6757 0.3025 41.3946 1.8787
# 6 3.8678 -23.8795 -1.5826 1.1162 1.8787 43.2732
#
#
#
# Elastic Compliance Matrix: (Units=1/GPa)
#
#
# Indices 1 2 3 4 5 6 
#
# 1 0.009815 -0.001487 -0.000599 -0.000747 0.001981 -0.001786
# 2 -0.001487 0.009237 -0.003021 -0.009007 0.000850 0.005315
# 3 -0.000599 -0.003021 0.026536 0.005603 -0.002222 -0.000691
# 4 -0.000747 -0.009007 0.005603 0.048608 -0.001717 -0.005878
# 5 0.001981 0.000850 -0.002222 -0.001717 0.024868 -0.000825
# 6 -0.001786 0.005315 -0.000691 -0.005878 -0.000825 0.026364
#
#
# Mechanical properties :
#
#
# Convention : Reuss Voigt Hill
#
# Bulk Modulus (GPa) = 28.26950 41.89612 35.08281
# Shear Modulus (GPa) = 29.86258 39.67913 34.77085
#
# Velocity S-wave (km/s) = 3.48130 4.01290 3.75651
# Velocity P-wave (km/s) = 5.25663 6.20276 5.74919
#
# Compressibility (1/GPa) = 0.03537381
#
# Stress axis : x y z
#
# Youngs Moduli (GPa) = 101.88783 108.25476 37.68435
#
# Poissons Ratio (x) = 0.16095 0.02258
# Poissons Ratio (y) = 0.15148 0.11386
# Poissons Ratio (z) = 0.06106 0.32707
#
# Static dielectric constant tensor:
#      x y z
#    x 2.763310 -0.181990 -0.516360 
#    y -0.181990 1.999590 0.169930 
#    z -0.516360 0.169930 2.721870 
# 
# From -- ./inp_files/107102.got.cif
#   From: 2010.05.17/outbox.cif.g08.bks.cpg/sg2_54_cif.got.tgz:107102.got - 2010.06.03 11:33:40.
