data_PCOD9036015
_publ_section_title
;
Structure prediction by ZEFSAII (Michael W. Deem and Ramdas Pophale) SiO2 
 PCOD9036015
Probable space group: P -1
;
_chemical_formula_sum "Si O2"
_cell_formula_units_Z 12
_cell_length_a 15.993350
_cell_length_b 9.732300
_cell_length_c 7.431945
_cell_angle_alpha 113.235908
_cell_angle_beta 52.485472
_cell_angle_gamma 147.115369
_cell_volume 479.500304
_symmetry_space_group_name_H-M "P -1"
_symmetry_group_IT_number 2
_symmetry_cell_setting 'triclinic'
loop_
_space_group_symop_operation_xyz
x,y,z
-x,-y,-z
loop_
_atom_site_type_symbol
_atom_site_label
_atom_site_fract_x
_atom_site_fract_y
_atom_site_fract_z
Si Si1 0.951716 0.876481 0.190288
Si Si2 0.948551 0.538887 0.414219
Si Si3 0.749602 0.933467 0.906594
Si Si4 0.745991 0.598988 0.788678
Si Si5 0.437109 0.594856 0.675329
Si Si6 0.362059 0.974277 0.627593
O O1 0.741998 0.585956 0.310084
O O2 0.090285 0.907055 0.071058
O O3 0.032374 0.099590 0.324723
O O4 0.000000 0.000000 0.000000
O O5 0.785673 0.474271 0.622686
O O6 0.848858 0.326424 0.278565
O O7 0.000000 0.500000 0.500000
O O8 0.143055 0.843052 0.262806
O O9 0.691032 0.694082 0.813442
O O10 0.607324 0.871305 0.169052
O O11 0.630010 0.468116 0.061855
O O12 0.500000 0.500000 0.500000
O O13 0.586417 0.883965 0.554429
O O14 0.500000 0.000000 0.500000
#
# Coordination Sequence:
#
# PCOD9036015 Si02
#       6
#     2   2   2   2   2   2
#     4   8  17  35  72  92 122 172 241 256 313 397
#     4  12  28  43  69 101 141 178 224 283 344 393
#     4  10  22  47  69  93 129 190 236 260 322 431
#     4   9  22  42  69  95 130 179 232 273 325 408
#     4  11  20  39  68 102 132 175 226 274 334 409
#     4  12  27  44  68 103 140 175 219 288 347 395
#
# _framework density 25.026050999999999
#
# number of rings (size 3 to 8) (size 9 to 14) (size 15 to 20)
#    1.000    0.667    1.667    2.000    9.333    0.667 
#    0.000    0.833    0.000    0.000    0.000    0.000 
#    0.000    0.000    0.000    0.000    0.000    0.000 
#
# Total GULP energy -66857.913767 kJ/mol
# GULP energy per Si atom -5571.492814 kJ/mol
# Density = 2.496909 g / cm^3
# Si number density = 25.026051 Si / 1000 Ang^3
#
#
#
# Elastic Constant Matrix: (Units=GPa)
#
#
# Indices 1 2 3 4 5 6 
#
# 1 105.6465 28.6676 19.3261 -4.6869 -5.2390 -38.2964
# 2 28.6676 108.4103 48.5133 2.2651 -0.1395 -36.0051
# 3 19.3261 48.5133 133.0552 -8.0828 6.8356 -38.6776
# 4 -4.6869 2.2651 -8.0828 50.8604 -14.6012 2.2283
# 5 -5.2390 -0.1395 6.8356 -14.6012 41.8056 -12.4979
# 6 -38.2964 -36.0051 -38.6776 2.2283 -12.4979 45.1685
#
#
#
# Elastic Compliance Matrix: (Units=1/GPa)
#
#
# Indices 1 2 3 4 5 6 
#
# 1 0.016096 0.000685 0.002584 0.003446 0.008345 0.018544
# 2 0.000685 0.013506 -0.002183 -0.000340 0.003497 0.010462
# 3 0.002584 -0.002183 0.010979 0.002326 0.002447 0.010414
# 4 0.003446 -0.000340 0.002326 0.022942 0.009935 0.006261
# 5 0.008345 0.003497 0.002447 0.009935 0.034314 0.020962
# 6 0.018544 0.010462 0.010414 0.006261 0.020962 0.060611
#
#
# Mechanical properties :
#
#
# Convention : Reuss Voigt Hill
#
# Bulk Modulus (GPa) = 23.39033 60.01400 41.70217
# Shear Modulus (GPa) = 29.32072 44.27390 36.79731
#
# Velocity S-wave (km/s) = 3.42659 4.21064 3.83869
# Velocity P-wave (km/s) = 5.00220 6.90449 6.02885
#
# Compressibility (1/GPa) = 0.04275271
#
# Stress axis : x y z
#
# Youngs Moduli (GPa) = 62.12738 74.04003 91.08072
#
# Poissons Ratio (x) = -0.05073 -0.23531
# Poissons Ratio (y) = -0.04257 0.19884
# Poissons Ratio (z) = -0.16051 0.16164
#
# Static dielectric constant tensor:
#      x y z
#    x 2.030110 0.054300 -0.005790 
#    y 0.054300 2.034660 0.052510 
#    z -0.005790 0.052510 2.147570 
# 
# From -- ./inp_files/326409.got.cif
#   From: 2010.05.17/outbox.cif.g08.bks.cpg/sg2_164_cif.got.tgz:326409.got - 2010.06.03 11:33:40.
