data_PCOD9036620
_publ_section_title
;
Structure prediction by ZEFSAII (Michael W. Deem and Ramdas Pophale) SiO2 
 PCOD9036620
Probable space group: P -1
;
_chemical_formula_sum "Si O2"
_cell_formula_units_Z 14
_cell_length_a 10.250188
_cell_length_b 5.217283
_cell_length_c 20.115771
_cell_angle_alpha 110.965749
_cell_angle_beta 36.701527
_cell_angle_gamma 111.844630
_cell_volume 593.315901
_symmetry_space_group_name_H-M "P -1"
_symmetry_group_IT_number 2
_symmetry_cell_setting 'triclinic'
loop_
_space_group_symop_operation_xyz
x,y,z
-x,-y,-z
loop_
_atom_site_type_symbol
_atom_site_label
_atom_site_fract_x
_atom_site_fract_y
_atom_site_fract_z
Si Si1 0.781635 0.783483 0.552948
Si Si2 0.356697 0.890111 0.981928
Si Si3 0.062525 0.201244 0.930671
Si Si4 0.489372 0.719564 0.316888
Si Si5 0.939381 0.542703 0.332074
Si Si6 0.718392 0.940090 0.367799
Si Si7 0.451290 0.594396 0.104663
O O1 0.684053 0.566466 0.631030
O O2 0.846312 0.596167 0.448019
O O3 0.619535 0.998866 0.616450
O O4 0.000000 0.000000 0.500000
O O5 0.397944 0.577975 0.931390
O O6 0.476008 0.078921 0.892709
O O7 0.099083 0.906939 0.076967
O O8 0.500000 0.000000 0.000000
O O9 0.319387 0.239859 0.811828
O O10 0.000000 0.500000 0.000000
O O11 0.000000 0.000000 0.000000
O O12 0.629802 0.724216 0.327487
O O13 0.827374 0.240835 0.325486
O O14 0.198901 0.533435 0.222613
O O15 0.879526 0.794570 0.335118
O O16 0.500000 0.000000 0.500000
O O17 0.500000 0.500000 0.000000
#
# Coordination Sequence:
#
# PCOD9036620 Si02
#       7
#     2   2   2   2   2   2   2
#     4  12  26  47  70 104 143 191 243 298 361 440
#     4  10  23  45  67 103 139 186 242 297 355 424
#     4  12  28  49  76 108 150 199 249 300 370 448
#     4  12  27  46  76 105 142 192 241 299 368 437
#     4  12  24  41  67 106 140 187 231 302 358 429
#     4  12  23  43  72 105 142 172 242 294 370 428
#     4  10  23  38  64 100 142 178 234 284 362 422
#
# _framework density 23.596195999999999
#
# number of rings (size 3 to 8) (size 9 to 14) (size 15 to 20)
#    0.000    0.571    2.857    4.286    8.000    3.429 
#    0.000    0.000    0.000    0.000    0.000    0.000 
#    0.000    0.000    0.000    0.000    0.000    0.000 
#
# Total GULP energy -78209.764394 kJ/mol
# GULP energy per Si atom -5586.411742 kJ/mol
# Density = 2.354249 g / cm^3
# Si number density = 23.596196 Si / 1000 Ang^3
#
#
#
# Elastic Constant Matrix: (Units=GPa)
#
#
# Indices 1 2 3 4 5 6 
#
# 1 92.3692 22.7909 33.8653 4.5484 -7.9325 -2.8948
# 2 22.7909 149.6994 41.7272 -26.9072 -2.2151 -25.2703
# 3 33.8653 41.7272 146.8703 -12.4250 -14.5972 -9.8644
# 4 4.5484 -26.9072 -12.4250 34.9370 3.4652 -6.3125
# 5 -7.9325 -2.2151 -14.5972 3.4652 27.3162 4.5373
# 6 -2.8948 -25.2703 -9.8644 -6.3125 4.5373 47.8050
#
#
#
# Elastic Compliance Matrix: (Units=1/GPa)
#
#
# Indices 1 2 3 4 5 6 
#
# 1 0.012819 -0.002473 -0.002510 -0.005147 0.003171 -0.002029
# 2 -0.002473 0.010102 -0.001390 0.009040 -0.002846 0.006367
# 3 -0.002510 -0.001390 0.008328 0.002043 0.003218 0.000796
# 4 -0.005147 0.009040 0.002043 0.039562 -0.006471 0.010727
# 5 0.003171 -0.002846 0.003218 -0.006471 0.040730 -0.005369
# 6 -0.002029 0.006367 0.000796 0.010727 -0.005369 0.026251
#
#
# Mechanical properties :
#
#
# Convention : Reuss Voigt Hill
#
# Bulk Modulus (GPa) = 54.04506 65.07842 59.56174
# Shear Modulus (GPa) = 31.90699 41.38201 36.64450
#
# Velocity S-wave (km/s) = 3.68123 4.19233 3.94507
# Velocity P-wave (km/s) = 6.40488 7.14662 6.78589
#
# Compressibility (1/GPa) = 0.01850308
#
# Stress axis : x y z
#
# Youngs Moduli (GPa) = 78.01201 98.99393 120.07005
#
# Poissons Ratio (x) = 0.24479 0.30135
# Poissons Ratio (y) = 0.19291 0.16693
# Poissons Ratio (z) = 0.19579 0.13763
#
# Static dielectric constant tensor:
#      x y z
#    x 4.324600 4.353110 0.068620 
#    y 4.353110 9.817340 0.141460 
#    z 0.068620 0.141460 1.812950 
# 
# From -- ./inp_files/553579.got.cif
#   From: 2010.05.17/outbox.cif.g08.bks.cpg/sg2_277_cif.got.tgz:553579.got - 2010.06.03 11:33:40.
