data_PCOD9036759
_publ_section_title
;
Structure prediction by ZEFSAII (Michael W. Deem and Ramdas Pophale) SiO2 
 PCOD9036759
Probable space group: P -1
;
_chemical_formula_sum "Si O2"
_cell_formula_units_Z 10
_cell_length_a 16.506765
_cell_length_b 6.376330
_cell_length_c 5.544118
_cell_angle_alpha 71.953217
_cell_angle_beta 124.371842
_cell_angle_gamma 78.475495
_cell_volume 402.383403
_symmetry_space_group_name_H-M "P -1"
_symmetry_group_IT_number 2
_symmetry_cell_setting 'triclinic'
loop_
_space_group_symop_operation_xyz
x,y,z
-x,-y,-z
loop_
_atom_site_type_symbol
_atom_site_label
_atom_site_fract_x
_atom_site_fract_y
_atom_site_fract_z
Si Si1 0.531596 0.223738 0.743585
Si Si2 0.245127 0.060472 0.551781
Si Si3 0.326330 0.202993 0.251582
Si Si4 0.135802 0.751492 0.674844
Si Si5 0.913566 0.396621 0.844242
O O1 0.500000 0.500000 0.500000
O O2 0.417204 0.211092 0.588643
O O3 0.601845 0.002264 0.750372
O O4 0.625670 0.148923 0.130922
O O5 0.169289 0.963342 0.587785
O O6 0.239509 0.112360 0.238556
O O7 0.204614 0.344940 0.468663
O O8 0.251820 0.490348 0.954263
O O9 0.066415 0.736382 0.333350
O O10 0.090558 0.751042 0.868882
O O11 0.000000 0.500000 0.000000
#
# Coordination Sequence:
#
# PCOD9036759 Si02
#       5
#     2   2   2   2   2
#     4  11  21  39  62  93 131 177 213 262 319 383
#     4  11  24  40  66  93 136 168 220 267 322 384
#     4  10  23  39  60  95 133 172 217 261 319 384
#     4  11  24  43  70  97 130 172 216 268 328 388
#     4  11  26  46  69  97 130 168 218 274 330 387
#
# _framework density 24.851922999999999
#
# number of rings (size 3 to 8) (size 9 to 14) (size 15 to 20)
#    0.000    1.200    4.000    1.200    2.800    2.400 
#    0.000    0.000    0.000    0.000    0.000    0.000 
#    0.000    0.000    0.000    0.000    0.000    0.000 
#
# Total GULP energy -55784.793073 kJ/mol
# GULP energy per Si atom -5578.479307 kJ/mol
# Density = 2.479536 g / cm^3
# Si number density = 24.851923 Si / 1000 Ang^3
#
#
#
# Elastic Constant Matrix: (Units=GPa)
#
#
# Indices 1 2 3 4 5 6 
#
# 1 137.6267 50.7443 30.8374 -8.3999 -19.7081 23.3339
# 2 50.7443 73.6925 49.5986 -20.1814 -24.0074 6.6454
# 3 30.8374 49.5986 93.9894 -11.1547 -4.0547 11.4649
# 4 -8.3999 -20.1814 -11.1547 49.8066 2.1884 -1.4993
# 5 -19.7081 -24.0074 -4.0547 2.1884 37.9642 -16.2335
# 6 23.3339 6.6454 11.4649 -1.4993 -16.2335 49.1860
#
#
#
# Elastic Compliance Matrix: (Units=1/GPa)
#
#
# Indices 1 2 3 4 5 6 
#
# 1 0.010719 -0.009148 0.001638 -0.001590 -0.002077 -0.004965
# 2 -0.009148 0.041690 -0.018068 0.010591 0.023822 0.011104
# 3 0.001638 -0.018068 0.019692 -0.002344 -0.011200 -0.006694
# 4 -0.001590 0.010591 -0.002344 0.023414 0.005264 0.002321
# 5 -0.002077 0.023822 -0.011200 0.005264 0.045475 0.015546
# 6 -0.004965 0.011104 -0.006694 0.002321 0.015546 0.027948
#
#
# Mechanical properties :
#
#
# Convention : Reuss Voigt Hill
#
# Bulk Modulus (GPa) = 47.74604 63.07434 55.41019
# Shear Modulus (GPa) = 22.01894 38.99990 30.50942
#
# Velocity S-wave (km/s) = 2.97981 3.96573 3.50758
# Velocity P-wave (km/s) = 5.57611 6.81208 6.22485
#
# Compressibility (1/GPa) = 0.02094414
#
# Stress axis : x y z
#
# Youngs Moduli (GPa) = 93.28957 23.98668 50.78174
#
# Poissons Ratio (x) = 0.21943 -0.08317
# Poissons Ratio (y) = 0.85339 0.91755
# Poissons Ratio (z) = -0.15278 0.43340
#
# Static dielectric constant tensor:
#      x y z
#    x 2.058080 0.000960 0.037000 
#    y 0.000960 1.965170 0.059320 
#    z 0.037000 0.059320 2.128280 
# 
# From -- ./inp_files/1426.got.cif
#   From: 2010.05.17/outbox.cif.g08.bks.cpg/sg2_1_cif.got.tgz:1426.got - 2010.06.03 11:33:40.
