data_PCOD9036301
_publ_section_title
;
Structure prediction by ZEFSAII (Michael W. Deem and Ramdas Pophale) SiO2 
 PCOD9036301
Probable space group: P -1
;
_chemical_formula_sum "Si O2"
_cell_formula_units_Z 16
_cell_length_a 25.675327
_cell_length_b 5.359015
_cell_length_c 9.153891
_cell_angle_alpha 70.168543
_cell_angle_beta 142.000224
_cell_angle_gamma 124.185518
_cell_volume 628.070416
_symmetry_space_group_name_H-M "P -1"
_symmetry_group_IT_number 2
_symmetry_cell_setting 'triclinic'
loop_
_space_group_symop_operation_xyz
x,y,z
-x,-y,-z
loop_
_atom_site_type_symbol
_atom_site_label
_atom_site_fract_x
_atom_site_fract_y
_atom_site_fract_z
Si Si1 0.109667 0.813402 0.623470
Si Si2 0.718349 0.866928 0.270244
Si Si3 0.509339 0.319262 0.920525
Si Si4 0.160540 0.271620 0.895932
Si Si5 0.154107 0.890335 0.227989
Si Si6 0.648420 0.234896 0.877252
Si Si7 0.982397 0.688373 0.099117
Si Si8 0.447348 0.166302 0.516796
O O1 0.138866 0.550487 0.766059
O O2 0.014149 0.698280 0.333859
O O3 0.194007 0.075428 0.654032
O O4 0.102087 0.986023 0.713909
O O5 0.750311 0.908281 0.501608
O O6 0.620854 0.554934 0.071391
O O7 0.696331 0.135053 0.128104
O O8 0.431085 0.222651 0.636151
O O9 0.500000 0.500000 0.000000
O O10 0.500000 0.000000 0.000000
O O11 0.275386 0.416387 0.070418
O O12 0.143639 0.127574 0.049993
O O13 0.072741 0.686917 0.213451
O O14 0.125659 0.601301 0.115301
O O15 0.537122 0.099259 0.714660
O O16 0.637036 0.061056 0.731983
O O17 0.000000 0.000000 0.000000
O O18 0.500000 0.500000 0.500000
#
# Coordination Sequence:
#
# PCOD9036301 Si02
#       8
#     2   2   2   2   2   2   2   2
#     4  10  25  45  75  96 145 179 237 280 348 416
#     4  10  22  49  65  99 133 193 223 283 349 426
#     4  12  27  44  65 101 139 179 229 291 346 403
#     4  11  25  44  69 111 131 182 228 299 339 399
#     4  10  25  44  70 101 142 175 233 287 348 415
#     4  10  23  42  72  94 136 181 242 283 350 420
#     4  10  24  46  71 101 138 194 224 275 351 431
#     4  11  23  43  68  93 132 188 234 288 346 417
#
# _framework density 25.474851000000001
#
# number of rings (size 3 to 8) (size 9 to 14) (size 15 to 20)
#    0.000    1.500    1.250    1.500   14.000    2.000 
#    2.250    0.000    0.000    0.000    0.000    0.000 
#    0.000    0.000    0.000    0.000    0.000    0.000 
#
# Total GULP energy -89327.094650 kJ/mol
# GULP energy per Si atom -5582.943416 kJ/mol
# Density = 2.541687 g / cm^3
# Si number density = 25.474851 Si / 1000 Ang^3
#
#
#
# Elastic Constant Matrix: (Units=GPa)
#
#
# Indices 1 2 3 4 5 6 
#
# 1 81.9526 12.9114 28.1294 -0.1027 -24.6504 1.0044
# 2 12.9114 121.4904 38.9587 -0.1102 -20.1070 -3.5438
# 3 28.1294 38.9587 167.7834 -9.6453 -52.8986 -17.3455
# 4 -0.1027 -0.1102 -9.6453 45.3592 2.9424 -2.3425
# 5 -24.6504 -20.1070 -52.8986 2.9424 50.2846 11.1133
# 6 1.0044 -3.5438 -17.3455 -2.3425 11.1133 40.4420
#
#
#
# Elastic Compliance Matrix: (Units=1/GPa)
#
#
# Indices 1 2 3 4 5 6 
#
# 1 0.014590 -0.000302 -0.000406 -0.000655 0.007213 -0.002583
# 2 -0.000302 0.009062 -0.001480 -0.000447 0.002037 -0.000419
# 3 -0.000406 -0.001480 0.009330 0.001506 0.008580 0.001612
# 4 -0.000655 -0.000447 0.001506 0.022519 -0.000702 0.002120
# 5 0.007213 0.002037 0.008580 -0.000702 0.034601 -0.005870
# 6 -0.002583 -0.000419 0.001612 0.002120 -0.005870 0.027181
#
#
# Mechanical properties :
#
#
# Convention : Reuss Voigt Hill
#
# Bulk Modulus (GPa) = 34.96030 59.02505 46.99268
# Shear Modulus (GPa) = 38.11069 46.63229 42.37149
#
# Velocity S-wave (km/s) = 3.87203 4.28310 4.08274
# Velocity P-wave (km/s) = 5.80891 6.90508 6.38058
#
# Compressibility (1/GPa) = 0.02860387
#
# Stress axis : x y z
#
# Youngs Moduli (GPa) = 68.54138 110.34538 107.17969
#
# Poissons Ratio (x) = 0.03337 0.04356
# Poissons Ratio (y) = 0.02073 0.15867
# Poissons Ratio (z) = 0.02786 0.16335
#
# Static dielectric constant tensor:
#      x y z
#    x 2.398420 -0.091670 0.293960 
#    y -0.091670 2.002760 -0.128200 
#    z 0.293960 -0.128200 2.598250 
# 
# From -- ./inp_files/142615.got.cif
#   From: 2010.05.17/outbox.cif.g08.bks.cpg/sg2_72_cif.got.tgz:142615.got - 2010.06.03 11:33:40.
