data_PCOD9036364
_publ_section_title
;
Structure prediction by ZEFSAII (Michael W. Deem and Ramdas Pophale) SiO2 
 PCOD9036364
Probable space group: P -1
;
_chemical_formula_sum "Si O2"
_cell_formula_units_Z 16
_cell_length_a 9.804820
_cell_length_b 20.165976
_cell_length_c 17.068417
_cell_angle_alpha 19.834321
_cell_angle_beta 119.773479
_cell_angle_gamma 130.412370
_cell_volume 783.621508
_symmetry_space_group_name_H-M "P -1"
_symmetry_group_IT_number 2
_symmetry_cell_setting 'triclinic'
loop_
_space_group_symop_operation_xyz
x,y,z
-x,-y,-z
loop_
_atom_site_type_symbol
_atom_site_label
_atom_site_fract_x
_atom_site_fract_y
_atom_site_fract_z
Si Si1 0.267251 0.964831 0.774642
Si Si2 0.987800 0.702476 0.308531
Si Si3 0.298594 0.705008 0.868604
Si Si4 0.303131 0.188335 0.932788
Si Si5 0.013232 0.239731 0.221421
Si Si6 0.628747 0.105400 0.609717
Si Si7 0.729056 0.594448 0.651757
Si Si8 0.941039 0.529228 0.660953
O O1 0.081090 0.800741 0.845069
O O2 0.464651 0.069354 0.663171
O O3 0.267510 0.182139 0.566364
O O4 0.222997 0.765765 0.047288
O O5 0.832963 0.724913 0.196365
O O6 0.919909 0.616407 0.474430
O O7 0.000000 0.500000 0.500000
O O8 0.199211 0.977177 0.070727
O O9 0.139017 0.759061 0.766589
O O10 0.513988 0.970784 0.645727
O O11 0.279658 0.556377 0.107597
O O12 0.227414 0.503358 0.004649
O O13 0.533234 0.419432 0.736157
O O14 0.302320 0.050005 0.162458
O O15 0.000000 0.000000 0.500000
O O16 0.833731 0.380429 0.365779
O O17 0.907955 0.657437 0.579154
#
# Coordination Sequence:
#
# PCOD9036364 Si02
#       8
#     2   2   2   2   2   2   2   2
#     4  11  22  39  61  92 123 159 209 241 300 362
#     4  10  23  40  64  90 119 159 199 250 304 361
#     4   9  18  35  60  86 121 160 198 246 303 345
#     4   9  20  39  62  85 121 150 200 243 300 359
#     4  10  17  32  62  90 117 163 202 242 298 360
#     4   9  20  41  62  85 124 162 200 252 299 359
#     4  11  21  38  62  90 121 160 197 253 295 353
#     4  11  23  41  60  91 121 155 206 249 301 359
#
# _framework density 20.418019999999999
#
# number of rings (size 3 to 8) (size 9 to 14) (size 15 to 20)
#    0.000    2.000    5.000    0.000    3.500    3.500 
#    2.250    1.875    0.000    3.750    0.000    0.000 
#    0.000    0.000    0.000    0.000    0.000    0.000 
#
# Total GULP energy -89152.086798 kJ/mol
# GULP energy per Si atom -5572.005425 kJ/mol
# Density = 2.037155 g / cm^3
# Si number density = 20.418020 Si / 1000 Ang^3
#
#
#
# Elastic Constant Matrix: (Units=GPa)
#
#
# Indices 1 2 3 4 5 6 
#
# 1 78.1883 30.8595 52.5915 -11.8201 20.1826 3.0846
# 2 30.8595 61.9677 8.2941 -4.4745 4.6082 16.8362
# 3 52.5915 8.2941 70.8592 -9.8064 24.4664 -1.2084
# 4 -11.8201 -4.4745 -9.8064 25.5246 0.7344 1.4891
# 5 20.1826 4.6082 24.4664 0.7344 43.6253 -2.2718
# 6 3.0846 16.8362 -1.2084 1.4891 -2.2718 25.3854
#
#
#
# Elastic Compliance Matrix: (Units=1/GPa)
#
#
# Indices 1 2 3 4 5 6 
#
# 1 0.035303 -0.015191 -0.023168 0.004581 -0.001589 0.004272
# 2 -0.015191 0.027159 0.008640 0.002024 -0.001554 -0.016013
# 3 -0.023168 0.008640 0.034149 0.004320 -0.009543 -0.002397
# 4 0.004581 0.002024 0.004320 0.043757 -0.005741 -0.004774
# 5 -0.001589 -0.001554 -0.009543 -0.005741 0.029466 0.003743
# 6 0.004272 -0.016013 -0.002397 -0.004774 0.003743 0.049995
#
#
# Mechanical properties :
#
#
# Convention : Reuss Voigt Hill
#
# Bulk Modulus (GPa) = 26.90300 43.83393 35.36847
# Shear Modulus (GPa) = 17.14336 26.85839 22.00088
#
# Velocity S-wave (km/s) = 2.90076 3.63081 3.28612
# Velocity P-wave (km/s) = 4.94206 6.25236 5.63542
#
# Compressibility (1/GPa) = 0.03717057
#
# Stress axis : x y z
#
# Youngs Moduli (GPa) = 28.32613 36.82074 29.28367
#
# Poissons Ratio (x) = 0.55936 0.67845
# Poissons Ratio (y) = 0.43031 -0.25300
# Poissons Ratio (z) = 0.65627 -0.31812
#
# Static dielectric constant tensor:
#      x y z
#    x 1.725770 0.019660 -0.022000 
#    y 0.019660 1.778430 -0.028170 
#    z -0.022000 -0.028170 1.781560 
# 
# From -- ./inp_files/562555.got.cif
#   From: 2010.05.17/outbox.cif.g08.bks.cpg/sg2_282_cif.got.tgz:562555.got - 2010.06.03 11:33:40.
