data_PCOD9036659
_publ_section_title
;
Structure prediction by ZEFSAII (Michael W. Deem and Ramdas Pophale) SiO2 
 PCOD9036659
Probable space group: P -1
;
_chemical_formula_sum "Si O2"
_cell_formula_units_Z 16
_cell_length_a 14.496491
_cell_length_b 14.471145
_cell_length_c 11.484580
_cell_angle_alpha 44.750546
_cell_angle_beta 150.414237
_cell_angle_gamma 116.117212
_cell_volume 720.196574
_symmetry_space_group_name_H-M "P -1"
_symmetry_group_IT_number 2
_symmetry_cell_setting 'triclinic'
loop_
_space_group_symop_operation_xyz
x,y,z
-x,-y,-z
loop_
_atom_site_type_symbol
_atom_site_label
_atom_site_fract_x
_atom_site_fract_y
_atom_site_fract_z
Si Si1 0.896308 0.047413 0.069283
Si Si2 0.677331 0.013507 0.526578
Si Si3 0.559385 0.796467 0.702825
Si Si4 0.820573 0.229807 0.235296
Si Si5 0.730671 0.533951 0.952703
Si Si6 0.510306 0.894578 0.000977
Si Si7 0.715959 0.335898 0.764240
Si Si8 0.126343 0.444628 0.309425
O O1 0.673557 0.105230 0.705452
O O2 0.870427 0.190004 0.986822
O O3 0.097910 0.995613 0.249257
O O4 0.954837 0.913473 0.345952
O O5 0.508403 0.169984 0.267201
O O6 0.698964 0.874753 0.751778
O O7 0.569580 0.009468 0.290685
O O8 0.668640 0.628278 0.919642
O O9 0.762056 0.366176 0.139029
O O10 0.659644 0.163653 0.115425
O O11 0.796056 0.299209 0.017607
O O12 0.528563 0.629009 0.556200
O O13 0.950506 0.511629 0.158957
O O14 0.737155 0.737757 0.376036
O O15 0.500000 0.000000 0.000000
O O16 0.723642 0.480524 0.594974
O O17 0.000000 0.500000 0.000000
#
# Coordination Sequence:
#
# PCOD9036659 Si02
#       8
#     2   2   2   2   2   2   2   2
#     4  10  23  38  66  91 123 163 211 260 315 366
#     4  10  23  44  65  93 125 160 220 258 306 379
#     4  10  23  43  70  87 122 171 210 262 311 367
#     4  11  22  39  59  95 133 161 207 261 311 380
#     4  11  23  39  62  90 126 166 215 251 315 368
#     4  11  27  41  65  95 132 165 206 262 319 372
#     4  11  22  39  59  92 132 165 207 254 312 382
#     4  12  24  37  63  91 128 171 202 257 312 377
#
# _framework density 22.216159000000001
#
# number of rings (size 3 to 8) (size 9 to 14) (size 15 to 20)
#    0.000    1.250    2.500    2.625   10.500    0.000 
#    0.000    3.125    2.750    0.000    0.000    0.000 
#    0.000    0.000    0.000    0.000    0.000    0.000 
#
# Total GULP energy -89466.206225 kJ/mol
# GULP energy per Si atom -5591.637889 kJ/mol
# Density = 2.216559 g / cm^3
# Si number density = 22.216159 Si / 1000 Ang^3
#
#
#
# Elastic Constant Matrix: (Units=GPa)
#
#
# Indices 1 2 3 4 5 6 
#
# 1 95.2734 40.9348 7.0733 -8.0647 20.5337 -7.1728
# 2 40.9348 107.3560 -5.0530 -22.4826 9.8270 -17.4896
# 3 7.0733 -5.0530 46.3340 -8.4500 12.2536 -3.4755
# 4 -8.0647 -22.4826 -8.4500 33.9300 -0.3577 8.5809
# 5 20.5337 9.8270 12.2536 -0.3577 19.6444 -0.8000
# 6 -7.1728 -17.4896 -3.4755 8.5809 -0.8000 48.2881
#
#
#
# Elastic Compliance Matrix: (Units=1/GPa)
#
#
# Indices 1 2 3 4 5 6 
#
# 1 0.015545 -0.004225 0.001320 0.000951 -0.014922 0.000457
# 2 -0.004225 0.014099 0.005578 0.008854 -0.005824 0.003210
# 3 0.001320 0.005578 0.030098 0.010736 -0.022664 0.002100
# 4 0.000951 0.008854 0.010736 0.038870 -0.011533 -0.002978
# 5 -0.014922 -0.005824 -0.022664 -0.011533 0.083240 -0.002529
# 6 0.000457 0.003210 0.002100 -0.002978 -0.002529 0.022578
#
#
# Mechanical properties :
#
#
# Convention : Reuss Voigt Hill
#
# Bulk Modulus (GPa) = 15.36389 37.20816 26.28602
# Shear Modulus (GPa) = 22.64698 34.10640 28.37669
#
# Velocity S-wave (km/s) = 3.19626 3.92242 3.57781
# Velocity P-wave (km/s) = 4.53344 6.10725 5.37822
#
# Compressibility (1/GPa) = 0.06508768
#
# Stress axis : x y z
#
# Youngs Moduli (GPa) = 64.33115 70.92806 33.22435
#
# Poissons Ratio (x) = 0.29970 -0.04386
# Poissons Ratio (y) = 0.27183 -0.18533
# Poissons Ratio (z) = -0.08493 -0.39565
#
# Static dielectric constant tensor:
#      x y z
#    x 1.834100 0.019230 0.022660 
#    y 0.019230 1.822450 0.006960 
#    z 0.022660 0.006960 1.825500 
# 
# From -- ./inp_files/455508.got.cif
#   From: 2010.05.17/outbox.cif.g08.bks.cpg/sg2_228_cif.got.tgz:455508.got - 2010.06.03 11:33:40.
