data_PCOD9036864
_publ_section_title
;
Structure prediction by ZEFSAII (Michael W. Deem and Ramdas Pophale) SiO2 
 PCOD9036864
Probable space group: P -1
;
_chemical_formula_sum "Si O2"
_cell_formula_units_Z 14
_cell_length_a 7.288360
_cell_length_b 9.885332
_cell_length_c 9.365810
_cell_angle_alpha 117.423995
_cell_angle_beta 106.200410
_cell_angle_gamma 66.747486
_cell_volume 546.384552
_symmetry_space_group_name_H-M "P -1"
_symmetry_group_IT_number 2
_symmetry_cell_setting 'triclinic'
loop_
_space_group_symop_operation_xyz
x,y,z
-x,-y,-z
loop_
_atom_site_type_symbol
_atom_site_label
_atom_site_fract_x
_atom_site_fract_y
_atom_site_fract_z
Si Si1 0.721100 0.425637 0.576335
Si Si2 0.825785 0.060084 0.792523
Si Si3 0.423841 0.101288 0.204688
Si Si4 0.758250 0.069124 0.474545
Si Si5 0.376334 0.356334 0.076006
Si Si6 0.787563 0.396782 0.061686
Si Si7 0.969712 0.712557 0.663509
O O1 0.500000 0.500000 0.500000
O O2 0.716920 0.254170 0.538131
O O3 0.732893 0.519110 0.766017
O O4 0.905314 0.391004 0.488191
O O5 0.702610 0.048293 0.616320
O O6 0.855561 0.232868 0.899716
O O7 0.694197 0.029358 0.880214
O O8 0.004611 0.889988 0.749311
O O9 0.634733 0.026184 0.296417
O O10 0.412007 0.190638 0.093617
O O11 0.272583 0.236113 0.345240
O O12 0.000000 0.000000 0.500000
O O13 0.246687 0.433403 0.943748
O O14 0.583468 0.388645 0.091261
O O15 0.942145 0.366235 0.208121
#
# Coordination Sequence:
#
# PCOD9036864 Si02
#       7
#     2   2   2   2   2   2   2
#     4  12  21  41  70  95 128 179 228 270 326 395
#     4  10  23  39  64  96 133 171 217 274 330 388
#     4  10  24  42  63 100 137 164 223 285 333 375
#     4  12  21  41  70  98 129 175 230 271 327 402
#     4  11  24  40  66  97 129 178 227 265 329 398
#     4  11  22  43  68  92 133 185 220 261 330 410
#     4  10  23  41  67  98 134 171 225 275 329 388
#
# _framework density 25.622976999999999
#
# number of rings (size 3 to 8) (size 9 to 14) (size 15 to 20)
#    0.857    0.286    5.714    0.857    0.000    1.714 
#    0.000    0.000    9.429    0.000    0.000    0.000 
#    0.000    0.000    0.000    0.000    0.000    0.000 
#
# Total GULP energy -78042.906060 kJ/mol
# GULP energy per Si atom -5574.493290 kJ/mol
# Density = 2.556466 g / cm^3
# Si number density = 25.622977 Si / 1000 Ang^3
#
#
#
# Elastic Constant Matrix: (Units=GPa)
#
#
# Indices 1 2 3 4 5 6 
#
# 1 72.1104 33.3671 22.6927 -13.4408 -19.7764 -16.7745
# 2 33.3671 135.5938 44.2435 -51.6977 -7.1638 1.2309
# 3 22.6927 44.2435 112.8582 -26.6080 -15.8326 -9.1884
# 4 -13.4408 -51.6977 -26.6080 58.7028 -6.9792 -12.7971
# 5 -19.7764 -7.1638 -15.8326 -6.9792 43.2514 -3.2146
# 6 -16.7745 1.2309 -9.1884 -12.7971 -3.2146 51.9447
#
#
#
# Elastic Compliance Matrix: (Units=1/GPa)
#
#
# Indices 1 2 3 4 5 6 
#
# 1 0.021242 -0.002514 0.000498 0.006215 0.011168 0.009230
# 2 -0.002514 0.012521 -0.001588 0.010257 0.002092 0.001267
# 3 0.000498 -0.001588 0.011794 0.005585 0.005480 0.004000
# 4 0.006215 0.010257 0.005585 0.034177 0.012990 0.011976
# 5 0.011168 0.002092 0.005480 0.012990 0.033404 0.009794
# 6 0.009230 0.001267 0.004000 0.011976 0.009794 0.026466
#
#
# Mechanical properties :
#
#
# Convention : Reuss Voigt Hill
#
# Bulk Modulus (GPa) = 26.07624 57.90766 41.99195
# Shear Modulus (GPa) = 31.32893 45.46373 38.39633
#
# Velocity S-wave (km/s) = 3.50049 4.21685 3.87526
# Velocity P-wave (km/s) = 5.15140 6.80868 6.03718
#
# Compressibility (1/GPa) = 0.03834909
#
# Stress axis : x y z
#
# Youngs Moduli (GPa) = 47.07549 79.86310 84.78587
#
# Poissons Ratio (x) = 0.20076 -0.04220
# Poissons Ratio (y) = 0.11834 0.13468
# Poissons Ratio (z) = -0.02343 0.12686
#
# Static dielectric constant tensor:
#      x y z
#    x 2.090770 -0.033530 -0.085060 
#    y -0.033530 2.161860 0.010610 
#    z -0.085060 0.010610 2.014110 
# 
# From -- ./inp_files/171530.got.cif
#   From: 2010.05.17/outbox.cif.g08.bks.cpg/sg2_86_cif.got.tgz:171530.got - 2010.06.03 11:33:40.
