data_PCOD9036165
_publ_section_title
;
Structure prediction by ZEFSAII (Michael W. Deem and Ramdas Pophale) SiO2 
 PCOD9036165
Probable space group: P -1
;
_chemical_formula_sum "Si O2"
_cell_formula_units_Z 16
_cell_length_a 21.589763
_cell_length_b 16.230018
_cell_length_c 6.077563
_cell_angle_alpha 74.914061
_cell_angle_beta 64.341808
_cell_angle_gamma 22.270571
_cell_volume 663.176365
_symmetry_space_group_name_H-M "P -1"
_symmetry_group_IT_number 2
_symmetry_cell_setting 'triclinic'
loop_
_space_group_symop_operation_xyz
x,y,z
-x,-y,-z
loop_
_atom_site_type_symbol
_atom_site_label
_atom_site_fract_x
_atom_site_fract_y
_atom_site_fract_z
Si Si1 0.402870 0.184898 0.167226
Si Si2 0.108385 0.075721 0.628005
Si Si3 0.068979 0.249953 0.194612
Si Si4 0.802418 0.177222 0.678466
Si Si5 0.114895 0.382501 0.629784
Si Si6 0.588987 0.090743 0.306709
Si Si7 0.572862 0.353383 0.296020
Si Si8 0.784263 0.479775 0.146792
O O1 0.255552 0.300594 0.454087
O O2 0.524425 0.098123 0.212922
O O3 0.309927 0.354133 0.013666
O O4 0.500000 0.000000 0.000000
O O5 0.057446 0.219941 0.471827
O O6 0.934443 0.248919 0.936424
O O7 0.152188 0.954232 0.462171
O O8 0.300010 0.864383 0.624146
O O9 0.041221 0.385090 0.142009
O O10 0.921147 0.376434 0.168348
O O11 0.286016 0.983770 0.960070
O O12 0.621781 0.440619 0.679427
O O13 0.719075 0.234766 0.992916
O O14 0.000000 0.000000 0.500000
O O15 0.000000 0.500000 0.500000
O O16 0.258019 0.136815 0.615683
O O17 0.395937 0.342234 0.555311
O O18 0.500000 0.500000 0.500000
#
# Coordination Sequence:
#
# PCOD9036165 Si02
#       8
#     2   2   2   2   2   2   2   2
#     4  12  22  41  67  94 131 180 246 307 357 413
#     4  11  24  45  71 101 149 188 222 285 357 415
#     4  12  26  45  66 100 142 186 242 298 355 418
#     4  10  22  47  79 111 139 177 233 275 340 428
#     4  12  23  43  70  95 131 192 247 303 354 414
#     4  12  26  43  68  99 132 190 251 301 356 413
#     4   9  21  44  74 106 141 181 219 275 342 417
#     4  12  24  45  66  94 142 186 233 297 359 414
#
# _framework density 24.126311000000001
#
# number of rings (size 3 to 8) (size 9 to 14) (size 15 to 20)
#    0.000    0.750    3.750    3.750    0.000    2.000 
#    0.000   23.750    0.000    0.000    0.000    0.000 
#    0.000    0.000    0.000    0.000    0.000    0.000 
#
# Total GULP energy -89386.999428 kJ/mol
# GULP energy per Si atom -5586.687464 kJ/mol
# Density = 2.407140 g / cm^3
# Si number density = 24.126311 Si / 1000 Ang^3
#
#
#
# Elastic Constant Matrix: (Units=GPa)
#
#
# Indices 1 2 3 4 5 6 
#
# 1 68.9922 23.1169 37.6972 4.9441 -0.6863 -16.1688
# 2 23.1169 147.6794 38.7722 -2.3565 -3.3825 -13.4123
# 3 37.6972 38.7722 158.4472 43.7346 5.3797 -10.2214
# 4 4.9441 -2.3565 43.7346 45.8258 -4.2518 1.6814
# 5 -0.6863 -3.3825 5.3797 -4.2518 42.4169 13.2625
# 6 -16.1688 -13.4123 -10.2214 1.6814 13.2625 45.2830
#
#
#
# Elastic Compliance Matrix: (Units=1/GPa)
#
#
# Indices 1 2 3 4 5 6 
#
# 1 0.018316 -0.001290 -0.004108 0.001604 -0.000816 0.005410
# 2 -0.001290 0.007736 -0.002330 0.002807 0.000878 0.000943
# 3 -0.004108 -0.002330 0.010975 -0.010510 -0.003214 0.001652
# 4 0.001604 0.002807 -0.010510 0.032533 0.006081 -0.003957
# 5 -0.000816 0.000878 -0.003214 0.006081 0.027473 -0.009029
# 6 0.005410 0.000943 0.001652 -0.003957 -0.009029 0.027459
#
#
# Mechanical properties :
#
#
# Convention : Reuss Voigt Hill
#
# Bulk Modulus (GPa) = 46.35832 63.81016 55.08424
# Shear Modulus (GPa) = 33.98175 45.07397 39.52786
#
# Velocity S-wave (km/s) = 3.75706 4.32701 4.05207
# Velocity P-wave (km/s) = 6.17068 7.17425 6.69130
#
# Compressibility (1/GPa) = 0.02157110
#
# Stress axis : x y z
#
# Youngs Moduli (GPa) = 54.59666 129.27178 91.11314
#
# Poissons Ratio (x) = 0.16681 0.37428
# Poissons Ratio (y) = 0.07045 0.21227
# Poissons Ratio (z) = 0.22428 0.30117
#
# Static dielectric constant tensor:
#      x y z
#    x 1.950500 0.078580 0.122000 
#    y 0.078580 2.041860 0.150960 
#    z 0.122000 0.150960 2.265530 
# 
# From -- ./inp_files/124696.got.cif
#   From: 2010.05.17/outbox.cif.g08.bks.cpg/sg2_63_cif.got.tgz:124696.got - 2010.06.03 11:33:40.
