data_PCOD9036929
_publ_section_title
;
Structure prediction by ZEFSAII (Michael W. Deem and Ramdas Pophale) SiO2 
 PCOD9036929
Probable space group: P -1
;
_chemical_formula_sum "Si O2"
_cell_formula_units_Z 11
_cell_length_a 5.205354
_cell_length_b 9.267019
_cell_length_c 10.657361
_cell_angle_alpha 128.830934
_cell_angle_beta 100.811381
_cell_angle_gamma 83.167226
_cell_volume 393.367581
_symmetry_space_group_name_H-M "P -1"
_symmetry_group_IT_number 2
_symmetry_cell_setting 'triclinic'
loop_
_space_group_symop_operation_xyz
x,y,z
-x,-y,-z
loop_
_atom_site_type_symbol
_atom_site_label
_atom_site_fract_x
_atom_site_fract_y
_atom_site_fract_z
Si Si1 0.486513 0.428878 0.661570
Si Si2 0.797711 0.329287 0.390941
Si Si3 0.865116 0.654359 0.957609
Si Si4 0.000000 0.000000 0.000000
Si Si5 0.854006 0.914890 0.558387
Si Si6 0.381058 0.818562 0.131231
O O1 0.597617 0.352230 0.498811
O O2 0.351130 0.627460 0.727590
O O3 0.278430 0.277360 0.599872
O O4 0.732352 0.471800 0.792032
O O5 0.952002 0.142953 0.337654
O O6 0.000000 0.500000 0.500000
O O7 0.668062 0.744269 0.089382
O O8 0.166226 0.652455 0.025788
O O9 0.878126 0.802291 0.925719
O O10 0.729034 0.052437 0.920670
O O11 0.000000 0.000000 0.500000
O O12 0.652292 0.058145 0.679654
#
# Coordination Sequence:
#
# PCOD9036929 Si02
#       6
#     2   2   2   1   2   2
#     4  10  23  40  70  98 131 178 229 288 339 405
#     4   9  22  38  65  97 133 167 231 276 342 395
#     4  10  23  39  66 101 135 176 224 289 347 407
#     4   8  22  32  64  90 142 158 220 266 358 376
#     4  11  26  45  67  96 138 186 230 280 341 414
#     4  10  24  40  64 100 137 177 225 283 346 405
#
# _framework density 27.963666
#
# number of rings (size 3 to 8) (size 9 to 14) (size 15 to 20)
#    1.091    1.091    0.000    0.545   17.818    0.727 
#    0.000    1.818    0.000    0.000    0.000    0.000 
#    0.000    0.000    0.000    0.000    0.000    0.000 
#
# Total GULP energy -61390.282530 kJ/mol
# GULP energy per Si atom -5580.934775 kJ/mol
# Density = 2.790002 g / cm^3
# Si number density = 27.963666 Si / 1000 Ang^3
#
#
#
# Elastic Constant Matrix: (Units=GPa)
#
#
# Indices 1 2 3 4 5 6 
#
# 1 84.4590 64.1079 0.6725 6.5245 -16.0264 16.7877
# 2 64.1079 161.6374 36.3320 7.0231 14.7039 2.7338
# 3 0.6725 36.3320 74.5409 27.8489 -14.8594 17.7692
# 4 6.5245 7.0231 27.8489 21.5407 9.7260 14.9696
# 5 -16.0264 14.7039 -14.8594 9.7260 64.0847 3.0207
# 6 16.7877 2.7338 17.7692 14.9696 3.0207 64.4794
#
#
#
# Elastic Compliance Matrix: (Units=1/GPa)
#
#
# Indices 1 2 3 4 5 6 
#
# 1 1.053932 -0.779536 1.631157 -2.632417 1.226628 -0.137184
# 2 -0.779536 0.585192 -1.217345 1.961621 -0.913955 0.101029
# 3 1.631157 -1.217345 2.577106 -4.152585 1.924887 -0.209380
# 4 -2.632417 1.961621 -4.152585 6.751960 -3.111301 0.324789
# 5 1.226628 -0.913955 1.924887 -3.111301 1.457985 -0.157054
# 6 -0.137184 0.101029 -0.209380 0.324789 -0.157054 0.036598
#
#
# Mechanical properties :
#
#
# Convention : Reuss Voigt Hill
#
# Bulk Modulus (GPa) = 0.28696 58.09580 29.19138
# Shear Modulus (GPa) = 0.34829 44.65597 22.50213
#
# Velocity S-wave (km/s) = 0.35330 4.00049 2.83979
# Velocity P-wave (km/s) = 0.51891 6.49301 4.60589
#
# Compressibility (1/GPa) = 3.48478221
#
# Stress axis : x y z
#
# Youngs Moduli (GPa) = 0.94883 1.70884 0.38803
#
# Poissons Ratio (x) = 1.33210 -0.63294
# Poissons Ratio (y) = 0.73964 0.47237
# Poissons Ratio (z) = -1.54769 2.08025
#
# Static dielectric constant tensor:
#      x y z
#    x 2.235200 -0.104550 0.018880 
#    y -0.104550 2.162490 -0.029480 
#    z 0.018880 -0.029480 2.252340 
# 
# From -- ./inp_files/359955.got.cif
#   From: 2010.05.17/outbox.cif.g08.bks.cpg/sg2_180_cif.got.tgz:359955.got - 2010.06.03 11:33:40.
