data_PCOD9036069
_publ_section_title
;
Structure prediction by ZEFSAII (Michael W. Deem and Ramdas Pophale) SiO2 
 PCOD9036069
Probable space group: P -1
;
_chemical_formula_sum "Si O2"
_cell_formula_units_Z 16
_cell_length_a 13.672295
_cell_length_b 14.552996
_cell_length_c 14.618680
_cell_angle_alpha 159.773602
_cell_angle_beta 141.248260
_cell_angle_gamma 38.562561
_cell_volume 612.335585
_symmetry_space_group_name_H-M "P -1"
_symmetry_group_IT_number 2
_symmetry_cell_setting 'triclinic'
loop_
_space_group_symop_operation_xyz
x,y,z
-x,-y,-z
loop_
_atom_site_type_symbol
_atom_site_label
_atom_site_fract_x
_atom_site_fract_y
_atom_site_fract_z
Si Si1 0.526255 0.038742 0.892368
Si Si2 0.643877 0.224313 0.335814
Si Si3 0.961850 0.498995 0.326185
Si Si4 0.896844 0.462011 0.975752
Si Si5 0.346866 0.710966 0.124886
Si Si6 0.559154 0.378648 0.688309
Si Si7 0.152364 0.137760 0.249424
Si Si8 0.016068 0.857654 0.545914
O O1 0.376878 0.993268 0.805216
O O2 0.540274 0.782777 0.596957
O O3 0.636998 0.084435 0.100562
O O4 0.521453 0.299293 0.067222
O O5 0.500000 0.500000 0.500000
O O6 0.818908 0.282044 0.515376
O O7 0.879401 0.620444 0.473828
O O8 0.127441 0.282944 0.268243
O O9 0.006701 0.744250 0.533768
O O10 0.817708 0.390750 0.074443
O O11 0.723572 0.399089 0.776058
O O12 0.992230 0.179740 0.827609
O O13 0.000000 0.500000 0.000000
O O14 0.883186 0.733887 0.280223
O O15 0.398098 0.766062 0.317454
O O16 0.296132 0.931407 0.212468
O O17 0.500000 0.500000 0.000000
O O18 0.000000 0.000000 0.000000
#
# Coordination Sequence:
#
# PCOD9036069 Si02
#       8
#     2   2   2   2   2   2   2   2
#     4  11  25  45  72 100 144 194 234 304 359 447
#     4  11  25  49  71 101 150 190 246 295 372 431
#     4  10  22  47  72 102 138 195 252 309 370 451
#     4  12  25  43  71 108 147 190 242 295 366 441
#     4  11  25  46  71 108 150 196 241 318 388 454
#     4  12  24  46  72 105 147 190 246 298 374 442
#     4   9  21  45  72  96 139 187 244 304 373 445
#     4  12  26  43  75 105 137 193 248 300 359 434
#
# _framework density 26.129462
#
# number of rings (size 3 to 8) (size 9 to 14) (size 15 to 20)
#    0.000    1.000    2.500    3.375    7.000    0.500 
#    9.000    0.000    0.000    0.000    0.000    0.000 
#    0.000    0.000    0.000    0.000    0.000    0.000 
#
# Total GULP energy -89366.612178 kJ/mol
# GULP energy per Si atom -5585.413261 kJ/mol
# Density = 2.606999 g / cm^3
# Si number density = 26.129462 Si / 1000 Ang^3
#
#
#
# Elastic Constant Matrix: (Units=GPa)
#
#
# Indices 1 2 3 4 5 6 
#
# 1 79.9540 49.6750 27.4444 -5.7439 9.5494 -0.9450
# 2 49.6750 143.6787 46.2846 15.7844 13.9376 17.2859
# 3 27.4444 46.2846 131.9885 -11.2584 4.5342 4.3064
# 4 -5.7439 15.7844 -11.2584 47.1206 10.7162 2.6872
# 5 9.5494 13.9376 4.5342 10.7162 29.4733 2.1165
# 6 -0.9450 17.2859 4.3064 2.6872 2.1165 45.1432
#
#
#
# Elastic Compliance Matrix: (Units=1/GPa)
#
#
# Indices 1 2 3 4 5 6 
#
# 1 0.017633 -0.006192 -0.001012 0.004870 -0.004599 0.002762
# 2 -0.006192 0.011072 -0.002850 -0.004749 -0.000793 -0.003777
# 3 -0.001012 -0.002850 0.009088 0.003202 -0.000891 0.000054
# 4 0.004870 -0.004749 0.003202 0.026285 -0.009417 0.000492
# 5 -0.004599 -0.000793 -0.000891 -0.009417 0.039427 -0.000995
# 6 0.002762 -0.003777 0.000054 0.000492 -0.000995 0.023668
#
#
# Mechanical properties :
#
#
# Convention : Reuss Voigt Hill
#
# Bulk Modulus (GPa) = 56.54060 66.93656 61.73858
# Shear Modulus (GPa) = 32.64238 39.82857 36.23547
#
# Velocity S-wave (km/s) = 3.53832 3.90844 3.72797
# Velocity P-wave (km/s) = 6.19504 6.78533 6.49689
#
# Compressibility (1/GPa) = 0.01768641
#
# Stress axis : x y z
#
# Youngs Moduli (GPa) = 56.71137 90.32001 110.03406
#
# Poissons Ratio (x) = 0.55923 0.11135
# Poissons Ratio (y) = 0.35114 0.31356
# Poissons Ratio (z) = 0.05739 0.25738
#
# Static dielectric constant tensor:
#      x y z
#    x 2.111810 -0.037030 -0.036600 
#    y -0.037030 2.235260 0.062130 
#    z -0.036600 0.062130 2.078550 
# 
# From -- ./inp_files/534684.got.cif
#   From: 2010.05.17/outbox.cif.g08.bks.cpg/sg2_268_cif.got.tgz:534684.got - 2010.06.03 11:33:40.
