data_PCOD9036483
_publ_section_title
;
Structure prediction by ZEFSAII (Michael W. Deem and Ramdas Pophale) SiO2 
 PCOD9036483
Probable space group: P -1
;
_chemical_formula_sum "Si O2"
_cell_formula_units_Z 16
_cell_length_a 17.248002
_cell_length_b 5.637453
_cell_length_c 12.599925
_cell_angle_alpha 95.524157
_cell_angle_beta 42.261613
_cell_angle_gamma 106.510395
_cell_volume 777.504947
_symmetry_space_group_name_H-M "P -1"
_symmetry_group_IT_number 2
_symmetry_cell_setting 'triclinic'
loop_
_space_group_symop_operation_xyz
x,y,z
-x,-y,-z
loop_
_atom_site_type_symbol
_atom_site_label
_atom_site_fract_x
_atom_site_fract_y
_atom_site_fract_z
Si Si1 0.368060 0.376207 0.986762
Si Si2 0.412030 0.757749 0.140039
Si Si3 0.227667 0.704886 0.509371
Si Si4 0.343655 0.685018 0.830279
Si Si5 0.179433 0.977394 0.029980
Si Si6 0.569795 0.010863 0.538191
Si Si7 0.735606 0.730374 0.267857
Si Si8 0.106539 0.145804 0.686917
O O1 0.491806 0.331802 0.893839
O O2 0.386414 0.525780 0.865435
O O3 0.346135 0.549973 0.110383
O O4 0.253530 0.139234 0.060471
O O5 0.310150 0.786718 0.324243
O O6 0.500000 0.000000 0.000000
O O7 0.159154 0.404301 0.575204
O O8 0.322976 0.761660 0.513778
O O9 0.151859 0.904019 0.604810
O O10 0.454604 0.941823 0.729830
O O11 0.322489 0.544641 0.733625
O O12 0.216856 0.725553 0.986998
O O13 0.038327 0.938117 0.177265
O O14 0.227380 0.099011 0.869903
O O15 0.635770 0.800861 0.443010
O O16 0.500000 0.000000 0.500000
O O17 0.849035 0.775145 0.233462
#
# Coordination Sequence:
#
# PCOD9036483 Si02
#       8
#     2   2   2   2   2   2   2   2
#     4  10  24  40  70 100 127 166 219 282 337 413
#     4  11  24  45  73  99 131 165 215 282 356 410
#     4  11  27  44  68  99 133 179 221 279 341 396
#     4  11  22  38  65  97 134 171 224 275 341 395
#     4  11  23  43  64  95 132 184 228 273 321 392
#     4  11  20  37  60  98 134 171 217 277 338 396
#     4  10  23  37  63  95 135 182 226 270 328 393
#     4  11  27  45  65  96 141 184 233 271 319 394
#
# _framework density 20.578645000000002
#
# number of rings (size 3 to 8) (size 9 to 14) (size 15 to 20)
#    0.000    1.250    1.250    3.750   14.000    0.500 
#    0.000    1.250    0.000    0.000    0.000    0.000 
#    0.000    0.000    0.000    0.000    0.000    0.000 
#
# Total GULP energy -89198.604263 kJ/mol
# GULP energy per Si atom -5574.912766 kJ/mol
# Density = 2.053181 g / cm^3
# Si number density = 20.578645 Si / 1000 Ang^3
#
#
#
# Elastic Constant Matrix: (Units=GPa)
#
#
# Indices 1 2 3 4 5 6 
#
# 1 81.9163 23.9164 31.5688 9.3070 -15.8878 15.3578
# 2 23.9164 69.1711 24.5911 6.6094 0.3528 6.7847
# 3 31.5688 24.5911 77.6899 7.3878 -9.2127 -0.3865
# 4 9.3070 6.6094 7.3878 22.7267 1.6390 10.1528
# 5 -15.8878 0.3528 -9.2127 1.6390 36.1085 1.9178
# 6 15.3578 6.7847 -0.3865 10.1528 1.9178 34.8695
#
#
#
# Elastic Compliance Matrix: (Units=1/GPa)
#
#
# Indices 1 2 3 4 5 6 
#
# 1 0.018264 -0.003574 -0.005281 -0.002019 0.007199 -0.007215
# 2 -0.003574 0.017492 -0.004273 -0.001458 -0.002698 -0.001304
# 3 -0.005281 -0.004273 0.017039 -0.004282 0.002022 0.004481
# 4 -0.002019 -0.001458 -0.004282 0.053239 -0.003630 -0.014176
# 5 0.007199 -0.002698 0.002022 -0.003630 0.031745 -0.003312
# 6 -0.007215 -0.001304 0.004481 -0.014176 -0.003312 0.036469
#
#
# Mechanical properties :
#
#
# Convention : Reuss Voigt Hill
#
# Bulk Modulus (GPa) = 37.67598 43.21444 40.44521
# Shear Modulus (GPa) = 23.88346 28.65435 26.26891
#
# Velocity S-wave (km/s) = 3.41045 3.73558 3.57671
# Velocity P-wave (km/s) = 5.81861 6.29693 6.06249
#
# Compressibility (1/GPa) = 0.02654211
#
# Stress axis : x y z
#
# Youngs Moduli (GPa) = 54.75106 57.16755 58.68878
#
# Poissons Ratio (x) = 0.20430 0.30992
# Poissons Ratio (y) = 0.19567 0.25075
# Poissons Ratio (z) = 0.28912 0.24425
#
# Static dielectric constant tensor:
#      x y z
#    x 1.388680 -0.094540 0.685080 
#    y -0.094540 1.795970 0.106850 
#    z 0.685080 0.106850 0.511260 
# 
# From -- ./inp_files/81609.got.cif
#   From: 2010.05.17/outbox.cif.g08.bks.cpg/sg2_41_cif.got.tgz:81609.got - 2010.06.03 11:33:40.
