data_PCOD9036352
_publ_section_title
;
Structure prediction by ZEFSAII (Michael W. Deem and Ramdas Pophale) SiO2 
 PCOD9036352
Probable space group: P -1
;
_chemical_formula_sum "Si O2"
_cell_formula_units_Z 12
_cell_length_a 13.439069
_cell_length_b 5.371260
_cell_length_c 11.617432
_cell_angle_alpha 85.379946
_cell_angle_beta 148.429116
_cell_angle_gamma 103.011712
_cell_volume 417.476537
_symmetry_space_group_name_H-M "P -1"
_symmetry_group_IT_number 2
_symmetry_cell_setting 'triclinic'
loop_
_space_group_symop_operation_xyz
x,y,z
-x,-y,-z
loop_
_atom_site_type_symbol
_atom_site_label
_atom_site_fract_x
_atom_site_fract_y
_atom_site_fract_z
Si Si1 0.378889 0.079702 0.440920
Si Si2 0.480838 0.530503 0.636758
Si Si3 0.950488 0.757893 0.906115
Si Si4 0.475275 0.708956 0.873508
Si Si5 0.911711 0.205135 0.470221
Si Si6 0.150145 0.108177 0.900533
O O1 0.391878 0.568487 0.673046
O O2 0.138942 0.959167 0.173615
O O3 0.472449 0.822142 0.535354
O O4 0.498182 0.221415 0.664869
O O5 0.299324 0.364061 0.365420
O O6 0.722930 0.684042 0.889378
O O7 0.048958 0.841934 0.875118
O O8 0.000000 0.500000 0.000000
O O9 0.323330 0.855872 0.760146
O O10 0.500000 0.500000 0.000000
O O11 0.689062 0.889565 0.037173
O O12 0.000000 0.500000 0.500000
O O13 0.979752 0.199642 0.669409
O O14 0.000000 0.000000 0.500000
#
# Coordination Sequence:
#
# PCOD9036352 Si02
#       6
#     2   2   2   2   2   2
#     4  11  25  46  76 115 159 212 276 337 410 484
#     4   9  23  47  73 111 161 211 269 326 420 471
#     4  12  28  49  75 112 160 210 272 334 400 486
#     4  10  22  52  82 115 165 211 272 336 417 491
#     4  12  27  51  82 124 160 213 275 341 414 494
#     4  10  25  50  79 116 162 218 274 331 420 484
#
# _framework density 28.744129999999998
#
# number of rings (size 3 to 8) (size 9 to 14) (size 15 to 20)
#    1.000    0.333    3.333    0.000    7.000    3.333 
#    9.000    0.000    0.000    0.000    0.000    0.000 
#    0.000    0.000    0.000    0.000    0.000    0.000 
#
# Total GULP energy -66973.196077 kJ/mol
# GULP energy per Si atom -5581.099673 kJ/mol
# Density = 2.867871 g / cm^3
# Si number density = 28.744130 Si / 1000 Ang^3
#
#
#
# Elastic Constant Matrix: (Units=GPa)
#
#
# Indices 1 2 3 4 5 6 
#
# 1 177.2495 83.1691 77.0125 -24.5169 10.5500 -12.4592
# 2 83.1691 261.0999 95.3595 -7.4981 2.4053 -9.2540
# 3 77.0125 95.3595 277.2306 -21.6185 23.0795 -10.1943
# 4 -24.5169 -7.4981 -21.6185 60.3970 -1.8280 -21.1985
# 5 10.5500 2.4053 23.0795 -1.8280 78.4235 -4.0487
# 6 -12.4592 -9.2540 -10.1943 -21.1985 -4.0487 66.9637
#
#
#
# Elastic Compliance Matrix: (Units=1/GPa)
#
#
# Indices 1 2 3 4 5 6 
#
# 1 0.007591 -0.001846 -0.001120 0.003120 -0.000462 0.001947
# 2 -0.001846 0.004849 -0.001239 -0.000584 0.000450 -0.000020
# 3 -0.001120 -0.001239 0.004553 0.001209 -0.001090 0.000630
# 4 0.003120 -0.000584 0.001209 0.020733 0.000100 0.007253
# 5 -0.000462 0.000450 -0.001090 0.000100 0.013156 0.000637
# 6 0.001947 -0.000020 0.000630 0.007253 0.000637 0.017724
#
#
# Mechanical properties :
#
#
# Convention : Reuss Voigt Hill
#
# Bulk Modulus (GPa) = 116.52201 136.29581 126.40891
# Shear Modulus (GPa) = 62.59807 71.82609 67.21208
#
# Velocity S-wave (km/s) = 4.67172 5.00423 4.84083
# Velocity P-wave (km/s) = 8.35019 8.99498 8.67857
#
# Compressibility (1/GPa) = 0.00858207
#
# Stress axis : x y z
#
# Youngs Moduli (GPa) = 131.74314 206.24012 219.65079
#
# Poissons Ratio (x) = 0.38068 0.24609
# Poissons Ratio (y) = 0.24317 0.27209
# Poissons Ratio (z) = 0.14760 0.25548
#
# Static dielectric constant tensor:
#      x y z
#    x 2.263680 0.017270 -0.007460 
#    y 0.017270 2.266000 0.042900 
#    z -0.007460 0.042900 2.209880 
# 
# From -- ./inp_files/576451.got.cif
#   From: 2010.05.17/outbox.cif.g08.bks.cpg/sg2_289_cif.got.tgz:576451.got - 2010.06.03 11:33:40.
