data_PCOD9036976
_publ_section_title
;
Structure prediction by ZEFSAII (Michael W. Deem and Ramdas Pophale) SiO2 
 PCOD9036976
Probable space group: P -1
;
_chemical_formula_sum "Si O2"
_cell_formula_units_Z 16
_cell_length_a 14.284900
_cell_length_b 10.803617
_cell_length_c 9.134738
_cell_angle_alpha 108.536304
_cell_angle_beta 73.461224
_cell_angle_gamma 149.613647
_cell_volume 675.938738
_symmetry_space_group_name_H-M "P -1"
_symmetry_group_IT_number 2
_symmetry_cell_setting 'triclinic'
loop_
_space_group_symop_operation_xyz
x,y,z
-x,-y,-z
loop_
_atom_site_type_symbol
_atom_site_label
_atom_site_fract_x
_atom_site_fract_y
_atom_site_fract_z
Si Si1 0.547735 0.076583 0.339229
Si Si2 0.451608 0.705477 0.109745
Si Si3 0.867068 0.986429 0.731806
Si Si4 0.872152 0.386526 0.872590
Si Si5 0.059335 0.410625 0.617415
Si Si6 0.128978 0.923100 0.908133
Si Si7 0.445982 0.165797 0.200400
Si Si8 0.890277 0.737947 0.705039
O O1 0.765508 0.303675 0.313582
O O2 0.523506 0.192682 0.324848
O O3 0.500000 0.000000 0.500000
O O4 0.442068 0.847477 0.208288
O O5 0.294684 0.464467 0.190059
O O6 0.660510 0.892974 0.125177
O O7 0.422647 0.656315 0.929863
O O8 0.022087 0.252987 0.690154
O O9 0.677272 0.845978 0.721662
O O10 0.880775 0.850043 0.643045
O O11 0.878804 0.011846 0.910685
O O12 0.895987 0.326969 0.689733
O O13 0.959971 0.625621 0.880993
O O14 0.682742 0.100658 0.903400
O O15 0.000000 0.500000 0.000000
O O16 0.091799 0.375613 0.437737
O O17 0.070999 0.945116 0.805243
#
# Coordination Sequence:
#
# PCOD9036976 Si02
#       8
#     2   2   2   2   2   2   2   2
#     4  12  23  40  61 101 133 158 218 277 341 389
#     4  11  23  41  65 100 133 166 218 274 331 397
#     4  10  24  47  64  91 129 181 231 258 318 402
#     4  11  18  40  67  94 128 164 219 269 333 392
#     4  11  23  41  66  91 134 169 214 275 330 395
#     4  11  23  41  69  97 127 178 218 276 325 386
#     4  10  23  39  67  93 126 180 212 274 331 389
#     4  12  26  43  64  98 139 175 219 272 325 385
#
# _framework density 23.670784999999999
#
# number of rings (size 3 to 8) (size 9 to 14) (size 15 to 20)
#    0.000    1.000    6.250    1.875    1.750    4.500 
#    2.250    0.625    0.000    0.000    0.000    0.000 
#    0.000    0.000    0.000    0.000    0.000    0.000 
#
# Total GULP energy -89256.088049 kJ/mol
# GULP energy per Si atom -5578.505503 kJ/mol
# Density = 2.361691 g / cm^3
# Si number density = 23.670785 Si / 1000 Ang^3
#
#
#
# Elastic Constant Matrix: (Units=GPa)
#
#
# Indices 1 2 3 4 5 6 
#
# 1 93.8078 1.4681 25.7736 -10.5259 6.2434 -6.6407
# 2 1.4681 63.1761 14.6744 -28.5674 -6.3283 -4.6797
# 3 25.7736 14.6744 87.1551 -23.7496 0.0643 3.5704
# 4 -10.5259 -28.5674 -23.7496 31.6140 -6.2009 2.2999
# 5 6.2434 -6.3283 0.0643 -6.2009 29.5417 3.0161
# 6 -6.6407 -4.6797 3.5704 2.2999 3.0161 27.5801
#
#
#
# Elastic Compliance Matrix: (Units=1/GPa)
#
#
# Indices 1 2 3 4 5 6 
#
# 1 0.012233 0.001584 -0.003423 0.002242 -0.002146 0.003705
# 2 0.001584 0.032236 0.003590 0.034992 0.013810 0.000958
# 3 -0.003423 0.003590 0.016326 0.015690 0.005180 -0.004203
# 4 0.002242 0.034992 0.015690 0.080951 0.024488 -0.004982
# 5 -0.002146 0.013810 0.005180 0.024488 0.042961 -0.005584
# 6 0.003705 0.000958 -0.004203 -0.004982 -0.005584 0.038883
#
#
# Mechanical properties :
#
#
# Convention : Reuss Voigt Hill
#
# Bulk Modulus (GPa) = 15.55319 36.44124 25.99721
# Shear Modulus (GPa) = 20.70226 31.22870 25.96548
#
# Velocity S-wave (km/s) = 2.96056 3.63615 3.31560
# Velocity P-wave (km/s) = 4.27451 5.74954 5.06600
#
# Compressibility (1/GPa) = 0.06429550
#
# Stress axis : x y z
#
# Youngs Moduli (GPa) = 81.74891 31.02165 61.25304
#
# Poissons Ratio (x) = -0.04915 0.20969
# Poissons Ratio (y) = -0.12951 -0.21989
# Poissons Ratio (z) = 0.27986 -0.11137
#
# Static dielectric constant tensor:
#      x y z
#    x 2.041640 0.061540 -0.002590 
#    y 0.061540 1.931300 -0.020090 
#    z -0.002590 -0.020090 1.914880 
# 
# From -- ./inp_files/223825.got.cif
#   From: 2010.05.17/outbox.cif.g08.bks.cpg/sg2_112_cif.got.tgz:223825.got - 2010.06.03 11:33:40.
