data_PCOD9036004
_publ_section_title
;
Structure prediction by ZEFSAII (Michael W. Deem and Ramdas Pophale) SiO2 
 PCOD9036004
Probable space group: P -1
;
_chemical_formula_sum "Si O2"
_cell_formula_units_Z 16
_cell_length_a 11.060232
_cell_length_b 7.977686
_cell_length_c 14.646831
_cell_angle_alpha 110.863776
_cell_angle_beta 61.834559
_cell_angle_gamma 64.519423
_cell_volume 731.800484
_symmetry_space_group_name_H-M "P -1"
_symmetry_group_IT_number 2
_symmetry_cell_setting 'triclinic'
loop_
_space_group_symop_operation_xyz
x,y,z
-x,-y,-z
loop_
_atom_site_type_symbol
_atom_site_label
_atom_site_fract_x
_atom_site_fract_y
_atom_site_fract_z
Si Si1 0.597196 0.927457 0.050992
Si Si2 0.781913 0.286864 0.118667
Si Si3 0.822094 0.875444 0.577728
Si Si4 0.247508 0.427963 0.369372
Si Si5 0.474177 0.397953 0.900905
Si Si6 0.964859 0.486600 0.116946
Si Si7 0.695017 0.933797 0.438718
Si Si8 0.561085 0.461691 0.573763
O O1 0.585014 0.744616 0.069865
O O2 0.452462 0.214894 0.200554
O O3 0.827883 0.760165 0.953609
O O4 0.500000 0.000000 0.000000
O O5 0.690194 0.368493 0.065406
O O6 0.810206 0.469526 0.167548
O O7 0.632079 0.344980 0.255899
O O8 0.000000 0.000000 0.000000
O O9 0.807196 0.729031 0.628434
O O10 0.758829 0.835081 0.500168
O O11 0.053122 0.706332 0.450637
O O12 0.673847 0.170311 0.724526
O O13 0.301839 0.496546 0.450202
O O14 0.500000 0.500000 0.000000
O O15 0.858224 0.738860 0.264917
O O16 0.000000 0.500000 0.000000
O O17 0.500000 0.000000 0.500000
O O18 0.663558 0.176239 0.504093
O O19 0.500000 0.500000 0.500000
#
# Coordination Sequence:
#
# PCOD9036004 Si02
#       8
#     2   2   2   2   2   2   2   2
#     4  11  25  44  70 104 140 185 235 290 357 424
#     4  12  27  48  69 104 144 189 237 298 356 419
#     4  10  22  47  69 100 136 189 231 289 357 418
#     4  10  24  43  70  99 140 178 237 290 345 427
#     4  11  25  45  70 102 147 186 236 295 355 427
#     4  12  26  46  74 102 140 189 238 292 361 428
#     4  12  24  44  72  98 141 182 234 286 355 416
#     4  12  27  43  70 104 137 185 236 292 350 419
#
# _framework density 21.863883999999999
#
# number of rings (size 3 to 8) (size 9 to 14) (size 15 to 20)
#    0.000    0.750    3.750    2.250    8.750    2.500 
#    0.000    0.000    0.000    0.000    0.000    0.000 
#    0.000    0.000    0.000    0.000    0.000    0.000 
#
# Total GULP energy -89313.975883 kJ/mol
# GULP energy per Si atom -5582.123493 kJ/mol
# Density = 2.181412 g / cm^3
# Si number density = 21.863884 Si / 1000 Ang^3
#
#
#
# Elastic Constant Matrix: (Units=GPa)
#
#
# Indices 1 2 3 4 5 6 
#
# 1 128.4331 19.2778 47.7361 10.0938 11.1301 -30.2612
# 2 19.2778 74.3488 33.7447 5.3914 -2.6970 -27.3256
# 3 47.7361 33.7447 143.1901 23.2251 13.3719 -23.4920
# 4 10.0938 5.3914 23.2251 33.5948 -2.2226 -0.4272
# 5 11.1301 -2.6970 13.3719 -2.2226 34.9036 -0.6467
# 6 -30.2612 -27.3256 -23.4920 -0.4272 -0.6467 50.7497
#
#
#
# Elastic Compliance Matrix: (Units=1/GPa)
#
#
# Indices 1 2 3 4 5 6 
#
# 1 0.010073 0.000254 -0.002068 -0.001732 -0.002415 0.005141
# 2 0.000254 0.018035 -0.003105 -0.000543 0.002624 0.008454
# 3 -0.002068 -0.003105 0.010000 -0.006022 -0.003765 0.001625
# 4 -0.001732 -0.000543 -0.006022 0.034818 0.004965 -0.003756
# 5 -0.002415 0.002624 -0.003765 0.004965 0.031357 -0.001329
# 6 0.005141 0.008454 0.001625 -0.003756 -0.001329 0.028026
#
#
# Mechanical properties :
#
#
# Convention : Reuss Voigt Hill
#
# Bulk Modulus (GPa) = 35.37277 60.83212 48.10244
# Shear Modulus (GPa) = 32.98791 40.19718 36.59255
#
# Velocity S-wave (km/s) = 3.88852 4.29245 4.09547
# Velocity P-wave (km/s) = 6.03113 7.24226 6.66427
#
# Compressibility (1/GPa) = 0.02827033
#
# Stress axis : x y z
#
# Youngs Moduli (GPa) = 99.27119 55.44732 100.00084
#
# Poissons Ratio (x) = -0.01409 0.20683
# Poissons Ratio (y) = -0.02523 0.31050
# Poissons Ratio (z) = 0.20532 0.17216
#
# Static dielectric constant tensor:
#      x y z
#    x 1.826100 -0.015620 -0.008230 
#    y -0.015620 1.530070 0.050260 
#    z -0.008230 0.050260 1.830490 
# 
# From -- ./inp_files/515904.got.cif
#   From: 2010.05.17/outbox.cif.g08.bks.cpg/sg2_258_cif.got.tgz:515904.got - 2010.06.03 11:33:40.
