data_PCOD9036413
_publ_section_title
;
Structure prediction by ZEFSAII (Michael W. Deem and Ramdas Pophale) SiO2 
 PCOD9036413
Probable space group: P -1
;
_chemical_formula_sum "Si O2"
_cell_formula_units_Z 14
_cell_length_a 17.555820
_cell_length_b 10.794721
_cell_length_c 11.764257
_cell_angle_alpha 110.387586
_cell_angle_beta 160.705054
_cell_angle_gamma 68.538951
_cell_volume 685.568290
_symmetry_space_group_name_H-M "P -1"
_symmetry_group_IT_number 2
_symmetry_cell_setting 'triclinic'
loop_
_space_group_symop_operation_xyz
x,y,z
-x,-y,-z
loop_
_atom_site_type_symbol
_atom_site_label
_atom_site_fract_x
_atom_site_fract_y
_atom_site_fract_z
Si Si1 0.183078 0.162053 0.770204
Si Si2 0.990862 0.357945 0.383855
Si Si3 0.188795 0.873086 0.593598
Si Si4 0.665770 0.270382 0.464273
Si Si5 0.751211 0.420725 0.849691
Si Si6 0.165344 0.491083 0.339344
Si Si7 0.432444 0.349168 0.843391
O O1 0.999459 0.248104 0.457725
O O2 0.064521 0.141308 0.717094
O O3 0.245338 0.018968 0.753377
O O4 0.408566 0.238098 0.117591
O O5 0.223402 0.326662 0.626323
O O6 0.000000 0.500000 0.500000
O O7 0.781737 0.366489 0.002271
O O8 0.210049 0.843366 0.479785
O O9 0.364557 0.764154 0.874060
O O10 0.779263 0.306921 0.755131
O O11 0.670752 0.399076 0.430503
O O12 0.500000 0.500000 0.500000
O O13 0.963520 0.511264 0.158764
O O14 0.324479 0.360770 0.567239
O O15 0.000000 0.500000 0.000000
O O16 0.500000 0.500000 0.000000
#
# Coordination Sequence:
#
# PCOD9036413 Si02
#       7
#     2   2   2   2   2   2   2
#     4  11  24  41  65  92 125 163 215 260 306 371
#     4  11  22  37  63  93 123 161 209 259 308 372
#     4  11  24  39  66  93 123 165 215 257 310 370
#     4  11  21  40  64  85 130 167 199 256 313 368
#     4  10  23  36  60  97 128 163 203 256 318 367
#     4   9  20  36  56  90 123 156 201 250 305 363
#     4  11  19  34  61  89 120 156 208 251 306 364
#
# _framework density 20.421012999999999
#
# number of rings (size 3 to 8) (size 9 to 14) (size 15 to 20)
#    0.000    1.429    2.857    2.143    4.000    2.286 
#    0.000    0.714    3.143    1.714    0.000    0.000 
#    0.000    0.000    0.000    0.000    0.000    0.000 
#
# Total GULP energy -78058.550132 kJ/mol
# GULP energy per Si atom -5575.610724 kJ/mol
# Density = 2.037453 g / cm^3
# Si number density = 20.421013 Si / 1000 Ang^3
#
#
#
# Elastic Constant Matrix: (Units=GPa)
#
#
# Indices 1 2 3 4 5 6 
#
# 1 74.9385 8.9603 36.5949 4.9711 -5.8399 -11.4462
# 2 8.9603 90.8612 32.5313 -6.3152 -13.9228 -2.6031
# 3 36.5949 32.5313 87.2691 11.5974 -7.8475 -1.5381
# 4 4.9711 -6.3152 11.5974 17.6714 7.9774 4.6280
# 5 -5.8399 -13.9228 -7.8475 7.9774 49.2188 3.1356
# 6 -11.4462 -2.6031 -1.5381 4.6280 3.1356 32.2787
#
#
#
# Elastic Compliance Matrix: (Units=1/GPa)
#
#
# Indices 1 2 3 4 5 6 
#
# 1 0.018066 0.001142 -0.007531 -0.001911 0.001174 0.006299
# 2 0.001142 0.014140 -0.006715 0.008404 0.001712 -0.000146
# 3 -0.007531 -0.006715 0.019184 -0.013877 0.002550 -0.000556
# 4 -0.001911 0.008404 -0.013877 0.077399 -0.011931 -0.010600
# 5 0.001174 0.001712 0.002550 -0.011931 0.023273 0.000126
# 6 0.006299 -0.000146 -0.000556 -0.010600 0.000126 0.034683
#
#
# Mechanical properties :
#
#
# Convention : Reuss Voigt Hill
#
# Bulk Modulus (GPa) = 39.71190 45.47132 42.59161
# Shear Modulus (GPa) = 22.58905 31.49928 27.04416
#
# Velocity S-wave (km/s) = 3.32952 3.93172 3.64308
# Velocity P-wave (km/s) = 5.85403 6.55183 6.21274
#
# Compressibility (1/GPa) = 0.02518137
#
# Stress axis : x y z
#
# Youngs Moduli (GPa) = 55.35353 70.72271 52.12772
#
# Poissons Ratio (x) = -0.08078 0.39256
# Poissons Ratio (y) = -0.06323 0.35006
# Poissons Ratio (z) = 0.41685 0.47493
#
# Static dielectric constant tensor:
#      x y z
#    x 1.800990 -0.017890 -0.013480 
#    y -0.017890 1.742840 0.022640 
#    z -0.013480 0.022640 1.811910 
# 
# From -- ./inp_files/344453.got.cif
#   From: 2010.05.17/outbox.cif.g08.bks.cpg/sg2_173_cif.got.tgz:344453.got - 2010.06.03 11:33:40.
