data_PCOD9036180
_publ_section_title
;
Structure prediction by ZEFSAII (Michael W. Deem and Ramdas Pophale) SiO2 
 PCOD9036180
Probable space group: P -1
;
_chemical_formula_sum "Si O2"
_cell_formula_units_Z 12
_cell_length_a 5.159732
_cell_length_b 9.301823
_cell_length_c 16.335229
_cell_angle_alpha 42.119879
_cell_angle_beta 101.744403
_cell_angle_gamma 103.632738
_cell_volume 510.511033
_symmetry_space_group_name_H-M "P -1"
_symmetry_group_IT_number 2
_symmetry_cell_setting 'triclinic'
loop_
_space_group_symop_operation_xyz
x,y,z
-x,-y,-z
loop_
_atom_site_type_symbol
_atom_site_label
_atom_site_fract_x
_atom_site_fract_y
_atom_site_fract_z
Si Si1 0.652548 0.277270 0.383396
Si Si2 0.845004 0.955024 0.631254
Si Si3 0.643794 0.461555 0.630650
Si Si4 0.913435 0.777166 0.315464
Si Si5 0.965945 0.481235 0.801954
Si Si6 0.796595 0.055699 0.032503
O O1 0.464704 0.128119 0.372662
O O2 0.488977 0.331366 0.431259
O O3 0.765668 0.488798 0.248870
O O4 0.891030 0.151182 0.485115
O O5 0.960722 0.728797 0.724039
O O6 0.934288 0.066317 0.674254
O O7 0.899154 0.407598 0.617596
O O8 0.743913 0.399987 0.753693
O O9 0.383234 0.323120 0.633237
O O10 0.851800 0.920513 0.172928
O O11 0.896003 0.312656 0.941063
O O12 0.500000 0.000000 0.000000
O O13 0.000000 0.000000 0.000000
#
# Coordination Sequence:
#
# PCOD9036180 Si02
#       6
#     2   2   2   2   2   2
#     4  10  22  48  66 100 132 195 215 269 336 407
#     4  10  26  41  69  97 146 173 225 276 334 400
#     4  11  22  42  70  94 137 170 232 267 330 395
#     4  12  24  44  65 109 130 174 224 286 327 386
#     4  11  22  43  71  96 133 182 224 264 340 408
#     4  12  23  42  73  97 131 175 222 279 334 399
#
# _framework density 23.505859999999998
#
# number of rings (size 3 to 8) (size 9 to 14) (size 15 to 20)
#    0.000    1.000    5.000    0.500    4.667    2.000 
#    0.000    0.833    0.000    0.000    0.000    0.000 
#    0.000    0.000    0.000    0.000    0.000    0.000 
#
# Total GULP energy -66872.014931 kJ/mol
# GULP energy per Si atom -5572.667911 kJ/mol
# Density = 2.345236 g / cm^3
# Si number density = 23.505860 Si / 1000 Ang^3
#
#
#
# Elastic Constant Matrix: (Units=GPa)
#
#
# Indices 1 2 3 4 5 6 
#
# 1 154.0557 48.6996 35.8022 -5.8727 4.4832 2.3143
# 2 48.6996 164.2447 35.7894 -4.3651 9.9561 18.4809
# 3 35.8022 35.7894 103.4589 -8.3344 -5.7564 3.5927
# 4 -5.8727 -4.3651 -8.3344 40.5304 5.9188 9.2139
# 5 4.4832 9.9561 -5.7564 5.9188 29.4493 -5.5242
# 6 2.3143 18.4809 3.5927 9.2139 -5.5242 33.8684
#
#
#
# Elastic Compliance Matrix: (Units=1/GPa)
#
#
# Indices 1 2 3 4 5 6 
#
# 1 0.007566 -0.001765 -0.002031 0.000556 -0.000999 0.000347
# 2 -0.001765 0.007949 -0.002031 0.001983 -0.004195 -0.005225
# 3 -0.002031 -0.002031 0.011339 0.001348 0.002972 0.000162
# 4 0.000556 0.001983 0.001348 0.028824 -0.008245 -0.010449
# 5 -0.000999 -0.004195 0.002972 -0.008245 0.039786 0.010774
# 6 0.000347 -0.005225 0.000162 -0.010449 0.010774 0.036937
#
#
# Mechanical properties :
#
#
# Convention : Reuss Voigt Hill
#
# Bulk Modulus (GPa) = 65.78407 73.59350 69.68879
# Shear Modulus (GPa) = 33.52980 40.86749 37.19865
#
# Velocity S-wave (km/s) = 3.78093 4.17419 3.98241
# Velocity P-wave (km/s) = 6.86349 7.38974 7.13147
#
# Compressibility (1/GPa) = 0.01520125
#
# Stress axis : x y z
#
# Youngs Moduli (GPa) = 132.17151 125.79748 88.18808
#
# Poissons Ratio (x) = 0.22199 0.17908
# Poissons Ratio (y) = 0.23323 0.17915
# Poissons Ratio (z) = 0.26839 0.25555
#
# Static dielectric constant tensor:
#      x y z
#    x 1.979670 -0.032380 0.008400 
#    y -0.032380 1.926180 -0.139900 
#    z 0.008400 -0.139900 2.092660 
# 
# From -- ./inp_files/229360.got.cif
#   From: 2010.05.17/outbox.cif.g08.bks.cpg/sg2_115_cif.got.tgz:229360.got - 2010.06.03 11:33:40.
