data_PCOD9036063
_publ_section_title
;
Structure prediction by ZEFSAII (Michael W. Deem and Ramdas Pophale) SiO2 
 PCOD9036063
Probable space group: P -1
;
_chemical_formula_sum "Si O2"
_cell_formula_units_Z 15
_cell_length_a 7.384704
_cell_length_b 14.281202
_cell_length_c 5.883445
_cell_angle_alpha 88.195665
_cell_angle_beta 110.572196
_cell_angle_gamma 91.346217
_cell_volume 580.575199
_symmetry_space_group_name_H-M "P -1"
_symmetry_group_IT_number 2
_symmetry_cell_setting 'triclinic'
loop_
_space_group_symop_operation_xyz
x,y,z
-x,-y,-z
loop_
_atom_site_type_symbol
_atom_site_label
_atom_site_fract_x
_atom_site_fract_y
_atom_site_fract_z
Si Si1 0.109095 0.698333 0.723442
Si Si2 0.417939 0.229952 0.737421
Si Si3 0.897983 0.862357 0.725487
Si Si4 0.740134 0.587194 0.534261
Si Si5 0.553941 0.917010 0.861726
Si Si6 0.446641 0.576658 0.787568
Si Si7 0.000000 0.000000 0.000000
Si Si8 0.238731 0.841839 0.390912
O O1 0.319963 0.656437 0.839849
O O2 0.125555 0.770294 0.512995
O O3 0.999553 0.765746 0.846033
O O4 0.965348 0.610155 0.642875
O O5 0.260386 0.168513 0.525661
O O6 0.342408 0.335235 0.682380
O O7 0.622010 0.219772 0.702443
O O8 0.434754 0.179281 0.987630
O O9 0.773589 0.924497 0.855306
O O10 0.054457 0.943957 0.771157
O O11 0.631365 0.609334 0.721404
O O12 0.685431 0.482015 0.447699
O O13 0.396806 0.903734 0.597478
O O14 0.500000 0.000000 0.000000
O O15 0.500000 0.500000 0.000000
O O16 0.100931 0.908975 0.189274
#
# Coordination Sequence:
#
# PCOD9036063 Si02
#       8
#     2   2   2   2   2   2   1   2
#     4  11  25  49  70 107 150 186 237 306 363 435
#     4  10  22  47  71  99 141 193 240 297 358 433
#     4  10  26  42  67 103 142 185 251 294 362 428
#     4  10  24  46  73 108 141 181 241 292 366 447
#     4  11  24  45  73  99 140 202 250 301 356 429
#     4  11  25  47  78 106 142 186 233 299 369 446
#     4  12  26  44  62 104 144 190 244 302 342 424
#     4  11  26  44  70 102 146 191 245 295 365 424
#
# _framework density 25.836445000000001
#
# number of rings (size 3 to 8) (size 9 to 14) (size 15 to 20)
#    0.000    1.333    1.333    2.000    9.333    3.200 
#    0.000    0.000    0.000    0.000    0.000    0.000 
#    0.000    0.000    0.000    0.000    0.000    0.000 
#
# Total GULP energy -83812.163991 kJ/mol
# GULP energy per Si atom -5587.477599 kJ/mol
# Density = 2.577764 g / cm^3
# Si number density = 25.836445 Si / 1000 Ang^3
#
#
#
# Elastic Constant Matrix: (Units=GPa)
#
#
# Indices 1 2 3 4 5 6 
#
# 1 162.3607 33.7716 34.5102 -1.0458 6.1667 2.1323
# 2 33.7716 105.0160 22.0715 6.2585 -2.7621 -2.4935
# 3 34.5102 22.0715 90.2974 -13.9015 24.4474 1.1313
# 4 -1.0458 6.2585 -13.9015 52.6169 4.1630 3.6805
# 5 6.1667 -2.7621 24.4474 4.1630 35.0673 -3.1720
# 6 2.1323 -2.4935 1.1313 3.6805 -3.1720 55.2866
#
#
#
# Elastic Compliance Matrix: (Units=1/GPa)
#
#
# Indices 1 2 3 4 5 6 
#
# 1 0.007016 -0.001738 -0.002378 -0.000287 0.000297 -0.000264
# 2 -0.001738 0.011133 -0.003600 -0.002709 0.004110 0.001059
# 3 -0.002378 -0.003600 0.017273 0.006064 -0.012769 -0.001560
# 4 -0.000287 -0.002709 0.006064 0.021635 -0.007147 -0.002086
# 5 0.000297 0.004110 -0.012769 -0.007147 0.038822 0.003138
# 6 -0.000264 0.001059 -0.001560 -0.002086 0.003138 0.018496
#
#
# Mechanical properties :
#
#
# Convention : Reuss Voigt Hill
#
# Bulk Modulus (GPa) = 50.02381 59.82006 54.92194
# Shear Modulus (GPa) = 36.63764 46.41555 41.52660
#
# Velocity S-wave (km/s) = 3.76980 4.24313 4.01345
# Velocity P-wave (km/s) = 6.19292 6.87089 6.54070
#
# Compressibility (1/GPa) = 0.01999048
#
# Stress axis : x y z
#
# Youngs Moduli (GPa) = 142.52273 89.82703 57.89216
#
# Poissons Ratio (x) = 0.15611 0.13768
# Poissons Ratio (y) = 0.24769 0.20841
# Poissons Ratio (z) = 0.33895 0.32337
#
# Static dielectric constant tensor:
#      x y z
#    x 2.139260 0.009810 -0.011670 
#    y 0.009810 2.061210 0.186180 
#    z -0.011670 0.186180 2.129980 
# 
# From -- ./inp_files/38223.got.cif
#   From: 2010.05.17/outbox.cif.g08.bks.cpg/sg2_20_cif.got.tgz:38223.got - 2010.06.03 11:33:40.
