data_PCOD9036075
_publ_section_title
;
Structure prediction by ZEFSAII (Michael W. Deem and Ramdas Pophale) SiO2 
 PCOD9036075
Probable space group: P -1
;
_chemical_formula_sum "Si O2"
_cell_formula_units_Z 14
_cell_length_a 18.926128
_cell_length_b 5.309926
_cell_length_c 6.875037
_cell_angle_alpha 101.650658
_cell_angle_beta 59.533024
_cell_angle_gamma 113.810964
_cell_volume 544.823272
_symmetry_space_group_name_H-M "P -1"
_symmetry_group_IT_number 2
_symmetry_cell_setting 'triclinic'
loop_
_space_group_symop_operation_xyz
x,y,z
-x,-y,-z
loop_
_atom_site_type_symbol
_atom_site_label
_atom_site_fract_x
_atom_site_fract_y
_atom_site_fract_z
Si Si1 0.559975 0.281082 0.067551
Si Si2 0.855405 0.248927 0.133231
Si Si3 0.017792 0.165399 0.799233
Si Si4 0.400883 0.206182 0.537005
Si Si5 0.293369 0.897292 0.979496
Si Si6 0.340626 0.569305 0.398619
Si Si7 0.181072 0.092022 0.475234
O O1 0.595021 0.477902 0.863894
O O2 0.501049 0.313161 0.333931
O O3 0.648164 0.252335 0.024296
O O4 0.500000 0.000000 0.000000
O O5 0.918541 0.527807 0.187157
O O6 0.758830 0.585289 0.551218
O O7 0.820977 0.034965 0.325439
O O8 0.921532 0.163003 0.885984
O O9 0.079966 0.052195 0.566272
O O10 0.000000 0.000000 0.000000
O O11 0.357444 0.404660 0.531487
O O12 0.366213 0.145757 0.796933
O O13 0.365633 0.891260 0.452314
O O14 0.222304 0.732614 0.890501
O O15 0.234839 0.974887 0.234114
#
# Coordination Sequence:
#
# PCOD9036075 Si02
#       7
#     2   2   2   2   2   2   2
#     4  10  24  45  71 103 146 197 248 305 369 425
#     4  10  22  47  72 103 145 186 243 298 369 439
#     4   9  21  44  75 100 142 192 228 301 371 441
#     4  11  24  46  71 104 147 196 254 308 363 431
#     4  12  25  43  74 110 143 196 250 304 362 440
#     4  11  23  46  76 101 149 197 244 312 367 431
#     4  11  23  41  71 106 148 188 239 300 373 433
#
# _framework density 25.696407000000001
#
# number of rings (size 3 to 8) (size 9 to 14) (size 15 to 20)
#    0.000    1.429    1.429    3.429    2.000    2.857 
#    5.143   10.714    0.000    0.000    0.000    0.000 
#    0.000    0.000    0.000    0.000    0.000    0.000 
#
# Total GULP energy -78288.307886 kJ/mol
# GULP energy per Si atom -5592.021992 kJ/mol
# Density = 2.563792 g / cm^3
# Si number density = 25.696407 Si / 1000 Ang^3
#
#
#
# Elastic Constant Matrix: (Units=GPa)
#
#
# Indices 1 2 3 4 5 6 
#
# 1 87.9236 4.7502 35.3677 5.9816 -16.2152 -9.7023
# 2 4.7502 64.2507 23.0314 -19.1935 5.7895 0.3543
# 3 35.3677 23.0314 236.5373 14.4029 -17.1965 10.9840
# 4 5.9816 -19.1935 14.4029 52.4985 1.4568 -10.4845
# 5 -16.2152 5.7895 -17.1965 1.4568 55.2389 6.4515
# 6 -9.7023 0.3543 10.9840 -10.4845 6.4515 28.3686
#
#
#
# Elastic Compliance Matrix: (Units=1/GPa)
#
#
# Indices 1 2 3 4 5 6 
#
# 1 0.013216 -0.000721 -0.001877 -0.000447 0.002864 0.004439
# 2 -0.000721 0.019731 -0.002892 0.009185 -0.003998 0.004931
# 3 -0.001877 -0.002892 0.005332 -0.003224 0.002001 -0.004317
# 4 -0.000447 0.009185 -0.003224 0.025738 -0.004111 0.011428
# 5 0.002864 -0.003998 0.002001 -0.004111 0.020795 -0.005994
# 6 0.004439 0.004931 -0.004317 0.011428 -0.005994 0.043965
#
#
# Mechanical properties :
#
#
# Convention : Reuss Voigt Hill
#
# Bulk Modulus (GPa) = 36.63018 57.22336 46.92677
# Shear Modulus (GPa) = 33.58963 48.92534 41.25749
#
# Velocity S-wave (km/s) = 3.61941 4.36819 4.01131
# Velocity P-wave (km/s) = 5.63496 6.91078 6.30522
#
# Compressibility (1/GPa) = 0.02729989
#
# Stress axis : x y z
#
# Youngs Moduli (GPa) = 75.66726 50.68163 187.54082
#
# Poissons Ratio (x) = 0.03652 0.35193
# Poissons Ratio (y) = 0.05453 0.54243
# Poissons Ratio (z) = 0.14199 0.14659
#
# Static dielectric constant tensor:
#      x y z
#    x 2.045220 0.068890 -0.045980 
#    y 0.068890 2.075760 0.064240 
#    z -0.045980 0.064240 2.167930 
# 
# From -- ./inp_files/350739.got.cif
#   From: 2010.05.17/outbox.cif.g08.bks.cpg/sg2_176_cif.got.tgz:350739.got - 2010.06.03 11:33:40.
