data_PCOD9036158
_publ_section_title
;
Structure prediction by ZEFSAII (Michael W. Deem and Ramdas Pophale) SiO2 
 PCOD9036158
Probable space group: P -1
;
_chemical_formula_sum "Si O2"
_cell_formula_units_Z 14
_cell_length_a 6.657572
_cell_length_b 13.255350
_cell_length_c 16.488520
_cell_angle_alpha 37.658332
_cell_angle_beta 39.614362
_cell_angle_gamma 59.136658
_cell_volume 549.027463
_symmetry_space_group_name_H-M "P -1"
_symmetry_group_IT_number 2
_symmetry_cell_setting 'triclinic'
loop_
_space_group_symop_operation_xyz
x,y,z
-x,-y,-z
loop_
_atom_site_type_symbol
_atom_site_label
_atom_site_fract_x
_atom_site_fract_y
_atom_site_fract_z
Si Si1 0.130868 0.672488 0.807420
Si Si2 0.743945 0.567400 0.458185
Si Si3 0.258508 0.937907 0.040124
Si Si4 0.764778 0.165594 0.059061
Si Si5 0.111857 0.297865 0.469559
Si Si6 0.077583 0.569872 0.719262
Si Si7 0.250685 0.969216 0.676097
O O1 0.510400 0.674877 0.685444
O O2 0.996671 0.664422 0.763888
O O3 0.021045 0.799882 0.820920
O O4 0.000000 0.500000 0.000000
O O5 0.500000 0.500000 0.500000
O O6 0.037514 0.569161 0.519005
O O7 0.456719 0.566105 0.612119
O O8 0.984290 0.755754 0.252715
O O9 0.408116 0.907369 0.925010
O O10 0.086924 0.095185 0.990739
O O11 0.500000 0.000000 0.000000
O O12 0.624650 0.077704 0.244915
O O13 0.864518 0.373267 0.901369
O O14 0.955710 0.312287 0.421152
O O15 0.070244 0.118700 0.641354
O O16 0.500000 0.000000 0.500000
#
# Coordination Sequence:
#
# PCOD9036158 Si02
#       7
#     2   2   2   2   2   2   2
#     4  11  24  45  73 109 152 199 265 327 378 469
#     4  10  22  47  77 114 156 202 259 327 399 477
#     4  11  26  46  76 115 152 205 260 319 397 470
#     4  11  24  48  71 109 160 195 255 329 387 461
#     4  10  24  46  72 108 150 206 254 314 407 465
#     4  11  24  46  78 111 152 207 257 324 395 475
#     4  10  24  48  71 109 154 202 259 325 386 465
#
# _framework density 25.499634
#
# number of rings (size 3 to 8) (size 9 to 14) (size 15 to 20)
#    0.000    1.429    4.286    0.000    6.000    2.857 
#    2.571    0.000    0.000    0.000    0.000    0.000 
#    0.000    0.000    0.000    0.000    0.000    0.000 
#
# Total GULP energy -78065.002648 kJ/mol
# GULP energy per Si atom -5576.071618 kJ/mol
# Density = 2.544160 g / cm^3
# Si number density = 25.499634 Si / 1000 Ang^3
#
#
#
# Elastic Constant Matrix: (Units=GPa)
#
#
# Indices 1 2 3 4 5 6 
#
# 1 129.3677 65.4493 36.8428 1.6936 -0.4494 14.1905
# 2 65.4493 129.6763 34.7216 -12.6297 10.4429 13.7033
# 3 36.8428 34.7216 110.2553 -8.2620 11.5936 6.2473
# 4 1.6936 -12.6297 -8.2620 49.9452 7.4004 15.4500
# 5 -0.4494 10.4429 11.5936 7.4004 36.0001 5.7495
# 6 14.1905 13.7033 6.2473 15.4500 5.7495 50.9538
#
#
#
# Elastic Compliance Matrix: (Units=1/GPa)
#
#
# Indices 1 2 3 4 5 6 
#
# 1 0.011351 -0.005421 -0.002534 -0.002322 0.003175 -0.001047
# 2 -0.005421 0.011680 -0.001034 0.004239 -0.003614 -0.002382
# 3 -0.002534 -0.001034 0.010834 0.002351 -0.003600 -0.000651
# 4 -0.002322 0.004239 0.002351 0.024797 -0.005894 -0.007635
# 5 0.003175 -0.003614 -0.003600 -0.005894 0.031433 -0.001231
# 6 -0.001047 -0.002382 -0.000651 -0.007635 -0.001231 0.023092
#
#
# Mechanical properties :
#
#
# Convention : Reuss Voigt Hill
#
# Bulk Modulus (GPa) = 62.95055 71.48074 67.21565
# Shear Modulus (GPa) = 36.64055 42.86552 39.75304
#
# Velocity S-wave (km/s) = 3.79477 4.10448 3.95266
# Velocity P-wave (km/s) = 6.62878 7.11022 6.87372
#
# Compressibility (1/GPa) = 0.01588548
#
# Stress axis : x y z
#
# Youngs Moduli (GPa) = 88.10075 85.61456 92.30217
#
# Poissons Ratio (x) = 0.46416 0.23390
# Poissons Ratio (y) = 0.47764 0.09545
# Poissons Ratio (z) = 0.22326 0.08854
#
# Static dielectric constant tensor:
#      x y z
#    x 2.288320 0.013750 0.229000 
#    y 0.013750 2.284800 -0.108400 
#    z 0.229000 -0.108400 2.662380 
# 
# From -- ./inp_files/134067.got.cif
#   From: 2010.05.17/outbox.cif.g08.bks.cpg/sg2_68_cif.got.tgz:134067.got - 2010.06.03 11:33:40.
