data_PCOD9036445
_publ_section_title
;
Structure prediction by ZEFSAII (Michael W. Deem and Ramdas Pophale) SiO2 
 PCOD9036445
Probable space group: P -1
;
_chemical_formula_sum "Si O2"
_cell_formula_units_Z 14
_cell_length_a 16.692026
_cell_length_b 5.194097
_cell_length_c 15.303686
_cell_angle_alpha 110.987135
_cell_angle_beta 30.328266
_cell_angle_gamma 109.952786
_cell_volume 624.089018
_symmetry_space_group_name_H-M "P -1"
_symmetry_group_IT_number 2
_symmetry_cell_setting 'triclinic'
loop_
_space_group_symop_operation_xyz
x,y,z
-x,-y,-z
loop_
_atom_site_type_symbol
_atom_site_label
_atom_site_fract_x
_atom_site_fract_y
_atom_site_fract_z
Si Si1 0.198922 0.003775 0.710909
Si Si2 0.382066 0.722261 0.364327
Si Si3 0.911498 0.612606 0.012351
Si Si4 0.962792 0.121548 0.805105
Si Si5 0.680521 0.019231 0.867301
Si Si6 0.211706 0.113900 0.435945
Si Si7 0.714513 0.652173 0.960394
O O1 0.339113 0.852493 0.514423
O O2 0.222289 0.206039 0.796754
O O3 0.119599 0.154939 0.722339
O O4 0.052218 0.796273 0.855082
O O5 0.308397 0.408530 0.391951
O O6 0.296512 0.889115 0.388013
O O7 0.566799 0.725043 0.168088
O O8 0.857262 0.360099 0.969655
O O9 0.000000 0.500000 0.000000
O O10 0.035453 0.141458 0.642964
O O11 0.872337 0.823916 0.865677
O O12 0.715723 0.325028 0.909919
O O13 0.785649 0.969161 0.677425
O O14 0.691490 0.787879 0.902939
O O15 0.500000 0.000000 0.000000
#
# Coordination Sequence:
#
# PCOD9036445 Si02
#       7
#     2   2   2   2   2   2   2
#     4   9  19  35  64  85 118 155 200 233 288 365
#     4  11  20  38  60  91 112 162 201 239 285 361
#     4   9  17  36  61  88 114 154 196 236 289 362
#     4  10  23  37  58  93 122 152 194 253 303 338
#     4  12  23  41  61  86 117 164 208 242 291 354
#     4  11  22  38  63  81 120 158 208 241 284 358
#     4  12  25  38  63  88 125 155 197 255 302 335
#
# _framework density 22.432697999999998
#
# number of rings (size 3 to 8) (size 9 to 14) (size 15 to 20)
#    0.000    1.429    4.286    1.286    2.000    1.143 
#    0.000    0.714    0.000    7.714    0.000    0.000 
#    0.000    0.000    0.000    0.000    0.000    0.000 
#
# Total GULP energy -78219.288132 kJ/mol
# GULP energy per Si atom -5587.092009 kJ/mol
# Density = 2.238164 g / cm^3
# Si number density = 22.432698 Si / 1000 Ang^3
#
#
#
# Elastic Constant Matrix: (Units=GPa)
#
#
# Indices 1 2 3 4 5 6 
#
# 1 53.6104 8.9032 27.7582 2.1893 10.8529 -3.8011
# 2 8.9032 92.9238 31.8878 8.5753 12.5699 17.1077
# 3 27.7582 31.8878 186.3094 21.8286 43.0575 26.0125
# 4 2.1893 8.5753 21.8286 37.1672 7.2045 11.9543
# 5 10.8529 12.5699 43.0575 7.2045 30.2979 -0.5770
# 6 -3.8011 17.1077 26.0125 11.9543 -0.5770 35.7680
#
#
#
# Elastic Compliance Matrix: (Units=1/GPa)
#
#
# Indices 1 2 3 4 5 6 
#
# 1 0.021392 -0.001620 -0.003039 -0.000333 -0.002490 0.005330
# 2 -0.001620 0.012736 0.000106 0.000148 -0.005013 -0.006471
# 3 -0.003039 0.000106 0.009977 -0.000720 -0.013107 -0.007600
# 4 -0.000333 0.000148 -0.000720 0.031950 -0.006714 -0.010369
# 5 -0.002490 -0.005013 -0.013107 -0.006714 0.056483 0.014821
# 6 0.005330 -0.006471 -0.007600 -0.010369 0.014821 0.040852
#
#
# Mechanical properties :
#
#
# Convention : Reuss Voigt Hill
#
# Bulk Modulus (GPa) = 28.57324 52.21577 40.39451
# Shear Modulus (GPa) = 25.75163 38.26624 32.00893
#
# Velocity S-wave (km/s) = 3.39182 4.13464 3.78151
# Velocity P-wave (km/s) = 5.30134 6.79123 6.09201
#
# Compressibility (1/GPa) = 0.03499778
#
# Stress axis : x y z
#
# Youngs Moduli (GPa) = 46.74741 78.51663 100.23312
#
# Poissons Ratio (x) = 0.12721 0.30465
# Poissons Ratio (y) = 0.07574 -0.01066
# Poissons Ratio (z) = 0.14209 -0.00835
#
# Static dielectric constant tensor:
#      x y z
#    x 1.898170 -0.030360 0.018010 
#    y -0.030360 1.841450 0.060110 
#    z 0.018010 0.060110 1.889860 
# 
# From -- ./inp_files/39499.got.cif
#   From: 2010.05.17/outbox.cif.g08.bks.cpg/sg2_20_cif.got.tgz:39499.got - 2010.06.03 11:33:40.
