data_PCOD9036026
_publ_section_title
;
Structure prediction by ZEFSAII (Michael W. Deem and Ramdas Pophale) SiO2 
 PCOD9036026
Probable space group: P -1
;
_chemical_formula_sum "Si O2"
_cell_formula_units_Z 14
_cell_length_a 11.653372
_cell_length_b 12.424896
_cell_length_c 12.296867
_cell_angle_alpha 146.403592
_cell_angle_beta 47.459802
_cell_angle_gamma 141.028505
_cell_volume 617.550040
_symmetry_space_group_name_H-M "P -1"
_symmetry_group_IT_number 2
_symmetry_cell_setting 'triclinic'
loop_
_space_group_symop_operation_xyz
x,y,z
-x,-y,-z
loop_
_atom_site_type_symbol
_atom_site_label
_atom_site_fract_x
_atom_site_fract_y
_atom_site_fract_z
Si Si1 0.880361 0.115760 0.186654
Si Si2 0.265463 0.474573 0.466730
Si Si3 0.190955 0.592978 0.374480
Si Si4 0.160172 0.201694 0.500265
Si Si5 0.452258 0.066636 0.237127
Si Si6 0.600951 0.401978 0.163737
Si Si7 0.447785 0.784085 0.174645
O O1 0.851753 0.212729 0.400873
O O2 0.011142 0.362919 0.250190
O O3 0.668551 0.924433 0.135036
O O4 0.000000 0.000000 0.000000
O O5 0.230180 0.515124 0.399856
O O6 0.121895 0.270913 0.465476
O O7 0.351265 0.709528 0.678113
O O8 0.431659 0.431027 0.316226
O O9 0.363837 0.697727 0.273177
O O10 0.315972 0.137057 0.337559
O O11 0.240634 0.421306 0.711791
O O12 0.000000 0.000000 0.500000
O O13 0.553112 0.144508 0.996266
O O14 0.390823 0.956546 0.306224
O O15 0.639502 0.427637 0.031450
#
# Coordination Sequence:
#
# PCOD9036026 Si02
#       7
#     2   2   2   2   2   2   2
#     4  11  24  41  66 103 138 188 231 277 339 406
#     4  11  22  41  69  95 133 179 225 280 342 410
#     4  11  24  44  67 103 146 178 228 286 340 422
#     4  11  25  43  66 100 133 175 231 289 345 407
#     4   9  21  43  67  95 127 178 226 274 345 403
#     4   9  21  43  67  98 124 180 226 278 343 409
#     4  10  22  47  70 100 140 185 223 283 354 408
#
# _framework density 22.670228000000002
#
# number of rings (size 3 to 8) (size 9 to 14) (size 15 to 20)
#    0.857    0.857    1.429    3.000    0.000    7.429 
#   10.286    0.000    0.000    0.000    0.000    0.000 
#    0.000    0.000    0.000    0.000    0.000    0.000 
#
# Total GULP energy -77975.982603 kJ/mol
# GULP energy per Si atom -5569.713043 kJ/mol
# Density = 2.261863 g / cm^3
# Si number density = 22.670228 Si / 1000 Ang^3
#
#
#
# Elastic Constant Matrix: (Units=GPa)
#
#
# Indices 1 2 3 4 5 6 
#
# 1 107.6158 62.3319 35.2418 -6.1810 5.8769 -19.2315
# 2 62.3319 139.4812 39.7998 -13.3961 11.0019 -23.4318
# 3 35.2418 39.7998 121.6721 13.4727 -4.3428 -8.5708
# 4 -6.1810 -13.3961 13.4727 30.9124 0.1001 2.5234
# 5 5.8769 11.0019 -4.3428 0.1001 24.3664 -0.4095
# 6 -19.2315 -23.4318 -8.5708 2.5234 -0.4095 28.1089
#
#
#
# Elastic Compliance Matrix: (Units=1/GPa)
#
#
# Indices 1 2 3 4 5 6 
#
# 1 0.013624 -0.004303 -0.002428 0.001529 -0.001701 0.004832
# 2 -0.004303 0.011687 -0.002924 0.005054 -0.004690 0.005385
# 3 -0.002428 -0.002924 0.010712 -0.006418 0.003838 -0.000201
# 4 0.001529 0.005054 -0.006418 0.037666 -0.003952 -0.000136
# 5 -0.001701 -0.004690 0.003838 -0.003952 0.044220 -0.002905
# 6 0.004832 0.005385 -0.000201 -0.000136 -0.002905 0.043279
#
#
# Mechanical properties :
#
#
# Convention : Reuss Voigt Hill
#
# Bulk Modulus (GPa) = 59.83670 71.50178 65.66924
# Shear Modulus (GPa) = 26.87171 32.10392 29.48781
#
# Velocity S-wave (km/s) = 3.44660 3.76723 3.61047
# Velocity P-wave (km/s) = 6.50311 7.10852 6.81254
#
# Compressibility (1/GPa) = 0.01671215
#
# Stress axis : x y z
#
# Youngs Moduli (GPa) = 73.40053 85.56812 93.35141
#
# Poissons Ratio (x) = 0.36817 0.22669
# Poissons Ratio (y) = 0.31581 0.27299
# Poissons Ratio (z) = 0.17824 0.25023
#
# Static dielectric constant tensor:
#      x y z
#    x 1.979130 -0.041840 0.034480 
#    y -0.041840 1.891650 0.006390 
#    z 0.034480 0.006390 1.865690 
# 
# From -- ./inp_files/426826.got.cif
#   From: 2010.05.17/outbox.cif.g08.bks.cpg/sg2_214_cif.got.tgz:426826.got - 2010.06.03 11:33:40.
