data_PCOD9036986
_publ_section_title
;
Structure prediction by ZEFSAII (Michael W. Deem and Ramdas Pophale) SiO2 
 PCOD9036986
Probable space group: P -1
;
_chemical_formula_sum "Si O2"
_cell_formula_units_Z 16
_cell_length_a 15.495994
_cell_length_b 5.705508
_cell_length_c 7.059648
_cell_angle_alpha 100.865373
_cell_angle_beta 98.738342
_cell_angle_gamma 87.515858
_cell_volume 605.787166
_symmetry_space_group_name_H-M "P -1"
_symmetry_group_IT_number 2
_symmetry_cell_setting 'triclinic'
loop_
_space_group_symop_operation_xyz
x,y,z
-x,-y,-z
loop_
_atom_site_type_symbol
_atom_site_label
_atom_site_fract_x
_atom_site_fract_y
_atom_site_fract_z
Si Si1 0.939233 0.185853 0.243104
Si Si2 0.706530 0.065976 0.530487
Si Si3 0.666703 0.539498 0.418499
Si Si4 0.159750 0.406196 0.744970
Si Si5 0.426238 0.046503 0.139940
Si Si6 0.244682 0.038254 0.909149
Si Si7 0.103652 0.966722 0.394212
Si Si8 0.517619 0.431725 0.713345
O O1 0.927620 0.450849 0.204909
O O2 0.026878 0.031690 0.233377
O O3 0.848043 0.086445 0.120149
O O4 0.925506 0.207068 0.472197
O O5 0.662682 0.326333 0.538395
O O6 0.666620 0.812146 0.541455
O O7 0.721152 0.004194 0.301556
O O8 0.801325 0.098439 0.661425
O O9 0.759621 0.494067 0.337675
O O10 0.584535 0.530885 0.247160
O O11 0.210590 0.311234 0.932306
O O12 0.123071 0.203086 0.562095
O O13 0.427554 0.337064 0.177702
O O14 0.456700 0.842876 0.273455
O O15 0.327003 0.975303 0.051497
O O16 0.500000 0.000000 0.000000
O O17 0.500000 0.500000 0.500000
#
# Coordination Sequence:
#
# PCOD9036986 Si02
#       8
#     2   2   2   2   2   2   2   2
#     4   9  14  24  40  61 112 145 184 220 295 350
#     4   9  17  29  48  76 111 143 184 235 283 351
#     4  10  17  33  51  70 100 144 184 229 287 338
#     4   9  15  25  43  69 107 146 186 234 283 350
#     4  12  25  41  67  93 120 159 212 256 306 375
#     4   9  19  28  44  74 104 144 187 235 291 342
#     4   8  15  22  35  68 102 158 176 217 287 363
#     4  12  27  44  63  89 126 161 204 260 314 365
#
# _framework density 26.411916000000002
#
# number of rings (size 3 to 8) (size 9 to 14) (size 15 to 20)
#    0.000    2.750    2.500    4.125    1.750    0.000 
#    0.000    0.000    0.000    0.000    0.000    0.000 
#    0.000   14.000    0.000    0.000    0.000    0.000 
#
# Total GULP energy -89077.099946 kJ/mol
# GULP energy per Si atom -5567.318747 kJ/mol
# Density = 2.635180 g / cm^3
# Si number density = 26.411916 Si / 1000 Ang^3
#
#
#
# Elastic Constant Matrix: (Units=GPa)
#
#
# Indices 1 2 3 4 5 6 
#
# 1 105.7096 45.8557 39.9867 -14.4279 49.2597 -13.5121
# 2 45.8557 164.5066 29.8163 -28.6662 18.8919 -24.5015
# 3 39.9867 29.8163 74.7296 -21.8764 32.2541 -11.3244
# 4 -14.4279 -28.6662 -21.8764 28.0350 -8.1273 12.4051
# 5 49.2597 18.8919 32.2541 -8.1273 55.2414 -16.7056
# 6 -13.5121 -24.5015 -11.3244 12.4051 -16.7056 47.9563
#
#
#
# Elastic Compliance Matrix: (Units=1/GPa)
#
#
# Indices 1 2 3 4 5 6 
#
# 1 0.018282 -0.003157 -0.002292 0.001253 -0.014410 -0.002347
# 2 -0.003157 0.008198 -0.000188 0.006102 0.001705 0.002271
# 3 -0.002292 -0.000188 0.022864 0.014761 -0.009854 -0.002594
# 4 0.001253 0.006102 0.014761 0.056588 -0.006506 -0.009948
# 5 -0.014410 0.001705 -0.009854 -0.006506 0.038011 0.009408
# 6 -0.002347 0.002271 -0.002594 -0.009948 0.009408 0.026589
#
#
# Mechanical properties :
#
#
# Convention : Reuss Voigt Hill
#
# Bulk Modulus (GPa) = 26.26646 64.02926 45.14786
# Shear Modulus (GPa) = 25.70729 41.53233 33.61981
#
# Velocity S-wave (km/s) = 3.12319 3.96976 3.57165
# Velocity P-wave (km/s) = 4.79294 6.73106 5.84292
#
# Compressibility (1/GPa) = 0.03807137
#
# Stress axis : x y z
#
# Youngs Moduli (GPa) = 54.69715 121.97552 43.73609
#
# Poissons Ratio (x) = 0.38508 0.10026
# Poissons Ratio (y) = 0.17268 0.00820
# Poissons Ratio (z) = 0.12539 0.02287
#
# Static dielectric constant tensor:
#      x y z
#    x 2.185430 0.000460 -0.028340 
#    y 0.000460 2.429050 0.057230 
#    z -0.028340 0.057230 2.197560 
# 
# From -- ./inp_files/322667.got.cif
#   From: 2010.05.17/outbox.cif.g08.bks.cpg/sg2_162_cif.got.tgz:322667.got - 2010.06.03 11:33:40.
