data_PCOD9036785
_publ_section_title
;
Structure prediction by ZEFSAII (Michael W. Deem and Ramdas Pophale) SiO2 
 PCOD9036785
Probable space group: P -1
;
_chemical_formula_sum "Si O2"
_cell_formula_units_Z 16
_cell_length_a 16.215168
_cell_length_b 24.533550
_cell_length_c 9.645267
_cell_angle_alpha 31.849984
_cell_angle_beta 37.870129
_cell_angle_gamma 17.074414
_cell_volume 588.154438
_symmetry_space_group_name_H-M "P -1"
_symmetry_group_IT_number 2
_symmetry_cell_setting 'triclinic'
loop_
_space_group_symop_operation_xyz
x,y,z
-x,-y,-z
loop_
_atom_site_type_symbol
_atom_site_label
_atom_site_fract_x
_atom_site_fract_y
_atom_site_fract_z
Si Si1 0.233884 0.036479 0.553894
Si Si2 0.391821 0.211149 0.637677
Si Si3 0.048025 0.733886 0.290528
Si Si4 0.890142 0.812191 0.014584
Si Si5 0.620694 0.688488 0.112074
Si Si6 0.908593 0.637508 0.032176
Si Si7 0.234428 0.803237 0.246889
Si Si8 0.561448 0.522176 0.152552
O O1 0.191353 0.105672 0.616768
O O2 0.039495 0.065015 0.743203
O O3 0.509714 0.810848 0.592961
O O4 0.124577 0.214941 0.231801
O O5 0.300073 0.159847 0.816485
O O6 0.144037 0.389139 0.697214
O O7 0.682345 0.031242 0.732319
O O8 0.228172 0.508095 0.579773
O O9 0.270136 0.679601 0.129107
O O10 0.944968 0.797640 0.133113
O O11 0.206376 0.581565 0.028542
O O12 0.658438 0.763599 0.992569
O O13 0.316916 0.850814 0.116366
O O14 0.811533 0.577037 0.962670
O O15 0.474468 0.628722 0.186251
O O16 0.284750 0.686419 0.553920
#
# Coordination Sequence:
#
# PCOD9036785 Si02
#       8
#     2   2   2   2   2   2   2   2
#     4  10  17  33  51  75 100 128 170 205 241 293
#     4  11  20  31  51  71  99 137 170 198 241 308
#     4   9  20  30  48  78 102 124 164 215 256 279
#     4  11  18  30  48  77 101 130 163 211 250 291
#     4   9  19  31  51  74 106 126 164 210 249 296
#     4  10  17  33  50  73 100 133 168 201 246 298
#     4   9  15  28  51  76  93 127 168 208 240 286
#     4   9  15  27  50  72 100 124 165 212 246 284
#
# _framework density 27.203738999999999
#
# number of rings (size 3 to 8) (size 9 to 14) (size 15 to 20)
#    0.000    2.250    3.750    3.375    0.000    0.500 
#    0.000    1.250    0.000    0.000    0.000    1.750 
#    0.000    0.000    0.000    0.000    0.000    0.000 
#
# Total GULP energy -89276.504736 kJ/mol
# GULP energy per Si atom -5579.781546 kJ/mol
# Density = 2.714182 g / cm^3
# Si number density = 27.203739 Si / 1000 Ang^3
#
#
#
# Elastic Constant Matrix: (Units=GPa)
#
#
# Indices 1 2 3 4 5 6 
#
# 1 181.2244 40.1777 42.0459 25.1403 25.9896 -22.8110
# 2 40.1777 149.4206 37.3304 47.4674 14.0772 -3.1726
# 3 42.0459 37.3304 91.2892 28.6471 3.2226 -0.4940
# 4 25.1403 47.4674 28.6471 60.7637 2.4044 1.5061
# 5 25.9896 14.0772 3.2226 2.4044 51.3525 4.0936
# 6 -22.8110 -3.1726 -0.4940 1.5061 4.0936 38.5450
#
#
#
# Elastic Compliance Matrix: (Units=1/GPa)
#
#
# Indices 1 2 3 4 5 6 
#
# 1 0.007626 -0.000422 -0.002698 -0.001521 -0.003895 0.004917
# 2 -0.000422 0.009450 -0.001583 -0.006405 -0.002056 0.000977
# 3 -0.002698 -0.001583 0.014151 -0.004330 0.001234 -0.001508
# 4 -0.001521 -0.006405 -0.004330 0.024122 0.001877 -0.002625
# 5 -0.003895 -0.002056 0.001234 0.001877 0.022233 -0.004893
# 6 0.004917 0.000977 -0.001508 -0.002625 -0.004893 0.029537
#
#
# Mechanical properties :
#
#
# Convention : Reuss Voigt Hill
#
# Bulk Modulus (GPa) = 45.82457 73.44914 59.63685
# Shear Modulus (GPa) = 40.38783 50.29092 45.33937
#
# Velocity S-wave (km/s) = 3.85729 4.30429 4.08690
# Velocity P-wave (km/s) = 6.05968 7.19450 6.65134
#
# Compressibility (1/GPa) = 0.02182236
#
# Stress axis : x y z
#
# Youngs Moduli (GPa) = 131.12681 105.81645 70.66443
#
# Poissons Ratio (x) = 0.04463 0.19069
# Poissons Ratio (y) = 0.05530 0.11183
# Poissons Ratio (z) = 0.35384 0.16746
#
# Static dielectric constant tensor:
#      x y z
#    x 2.074270 -0.013150 0.008440 
#    y -0.013150 2.253120 -0.120760 
#    z 0.008440 -0.120760 2.217270 
# 
# From -- ./inp_files/320039.got.cif
#   From: 2010.05.17/outbox.cif.g08.bks.cpg/sg2_161_cif.got.tgz:320039.got - 2010.06.03 11:33:40.
