data_PCOD9036582
_publ_section_title
;
Structure prediction by ZEFSAII (Michael W. Deem and Ramdas Pophale) SiO2 
 PCOD9036582
Probable space group: P -1
;
_chemical_formula_sum "Si O2"
_cell_formula_units_Z 14
_cell_length_a 8.743292
_cell_length_b 16.399192
_cell_length_c 13.545730
_cell_angle_alpha 36.985489
_cell_angle_beta 132.377556
_cell_angle_gamma 149.765067
_cell_volume 587.545410
_symmetry_space_group_name_H-M "P -1"
_symmetry_group_IT_number 2
_symmetry_cell_setting 'triclinic'
loop_
_space_group_symop_operation_xyz
x,y,z
-x,-y,-z
loop_
_atom_site_type_symbol
_atom_site_label
_atom_site_fract_x
_atom_site_fract_y
_atom_site_fract_z
Si Si1 0.551571 0.043288 0.798999
Si Si2 0.826497 0.386208 0.315465
Si Si3 0.105057 0.157242 0.975986
Si Si4 0.023561 0.773434 0.955033
Si Si5 0.288200 0.584348 0.482545
Si Si6 0.721252 0.781274 0.636188
Si Si7 0.284083 0.699576 0.872604
O O1 0.514016 0.183509 0.667384
O O2 0.911783 0.190446 0.817424
O O3 0.354721 0.884874 0.955126
O O4 0.412954 0.899036 0.784875
O O5 0.523908 0.239859 0.393110
O O6 0.783423 0.306071 0.265765
O O7 0.120084 0.464394 0.424144
O O8 0.877359 0.571763 0.137478
O O9 0.454664 0.289299 0.014405
O O10 0.988307 0.110235 0.083941
O O11 0.000000 0.000000 0.000000
O O12 0.849943 0.740230 0.813739
O O13 0.519943 0.612049 0.625743
O O14 0.000000 0.500000 0.500000
O O15 0.000000 0.000000 0.500000
O O16 0.000000 0.500000 0.000000
#
# Coordination Sequence:
#
# PCOD9036582 Si02
#       7
#     2   2   2   2   2   2   2
#     4  11  22  40  66  97 135 175 223 272 341 393
#     4  11  23  41  68 100 130 177 227 281 331 401
#     4  10  23  38  62 102 136 165 221 286 336 390
#     4  12  21  38  74  99 128 172 235 270 337 395
#     4  10  23  41  62  94 132 177 222 274 330 403
#     4  11  23  40  64  99 133 172 225 280 332 401
#     4  11  23  40  62 104 142 169 217 294 340 390
#
# _framework density 23.827946000000001
#
# number of rings (size 3 to 8) (size 9 to 14) (size 15 to 20)
#    0.000    1.143    5.714    0.857    0.000    0.000 
#    0.000    2.857    0.000    0.857    0.000    0.000 
#    0.000    0.000    0.000    0.000    0.000    0.000 
#
# Total GULP energy -78038.579347 kJ/mol
# GULP energy per Si atom -5574.184239 kJ/mol
# Density = 2.377371 g / cm^3
# Si number density = 23.827946 Si / 1000 Ang^3
#
#
#
# Elastic Constant Matrix: (Units=GPa)
#
#
# Indices 1 2 3 4 5 6 
#
# 1 89.5394 48.0050 27.1666 12.8947 -24.0809 -5.7227
# 2 48.0050 167.8399 57.5427 43.7978 -29.5031 0.2435
# 3 27.1666 57.5427 93.0474 22.0928 -18.2501 -7.7279
# 4 12.8947 43.7978 22.0928 66.2139 1.1744 -11.5314
# 5 -24.0809 -29.5031 -18.2501 1.1744 39.5560 8.8834
# 6 -5.7227 0.2435 -7.7279 -11.5314 8.8834 44.9106
#
#
#
# Elastic Compliance Matrix: (Units=1/GPa)
#
#
# Indices 1 2 3 4 5 6 
#
# 1 0.014758 -0.002349 -0.001314 -0.000982 0.006632 0.000103
# 2 -0.002349 0.010402 -0.003509 -0.005984 0.005701 -0.003624
# 3 -0.001314 -0.003509 0.014502 -0.002108 0.003067 0.001199
# 4 -0.000982 -0.005984 -0.002108 0.021252 -0.008150 0.006613
# 5 0.006632 0.005701 0.003067 -0.008150 0.037042 -0.008077
# 6 0.000103 -0.003624 0.001199 0.006613 -0.008077 0.025801
#
#
# Mechanical properties :
#
#
# Convention : Reuss Voigt Hill
#
# Bulk Modulus (GPa) = 39.49542 68.42835 53.96188
# Shear Modulus (GPa) = 34.12059 44.65027 39.38543
#
# Velocity S-wave (km/s) = 3.78823 4.33351 4.07001
# Velocity P-wave (km/s) = 5.97875 7.33615 6.69196
#
# Compressibility (1/GPa) = 0.02531939
#
# Stress axis : x y z
#
# Youngs Moduli (GPa) = 67.76101 96.13682 68.95411
#
# Poissons Ratio (x) = 0.22580 0.09059
# Poissons Ratio (y) = 0.15915 0.24195
# Poissons Ratio (z) = 0.08902 0.33733
#
# Static dielectric constant tensor:
#      x y z
#    x 1.923090 -0.013510 0.060860 
#    y -0.013510 1.992300 0.044250 
#    z 0.060860 0.044250 2.064780 
# 
# From -- ./inp_files/403032.got.cif
#   From: 2010.05.17/outbox.cif.g08.bks.cpg/sg2_202_cif.got.tgz:403032.got - 2010.06.03 11:33:40.
