data_PCOD9036622
_publ_section_title
;
Structure prediction by ZEFSAII (Michael W. Deem and Ramdas Pophale) SiO2 
 PCOD9036622
Probable space group: P -1
;
_chemical_formula_sum "Si O2"
_cell_formula_units_Z 16
_cell_length_a 16.806388
_cell_length_b 12.003606
_cell_length_c 8.644894
_cell_angle_alpha 131.930319
_cell_angle_beta 125.175782
_cell_angle_gamma 30.548077
_cell_volume 659.448088
_symmetry_space_group_name_H-M "P -1"
_symmetry_group_IT_number 2
_symmetry_cell_setting 'triclinic'
loop_
_space_group_symop_operation_xyz
x,y,z
-x,-y,-z
loop_
_atom_site_type_symbol
_atom_site_label
_atom_site_fract_x
_atom_site_fract_y
_atom_site_fract_z
Si Si1 0.852635 0.590696 0.835343
Si Si2 0.389862 0.415047 0.911919
Si Si3 0.308224 0.249331 0.886293
Si Si4 0.821907 0.331116 0.369369
Si Si5 0.956588 0.654685 0.742250
Si Si6 0.862826 0.029257 0.781776
Si Si7 0.628664 0.305425 0.239275
Si Si8 0.367253 0.848336 0.578831
O O1 0.714454 0.734118 0.938382
O O2 0.869722 0.403027 0.609545
O O3 0.840742 0.707815 0.777650
O O4 0.000000 0.500000 0.000000
O O5 0.390783 0.282688 0.917190
O O6 0.550175 0.315249 0.015551
O O7 0.257426 0.691909 0.075019
O O8 0.327039 0.444052 0.698968
O O9 0.613994 0.001777 0.301863
O O10 0.126683 0.479206 0.843274
O O11 0.777852 0.226868 0.300220
O O12 0.967658 0.129135 0.233115
O O13 0.882558 0.897256 0.826666
O O14 0.000000 0.500000 0.500000
O O15 0.790591 0.013189 0.551468
O O16 0.504681 0.578039 0.417695
O O17 0.651156 0.161431 0.269180
#
# Coordination Sequence:
#
# PCOD9036622 Si02
#       8
#     2   2   2   2   2   2   2   2
#     4  10  23  38  64 105 138 171 222 287 340 405
#     4  11  25  45  70 102 140 187 229 279 342 417
#     4  11  22  40  70  99 135 177 232 280 345 402
#     4  12  23  44  71 102 139 181 230 288 343 407
#     4  11  18  39  65 100 141 171 216 289 348 402
#     4  11  22  40  74 101 135 180 229 283 354 402
#     4  10  26  46  68  97 146 182 235 275 340 414
#     4  10  23  46  70  99 135 190 223 291 342 407
#
# _framework density 24.262713000000002
#
# number of rings (size 3 to 8) (size 9 to 14) (size 15 to 20)
#    0.000    1.250    3.750    1.500    5.250    2.000 
#    4.500    0.625    0.000    0.000    0.000    0.000 
#    0.000    0.000    0.000    0.000    0.000    0.000 
#
# Total GULP energy -89501.062309 kJ/mol
# GULP energy per Si atom -5593.816394 kJ/mol
# Density = 2.420749 g / cm^3
# Si number density = 24.262713 Si / 1000 Ang^3
#
#
#
# Elastic Constant Matrix: (Units=GPa)
#
#
# Indices 1 2 3 4 5 6 
#
# 1 111.0626 30.9778 27.8808 3.3344 19.8970 25.9053
# 2 30.9778 88.7537 28.5543 1.8723 17.2204 27.9976
# 3 27.8808 28.5543 113.0158 -5.0821 19.7837 2.5209
# 4 3.3344 1.8723 -5.0821 31.9928 2.9504 9.3630
# 5 19.8970 17.2204 19.7837 2.9504 40.8079 1.9419
# 6 25.9053 27.9976 2.5209 9.3630 1.9419 43.2870
#
#
#
# Elastic Compliance Matrix: (Units=1/GPa)
#
#
# Indices 1 2 3 4 5 6 
#
# 1 0.011951 -0.000665 -0.001823 0.000842 -0.004409 -0.006600
# 2 -0.000665 0.016622 -0.002835 0.002158 -0.004975 -0.010431
# 3 -0.001823 -0.002835 0.010622 0.001738 -0.003289 0.002078
# 4 0.000842 0.002158 0.001738 0.034416 -0.004212 -0.009256
# 5 -0.004409 -0.004975 -0.003289 -0.004212 0.030387 0.005596
# 6 -0.006600 -0.010431 0.002078 -0.009256 0.005596 0.035429
#
#
# Mechanical properties :
#
#
# Convention : Reuss Voigt Hill
#
# Bulk Modulus (GPa) = 35.02812 54.18422 44.60617
# Shear Modulus (GPa) = 31.33037 38.24549 34.78793
#
# Velocity S-wave (km/s) = 3.59736 3.97458 3.79067
# Velocity P-wave (km/s) = 5.63232 6.59119 6.13053
#
# Compressibility (1/GPa) = 0.02854849
#
# Stress axis : x y z
#
# Youngs Moduli (GPa) = 83.67252 60.16261 94.14465
#
# Poissons Ratio (x) = 0.04000 0.17167
# Poissons Ratio (y) = 0.05563 0.26689
# Poissons Ratio (z) = 0.15257 0.17056
#
# Static dielectric constant tensor:
#      x y z
#    x 1.912050 -0.006720 -0.003880 
#    y -0.006720 1.924540 -0.038370 
#    z -0.003880 -0.038370 2.002770 
# 
# From -- ./inp_files/333812.got.cif
#   From: 2010.05.17/outbox.cif.g08.bks.cpg/sg2_167_cif.got.tgz:333812.got - 2010.06.03 11:33:40.
