data_PCOD9036588
_publ_section_title
;
Structure prediction by ZEFSAII (Michael W. Deem and Ramdas Pophale) SiO2 
 PCOD9036588
Probable space group: P -1
;
_chemical_formula_sum "Si O2"
_cell_formula_units_Z 16
_cell_length_a 12.463283
_cell_length_b 8.325253
_cell_length_c 9.151512
_cell_angle_alpha 88.395811
_cell_angle_beta 123.143931
_cell_angle_gamma 93.935945
_cell_volume 793.140067
_symmetry_space_group_name_H-M "P -1"
_symmetry_group_IT_number 2
_symmetry_cell_setting 'triclinic'
loop_
_space_group_symop_operation_xyz
x,y,z
-x,-y,-z
loop_
_atom_site_type_symbol
_atom_site_label
_atom_site_fract_x
_atom_site_fract_y
_atom_site_fract_z
Si Si1 0.006747 0.188573 0.529237
Si Si2 0.760530 0.777381 0.798365
Si Si3 0.072731 0.395369 0.286694
Si Si4 0.385065 0.501962 0.803033
Si Si5 0.361977 0.918021 0.345934
Si Si6 0.834385 0.604979 0.136426
Si Si7 0.535252 0.655349 0.421034
Si Si8 0.759002 0.292530 0.490740
O O1 0.061063 0.291059 0.428903
O O2 0.087970 0.244198 0.731545
O O3 0.865433 0.241072 0.459348
O O4 0.000000 0.000000 0.500000
O O5 0.887873 0.722620 0.811120
O O6 0.650946 0.739406 0.597694
O O7 0.728478 0.960766 0.806766
O O8 0.753906 0.667897 0.939982
O O9 0.179752 0.544997 0.387346
O O10 0.938831 0.481074 0.166598
O O11 0.257514 0.468387 0.803857
O O12 0.410910 0.377479 0.697507
O O13 0.366362 0.663222 0.692887
O O14 0.500000 0.500000 0.000000
O O15 0.411438 0.759906 0.308444
O O16 0.279274 0.848006 0.422247
O O17 0.500000 0.000000 0.500000
O O18 0.500000 0.500000 0.500000
#
# Coordination Sequence:
#
# PCOD9036588 Si02
#       8
#     2   2   2   2   2   2   2   2
#     4  11  22  41  67  94 132 171 204 267 331 381
#     4  11  22  39  63  92 131 164 206 272 314 371
#     4  11  20  42  69  93 126 171 217 259 318 392
#     4  12  23  38  67  97 123 162 223 266 304 375
#     4  10  23  38  62  92 129 172 213 256 320 381
#     4  11  23  41  63 102 127 165 219 262 316 388
#     4  11  20  40  63  87 122 176 214 251 316 380
#     4  11  20  41  66  92 124 172 220 256 315 387
#
# _framework density 20.172982000000001
#
# number of rings (size 3 to 8) (size 9 to 14) (size 15 to 20)
#    0.000    1.000    5.000    2.625    1.750    1.000 
#    2.250    7.500    0.000    0.000    0.000    0.000 
#    0.000    0.000    0.000    0.000    0.000    0.000 
#
# Total GULP energy -89243.341723 kJ/mol
# GULP energy per Si atom -5577.708858 kJ/mol
# Density = 2.012707 g / cm^3
# Si number density = 20.172982 Si / 1000 Ang^3
#
#
#
# Elastic Constant Matrix: (Units=GPa)
#
#
# Indices 1 2 3 4 5 6 
#
# 1 90.6994 26.2369 5.5081 -11.3481 -7.9041 -15.1563
# 2 26.2369 78.6517 13.5346 -24.8688 6.8422 -18.6108
# 3 5.5081 13.5346 79.4879 -20.0894 -0.3959 -12.9398
# 4 -11.3481 -24.8688 -20.0894 26.1093 2.1181 2.4168
# 5 -7.9041 6.8422 -0.3959 2.1181 31.9725 -4.3959
# 6 -15.1563 -18.6108 -12.9398 2.4168 -4.3959 43.2627
#
#
#
# Elastic Compliance Matrix: (Units=1/GPa)
#
#
# Indices 1 2 3 4 5 6 
#
# 1 0.013251 -0.003173 0.000973 0.002780 0.004312 0.003851
# 2 -0.003173 0.022693 0.003284 0.022534 -0.006026 0.007762
# 3 0.000973 0.003284 0.016981 0.016114 -0.000511 0.005881
# 4 0.002780 0.022534 0.016114 0.072976 -0.007303 0.010668
# 5 0.004312 -0.006026 -0.000511 -0.007303 0.034478 0.002677
# 6 0.003851 0.007762 0.005881 0.010668 0.002677 0.029238
#
#
# Mechanical properties :
#
#
# Convention : Reuss Voigt Hill
#
# Bulk Modulus (GPa) = 18.15040 37.71092 27.93066
# Shear Modulus (GPa) = 24.29390 33.83954 29.06672
#
# Velocity S-wave (km/s) = 3.47404 4.10013 3.80000
# Velocity P-wave (km/s) = 5.01087 6.41476 5.75578
#
# Compressibility (1/GPa) = 0.05509521
#
# Stress axis : x y z
#
# Youngs Moduli (GPa) = 75.46416 44.06613 58.88820
#
# Poissons Ratio (x) = 0.13981 -0.05730
# Poissons Ratio (y) = 0.23943 -0.19341
# Poissons Ratio (z) = -0.07343 -0.14473
#
# Static dielectric constant tensor:
#      x y z
#    x 1.735900 -0.045560 0.033450 
#    y -0.045560 1.753810 0.034790 
#    z 0.033450 0.034790 1.685910 
# 
# From -- ./inp_files/205678.got.cif
#   From: 2010.05.17/outbox.cif.g08.bks.cpg/sg2_103_cif.got.tgz:205678.got - 2010.06.03 11:33:40.
