data_PCOD9036277
_publ_section_title
;
Structure prediction by ZEFSAII (Michael W. Deem and Ramdas Pophale) SiO2 
 PCOD9036277
Probable space group: P -1
;
_chemical_formula_sum "Si O2"
_cell_formula_units_Z 16
_cell_length_a 20.988111
_cell_length_b 8.319995
_cell_length_c 18.188855
_cell_angle_alpha 52.198003
_cell_angle_beta 160.709550
_cell_angle_gamma 116.755939
_cell_volume 721.944100
_symmetry_space_group_name_H-M "P -1"
_symmetry_group_IT_number 2
_symmetry_cell_setting 'triclinic'
loop_
_space_group_symop_operation_xyz
x,y,z
-x,-y,-z
loop_
_atom_site_type_symbol
_atom_site_label
_atom_site_fract_x
_atom_site_fract_y
_atom_site_fract_z
Si Si1 0.702484 0.040609 0.234536
Si Si2 0.953094 0.789243 0.024634
Si Si3 0.825332 0.374954 0.192863
Si Si4 0.882161 0.975259 0.608425
Si Si5 0.729316 0.663780 0.596444
Si Si6 0.358098 0.612284 0.164397
Si Si7 0.550323 0.784589 0.521460
Si Si8 0.907668 0.778382 0.147852
O O1 0.710824 0.269872 0.150570
O O2 0.727787 0.040924 0.350116
O O3 0.930027 0.830086 0.507137
O O4 0.500000 0.000000 0.000000
O O5 0.993522 0.708298 0.176751
O O6 0.102381 0.567554 0.198507
O O7 0.701211 0.867290 0.706071
O O8 0.000000 0.000000 0.000000
O O9 0.858604 0.592770 0.187695
O O10 0.676744 0.452224 0.936226
O O11 0.798213 0.860789 0.609426
O O12 0.927699 0.168306 0.640535
O O13 0.119967 0.771876 0.895879
O O14 0.495846 0.747021 0.278361
O O15 0.694477 0.631352 0.652500
O O16 0.488251 0.381660 0.419379
O O17 0.324944 0.986618 0.185927
#
# Coordination Sequence:
#
# PCOD9036277 Si02
#       8
#     2   2   2   2   2   2   2   2
#     4  10  22  48  76  99 125 179 223 286 358 417
#     4  12  25  38  62  97 143 188 241 280 319 387
#     4  10  23  43  72  98 136 167 232 285 344 407
#     4  11  24  44  68 100 140 174 231 282 341 412
#     4  12  24  41  66  95 137 191 234 270 333 403
#     4  11  22  42  67  99 133 192 226 271 326 417
#     4  12  24  42  64  96 148 193 228 264 339 406
#     4  12  25  44  63 106 145 179 225 288 336 403
#
# _framework density 22.162379999999999
#
# number of rings (size 3 to 8) (size 9 to 14) (size 15 to 20)
#    0.000    0.750    3.750    4.125    3.500    0.500 
#    2.250    0.625    0.000    0.000    0.000    0.000 
#    0.000    0.000    0.000    0.000    0.000    0.000 
#
# Total GULP energy -89509.013216 kJ/mol
# GULP energy per Si atom -5594.313326 kJ/mol
# Density = 2.211194 g / cm^3
# Si number density = 22.162380 Si / 1000 Ang^3
#
#
#
# Elastic Constant Matrix: (Units=GPa)
#
#
# Indices 1 2 3 4 5 6 
#
# 1 57.3063 17.4993 32.9819 -7.9467 -0.6435 1.0248
# 2 17.4993 145.1744 43.0696 23.3430 -16.1111 17.3379
# 3 32.9819 43.0696 75.3027 25.0356 -14.0688 5.8516
# 4 -7.9467 23.3430 25.0356 46.3390 -0.2134 -4.2500
# 5 -0.6435 -16.1111 -14.0688 -0.2134 22.7057 3.7510
# 6 1.0248 17.3379 5.8516 -4.2500 3.7510 37.9762
#
#
#
# Elastic Compliance Matrix: (Units=1/GPa)
#
#
# Indices 1 2 3 4 5 6 
#
# 1 0.035652 -0.003492 -0.025067 0.022137 -0.018241 0.008774
# 2 -0.003492 0.009884 -0.000275 -0.005926 0.007646 -0.005794
# 3 -0.025067 -0.000275 0.038306 -0.025696 0.024302 -0.010376
# 4 0.022137 -0.005926 -0.025696 0.043340 -0.021242 0.013016
# 5 -0.018241 0.007646 0.024302 -0.021242 0.066398 -0.015678
# 6 0.008774 -0.005794 -0.010376 0.013016 -0.015678 0.033345
#
#
# Mechanical properties :
#
#
# Convention : Reuss Voigt Hill
#
# Bulk Modulus (GPa) = 38.20771 51.65389 44.93080
# Shear Modulus (GPa) = 17.04637 33.68637 25.36637
#
# Velocity S-wave (km/s) = 2.77638 3.90292 3.38682
# Velocity P-wave (km/s) = 5.24929 6.60818 5.96754
#
# Compressibility (1/GPa) = 0.02617273
#
# Stress axis : x y z
#
# Youngs Moduli (GPa) = 28.04922 101.17311 26.10569
#
# Poissons Ratio (x) = 0.35333 0.65440
# Poissons Ratio (y) = 0.09796 0.00718
# Poissons Ratio (z) = 0.70312 0.02781
#
# Static dielectric constant tensor:
#      x y z
#    x 1.817410 -0.011850 0.025670 
#    y -0.011850 1.830740 0.000970 
#    z 0.025670 0.000970 1.829400 
# 
# From -- ./inp_files/577263.got.cif
#   From: 2010.05.17/outbox.cif.g08.bks.cpg/sg2_289_cif.got.tgz:577263.got - 2010.06.03 11:33:40.
