data_PCOD9036609
_publ_section_title
;
Structure prediction by ZEFSAII (Michael W. Deem and Ramdas Pophale) SiO2 
 PCOD9036609
Probable space group: P -1
;
_chemical_formula_sum "Si O2"
_cell_formula_units_Z 16
_cell_length_a 7.920306
_cell_length_b 12.404645
_cell_length_c 8.375751
_cell_angle_alpha 71.546942
_cell_angle_beta 64.247686
_cell_angle_gamma 56.944123
_cell_volume 617.750270
_symmetry_space_group_name_H-M "P -1"
_symmetry_group_IT_number 2
_symmetry_cell_setting 'triclinic'
loop_
_space_group_symop_operation_xyz
x,y,z
-x,-y,-z
loop_
_atom_site_type_symbol
_atom_site_label
_atom_site_fract_x
_atom_site_fract_y
_atom_site_fract_z
Si Si1 0.456789 0.881253 0.542274
Si Si2 0.444482 0.566717 0.744218
Si Si3 0.859670 0.702381 0.267066
Si Si4 0.207537 0.462744 0.117706
Si Si5 0.777322 0.302400 0.686514
Si Si6 0.120233 0.842805 0.598733
Si Si7 0.471177 0.796550 0.937348
Si Si8 0.137661 0.055793 0.025750
O O1 0.634172 0.767475 0.415597
O O2 0.238214 0.929586 0.515196
O O3 0.435435 0.833534 0.748895
O O4 0.500000 0.000000 0.500000
O O5 0.628080 0.565735 0.787061
O O6 0.581431 0.436588 0.648024
O O7 0.298134 0.700914 0.657194
O O8 0.284044 0.538476 0.930896
O O9 0.959947 0.561749 0.207299
O O10 0.035451 0.671114 0.345068
O O11 0.865849 0.819407 0.112740
O O12 0.285413 0.317174 0.090796
O O13 0.890187 0.191893 0.562378
O O14 0.673126 0.261084 0.895436
O O15 0.949533 0.899859 0.781985
O O16 0.375423 0.935577 0.992681
O O17 0.000000 0.000000 0.000000
#
# Coordination Sequence:
#
# PCOD9036609 Si02
#       8
#     2   2   2   2   2   2   2   2
#     4  12  24  40  61  86 124 165 204 246 298 365
#     4   9  16  34  62  92 120 152 199 251 303 348
#     4  11  21  39  63  92 120 155 207 251 296 356
#     4   9  17  34  64  93 113 152 208 257 283 349
#     4  10  23  38  63  94 123 152 204 257 299 358
#     4  12  22  39  64  92 124 161 197 248 312 358
#     4  11  21  40  61  88 124 161 203 250 300 353
#     4  12  19  37  63  86 116 161 209 244 290 359
#
# _framework density 25.900434000000001
#
# number of rings (size 3 to 8) (size 9 to 14) (size 15 to 20)
#    0.000    1.250    6.250    1.125    0.000    1.000 
#    0.000    1.875    0.000    1.500    0.000    0.000 
#    0.000    0.000    0.000    0.000    0.000    0.000 
#
# Total GULP energy -89397.812380 kJ/mol
# GULP energy per Si atom -5587.363274 kJ/mol
# Density = 2.584148 g / cm^3
# Si number density = 25.900434 Si / 1000 Ang^3
#
#
#
# Elastic Constant Matrix: (Units=GPa)
#
#
# Indices 1 2 3 4 5 6 
#
# 1 10.0467 13.0717 18.4524 11.0088 1.9746 2.7963
# 2 13.0717 208.4509 49.2591 47.7605 -10.0738 -32.2081
# 3 18.4524 49.2591 127.6042 37.6015 -4.7630 -9.9395
# 4 11.0088 47.7605 37.6015 53.7565 -16.3248 -8.5777
# 5 1.9746 -10.0738 -4.7630 -16.3248 16.6355 10.0876
# 6 2.7963 -32.2081 -9.9395 -8.5777 10.0876 32.2453
#
#
#
# Elastic Compliance Matrix: (Units=1/GPa)
#
#
# Indices 1 2 3 4 5 6 
#
# 1 0.217373 -0.003339 -0.018340 -0.054562 -0.075202 -0.018828
# 2 -0.003339 0.007444 -0.000084 -0.006531 -0.006348 0.007948
# 3 -0.018340 -0.000084 0.012100 -0.004340 -0.001411 0.004523
# 4 -0.054562 -0.006531 -0.004340 0.055811 0.060401 -0.007179
# 5 -0.075202 -0.006348 -0.001411 0.060401 0.141276 -0.028383
# 6 -0.018828 0.007948 0.004523 -0.007179 -0.028383 0.048948
#
#
# Mechanical properties :
#
#
# Convention : Reuss Voigt Hill
#
# Bulk Modulus (GPa) = 5.17090 56.40759 30.78925
# Shear Modulus (GPa) = 8.46106 38.21534 23.33820
#
# Velocity S-wave (km/s) = 1.80938 3.84535 3.00505
# Velocity P-wave (km/s) = 2.52308 6.44527 4.89426
#
# Compressibility (1/GPa) = 0.19338980
#
# Stress axis : x y z
#
# Youngs Moduli (GPa) = 4.60038 134.33311 82.64621
#
# Poissons Ratio (x) = 0.44858 1.51575
# Poissons Ratio (y) = 0.01536 0.00696
# Poissons Ratio (z) = 0.08437 0.01132
#
# Static dielectric constant tensor:
#      x y z
#    x 2.089650 0.023740 0.059230 
#    y 0.023740 2.165250 0.058490 
#    z 0.059230 0.058490 2.059520 
# 
# From -- ./inp_files/185711.got.cif
#   From: 2010.05.17/outbox.cif.g08.bks.cpg/sg2_93_cif.got.tgz:185711.got - 2010.06.03 11:33:40.
