data_PCOD9036447
_publ_section_title
;
Structure prediction by ZEFSAII (Michael W. Deem and Ramdas Pophale) SiO2 
 PCOD9036447
Probable space group: P -1
;
_chemical_formula_sum "Si O2"
_cell_formula_units_Z 12
_cell_length_a 7.688728
_cell_length_b 8.803829
_cell_length_c 12.955287
_cell_angle_alpha 71.153236
_cell_angle_beta 78.990840
_cell_angle_gamma 126.181482
_cell_volume 580.267925
_symmetry_space_group_name_H-M "P -1"
_symmetry_group_IT_number 2
_symmetry_cell_setting 'triclinic'
loop_
_space_group_symop_operation_xyz
x,y,z
-x,-y,-z
loop_
_atom_site_type_symbol
_atom_site_label
_atom_site_fract_x
_atom_site_fract_y
_atom_site_fract_z
Si Si1 0.417616 0.621178 0.523112
Si Si2 0.506517 0.451278 0.856078
Si Si3 0.117627 0.710879 0.362858
Si Si4 0.407026 0.125554 0.768530
Si Si5 0.245430 0.104687 0.389860
Si Si6 0.106922 0.393117 0.048067
O O1 0.500000 0.500000 0.500000
O O2 0.497071 0.773996 0.380165
O O3 0.552588 0.783579 0.568773
O O4 0.136980 0.414599 0.638638
O O5 0.407836 0.275779 0.813306
O O6 0.672617 0.699497 0.735942
O O7 0.695753 0.476746 0.906624
O O8 0.275061 0.395174 0.948778
O O9 0.347184 0.818629 0.238975
O O10 0.000000 0.500000 0.500000
O O11 0.197202 0.912059 0.377293
O O12 0.145484 0.869687 0.846778
O O13 0.000000 0.000000 0.500000
O O14 0.000000 0.500000 0.000000
#
# Coordination Sequence:
#
# PCOD9036447 Si02
#       6
#     2   2   2   2   2   2
#     4  11  21  39  65 100 132 169 213 263 334 398
#     4  11  25  44  69  97 130 173 226 275 330 393
#     4  10  23  37  58  97 135 171 217 264 323 395
#     4  11  23  43  65  95 134 169 220 273 328 398
#     4  12  21  38  68  96 134 175 212 270 335 394
#     4  11  26  47  67  95 129 175 229 276 330 387
#
# _framework density 20.680102000000002
#
# number of rings (size 3 to 8) (size 9 to 14) (size 15 to 20)
#    0.000    1.000    3.333    3.500    0.000    6.000 
#    0.000    0.000    0.000    0.000    0.000    0.000 
#    0.000    0.000    0.000    0.000    0.000    0.000 
#
# Total GULP energy -66850.850261 kJ/mol
# GULP energy per Si atom -5570.904188 kJ/mol
# Density = 2.063303 g / cm^3
# Si number density = 20.680102 Si / 1000 Ang^3
#
#
#
# Elastic Constant Matrix: (Units=GPa)
#
#
# Indices 1 2 3 4 5 6 
#
# 1 107.1470 45.8197 50.1373 -5.5048 -27.3410 7.5619
# 2 45.8197 143.7083 28.8124 -9.3469 0.6408 8.6414
# 3 50.1373 28.8124 87.1959 -14.6133 -19.9393 4.9868
# 4 -5.5048 -9.3469 -14.6133 34.4967 7.4841 -0.4656
# 5 -27.3410 0.6408 -19.9393 7.4841 44.7807 -5.8169
# 6 7.5619 8.6414 4.9868 -0.4656 -5.8169 36.6647
#
#
#
# Elastic Compliance Matrix: (Units=1/GPa)
#
#
# Indices 1 2 3 4 5 6 
#
# 1 0.015821 -0.003918 -0.006622 -0.002911 0.007210 -0.000332
# 2 -0.003918 0.008649 -0.000970 0.002045 -0.003501 -0.001628
# 3 -0.006622 -0.000970 0.017117 0.005350 0.002666 -0.000243
# 4 -0.002911 0.002045 0.005350 0.032409 -0.004969 -0.000986
# 5 0.007210 -0.003501 0.002666 -0.004969 0.029263 0.003555
# 6 -0.000332 -0.001628 -0.000243 -0.000986 0.003555 0.028311
#
#
# Mechanical properties :
#
#
# Convention : Reuss Voigt Hill
#
# Bulk Modulus (GPa) = 53.86142 65.28778 59.57460
# Shear Modulus (GPa) = 31.09865 37.40720 34.25293
#
# Velocity S-wave (km/s) = 3.88209 4.25767 4.07421
# Velocity P-wave (km/s) = 6.79674 7.47056 7.14160
#
# Compressibility (1/GPa) = 0.01856616
#
# Stress axis : x y z
#
# Youngs Moduli (GPa) = 63.20657 115.62405 58.42171
#
# Poissons Ratio (x) = 0.45304 0.38690
# Poissons Ratio (y) = 0.24765 0.05665
# Poissons Ratio (z) = 0.41858 0.11211
#
# Static dielectric constant tensor:
#      x y z
#    x 2.139830 0.064120 0.090850 
#    y 0.064120 1.648310 0.040200 
#    z 0.090850 0.040200 1.733540 
# 
# From -- ./inp_files/341547.got.cif
#   From: 2010.05.17/outbox.cif.g08.bks.cpg/sg2_171_cif.got.tgz:341547.got - 2010.06.03 11:33:40.
