data_PCOD9036967
_publ_section_title
;
Structure prediction by ZEFSAII (Michael W. Deem and Ramdas Pophale) SiO2 
 PCOD9036967
Probable space group: P -1
;
_chemical_formula_sum "Si O2"
_cell_formula_units_Z 12
_cell_length_a 9.924637
_cell_length_b 12.096527
_cell_length_c 9.330133
_cell_angle_alpha 48.852823
_cell_angle_beta 107.031787
_cell_angle_gamma 70.348387
_cell_volume 547.052053
_symmetry_space_group_name_H-M "P -1"
_symmetry_group_IT_number 2
_symmetry_cell_setting 'triclinic'
loop_
_space_group_symop_operation_xyz
x,y,z
-x,-y,-z
loop_
_atom_site_type_symbol
_atom_site_label
_atom_site_fract_x
_atom_site_fract_y
_atom_site_fract_z
Si Si1 0.435220 0.094484 0.239296
Si Si2 0.736001 0.319800 0.290028
Si Si3 0.569907 0.816075 0.280787
Si Si4 0.516936 0.310430 0.896473
Si Si5 0.067058 0.817824 0.823522
Si Si6 0.013902 0.537322 0.138234
O O1 0.500000 0.000000 0.500000
O O2 0.443449 0.939186 0.281790
O O3 0.551620 0.140501 0.156732
O O4 0.203263 0.329883 0.972131
O O5 0.682046 0.448521 0.307921
O O6 0.883860 0.269103 0.252392
O O7 0.500000 0.500000 0.000000
O O8 0.856040 0.073561 0.557546
O O9 0.533787 0.702535 0.269276
O O10 0.801267 0.666229 0.536475
O O11 0.500000 0.000000 0.000000
O O12 0.730298 0.239977 0.025862
O O13 0.051830 0.682600 0.023519
O O14 0.000000 0.500000 0.000000
#
# Coordination Sequence:
#
# PCOD9036967 Si02
#       6
#     2   2   2   2   2   2
#     4  11  24  40  70 100 136 174 231 280 332 399
#     4   9  20  36  63  94 134 177 221 267 337 397
#     4  10  25  45  68  99 141 177 224 283 348 403
#     4  10  23  43  66  96 138 181 221 276 346 400
#     4  10  23  39  67 100 135 176 230 276 336 408
#     4  12  25  42  71 103 133 175 232 284 338 402
#
# _framework density 21.935756000000001
#
# number of rings (size 3 to 8) (size 9 to 14) (size 15 to 20)
#    0.000    1.667    1.667    1.000    7.000    8.667 
#    0.000    1.667    0.000    0.000    0.000    0.000 
#    0.000    0.000    0.000    0.000    0.000    0.000 
#
# Total GULP energy -66914.912486 kJ/mol
# GULP energy per Si atom -5576.242707 kJ/mol
# Density = 2.188583 g / cm^3
# Si number density = 21.935756 Si / 1000 Ang^3
#
#
#
# Elastic Constant Matrix: (Units=GPa)
#
#
# Indices 1 2 3 4 5 6 
#
# 1 96.2848 18.1801 31.1548 -1.4383 2.7160 9.3618
# 2 18.1801 195.0666 49.7923 -4.3341 19.3827 10.8066
# 3 31.1548 49.7923 151.8323 -9.4333 13.8152 1.9590
# 4 -1.4383 -4.3341 -9.4333 45.9785 -3.0501 4.8565
# 5 2.7160 19.3827 13.8152 -3.0501 28.5819 2.5679
# 6 9.3618 10.8066 1.9590 4.8565 2.5679 18.4949
#
#
#
# Elastic Compliance Matrix: (Units=1/GPa)
#
#
# Indices 1 2 3 4 5 6 
#
# 1 0.011722 -0.000251 -0.002282 0.000535 0.000736 -0.005788
# 2 -0.000251 0.006022 -0.001592 0.000340 -0.002994 -0.002897
# 3 -0.002282 -0.001592 0.007855 0.001085 -0.002502 0.001316
# 4 0.000535 0.000340 0.001085 0.022901 0.002259 -0.006912
# 5 0.000736 -0.002994 -0.002502 0.002259 0.038787 -0.004337
# 6 -0.005788 -0.002897 0.001316 -0.006912 -0.004337 0.060969
#
#
# Mechanical properties :
#
#
# Convention : Reuss Voigt Hill
#
# Bulk Modulus (GPa) = 57.64366 71.27091 64.45728
# Shear Modulus (GPa) = 30.80946 41.54817 36.17882
#
# Velocity S-wave (km/s) = 3.75177 4.35683 4.06557
# Velocity P-wave (km/s) = 6.71589 7.60727 7.17544
#
# Compressibility (1/GPa) = 0.01734796
#
# Stress axis : x y z
#
# Youngs Moduli (GPa) = 85.31298 166.06343 127.30996
#
# Poissons Ratio (x) = 0.04161 0.29053
# Poissons Ratio (y) = 0.02137 0.20274
# Poissons Ratio (z) = 0.19469 0.26445
#
# Static dielectric constant tensor:
#      x y z
#    x 1.815830 0.042190 -0.023990 
#    y 0.042190 1.911020 -0.028870 
#    z -0.023990 -0.028870 1.804250 
# 
# From -- ./inp_files/256986.got.cif
#   From: 2010.05.17/outbox.cif.g08.bks.cpg/sg2_129_cif.got.tgz:256986.got - 2010.06.03 11:33:40.
