data_PCOD9036188
_publ_section_title
;
Structure prediction by ZEFSAII (Michael W. Deem and Ramdas Pophale) SiO2 
 PCOD9036188
Probable space group: P -1
;
_chemical_formula_sum "Si O2"
_cell_formula_units_Z 16
_cell_length_a 17.388813
_cell_length_b 8.586538
_cell_length_c 7.388975
_cell_angle_alpha 129.061234
_cell_angle_beta 126.539423
_cell_angle_gamma 68.859524
_cell_volume 688.079045
_symmetry_space_group_name_H-M "P -1"
_symmetry_group_IT_number 2
_symmetry_cell_setting 'triclinic'
loop_
_space_group_symop_operation_xyz
x,y,z
-x,-y,-z
loop_
_atom_site_type_symbol
_atom_site_label
_atom_site_fract_x
_atom_site_fract_y
_atom_site_fract_z
Si Si1 0.054895 0.378264 0.635343
Si Si2 0.118647 0.608507 0.353335
Si Si3 0.160357 0.001016 0.486650
Si Si4 0.337721 0.970636 0.459496
Si Si5 0.397631 0.635442 0.577941
Si Si6 0.298515 0.720502 0.887454
Si Si7 0.226761 0.343482 0.062253
Si Si8 0.570765 0.601789 0.028197
O O1 0.070900 0.145456 0.437480
O O2 0.163102 0.444778 0.887891
O O3 0.000000 0.500000 0.500000
O O4 0.988748 0.399706 0.734006
O O5 0.186519 0.688673 0.670156
O O6 0.168380 0.406408 0.205402
O O7 0.130356 0.780134 0.343568
O O8 0.233247 0.001011 0.422931
O O9 0.216873 0.114221 0.816588
O O10 0.399774 0.172664 0.717118
O O11 0.384233 0.797535 0.520672
O O12 0.327330 0.906765 0.190239
O O13 0.349334 0.719326 0.759662
O O14 0.331023 0.440142 0.298825
O O15 0.507021 0.598061 0.756035
O O16 0.336522 0.531468 0.917301
O O17 0.500000 0.500000 0.000000
#
# Coordination Sequence:
#
# PCOD9036188 Si02
#       8
#     2   2   2   2   2   2   2   2
#     4  10  24  41  67 100 135 170 229 280 330 401
#     4  11  21  45  68  96 134 181 226 270 336 396
#     4  10  24  42  68  96 132 181 220 269 339 400
#     4  12  24  44  69  99 138 175 229 274 337 400
#     4  10  22  48  68  96 136 180 224 282 330 406
#     4  10  25  42  70  99 140 175 222 282 328 399
#     4   9  22  42  68  92 134 173 220 273 334 392
#     4  10  25  45  67 104 135 175 231 272 341 397
#
# _framework density 23.253143000000001
#
# number of rings (size 3 to 8) (size 9 to 14) (size 15 to 20)
#    0.750    1.000    2.500    1.125    5.250    5.500 
#    2.250    1.250    0.000    0.000    0.000    0.000 
#    0.000    0.000    0.000    0.000    0.000    0.000 
#
# Total GULP energy -89381.446732 kJ/mol
# GULP energy per Si atom -5586.340421 kJ/mol
# Density = 2.320022 g / cm^3
# Si number density = 23.253143 Si / 1000 Ang^3
#
#
#
# Elastic Constant Matrix: (Units=GPa)
#
#
# Indices 1 2 3 4 5 6 
#
# 1 91.2573 12.9092 5.9338 -1.8860 6.2825 7.5461
# 2 12.9092 47.3684 4.3303 -4.7767 -9.1798 -7.8049
# 3 5.9338 4.3303 87.5912 -3.6985 -3.6580 13.1955
# 4 -1.8860 -4.7767 -3.6985 41.8445 -3.1007 5.8581
# 5 6.2825 -9.1798 -3.6580 -3.1007 25.3113 -5.7165
# 6 7.5461 -7.8049 13.1955 5.8581 -5.7165 32.7193
#
#
#
# Elastic Compliance Matrix: (Units=1/GPa)
#
#
# Indices 1 2 3 4 5 6 
#
# 1 0.012625 -0.005526 -0.000029 0.000218 -0.006326 -0.005362
# 2 -0.005526 0.027416 -0.001907 0.002247 0.013703 0.010575
# 3 -0.000029 -0.001907 0.012454 0.001691 0.000020 -0.005770
# 4 0.000218 0.002247 0.001691 0.025127 0.003147 -0.004145
# 5 -0.006326 0.013703 0.000020 0.003147 0.049321 0.012773
# 6 -0.005362 0.010575 -0.005770 -0.004145 0.012773 0.039623
#
#
# Mechanical properties :
#
#
# Convention : Reuss Voigt Hill
#
# Bulk Modulus (GPa) = 26.61594 30.28483 28.45038
# Shear Modulus (GPa) = 25.77130 33.51127 29.64128
#
# Velocity S-wave (km/s) = 3.33272 3.80037 3.57420
# Velocity P-wave (km/s) = 5.12644 5.68413 5.41247
#
# Compressibility (1/GPa) = 0.03757148
#
# Stress axis : x y z
#
# Youngs Moduli (GPa) = 79.20800 36.47532 80.29270
#
# Poissons Ratio (x) = 0.20155 0.00235
# Poissons Ratio (y) = 0.43767 0.15312
# Poissons Ratio (z) = 0.00232 0.06956
#
# Static dielectric constant tensor:
#      x y z
#    x 1.898500 -0.037090 -0.060330 
#    y -0.037090 1.893850 -0.004590 
#    z -0.060330 -0.004590 1.925930 
# 
# From -- ./inp_files/328120.got.cif
#   From: 2010.05.17/outbox.cif.g08.bks.cpg/sg2_165_cif.got.tgz:328120.got - 2010.06.03 11:33:40.
