data_PCOD9036493
_publ_section_title
;
Structure prediction by ZEFSAII (Michael W. Deem and Ramdas Pophale) SiO2 
 PCOD9036493
Probable space group: P -1
;
_chemical_formula_sum "Si O2"
_cell_formula_units_Z 16
_cell_length_a 14.181029
_cell_length_b 9.013409
_cell_length_c 13.861339
_cell_angle_alpha 120.642340
_cell_angle_beta 146.710775
_cell_angle_gamma 81.455741
_cell_volume 676.998461
_symmetry_space_group_name_H-M "P -1"
_symmetry_group_IT_number 2
_symmetry_cell_setting 'triclinic'
loop_
_space_group_symop_operation_xyz
x,y,z
-x,-y,-z
loop_
_atom_site_type_symbol
_atom_site_label
_atom_site_fract_x
_atom_site_fract_y
_atom_site_fract_z
Si Si1 0.969018 0.542122 0.236230
Si Si2 0.403976 0.628895 0.985479
Si Si3 0.253227 0.920636 0.479118
Si Si4 0.411509 0.134749 0.490521
Si Si5 0.010298 0.175755 0.138320
Si Si6 0.401758 0.175226 0.270435
Si Si7 0.370772 0.748803 0.794122
Si Si8 0.502710 0.523070 0.714299
O O1 0.957970 0.340859 0.112279
O O2 0.177477 0.655576 0.523397
O O3 0.778590 0.469952 0.122984
O O4 0.036026 0.729285 0.278503
O O5 0.304770 0.648551 0.809877
O O6 0.500000 0.500000 0.000000
O O7 0.608356 0.860668 0.270562
O O8 0.243686 0.990159 0.384730
O O9 0.405445 0.841493 0.586446
O O10 0.392985 0.190278 0.382602
O O11 0.579438 0.375446 0.752680
O O12 0.500000 0.000000 0.500000
O O13 0.248721 0.329568 0.431962
O O14 0.000000 0.000000 0.000000
O O15 0.830224 0.040832 0.020233
O O16 0.430339 0.359064 0.291268
O O17 0.524783 0.689392 0.863678
O O18 0.500000 0.000000 0.000000
#
# Coordination Sequence:
#
# PCOD9036493 Si02
#       8
#     2   2   2   2   2   2   2   2
#     4  11  24  44  72  96 139 181 226 286 336 409
#     4  12  25  44  72  99 137 178 228 287 348 399
#     4  11  22  45  64  94 139 174 224 274 342 400
#     4  10  23  37  64  95 134 178 211 270 336 409
#     4  11  22  36  67  99 125 171 225 273 329 402
#     4  11  20  41  68  91 133 175 221 275 334 394
#     4  11  22  44  70  99 128 176 233 282 338 397
#     4  11  22  41  65  97 131 168 226 279 331 403
#
# _framework density 23.633734
#
# number of rings (size 3 to 8) (size 9 to 14) (size 15 to 20)
#    0.000    1.000    6.250    1.500    0.000    0.500 
#    0.000    4.375    0.000    0.000    0.000    0.000 
#    0.000    0.000    0.000    0.000    0.000    0.000 
#
# Total GULP energy -89204.046858 kJ/mol
# GULP energy per Si atom -5575.252929 kJ/mol
# Density = 2.357994 g / cm^3
# Si number density = 23.633734 Si / 1000 Ang^3
#
#
#
# Elastic Constant Matrix: (Units=GPa)
#
#
# Indices 1 2 3 4 5 6 
#
# 1 140.9374 75.5762 41.0250 28.4655 -3.4725 15.2293
# 2 75.5762 138.8034 34.6051 50.1870 -5.4628 28.1429
# 3 41.0250 34.6051 90.9901 34.5300 3.8879 6.9624
# 4 28.4655 50.1870 34.5300 44.6572 6.1992 -8.3869
# 5 -3.4725 -5.4628 3.8879 6.1992 42.0901 13.8161
# 6 15.2293 28.1429 6.9624 -8.3869 13.8161 64.1917
#
#
#
# Elastic Compliance Matrix: (Units=1/GPa)
#
#
# Indices 1 2 3 4 5 6 
#
# 1 0.010856 -0.006732 -0.003973 0.004096 -0.000705 0.001494
# 2 -0.006732 0.026813 0.007892 -0.037424 0.013911 -0.018898
# 3 -0.003973 0.007892 0.019162 -0.023541 0.005285 -0.008809
# 4 0.004096 -0.037424 -0.023541 0.090556 -0.027407 0.035719
# 5 -0.000705 0.013911 0.005285 -0.027407 0.034825 -0.017581
# 6 0.001494 -0.018898 -0.008809 0.035719 -0.017581 0.032916
#
#
# Mechanical properties :
#
#
# Convention : Reuss Voigt Hill
#
# Bulk Modulus (GPa) = 19.52960 74.79372 47.16166
# Shear Modulus (GPa) = 21.02421 44.82276 32.92348
#
# Velocity S-wave (km/s) = 2.98583 4.35967 3.73644
# Velocity P-wave (km/s) = 4.49091 7.55368 6.21395
#
# Compressibility (1/GPa) = 0.05120433
#
# Stress axis : x y z
#
# Youngs Moduli (GPa) = 92.11828 37.29557 52.18668
#
# Poissons Ratio (x) = 0.25107 0.20733
# Poissons Ratio (y) = 0.62012 -0.41184
# Poissons Ratio (z) = 0.36597 -0.29432
#
# Static dielectric constant tensor:
#      x y z
#    x 1.965850 -0.130890 -0.033600 
#    y -0.130890 1.837590 0.267110 
#    z -0.033600 0.267110 1.637630 
# 
# From -- ./inp_files/528987.got.cif
#   From: 2010.05.17/outbox.cif.g08.bks.cpg/sg2_265_cif.got.tgz:528987.got - 2010.06.03 11:33:40.
