data_PCOD9036385
_publ_section_title
;
Structure prediction by ZEFSAII (Michael W. Deem and Ramdas Pophale) SiO2 
 PCOD9036385
Probable space group: P -1
;
_chemical_formula_sum "Si O2"
_cell_formula_units_Z 12
_cell_length_a 11.446624
_cell_length_b 14.998499
_cell_length_c 6.311117
_cell_angle_alpha 120.722312
_cell_angle_beta 103.006806
_cell_angle_gamma 44.071209
_cell_volume 629.333734
_symmetry_space_group_name_H-M "P -1"
_symmetry_group_IT_number 2
_symmetry_cell_setting 'triclinic'
loop_
_space_group_symop_operation_xyz
x,y,z
-x,-y,-z
loop_
_atom_site_type_symbol
_atom_site_label
_atom_site_fract_x
_atom_site_fract_y
_atom_site_fract_z
Si Si1 0.779131 0.754550 0.881492
Si Si2 0.026140 0.264855 0.440027
Si Si3 0.810317 0.543463 0.946658
Si Si4 0.347575 0.016437 0.534456
Si Si5 0.639549 0.501692 0.533447
Si Si6 0.598904 0.714642 0.461186
O O1 0.828217 0.629752 0.904459
O O2 0.630520 0.791322 0.725979
O O3 0.918953 0.704459 0.706504
O O4 0.723903 0.885180 0.162029
O O5 0.972085 0.370937 0.745766
O O6 0.837479 0.334547 0.391195
O O7 0.196432 0.101708 0.399791
O O8 0.654664 0.567630 0.824509
O O9 0.761580 0.606473 0.237115
O O10 0.500000 0.000000 0.500000
O O11 0.434521 0.852576 0.425560
O O12 0.500000 0.500000 0.500000
O O13 0.594382 0.609561 0.456835
#
# Coordination Sequence:
#
# PCOD9036385 Si02
#       6
#     2   2   2   2   2   2
#     4  11  20  35  58  87 127 153 188 222 295 355
#     4  10  23  35  60  87 120 152 195 236 291 340
#     4   9  21  36  60  88 115 148 202 236 288 342
#     4  12  23  35  56  92 131 152 180 230 299 360
#     4   9  23  43  61  81 110 156 208 247 282 330
#     4  11  22  38  60  88 119 158 189 237 291 350
#
# _framework density 19.067786000000002
#
# number of rings (size 3 to 8) (size 9 to 14) (size 15 to 20)
#    1.000    0.667    3.333    1.000    2.333    2.000 
#    0.000    0.833    0.000    2.000    0.000    0.000 
#    0.000    0.000    0.000    0.000    0.000    0.000 
#
# Total GULP energy -66810.012405 kJ/mol
# GULP energy per Si atom -5567.501034 kJ/mol
# Density = 1.902439 g / cm^3
# Si number density = 19.067786 Si / 1000 Ang^3
#
#
#
# Elastic Constant Matrix: (Units=GPa)
#
#
# Indices 1 2 3 4 5 6 
#
# 1 140.0172 59.5794 27.1007 -14.6038 -3.4142 -17.5838
# 2 59.5794 126.7037 10.2822 -12.1427 -9.4949 -10.1927
# 3 27.1007 10.2822 64.9505 1.0932 -11.0467 4.7972
# 4 -14.6038 -12.1427 1.0932 22.1464 -2.2771 -2.3748
# 5 -3.4142 -9.4949 -11.0467 -2.2771 16.8374 -3.4820
# 6 -17.5838 -10.1927 4.7972 -2.3748 -3.4820 18.5632
#
#
#
# Elastic Compliance Matrix: (Units=1/GPa)
#
#
# Indices 1 2 3 4 5 6 
#
# 1 0.011941 -0.003474 -0.005364 0.007545 0.000411 0.011832
# 2 -0.003474 0.010868 0.000570 0.004888 0.007398 0.004543
# 3 -0.005364 0.000570 0.019946 -0.004101 0.009992 -0.008573
# 4 0.007545 0.004888 -0.004101 0.056620 0.013528 0.020672
# 5 0.000411 0.007398 0.009992 0.013528 0.075714 0.017802
# 6 0.011832 0.004543 -0.008573 0.020672 0.017802 0.075771
#
#
# Mechanical properties :
#
#
# Convention : Reuss Voigt Hill
#
# Bulk Modulus (GPa) = 38.14031 58.39955 48.26993
# Shear Modulus (GPa) = 18.10702 27.15667 22.63184
#
# Velocity S-wave (km/s) = 3.08492 3.77797 3.44890
# Velocity P-wave (km/s) = 5.72144 7.05157 6.42104
#
# Compressibility (1/GPa) = 0.02621898
#
# Stress axis : x y z
#
# Youngs Moduli (GPa) = 83.74282 92.01252 50.13579
#
# Poissons Ratio (x) = 0.31966 0.26891
# Poissons Ratio (y) = 0.29093 -0.02856
# Poissons Ratio (z) = 0.44916 -0.05241
#
# Static dielectric constant tensor:
#      x y z
#    x 1.641510 -0.057140 0.005620 
#    y -0.057140 1.765050 -0.025920 
#    z 0.005620 -0.025920 1.676830 
# 
# From -- ./inp_files/62843.got.cif
#   From: 2010.05.17/outbox.cif.g08.bks.cpg/sg2_32_cif.got.tgz:62843.got - 2010.06.03 11:33:40.
