data_PCOD9036515
_publ_section_title
;
Structure prediction by ZEFSAII (Michael W. Deem and Ramdas Pophale) SiO2 
 PCOD9036515
Probable space group: P -1
;
_chemical_formula_sum "Si O2"
_cell_formula_units_Z 12
_cell_length_a 9.502376
_cell_length_b 9.258190
_cell_length_c 13.147338
_cell_angle_alpha 132.602908
_cell_angle_beta 63.140969
_cell_angle_gamma 83.064950
_cell_volume 577.431767
_symmetry_space_group_name_H-M "P -1"
_symmetry_group_IT_number 2
_symmetry_cell_setting 'triclinic'
loop_
_space_group_symop_operation_xyz
x,y,z
-x,-y,-z
loop_
_atom_site_type_symbol
_atom_site_label
_atom_site_fract_x
_atom_site_fract_y
_atom_site_fract_z
Si Si1 0.517338 0.290960 0.109748
Si Si2 0.772754 0.835687 0.256543
Si Si3 0.337230 0.107396 0.456884
Si Si4 0.819977 0.342272 0.976165
Si Si5 0.757803 0.726751 0.661429
Si Si6 0.763019 0.239720 0.720510
O O1 0.392324 0.314843 0.259359
O O2 0.339771 0.506543 0.191644
O O3 0.669398 0.353186 0.107920
O O4 0.660668 0.004015 0.876178
O O5 0.801227 0.792530 0.348553
O O6 0.934579 0.866179 0.179861
O O7 0.537541 0.064629 0.409806
O O8 0.799540 0.592501 0.092608
O O9 0.257067 0.254294 0.446849
O O10 0.368482 0.850964 0.300287
O O11 0.767093 0.289126 0.860408
O O12 0.000000 0.500000 0.500000
O O13 0.000000 0.000000 0.500000
#
# Coordination Sequence:
#
# PCOD9036515 Si02
#       6
#     2   2   2   2   2   2
#     4  11  24  41  66 100 132 171 224 280 326 385
#     4  10  23  37  66  97 138 166 212 280 347 379
#     4  11  21  43  64  99 128 174 220 277 327 398
#     4  11  21  39  63 101 130 168 219 278 328 393
#     4  11  25  44  67  97 138 176 225 274 328 391
#     4  12  21  38  73 100 127 171 234 278 323 381
#
# _framework density 20.781676999999998
#
# number of rings (size 3 to 8) (size 9 to 14) (size 15 to 20)
#    0.000    1.000    5.000    2.500    0.000    0.000 
#    3.000    1.667    0.000    0.000    0.000    0.000 
#    0.000    0.000    0.000    0.000    0.000    0.000 
#
# Total GULP energy -66931.578916 kJ/mol
# GULP energy per Si atom -5577.631576 kJ/mol
# Density = 2.073438 g / cm^3
# Si number density = 20.781677 Si / 1000 Ang^3
#
#
#
# Elastic Constant Matrix: (Units=GPa)
#
#
# Indices 1 2 3 4 5 6 
#
# 1 116.7893 46.2942 41.8281 -17.2981 -21.0917 15.3644
# 2 46.2942 108.1437 36.2001 -12.5728 -17.9033 -4.9834
# 3 41.8281 36.2001 100.2736 -4.3585 -11.3970 -7.6714
# 4 -17.2981 -12.5728 -4.3585 28.2462 -3.5584 -1.8797
# 5 -21.0917 -17.9033 -11.3970 -3.5584 46.2590 -4.5872
# 6 15.3644 -4.9834 -7.6714 -1.8797 -4.5872 33.3434
#
#
#
# Elastic Compliance Matrix: (Units=1/GPa)
#
#
# Indices 1 2 3 4 5 6 
#
# 1 0.014128 -0.003518 -0.004468 0.006392 0.003758 -0.007187
# 2 -0.003518 0.012693 -0.002281 0.003817 0.003405 0.003677
# 3 -0.004468 -0.002281 0.013039 -0.001342 0.000659 0.004733
# 4 0.006392 0.003817 -0.001342 0.041780 0.007343 0.000682
# 5 0.003758 0.003405 0.000659 0.007343 0.025661 0.002873
# 6 -0.007187 0.003677 0.004733 0.000682 0.002873 0.035375
#
#
# Mechanical properties :
#
#
# Convention : Reuss Voigt Hill
#
# Bulk Modulus (GPa) = 51.74346 63.76129 57.75237
# Shear Modulus (GPa) = 29.47221 34.96198 32.21709
#
# Velocity S-wave (km/s) = 3.76996 4.10609 3.94161
# Velocity P-wave (km/s) = 6.62592 7.29576 6.96889
#
# Compressibility (1/GPa) = 0.01932612
#
# Stress axis : x y z
#
# Youngs Moduli (GPa) = 70.78056 78.78119 76.69592
#
# Poissons Ratio (x) = 0.27717 0.34269
# Poissons Ratio (y) = 0.24902 0.17492
# Poissons Ratio (z) = 0.31626 0.17967
#
# Static dielectric constant tensor:
#      x y z
#    x 1.797300 0.020820 -0.092100 
#    y 0.020820 1.763090 0.031590 
#    z -0.092100 0.031590 1.890810 
# 
# From -- ./inp_files/178307.got.cif
#   From: 2010.05.17/outbox.cif.g08.bks.cpg/sg2_90_cif.got.tgz:178307.got - 2010.06.03 11:33:40.
