data_PCOD9036369
_publ_section_title
;
Structure prediction by ZEFSAII (Michael W. Deem and Ramdas Pophale) SiO2 
 PCOD9036369
Probable space group: P -1
;
_chemical_formula_sum "Si O2"
_cell_formula_units_Z 16
_cell_length_a 27.517333
_cell_length_b 18.047566
_cell_length_c 27.015154
_cell_angle_alpha 20.345931
_cell_angle_beta 10.562421
_cell_angle_gamma 18.792336
_cell_volume 786.714099
_symmetry_space_group_name_H-M "P -1"
_symmetry_group_IT_number 2
_symmetry_cell_setting 'triclinic'
loop_
_space_group_symop_operation_xyz
x,y,z
-x,-y,-z
loop_
_atom_site_type_symbol
_atom_site_label
_atom_site_fract_x
_atom_site_fract_y
_atom_site_fract_z
Si Si1 0.623426 0.671944 0.509611
Si Si2 0.725867 0.375148 0.779598
Si Si3 0.187491 0.521802 0.095942
Si Si4 0.899188 0.077430 0.883310
Si Si5 0.815454 0.814474 0.375799
Si Si6 0.541361 0.762325 0.425527
Si Si7 0.671691 0.837636 0.740154
Si Si8 0.312643 0.372337 0.744499
O O1 0.579565 0.629645 0.522347
O O2 0.958075 0.577504 0.246662
O O3 0.453269 0.947965 0.515193
O O4 0.464764 0.560443 0.775319
O O5 0.706826 0.628165 0.625731
O O6 0.785092 0.306104 0.820769
O O7 0.013830 0.206448 0.568248
O O8 0.461615 0.316477 0.061662
O O9 0.282877 0.270773 0.182694
O O10 0.006181 0.700736 0.208216
O O11 0.986017 0.126714 0.819893
O O12 0.202650 0.898641 0.669406
O O13 0.677756 0.952957 0.179322
O O14 0.685210 0.620523 0.321801
O O15 0.457582 0.101492 0.783569
O O16 0.500000 0.500000 0.500000
O O17 0.000000 0.500000 0.000000
#
# Coordination Sequence:
#
# PCOD9036369 Si02
#       8
#     2   2   2   2   2   2   2   2
#     4  11  23  40  60  84 126 172 213 253 281 340
#     4  11  20  37  57  85 132 168 200 251 297 363
#     4  11  23  40  60  84 126 172 213 253 281 340
#     4  11  20  37  57  85 132 168 200 251 297 363
#     4  10  23  34  58  92 122 173 224 250 282 328
#     4  11  23  41  62  92 122 159 201 247 319 369
#     4  11  23  41  62  92 122 159 201 247 319 369
#     4  12  24  42  72  97 120 143 188 262 322 388
#
# _framework density 20.337757
#
# number of rings (size 3 to 8) (size 9 to 14) (size 15 to 20)
#    0.000    1.000    2.500    5.625    0.000    8.000 
#    0.000    6.250    0.000    4.500    0.000    0.000 
#    0.000    0.000    0.000    0.000    0.000    0.000 
#
# Total GULP energy -89562.623383 kJ/mol
# GULP energy per Si atom -5597.663961 kJ/mol
# Density = 2.029147 g / cm^3
# Si number density = 20.337757 Si / 1000 Ang^3
#
#
#
# Elastic Constant Matrix: (Units=GPa)
#
#
# Indices 1 2 3 4 5 6 
#
# 1 90.3729 16.7719 -7.9295 -5.2405 7.5329 1.4863
# 2 16.7719 40.7857 4.7116 10.0555 -9.0850 -4.1407
# 3 -7.9295 4.7116 66.6481 0.6560 3.6433 8.6316
# 4 -5.2405 10.0555 0.6560 33.9561 1.6499 3.5919
# 5 7.5329 -9.0850 3.6433 1.6499 23.4559 2.2750
# 6 1.4863 -4.1407 8.6316 3.5919 2.2750 34.7770
#
#
#
# Elastic Compliance Matrix: (Units=1/GPa)
#
#
# Indices 1 2 3 4 5 6 
#
# 1 0.014345 -0.010005 0.003193 0.005834 -0.009136 -0.002602
# 2 -0.010005 0.037690 -0.005602 -0.014213 0.019048 0.006527
# 3 0.003193 -0.005602 0.016684 0.002610 -0.005499 -0.004854
# 4 0.005834 -0.014213 0.002610 0.035577 -0.009741 -0.005627
# 5 -0.009136 0.019048 -0.005499 -0.009741 0.054341 0.001475
# 6 -0.002602 0.006527 -0.004854 -0.005627 0.001475 0.031332
#
#
# Mechanical properties :
#
#
# Convention : Reuss Voigt Hill
#
# Bulk Modulus (GPa) = 22.78408 24.99052 23.88730
# Shear Modulus (GPa) = 21.79340 30.72132 26.25736
#
# Velocity S-wave (km/s) = 3.27704 3.89080 3.59704
# Velocity P-wave (km/s) = 5.05429 5.70078 5.38724
#
# Compressibility (1/GPa) = 0.04389030
#
# Stress axis : x y z
#
# Youngs Moduli (GPa) = 69.71109 26.53249 59.93896
#
# Poissons Ratio (x) = 0.26547 -0.19138
# Poissons Ratio (y) = 0.69749 0.33575
# Poissons Ratio (z) = -0.22259 0.14862
#
# Static dielectric constant tensor:
#      x y z
#    x 1.742070 -0.016880 0.020290 
#    y -0.016880 1.708390 0.007320 
#    z 0.020290 0.007320 1.710140 
# 
# From -- ./inp_files/452707.got.cif
#   From: 2010.05.17/outbox.cif.g08.bks.cpg/sg2_227_cif.got.tgz:452707.got - 2010.06.03 11:33:40.
