data_PCOD9036262
_publ_section_title
;
Structure prediction by ZEFSAII (Michael W. Deem and Ramdas Pophale) SiO2 
 PCOD9036262
Probable space group: P -1
;
_chemical_formula_sum "Si O2"
_cell_formula_units_Z 15
_cell_length_a 14.811150
_cell_length_b 9.284413
_cell_length_c 10.066248
_cell_angle_alpha 44.721481
_cell_angle_beta 55.834978
_cell_angle_gamma 48.972721
_cell_volume 722.903490
_symmetry_space_group_name_H-M "P -1"
_symmetry_group_IT_number 2
_symmetry_cell_setting 'triclinic'
loop_
_space_group_symop_operation_xyz
x,y,z
-x,-y,-z
loop_
_atom_site_type_symbol
_atom_site_label
_atom_site_fract_x
_atom_site_fract_y
_atom_site_fract_z
Si Si1 0.478212 0.901994 0.947176
Si Si2 0.263657 0.857191 0.034938
Si Si3 0.103729 0.859875 0.808154
Si Si4 0.053746 0.255861 0.800878
Si Si5 0.000000 0.000000 0.500000
Si Si6 0.371540 0.615231 0.832325
Si Si7 0.171086 0.577177 0.466287
Si Si8 0.553734 0.799554 0.477050
O O1 0.472298 0.070995 0.724792
O O2 0.351863 0.880171 0.056741
O O3 0.585439 0.649995 0.004848
O O4 0.500000 0.000000 0.000000
O O5 0.198175 0.706451 0.236895
O O6 0.343390 0.738555 0.917766
O O7 0.163395 0.100817 0.911002
O O8 0.249693 0.733488 0.768766
O O9 0.065787 0.089909 0.776681
O O10 0.042329 0.923805 0.673267
O O11 0.061916 0.703589 0.038762
O O12 0.076567 0.468404 0.598738
O O13 0.885095 0.236455 0.493494
O O14 0.479856 0.651622 0.652419
O O15 0.303281 0.365653 0.520577
O O16 0.500000 0.000000 0.500000
#
# Coordination Sequence:
#
# PCOD9036262 Si02
#       8
#     2   2   2   2   1   2   2   2
#     4  12  26  41  67 110 146 182 225 287 366 424
#     4  11  21  46  71 103 138 185 243 290 343 427
#     4  10  24  47  69 104 140 183 245 293 346 424
#     4  10  22  48  74  96 134 191 248 290 335 414
#     4  12  28  46  68 106 146 188 232 284 374 414
#     4  11  24  44  72 101 144 182 240 294 346 423
#     4  12  25  44  78 101 145 188 236 295 354 417
#     4  12  23  45  77 105 135 189 240 287 356 420
#
# _framework density 20.749658
#
# number of rings (size 3 to 8) (size 9 to 14) (size 15 to 20)
#    0.000    0.800    5.333    2.000    1.867    2.667 
#    4.800    0.000    0.000    0.000    0.000    0.000 
#    0.000    0.000    0.000    0.000    0.000    0.000 
#
# Total GULP energy -83572.689172 kJ/mol
# GULP energy per Si atom -5571.512611 kJ/mol
# Density = 2.070243 g / cm^3
# Si number density = 20.749658 Si / 1000 Ang^3
#
#
#
# Elastic Constant Matrix: (Units=GPa)
#
#
# Indices 1 2 3 4 5 6 
#
# 1 102.5403 22.8849 42.9987 6.4444 6.7584 -5.4897
# 2 22.8849 79.0662 3.2877 2.3246 4.5475 -19.9055
# 3 42.9987 3.2877 118.2570 -3.7537 -17.2545 1.4032
# 4 6.4444 2.3246 -3.7537 25.7676 -2.3171 1.7912
# 5 6.7584 4.5475 -17.2545 -2.3171 41.6542 -4.0326
# 6 -5.4897 -19.9055 1.4032 1.7912 -4.0326 13.4210
#
#
#
# Elastic Compliance Matrix: (Units=1/GPa)
#
#
# Indices 1 2 3 4 5 6 
#
# 1 0.013357 -0.003065 -0.005544 -0.004312 -0.004293 0.000784
# 2 -0.003065 0.021429 0.000205 -0.003212 0.001091 0.031263
# 3 -0.005544 0.000205 0.011427 0.003675 0.005625 -0.001959
# 4 -0.004312 -0.003212 0.003675 0.041843 0.003801 -0.011354
# 5 -0.004293 0.001091 0.005625 0.003801 0.027816 0.007124
# 6 0.000784 0.031263 -0.001959 -0.011354 0.007124 0.125060
#
#
# Mechanical properties :
#
#
# Convention : Reuss Voigt Hill
#
# Bulk Modulus (GPa) = 34.00795 48.68960 41.34877
# Shear Modulus (GPa) = 18.68876 31.54804 25.11840
#
# Velocity S-wave (km/s) = 3.00439 3.90348 3.48306
# Velocity P-wave (km/s) = 5.33482 6.62060 6.01218
#
# Compressibility (1/GPa) = 0.02940489
#
# Stress axis : x y z
#
# Youngs Moduli (GPa) = 74.86758 46.66653 87.51245
#
# Poissons Ratio (x) = 0.14301 0.48517
# Poissons Ratio (y) = 0.22943 -0.01792
# Poissons Ratio (z) = 0.41507 -0.00955
#
# Static dielectric constant tensor:
#      x y z
#    x 1.748990 -0.005750 -0.015120 
#    y -0.005750 1.721660 -0.014450 
#    z -0.015120 -0.014450 1.738760 
# 
# From -- ./inp_files/227285.got.cif
#   From: 2010.05.17/outbox.cif.g08.bks.cpg/sg2_114_cif.got.tgz:227285.got - 2010.06.03 11:33:40.
