data_PCOD9036002
_publ_section_title
;
Structure prediction by ZEFSAII (Michael W. Deem and Ramdas Pophale) SiO2 
 PCOD9036002
Probable space group: P -1
;
_chemical_formula_sum "Si O2"
_cell_formula_units_Z 14
_cell_length_a 19.101704
_cell_length_b 8.420598
_cell_length_c 7.427624
_cell_angle_alpha 75.010127
_cell_angle_beta 63.156579
_cell_angle_gamma 34.003094
_cell_volume 579.890121
_symmetry_space_group_name_H-M "P -1"
_symmetry_group_IT_number 2
_symmetry_cell_setting 'triclinic'
loop_
_space_group_symop_operation_xyz
x,y,z
-x,-y,-z
loop_
_atom_site_type_symbol
_atom_site_label
_atom_site_fract_x
_atom_site_fract_y
_atom_site_fract_z
Si Si1 0.219567 0.589937 0.936604
Si Si2 0.815427 0.531409 0.340811
Si Si3 0.454240 0.438443 0.704602
Si Si4 0.316277 0.972514 0.888924
Si Si5 0.399137 0.023924 0.072563
Si Si6 0.066782 0.282522 0.322339
Si Si7 0.155580 0.791102 0.343316
O O1 0.144829 0.652801 0.825368
O O2 0.351975 0.468766 0.751525
O O3 0.262408 0.350353 0.064939
O O4 0.165897 0.781155 0.117595
O O5 0.759015 0.499758 0.566278
O O6 0.941131 0.419720 0.312554
O O7 0.709868 0.851042 0.291637
O O8 0.500000 0.500000 0.500000
O O9 0.364566 0.706471 0.865131
O O10 0.586949 0.122699 0.735447
O O11 0.434657 0.848500 0.912912
O O12 0.170194 0.205285 0.097481
O O13 0.500000 0.000000 0.000000
O O14 0.000000 0.500000 0.500000
O O15 0.160456 0.964234 0.370882
O O16 0.000000 0.000000 0.500000
#
# Coordination Sequence:
#
# PCOD9036002 Si02
#       7
#     2   2   2   2   2   2   2
#     4  10  22  47  68  98 139 180 221 280 341 397
#     4  10  25  42  69 101 134 180 222 269 337 427
#     4  11  24  43  66 101 131 177 234 283 333 392
#     4  11  23  44  66  98 137 178 221 284 342 386
#     4   9  22  43  67  89 129 177 224 278 326 395
#     4  11  25  44  66 103 138 177 221 276 342 412
#     4  10  23  42  67  98 135 180 223 265 341 415
#
# _framework density 24.142505
#
# number of rings (size 3 to 8) (size 9 to 14) (size 15 to 20)
#    0.000    1.714    1.429    0.857   10.000    4.571 
#    5.143    2.143    0.000    0.000    0.000    0.000 
#    0.000    0.000    0.000    0.000    0.000    0.000 
#
# Total GULP energy -78016.624021 kJ/mol
# GULP energy per Si atom -5572.616002 kJ/mol
# Density = 2.408756 g / cm^3
# Si number density = 24.142505 Si / 1000 Ang^3
#
#
#
# Elastic Constant Matrix: (Units=GPa)
#
#
# Indices 1 2 3 4 5 6 
#
# 1 141.1476 35.7300 58.2591 -9.5355 22.2520 24.4579
# 2 35.7300 89.7340 35.8885 -27.4033 3.0543 27.4154
# 3 58.2591 35.8885 138.9886 -7.0141 11.2337 0.8640
# 4 -9.5355 -27.4033 -7.0141 51.6603 11.0155 0.2778
# 5 22.2520 3.0543 11.2337 11.0155 40.2625 1.4358
# 6 24.4579 27.4154 0.8640 0.2778 1.4358 31.1300
#
#
#
# Elastic Compliance Matrix: (Units=1/GPa)
#
#
# Indices 1 2 3 4 5 6 
#
# 1 0.011440 0.001641 -0.004499 0.003670 -0.005836 -0.010071
# 2 0.001641 0.023472 -0.005648 0.012930 -0.003874 -0.021740
# 3 -0.004499 -0.005648 0.010323 -0.002563 0.000443 0.008225
# 4 0.003670 0.012930 -0.002563 0.028676 -0.009640 -0.014010
# 5 -0.005836 -0.003874 0.000443 -0.009640 0.030633 0.006658
# 6 -0.010071 -0.021740 0.008225 -0.014010 0.006658 0.058772
#
#
# Mechanical properties :
#
#
# Convention : Reuss Voigt Hill
#
# Bulk Modulus (GPa) = 35.43344 69.95837 52.69591
# Shear Modulus (GPa) = 26.35259 40.61008 33.48134
#
# Velocity S-wave (km/s) = 3.30744 4.10579 3.72804
# Velocity P-wave (km/s) = 5.41241 7.17752 6.35653
#
# Compressibility (1/GPa) = 0.02822193
#
# Stress axis : x y z
#
# Youngs Moduli (GPa) = 87.41470 42.60416 96.87310
#
# Poissons Ratio (x) = -0.06990 0.43586
# Poissons Ratio (y) = -0.14343 0.54711
# Poissons Ratio (z) = 0.39330 0.24062
#
# Static dielectric constant tensor:
#      x y z
#    x 1.957890 0.005810 0.002990 
#    y 0.005810 2.071630 0.069480 
#    z 0.002990 0.069480 2.100590 
# 
# From -- ./inp_files/116117.got.cif
#   From: 2010.05.17/outbox.cif.g08.bks.cpg/sg2_59_cif.got.tgz:116117.got - 2010.06.03 11:33:40.
