data_PCOD9036225
_publ_section_title
;
Structure prediction by ZEFSAII (Michael W. Deem and Ramdas Pophale) SiO2 
 PCOD9036225
Probable space group: P -1
;
_chemical_formula_sum "Si O2"
_cell_formula_units_Z 16
_cell_length_a 7.425705
_cell_length_b 20.503448
_cell_length_c 9.433069
_cell_angle_alpha 141.722810
_cell_angle_beta 43.607711
_cell_angle_gamma 125.560279
_cell_volume 613.339456
_symmetry_space_group_name_H-M "P -1"
_symmetry_group_IT_number 2
_symmetry_cell_setting 'triclinic'
loop_
_space_group_symop_operation_xyz
x,y,z
-x,-y,-z
loop_
_atom_site_type_symbol
_atom_site_label
_atom_site_fract_x
_atom_site_fract_y
_atom_site_fract_z
Si Si1 0.395760 0.709579 0.985996
Si Si2 0.951994 0.097371 0.098638
Si Si3 0.628439 0.152552 0.044507
Si Si4 0.892729 0.324509 0.633160
Si Si5 0.187607 0.516095 0.621282
Si Si6 0.849254 0.806540 0.086283
Si Si7 0.638142 0.575345 0.937330
Si Si8 0.653999 0.909118 0.643513
O O1 0.391693 0.798777 0.017539
O O2 0.146933 0.690506 0.200525
O O3 0.641675 0.736771 0.996515
O O4 0.390813 0.598370 0.718386
O O5 0.998047 0.213625 0.333518
O O6 0.648438 0.091627 0.228093
O O7 0.134058 0.089854 0.844392
O O8 0.000000 0.000000 0.000000
O O9 0.846329 0.224252 0.128816
O O10 0.729714 0.032146 0.784423
O O11 0.365982 0.137015 0.263759
O O12 0.059303 0.423226 0.638534
O O13 0.591425 0.339705 0.783962
O O14 0.936160 0.587087 0.842366
O O15 0.314151 0.475309 0.332184
O O16 0.788414 0.834875 0.329324
O O17 0.500000 0.500000 0.000000
#
# Coordination Sequence:
#
# PCOD9036225 Si02
#       8
#     2   2   2   2   2   2   2   2
#     4  12  26  45  74 111 149 201 255 308 384 462
#     4  11  25  43  74 109 149 197 253 314 379 455
#     4  10  25  45  71 110 147 196 254 318 387 459
#     4  11  25  46  71 108 153 198 249 318 380 447
#     4  10  24  47  75 113 152 195 259 312 383 458
#     4  11  25  47  72 105 148 200 250 321 380 450
#     4   9  22  47  78 106 148 198 248 315 382 452
#     4  10  22  48  72 101 150 195 256 321 387 451
#
# _framework density 26.086696
#
# number of rings (size 3 to 8) (size 9 to 14) (size 15 to 20)
#    0.000    1.500    1.250    1.500    5.250    6.500 
#    6.750    0.000    0.000    0.000    0.000    0.000 
#    0.000    0.000    0.000    0.000    0.000    0.000 
#
# Total GULP energy -89212.018410 kJ/mol
# GULP energy per Si atom -5575.751151 kJ/mol
# Density = 2.602732 g / cm^3
# Si number density = 26.086696 Si / 1000 Ang^3
#
#
#
# Elastic Constant Matrix: (Units=GPa)
#
#
# Indices 1 2 3 4 5 6 
#
# 1 132.9919 34.6204 38.0696 2.7616 8.1069 17.1058
# 2 34.6204 220.8353 80.0774 -17.9941 17.7268 10.4050
# 3 38.0696 80.0774 138.4725 -20.0083 5.9921 -2.4838
# 4 2.7616 -17.9941 -20.0083 45.6211 -1.9494 2.6328
# 5 8.1069 17.7268 5.9921 -1.9494 38.7111 -2.1482
# 6 17.1058 10.4050 -2.4838 2.6328 -2.1482 39.6663
#
#
#
# Elastic Compliance Matrix: (Units=1/GPa)
#
#
# Indices 1 2 3 4 5 6 
#
# 1 0.008958 -0.000306 -0.002518 -0.001611 -0.001645 -0.003923
# 2 -0.000306 0.006102 -0.003232 0.001018 -0.002282 -0.001862
# 3 -0.002518 -0.003232 0.010268 0.003273 0.000716 0.002398
# 4 -0.001611 0.001018 0.003273 0.023930 0.000518 -0.000927
# 5 -0.001645 -0.002282 0.000716 0.000518 0.027292 0.002797
# 6 -0.003923 -0.001862 0.002398 -0.000927 0.002797 0.027754
#
#
# Mechanical properties :
#
#
# Convention : Reuss Voigt Hill
#
# Bulk Modulus (GPa) = 75.66516 88.64826 82.15671
# Shear Modulus (GPa) = 41.38346 47.43519 44.40932
#
# Velocity S-wave (km/s) = 3.98726 4.26886 4.13046
# Velocity P-wave (km/s) = 7.08985 7.63894 7.36951
#
# Compressibility (1/GPa) = 0.01321612
#
# Stress axis : x y z
#
# Youngs Moduli (GPa) = 111.63359 163.87701 97.38895
#
# Poissons Ratio (x) = 0.05010 0.24522
# Poissons Ratio (y) = 0.03413 0.31480
# Poissons Ratio (z) = 0.28108 0.52971
#
# Static dielectric constant tensor:
#      x y z
#    x 2.128110 -0.033240 -0.011120 
#    y -0.033240 2.204230 -0.016920 
#    z -0.011120 -0.016920 2.157360 
# 
# From -- ./inp_files/213191.got.cif
#   From: 2010.05.17/outbox.cif.g08.bks.cpg/sg2_107_cif.got.tgz:213191.got - 2010.06.03 11:33:40.
