data_PCOD9036624
_publ_section_title
;
Structure prediction by ZEFSAII (Michael W. Deem and Ramdas Pophale) SiO2 
 PCOD9036624
Probable space group: P -1
;
_chemical_formula_sum "Si O2"
_cell_formula_units_Z 16
_cell_length_a 9.202412
_cell_length_b 10.445106
_cell_length_c 18.336478
_cell_angle_alpha 144.756583
_cell_angle_beta 42.979649
_cell_angle_gamma 121.228225
_cell_volume 679.223283
_symmetry_space_group_name_H-M "P -1"
_symmetry_group_IT_number 2
_symmetry_cell_setting 'triclinic'
loop_
_space_group_symop_operation_xyz
x,y,z
-x,-y,-z
loop_
_atom_site_type_symbol
_atom_site_label
_atom_site_fract_x
_atom_site_fract_y
_atom_site_fract_z
Si Si1 0.949768 0.133911 0.417927
Si Si2 0.893244 0.788216 0.456675
Si Si3 0.695105 0.992852 0.035861
Si Si4 0.271520 0.229545 0.237267
Si Si5 0.436306 0.737636 0.590086
Si Si6 0.517049 0.343272 0.636560
Si Si7 0.882891 0.833489 0.038310
Si Si8 0.972905 0.628135 0.193157
O O1 0.014137 0.280278 0.529590
O O2 0.037787 0.242446 0.365453
O O3 0.690140 0.146211 0.520287
O O4 0.046652 0.863180 0.257590
O O5 0.635750 0.860013 0.590373
O O6 0.940743 0.632440 0.295537
O O7 0.000000 0.000000 0.500000
O O8 0.733968 0.894182 0.894861
O O9 0.764223 0.827390 0.001350
O O10 0.859774 0.166437 0.065722
O O11 0.440306 0.100610 0.176547
O O12 0.384050 0.440041 0.277592
O O13 0.500000 0.500000 0.500000
O O14 0.443292 0.687741 0.478889
O O15 0.223449 0.919113 0.775378
O O16 0.262448 0.365928 0.754231
O O17 0.872310 0.615427 0.990095
#
# Coordination Sequence:
#
# PCOD9036624 Si02
#       8
#     2   2   2   2   2   2   2   2
#     4  11  22  39  65  92 130 163 217 259 313 369
#     4   9  21  40  61  89 126 166 203 254 310 371
#     4  10  23  38  64  90 129 161 207 258 320 369
#     4  11  22  41  61  98 126 161 208 268 312 368
#     4  11  23  39  68  95 122 159 215 261 307 374
#     4  11  22  40  64  95 124 169 210 257 316 373
#     4  11  22  41  66  93 123 169 212 256 315 372
#     4  10  23  42  64  89 130 171 210 254 313 385
#
# _framework density 23.556318999999998
#
# number of rings (size 3 to 8) (size 9 to 14) (size 15 to 20)
#    0.000    1.500    1.250    3.750    7.000    0.000 
#    0.000    8.125    5.500    0.000    0.000    0.000 
#    0.000    0.000    0.000    0.000    0.000    0.000 
#
# Total GULP energy -89301.631370 kJ/mol
# GULP energy per Si atom -5581.351961 kJ/mol
# Density = 2.350270 g / cm^3
# Si number density = 23.556319 Si / 1000 Ang^3
#
#
#
# Elastic Constant Matrix: (Units=GPa)
#
#
# Indices 1 2 3 4 5 6 
#
# 1 100.6908 -0.2516 9.7212 6.7438 -5.3215 25.7650
# 2 -0.2516 73.2868 16.7206 19.7238 -8.7589 14.6224
# 3 9.7212 16.7206 50.6986 17.6042 -11.6464 3.0111
# 4 6.7438 19.7238 17.6042 33.8720 -7.2474 -5.5274
# 5 -5.3215 -8.7589 -11.6464 -7.2474 35.8066 -4.7307
# 6 25.7650 14.6224 3.0111 -5.5274 -4.7307 32.6960
#
#
#
# Elastic Compliance Matrix: (Units=1/GPa)
#
#
# Indices 1 2 3 4 5 6 
#
# 1 0.014428 0.005411 -0.000948 -0.008104 -0.000482 -0.015142
# 2 0.005411 0.021436 -0.001805 -0.015218 0.000237 -0.016223
# 3 -0.000948 -0.001805 0.025765 -0.011353 0.005238 -0.001980
# 4 -0.008104 -0.015218 -0.011353 0.050752 0.004759 0.023506
# 5 -0.000482 0.000237 0.005238 0.004759 0.031257 0.005118
# 6 -0.015142 -0.016223 -0.001980 0.023506 0.005118 0.054669
#
#
# Mechanical properties :
#
#
# Convention : Reuss Voigt Hill
#
# Bulk Modulus (GPa) = 14.93789 30.78408 22.86098
# Shear Modulus (GPa) = 23.22260 33.70731 28.46495
#
# Velocity S-wave (km/s) = 3.14320 3.78686 3.47995
# Velocity P-wave (km/s) = 4.41906 5.67601 5.08651
#
# Compressibility (1/GPa) = 0.06694385
#
# Stress axis : x y z
#
# Youngs Moduli (GPa) = 69.30788 46.65004 38.81302
#
# Poissons Ratio (x) = -0.25241 0.03680
# Poissons Ratio (y) = -0.37500 0.07006
# Poissons Ratio (z) = 0.06572 0.08421
#
# Static dielectric constant tensor:
#      x y z
#    x 1.932550 -0.063520 -0.025260 
#    y -0.063520 1.879460 0.034970 
#    z -0.025260 0.034970 1.991760 
# 
# From -- ./inp_files/223444.got.cif
#   From: 2010.05.17/outbox.cif.g08.bks.cpg/sg2_112_cif.got.tgz:223444.got - 2010.06.03 11:33:40.
