data_PCOD9036775
_publ_section_title
;
Structure prediction by ZEFSAII (Michael W. Deem and Ramdas Pophale) SiO2 
 PCOD9036775
Probable space group: P -1
;
_chemical_formula_sum "Si O2"
_cell_formula_units_Z 16
_cell_length_a 11.671186
_cell_length_b 18.029996
_cell_length_c 6.218245
_cell_angle_alpha 106.546880
_cell_angle_beta 133.998060
_cell_angle_gamma 49.442275
_cell_volume 681.006365
_symmetry_space_group_name_H-M "P -1"
_symmetry_group_IT_number 2
_symmetry_cell_setting 'triclinic'
loop_
_space_group_symop_operation_xyz
x,y,z
-x,-y,-z
loop_
_atom_site_type_symbol
_atom_site_label
_atom_site_fract_x
_atom_site_fract_y
_atom_site_fract_z
Si Si1 0.030684 0.733569 0.616392
Si Si2 0.138536 0.075664 0.733270
Si Si3 0.851290 0.400761 0.706280
Si Si4 0.809079 0.540350 0.123110
Si Si5 0.599408 0.717679 0.652145
Si Si6 0.844647 0.069007 0.654233
Si Si7 0.526796 0.592196 0.183851
Si Si8 0.837056 0.793926 0.855800
O O1 0.023309 0.658279 0.400473
O O2 0.975930 0.827645 0.491166
O O3 0.860441 0.785576 0.625819
O O4 0.277146 0.664136 0.932108
O O5 0.980229 0.077470 0.675229
O O6 0.237819 0.980434 0.624970
O O7 0.250562 0.099525 0.065233
O O8 0.628446 0.496799 0.398073
O O9 0.895903 0.454272 0.980230
O O10 0.915743 0.301754 0.832211
O O11 0.630768 0.557212 0.053832
O O12 0.000000 0.500000 0.500000
O O13 0.698941 0.644961 0.932846
O O14 0.357230 0.818155 0.448945
O O15 0.602066 0.650839 0.420020
O O16 0.714375 0.758874 0.756202
O O17 0.000000 0.000000 0.000000
#
# Coordination Sequence:
#
# PCOD9036775 Si02
#       8
#     2   2   2   2   2   2   2   2
#     4  11  23  42  65  95 134 174 218 273 330 390
#     4  10  23  42  68  95 125 168 217 269 330 391
#     4  10  23  39  61  94 131 175 224 268 323 387
#     4  11  23  42  64  95 137 178 224 274 322 383
#     4  11  25  41  66  99 132 175 223 265 326 395
#     4  11  23  46  72  97 128 167 218 278 332 391
#     4  11  22  38  64  94 129 180 225 268 324 387
#     4  11  23  41  62  93 135 174 213 271 328 387
#
# _framework density 23.494637999999998
#
# number of rings (size 3 to 8) (size 9 to 14) (size 15 to 20)
#    0.000    1.250    0.000    5.625    0.000   10.500 
#    0.000    4.375    0.000    0.000    0.000    0.000 
#    0.000    0.000    0.000    0.000    0.000    0.000 
#
# Total GULP energy -89302.258011 kJ/mol
# GULP energy per Si atom -5581.391126 kJ/mol
# Density = 2.344116 g / cm^3
# Si number density = 23.494638 Si / 1000 Ang^3
#
#
#
# Elastic Constant Matrix: (Units=GPa)
#
#
# Indices 1 2 3 4 5 6 
#
# 1 89.6289 22.0595 50.5972 10.7156 -11.0292 12.8844
# 2 22.0595 106.3245 33.9055 24.7717 -10.7421 10.0360
# 3 50.5972 33.9055 90.9252 28.5457 -14.4041 11.0966
# 4 10.7156 24.7717 28.5457 47.7017 7.9561 -4.0899
# 5 -11.0292 -10.7421 -14.4041 7.9561 33.7223 3.6634
# 6 12.8844 10.0360 11.0966 -4.0899 3.6634 20.5927
#
#
#
# Elastic Compliance Matrix: (Units=1/GPa)
#
#
# Indices 1 2 3 4 5 6 
#
# 1 0.017144 -0.000017 -0.008305 0.000091 0.002763 -0.006717
# 2 -0.000017 0.013088 0.000359 -0.009094 0.007517 -0.009705
# 3 -0.008305 0.000359 0.024319 -0.016227 0.013095 -0.013635
# 4 0.000091 -0.009094 -0.016227 0.041259 -0.022278 0.025276
# 5 0.002763 0.007517 0.013095 -0.022278 0.046534 -0.025151
# 6 -0.006717 -0.009705 -0.013635 0.025276 -0.025151 0.074335
#
#
# Mechanical properties :
#
#
# Convention : Reuss Voigt Hill
#
# Bulk Modulus (GPa) = 25.88977 55.55589 40.72283
# Shear Modulus (GPa) = 20.36825 32.42443 26.39634
#
# Velocity S-wave (km/s) = 2.94756 3.71897 3.35551
# Velocity P-wave (km/s) = 4.75684 6.49142 5.69061
#
# Compressibility (1/GPa) = 0.03862530
#
# Stress axis : x y z
#
# Youngs Moduli (GPa) = 58.32826 76.40400 41.12058
#
# Poissons Ratio (x) = 0.00127 0.34152
# Poissons Ratio (y) = 0.00097 -0.01475
# Poissons Ratio (z) = 0.48443 -0.02741
#
# Static dielectric constant tensor:
#      x y z
#    x 1.883800 -0.000220 0.000040 
#    y -0.000220 1.891200 0.037850 
#    z 0.000040 0.037850 1.998820 
# 
# From -- ./inp_files/81532.got.cif
#   From: 2010.05.17/outbox.cif.g08.bks.cpg/sg2_41_cif.got.tgz:81532.got - 2010.06.03 11:33:40.
