data_PCOD9036786
_publ_section_title
;
Structure prediction by ZEFSAII (Michael W. Deem and Ramdas Pophale) SiO2 
 PCOD9036786
Probable space group: P -1
;
_chemical_formula_sum "Si O2"
_cell_formula_units_Z 16
_cell_length_a 8.142618
_cell_length_b 18.629878
_cell_length_c 8.939171
_cell_angle_alpha 95.506418
_cell_angle_beta 95.616586
_cell_angle_gamma 30.512230
_cell_volume 685.002655
_symmetry_space_group_name_H-M "P -1"
_symmetry_group_IT_number 2
_symmetry_cell_setting 'triclinic'
loop_
_space_group_symop_operation_xyz
x,y,z
-x,-y,-z
loop_
_atom_site_type_symbol
_atom_site_label
_atom_site_fract_x
_atom_site_fract_y
_atom_site_fract_z
Si Si1 0.638152 0.695204 0.351861
Si Si2 0.505032 0.978555 0.749865
Si Si3 0.776873 0.337053 0.503505
Si Si4 0.106248 0.228435 0.992322
Si Si5 0.559880 0.366877 0.812347
Si Si6 0.527337 0.089501 0.535447
Si Si7 0.884548 0.615365 0.923828
Si Si8 0.372400 0.376495 0.338483
O O1 0.459180 0.712536 0.217235
O O2 0.449071 0.840208 0.384209
O O3 0.635318 0.658941 0.507881
O O4 0.026582 0.548775 0.322109
O O5 0.757823 0.840602 0.846198
O O6 0.324365 0.989352 0.626370
O O7 0.627359 0.992854 0.646687
O O8 0.290789 0.105610 0.870185
O O9 0.500000 0.500000 0.500000
O O10 0.725793 0.328321 0.666096
O O11 0.667756 0.319867 0.367706
O O12 0.139467 0.228018 0.499910
O O13 0.170838 0.288833 0.975006
O O14 0.739901 0.339321 0.957099
O O15 0.180281 0.527591 0.822292
O O16 0.607919 0.689233 0.804859
O O17 0.000000 0.500000 0.000000
#
# Coordination Sequence:
#
# PCOD9036786 Si02
#       8
#     2   2   2   2   2   2   2   2
#     4   9  18  35  62  88 130 151 197 266 315 373
#     4  10  25  40  68  86 123 183 218 253 304 377
#     4  11  21  33  68  96 127 155 206 273 325 373
#     4  11  23  46  63  88 134 171 215 256 317 382
#     4  10  23  39  62 100 124 163 202 269 332 375
#     4  11  21  41  67  93 121 168 226 259 305 377
#     4  11  25  38  66  93 129 166 203 264 331 379
#     4   9  19  35  53  97 123 156 191 248 342 370
#
# _framework density 23.357574
#
# number of rings (size 3 to 8) (size 9 to 14) (size 15 to 20)
#    0.000    1.750    2.500    1.875    7.000    1.000 
#    0.000    1.250   11.000    0.000    0.000    0.000 
#    0.000    0.000    0.000    0.000    0.000    0.000 
#
# Total GULP energy -89296.446193 kJ/mol
# GULP energy per Si atom -5581.027887 kJ/mol
# Density = 2.330441 g / cm^3
# Si number density = 23.357574 Si / 1000 Ang^3
#
#
#
# Elastic Constant Matrix: (Units=GPa)
#
#
# Indices 1 2 3 4 5 6 
#
# 1 75.7305 32.8823 18.8294 -8.1597 28.5849 18.9447
# 2 32.8823 75.7483 11.4855 -1.3831 4.0612 23.5718
# 3 18.8294 11.4855 82.1438 -9.3912 4.8872 6.5701
# 4 -8.1597 -1.3831 -9.3912 42.4095 0.9171 2.3053
# 5 28.5849 4.0612 4.8872 0.9171 26.0988 5.9294
# 6 18.9447 23.5718 6.5701 2.3053 5.9294 39.5324
#
#
#
# Elastic Compliance Matrix: (Units=1/GPa)
#
#
# Indices 1 2 3 4 5 6 
#
# 1 0.032635 -0.010493 -0.003006 0.006215 -0.032783 -0.004329
# 2 -0.010493 0.019793 -0.000471 -0.001258 0.010404 -0.008183
# 3 -0.003006 -0.000471 0.013199 0.002349 0.000984 -0.000757
# 4 0.006215 -0.001258 0.002349 0.025576 -0.007264 -0.003021
# 5 -0.032783 0.010404 0.000984 -0.007264 0.072940 -0.001173
# 6 -0.004329 -0.008183 -0.000757 -0.003021 -0.001173 0.032727
#
#
# Mechanical properties :
#
#
# Convention : Reuss Voigt Hill
#
# Bulk Modulus (GPa) = 26.53370 40.00187 33.26779
# Shear Modulus (GPa) = 21.06392 32.96984 27.01688
#
# Velocity S-wave (km/s) = 3.00626 3.76111 3.40467
# Velocity P-wave (km/s) = 4.84093 6.00202 5.45247
#
# Compressibility (1/GPa) = 0.03768792
#
# Stress axis : x y z
#
# Youngs Moduli (GPa) = 30.64217 50.52169 75.76178
#
# Poissons Ratio (x) = 0.53011 0.22777
# Poissons Ratio (y) = 0.32152 0.03566
# Poissons Ratio (z) = 0.09212 0.02378
#
# Static dielectric constant tensor:
#      x y z
#    x 1.920480 0.019250 0.018650 
#    y 0.019250 1.947200 0.038310 
#    z 0.018650 0.038310 1.993490 
# 
# From -- ./inp_files/223702.got.cif
#   From: 2010.05.17/outbox.cif.g08.bks.cpg/sg2_112_cif.got.tgz:223702.got - 2010.06.03 11:33:40.
