data_PCOD9036730
_publ_section_title
;
Structure prediction by ZEFSAII (Michael W. Deem and Ramdas Pophale) SiO2 
 PCOD9036730
Probable space group: P -1
;
_chemical_formula_sum "Si O2"
_cell_formula_units_Z 16
_cell_length_a 8.963729
_cell_length_b 11.272639
_cell_length_c 14.719068
_cell_angle_alpha 53.216090
_cell_angle_beta 68.300725
_cell_angle_gamma 38.788832
_cell_volume 732.128924
_symmetry_space_group_name_H-M "P -1"
_symmetry_group_IT_number 2
_symmetry_cell_setting 'triclinic'
loop_
_space_group_symop_operation_xyz
x,y,z
-x,-y,-z
loop_
_atom_site_type_symbol
_atom_site_label
_atom_site_fract_x
_atom_site_fract_y
_atom_site_fract_z
Si Si1 0.242928 0.371083 0.879358
Si Si2 0.643775 0.992061 0.098345
Si Si3 0.235962 0.853440 0.434355
Si Si4 0.514685 0.419158 0.680993
Si Si5 0.994959 0.194461 0.758087
Si Si6 0.748655 0.817964 0.756562
Si Si7 0.199090 0.040488 0.583468
Si Si8 0.234777 0.335961 0.369207
O O1 0.248092 0.210295 0.898758
O O2 0.324314 0.441181 0.758365
O O3 0.978995 0.608611 0.860724
O O4 0.447054 0.217458 0.980795
O O5 0.849605 0.945694 0.122933
O O6 0.490866 0.024771 0.200614
O O7 0.393253 0.652069 0.563233
O O8 0.370965 0.735842 0.361775
O O9 0.978658 0.948354 0.434414
O O10 0.221567 0.039835 0.358271
O O11 0.734956 0.297244 0.756476
O O12 0.930704 0.412919 0.680936
O O13 0.144166 0.058748 0.694615
O O14 0.753675 0.703090 0.723112
O O15 0.139054 0.252220 0.475557
O O16 0.483517 0.830114 0.593698
#
# Coordination Sequence:
#
# PCOD9036730 Si02
#       8
#     2   2   2   2   2   2   2   2
#     4  11  24  43  67  90 124 168 218 261 307 370
#     4  11  24  44  64  91 125 168 218 262 307 362
#     4  10  23  40  64  97 130 165 202 255 323 375
#     4  10  23  42  65  94 128 170 203 254 319 377
#     4  11  23  41  63  87 131 164 210 258 306 373
#     4  12  23  41  68  95 128 160 210 266 311 374
#     4  10  23  39  58  89 134 168 204 252 306 380
#     4  11  23  36  61  95 124 171 207 246 319 377
#
# _framework density 21.854075999999999
#
# number of rings (size 3 to 8) (size 9 to 14) (size 15 to 20)
#    0.000    1.250    3.750    1.500    5.250    2.500 
#    0.000    0.000    0.000    2.250    0.000    0.000 
#    0.000    0.000    0.000    0.000    0.000    0.000 
#
# Total GULP energy -89477.330632 kJ/mol
# GULP energy per Si atom -5592.333165 kJ/mol
# Density = 2.180433 g / cm^3
# Si number density = 21.854076 Si / 1000 Ang^3
#
#
#
# Elastic Constant Matrix: (Units=GPa)
#
#
# Indices 1 2 3 4 5 6 
#
# 1 77.3074 14.8874 13.3894 -8.9455 19.3592 -1.2733
# 2 14.8874 63.1929 -2.5815 -12.5132 0.8087 -2.8253
# 3 13.3894 -2.5815 58.7153 -11.8866 15.3062 -2.2007
# 4 -8.9455 -12.5132 -11.8866 30.0398 -6.7705 2.7443
# 5 19.3592 0.8087 15.3062 -6.7705 38.0874 1.1187
# 6 -1.2733 -2.8253 -2.2007 2.7443 1.1187 29.8296
#
#
#
# Elastic Compliance Matrix: (Units=1/GPa)
#
#
# Indices 1 2 3 4 5 6 
#
# 1 0.015801 -0.003497 -0.001696 0.000936 -0.007121 0.000399
# 2 -0.003497 0.018375 0.002837 0.008014 0.001643 0.001002
# 3 -0.001696 0.002837 0.020708 0.007344 -0.006252 0.001283
# 4 0.000936 0.008014 0.007344 0.040891 0.003747 -0.002562
# 5 -0.007121 0.001643 -0.006252 0.003747 0.033083 -0.002195
# 6 0.000399 0.001002 0.001283 -0.002562 -0.002195 0.034048
#
#
# Mechanical properties :
#
#
# Convention : Reuss Voigt Hill
#
# Bulk Modulus (GPa) = 19.93209 27.84514 23.88861
# Shear Modulus (GPa) = 27.12352 31.15936 29.14144
#
# Velocity S-wave (km/s) = 3.52677 3.78006 3.65561
# Velocity P-wave (km/s) = 5.07193 5.64100 5.36402
#
# Compressibility (1/GPa) = 0.05017036
#
# Stress axis : x y z
#
# Youngs Moduli (GPa) = 63.28843 54.42147 48.29140
#
# Poissons Ratio (x) = 0.19034 0.08192
# Poissons Ratio (y) = 0.22135 -0.13701
# Poissons Ratio (z) = 0.10736 -0.15441
#
# Static dielectric constant tensor:
#      x y z
#    x 1.813840 -0.005400 0.058760 
#    y -0.005400 1.812330 0.002890 
#    z 0.058760 0.002890 1.797260 
# 
# From -- ./inp_files/270271.got.cif
#   From: 2010.05.17/outbox.cif.g08.bks.cpg/sg2_136_cif.got.tgz:270271.got - 2010.06.03 11:33:40.
