data_PCOD9036814
_publ_section_title
;
Structure prediction by ZEFSAII (Michael W. Deem and Ramdas Pophale) SiO2 
 PCOD9036814
Probable space group: P -1
;
_chemical_formula_sum "Si O2"
_cell_formula_units_Z 16
_cell_length_a 12.153056
_cell_length_b 14.796928
_cell_length_c 9.498002
_cell_angle_alpha 101.390204
_cell_angle_beta 90.339568
_cell_angle_gamma 150.542995
_cell_volume 765.297990
_symmetry_space_group_name_H-M "P -1"
_symmetry_group_IT_number 2
_symmetry_cell_setting 'triclinic'
loop_
_space_group_symop_operation_xyz
x,y,z
-x,-y,-z
loop_
_atom_site_type_symbol
_atom_site_label
_atom_site_fract_x
_atom_site_fract_y
_atom_site_fract_z
Si Si1 0.522320 0.869708 0.017149
Si Si2 0.350132 0.214489 0.481127
Si Si3 0.142570 0.708845 0.352937
Si Si4 0.849581 0.253383 0.962938
Si Si5 0.863657 0.756264 0.417850
Si Si6 0.788259 0.454209 0.717096
Si Si7 0.626676 0.400335 0.249322
Si Si8 0.151480 0.837476 0.640925
O O1 0.495511 0.747562 0.920961
O O2 0.690263 0.053204 0.967359
O O3 0.275315 0.743697 0.988174
O O4 0.646999 0.968308 0.199818
O O5 0.302818 0.285132 0.543648
O O6 0.536715 0.309931 0.623185
O O7 0.461908 0.287515 0.350250
O O8 0.094751 0.972397 0.410831
O O9 0.163999 0.760728 0.209385
O O10 0.213065 0.655591 0.342561
O O11 0.261595 0.861687 0.519717
O O12 0.858827 0.511165 0.325092
O O13 0.113737 0.451063 0.095818
O O14 0.726295 0.576457 0.271335
O O15 0.973867 0.781220 0.557524
O O16 0.995007 0.653182 0.681004
#
# Coordination Sequence:
#
# PCOD9036814 Si02
#       8
#     2   2   2   2   2   2   2   2
#     4  10  23  41  61  96 139 182 208 266 331 380
#     4  11  24  42  73  95 131 175 215 283 325 382
#     4  11  22  38  63 101 136 167 222 261 323 400
#     4  10  23  39  62  96 147 174 214 263 322 405
#     4  10  24  46  67 100 125 169 234 267 327 389
#     4  11  21  39  65  99 135 173 212 270 332 388
#     4  11  23  41  69  95 134 173 211 276 328 384
#     4  10  23  40  65  97 133 171 222 268 319 400
#
# _framework density 20.906889
#
# number of rings (size 3 to 8) (size 9 to 14) (size 15 to 20)
#    0.000    1.500    3.750    1.125    5.250    0.500 
#    0.000    0.625    0.000    4.500    0.000    0.000 
#    0.000    0.000    0.000    0.000    0.000    0.000 
#
# Total GULP energy -89517.079634 kJ/mol
# GULP energy per Si atom -5594.817477 kJ/mol
# Density = 2.085930 g / cm^3
# Si number density = 20.906889 Si / 1000 Ang^3
#
#
#
# Elastic Constant Matrix: (Units=GPa)
#
#
# Indices 1 2 3 4 5 6 
#
# 1 144.2338 49.2394 72.2379 4.7358 -17.0130 -8.2076
# 2 49.2394 85.3058 51.9571 1.4989 -22.2187 -1.1712
# 3 72.2379 51.9571 123.4131 27.1042 -24.7841 -12.7936
# 4 4.7358 1.4989 27.1042 24.0878 -9.3111 -3.6073
# 5 -17.0130 -22.2187 -24.7841 -9.3111 27.0755 5.1743
# 6 -8.2076 -1.1712 -12.7936 -3.6073 5.1743 32.5406
#
#
#
# Elastic Compliance Matrix: (Units=1/GPa)
#
#
# Indices 1 2 3 4 5 6 
#
# 1 0.010865 -0.002189 -0.006430 0.005710 0.000993 0.000609
# 2 -0.002189 0.021274 -0.008157 0.013069 0.013825 -0.003743
# 3 -0.006430 -0.008157 0.020160 -0.020348 0.000004 0.003754
# 4 0.005710 0.013069 -0.020348 0.069998 0.020048 -0.001518
# 5 0.000993 0.013825 0.000004 0.020048 0.056964 -0.006086
# 6 0.000609 -0.003743 0.003754 -0.001518 -0.006086 0.033025
#
#
# Mechanical properties :
#
#
# Convention : Reuss Voigt Hill
#
# Bulk Modulus (GPa) = 53.34003 77.75795 65.54899
# Shear Modulus (GPa) = 19.83454 28.70867 24.27160
#
# Velocity S-wave (km/s) = 3.08345 3.70965 3.41095
# Velocity P-wave (km/s) = 6.18429 7.45801 6.85081
#
# Compressibility (1/GPa) = 0.01874765
#
# Stress axis : x y z
#
# Youngs Moduli (GPa) = 92.03991 47.00580 49.60429
#
# Poissons Ratio (x) = 0.10288 0.31894
# Poissons Ratio (y) = 0.20144 0.40462
# Poissons Ratio (z) = 0.59179 0.38343
#
# Static dielectric constant tensor:
#      x y z
#    x 1.704370 -0.002640 0.000540 
#    y -0.002640 1.827360 0.019120 
#    z 0.000540 0.019120 1.776190 
# 
# From -- ./inp_files/273417.got.cif
#   From: 2010.05.17/outbox.cif.g08.bks.cpg/sg2_137_cif.got.tgz:273417.got - 2010.06.03 11:33:40.
