data_PCOD9036161
_publ_section_title
;
Structure prediction by ZEFSAII (Michael W. Deem and Ramdas Pophale) SiO2 
 PCOD9036161
Probable space group: P -1
;
_chemical_formula_sum "Si O2"
_cell_formula_units_Z 13
_cell_length_a 11.994861
_cell_length_b 4.942475
_cell_length_c 8.247702
_cell_angle_alpha 88.651298
_cell_angle_beta 68.120407
_cell_angle_gamma 85.380524
_cell_volume 452.254013
_symmetry_space_group_name_H-M "P -1"
_symmetry_group_IT_number 2
_symmetry_cell_setting 'triclinic'
loop_
_space_group_symop_operation_xyz
x,y,z
-x,-y,-z
loop_
_atom_site_type_symbol
_atom_site_label
_atom_site_fract_x
_atom_site_fract_y
_atom_site_fract_z
Si Si1 0.980994 0.850294 0.277803
Si Si2 0.868943 0.290212 0.082042
Si Si3 0.760046 0.564389 0.416752
Si Si4 0.765880 0.180753 0.706138
Si Si5 0.387991 0.880660 0.829278
Si Si6 0.387439 0.298985 0.078851
Si Si7 0.500000 0.500000 0.500000
O O1 0.867188 0.731312 0.426735
O O2 0.095555 0.896500 0.324505
O O3 0.937220 0.102140 0.183746
O O4 0.046446 0.644421 0.112148
O O5 0.805069 0.540223 0.208368
O O6 0.755884 0.135387 0.078394
O O7 0.762035 0.290484 0.523856
O O8 0.620687 0.654770 0.483001
O O9 0.705000 0.446585 0.831224
O O10 0.679796 0.945379 0.795064
O O11 0.484127 0.702979 0.896746
O O12 0.417178 0.741541 0.642097
O O13 0.408216 0.182498 0.884414
#
# Coordination Sequence:
#
# PCOD9036161 Si02
#       7
#     2   2   2   2   2   2   1
#     4  11  25  46  72 108 152 203 259 312 386 459
#     4  10  24  46  72 111 144 206 255 322 377 461
#     4  11  25  43  74 107 154 200 252 325 379 455
#     4  12  27  48  78 114 157 201 261 309 390 462
#     4  10  22  47  78 110 155 198 258 318 383 454
#     4  11  26  48  79 113 153 206 250 321 381 462
#     4  10  22  48  72 116 150 200 256 316 388 450
#
# _framework density 28.744903999999998
#
# number of rings (size 3 to 8) (size 9 to 14) (size 15 to 20)
#    0.000    1.231    3.077    0.923    4.308    5.538 
#    0.000    3.077    0.000    0.000    0.000    0.000 
#    0.000    0.000    0.000    0.000    0.000    0.000 
#
# Total GULP energy -72535.370248 kJ/mol
# GULP energy per Si atom -5579.643865 kJ/mol
# Density = 2.867948 g / cm^3
# Si number density = 28.744904 Si / 1000 Ang^3
#
#
#
# Elastic Constant Matrix: (Units=GPa)
#
#
# Indices 1 2 3 4 5 6 
#
# 1 263.5463 45.6968 43.2657 -7.5147 -22.4747 2.0272
# 2 45.6968 110.3836 25.7466 13.5025 6.8655 -7.4672
# 3 43.2657 25.7466 116.5823 28.4870 -12.0840 -0.8295
# 4 -7.5147 13.5025 28.4870 47.4496 7.4318 12.0309
# 5 -22.4747 6.8655 -12.0840 7.4318 71.5902 -7.4741
# 6 2.0272 -7.4672 -0.8295 12.0309 -7.4741 45.1798
#
#
#
# Elastic Compliance Matrix: (Units=1/GPa)
#
#
# Indices 1 2 3 4 5 6 
#
# 1 0.004578 -0.001910 -0.001787 0.002458 0.000954 -0.001051
# 2 -0.001910 0.010714 -0.000980 -0.003207 -0.001199 0.002494
# 3 -0.001787 -0.000980 0.011747 -0.008169 0.002651 0.002748
# 4 0.002458 -0.003207 -0.008169 0.030422 -0.004463 -0.009630
# 5 0.000954 -0.001199 0.002651 -0.004463 0.015668 0.003588
# 6 -0.001051 0.002494 0.002748 -0.009630 0.003588 0.025801
#
#
# Mechanical properties :
#
#
# Convention : Reuss Voigt Hill
#
# Bulk Modulus (GPa) = 56.53895 79.99227 68.26561
# Shear Modulus (GPa) = 43.79041 57.89747 50.84394
#
# Velocity S-wave (km/s) = 3.90733 4.49283 4.21027
# Velocity P-wave (km/s) = 6.32994 7.40289 6.88734
#
# Compressibility (1/GPa) = 0.01768692
#
# Stress axis : x y z
#
# Youngs Moduli (GPa) = 218.41890 93.33399 85.12471
#
# Poissons Ratio (x) = 0.17824 0.15208
# Poissons Ratio (y) = 0.41712 0.08344
# Poissons Ratio (z) = 0.39022 0.09149
#
# Static dielectric constant tensor:
#      x y z
#    x 2.238430 0.088390 0.108670 
#    y 0.088390 2.381960 0.071540 
#    z 0.108670 0.071540 2.448480 
# 
# From -- ./inp_files/57698.got.cif
#   From: 2010.05.17/outbox.cif.g08.bks.cpg/sg2_29_cif.got.tgz:57698.got - 2010.06.03 11:33:40.
