data_PCOD9036147
_publ_section_title
;
Structure prediction by ZEFSAII (Michael W. Deem and Ramdas Pophale) SiO2 
 PCOD9036147
Probable space group: P -1
;
_chemical_formula_sum "Si O2"
_cell_formula_units_Z 16
_cell_length_a 5.047881
_cell_length_b 24.408510
_cell_length_c 5.365059
_cell_angle_alpha 96.590303
_cell_angle_beta 90.327774
_cell_angle_gamma 113.743581
_cell_volume 600.103990
_symmetry_space_group_name_H-M "P -1"
_symmetry_group_IT_number 2
_symmetry_cell_setting 'triclinic'
loop_
_space_group_symop_operation_xyz
x,y,z
-x,-y,-z
loop_
_atom_site_type_symbol
_atom_site_label
_atom_site_fract_x
_atom_site_fract_y
_atom_site_fract_z
Si Si1 0.848853 0.738443 0.309988
Si Si2 0.073848 0.067225 0.630975
Si Si3 0.199152 0.635168 0.697088
Si Si4 0.119677 0.159990 0.284540
Si Si5 0.765954 0.510557 0.680198
Si Si6 0.463548 0.614772 0.175275
Si Si7 0.630315 0.242245 0.002127
Si Si8 0.419277 0.932411 0.058938
O O1 0.909933 0.781334 0.569067
O O2 0.773634 0.666775 0.289892
O O3 0.116090 0.768419 0.140475
O O4 0.554160 0.739436 0.195196
O O5 0.210489 0.120872 0.463682
O O6 0.288399 0.073737 0.865744
O O7 0.776002 0.072212 0.702313
O O8 0.000000 0.000000 0.500000
O O9 0.268788 0.623668 0.408329
O O10 0.223320 0.701996 0.778154
O O11 0.912822 0.581320 0.776743
O O12 0.427975 0.630186 0.897166
O O13 0.383014 0.187930 0.109962
O O14 0.810918 0.115757 0.148719
O O15 0.500000 0.500000 0.500000
O O16 0.643254 0.457808 0.856252
O O17 0.000000 0.500000 0.500000
O O18 0.500000 0.000000 0.000000
#
# Coordination Sequence:
#
# PCOD9036147 Si02
#       8
#     2   2   2   2   2   2   2   2
#     4  11  27  50  75 112 155 210 261 321 394 478
#     4  12  28  51  82 118 153 201 256 320 401 477
#     4  10  22  47  76 112 157 207 270 334 403 479
#     4  12  28  52  82 113 166 202 266 328 398 487
#     4  10  23  42  74 110 150 205 265 333 406 474
#     4  10  22  47  76 112 157 207 270 334 403 479
#     4  11  27  50  75 112 155 210 261 321 394 478
#     4  12  28  51  82 118 153 201 256 320 401 477
#
# _framework density 26.662042
#
# number of rings (size 3 to 8) (size 9 to 14) (size 15 to 20)
#    0.000    1.000    2.500    1.875    0.000   15.000 
#    0.000    5.625    0.000    0.000    0.000    0.000 
#    0.000    0.000    0.000    0.000    0.000    0.000 
#
# Total GULP energy -89643.719177 kJ/mol
# GULP energy per Si atom -5602.732449 kJ/mol
# Density = 2.660136 g / cm^3
# Si number density = 26.662042 Si / 1000 Ang^3
#
#
#
# Elastic Constant Matrix: (Units=GPa)
#
#
# Indices 1 2 3 4 5 6 
#
# 1 91.1004 33.1205 15.6527 7.4980 -3.6338 5.1399
# 2 33.1205 203.7793 41.3638 15.2666 0.9732 22.2338
# 3 15.6527 41.3638 55.6462 9.9492 0.6532 1.9756
# 4 7.4980 15.2666 9.9492 67.1523 6.1486 -1.1817
# 5 -3.6338 0.9732 0.6532 6.1486 39.2620 0.6789
# 6 5.1399 22.2338 1.9756 -1.1817 0.6789 41.5006
#
#
#
# Elastic Compliance Matrix: (Units=1/GPa)
#
#
# Indices 1 2 3 4 5 6 
#
# 1 0.012015 -0.001374 -0.002199 -0.000837 0.001326 -0.000693
# 2 -0.001374 0.006350 -0.004094 -0.000733 -0.000049 -0.003057
# 3 -0.002199 -0.004094 0.021950 -0.002036 -0.000172 0.001365
# 4 -0.000837 -0.000733 -0.002036 0.015701 -0.002503 0.001081
# 5 0.001326 -0.000049 -0.000172 -0.002503 0.026000 -0.000626
# 6 -0.000693 -0.003057 0.001365 0.001081 -0.000626 0.025796
#
#
# Mechanical properties :
#
#
# Convention : Reuss Voigt Hill
#
# Bulk Modulus (GPa) = 40.03131 58.97776 49.50453
# Shear Modulus (GPa) = 38.03030 46.94223 42.48627
#
# Velocity S-wave (km/s) = 3.78085 4.20055 3.99621
# Velocity P-wave (km/s) = 5.84009 6.75978 6.31670
#
# Compressibility (1/GPa) = 0.02498045
#
# Stress axis : x y z
#
# Youngs Moduli (GPa) = 83.22691 157.47268 45.55837
#
# Poissons Ratio (x) = 0.21645 0.10020
# Poissons Ratio (y) = 0.11440 0.18650
# Poissons Ratio (z) = 0.18305 0.64463
#
# Static dielectric constant tensor:
#      x y z
#    x 2.308240 0.501120 0.221470 
#    y 0.501120 3.417370 0.541250 
#    z 0.221470 0.541250 2.371300 
# 
# From -- ./inp_files/14513.got.cif
#   From: 2010.05.17/outbox.cif.g08.bks.cpg/sg2_8_cif.got.tgz:14513.got - 2010.06.03 11:33:40.
