data_PCOD9036726
_publ_section_title
;
Structure prediction by ZEFSAII (Michael W. Deem and Ramdas Pophale) SiO2 
 PCOD9036726
Probable space group: P -1
;
_chemical_formula_sum "Si O2"
_cell_formula_units_Z 14
_cell_length_a 12.527363
_cell_length_b 15.844184
_cell_length_c 9.122398
_cell_angle_alpha 39.989043
_cell_angle_beta 59.746495
_cell_angle_gamma 32.770766
_cell_volume 576.254241
_symmetry_space_group_name_H-M "P -1"
_symmetry_group_IT_number 2
_symmetry_cell_setting 'triclinic'
loop_
_space_group_symop_operation_xyz
x,y,z
-x,-y,-z
loop_
_atom_site_type_symbol
_atom_site_label
_atom_site_fract_x
_atom_site_fract_y
_atom_site_fract_z
Si Si1 0.377688 0.887647 0.021208
Si Si2 0.445095 0.347922 0.476025
Si Si3 0.756100 0.723578 0.920397
Si Si4 0.958818 0.148474 0.988322
Si Si5 0.992147 0.680547 0.005284
Si Si6 0.873863 0.016886 0.453391
Si Si7 0.653304 0.796061 0.467707
O O1 0.429893 0.791979 0.275755
O O2 0.619631 0.707709 0.035815
O O3 0.279219 0.118850 0.747840
O O4 0.190093 0.954871 0.006499
O O5 0.248817 0.619589 0.263167
O O6 0.622960 0.238702 0.378739
O O7 0.350629 0.296645 0.544099
O O8 0.594407 0.965119 0.628643
O O9 0.000000 0.500000 0.000000
O O10 0.787810 0.761250 0.011513
O O11 0.989595 0.231605 0.989584
O O12 0.915349 0.047068 0.229220
O O13 0.194785 0.407999 0.250630
O O14 0.969072 0.792254 0.728538
O O15 0.000000 0.000000 0.500000
#
# Coordination Sequence:
#
# PCOD9036726 Si02
#       7
#     2   2   2   2   2   2   2
#     4  10  20  32  48  78 105 133 171 204 259 302
#     4  11  18  32  51  79 110 137 159 205 256 309
#     4  10  22  37  52  71 102 137 177 217 250 294
#     4  10  21  30  52  82 108 136 162 202 254 314
#     4  10  19  34  53  76 106 135 165 210 250 309
#     4  10  17  33  49  78 110 136 166 194 251 312
#     4   9  21  31  52  79 102 135 166 206 265 304
#
# _framework density 24.294830000000001
#
# number of rings (size 3 to 8) (size 9 to 14) (size 15 to 20)
#    0.857    1.143    4.286    0.857    4.000    1.714 
#    0.000    0.000    0.000    0.857    0.000    2.000 
#    0.000    0.000    0.000    0.000    0.000    0.000 
#
# Total GULP energy -77973.592440 kJ/mol
# GULP energy per Si atom -5569.542317 kJ/mol
# Density = 2.423953 g / cm^3
# Si number density = 24.294830 Si / 1000 Ang^3
#
#
#
# Elastic Constant Matrix: (Units=GPa)
#
#
# Indices 1 2 3 4 5 6 
#
# 1 50.7162 38.6944 50.8216 0.8704 13.1277 -1.5095
# 2 38.6944 108.8428 79.4989 -5.8631 -3.4101 -39.6130
# 3 50.8216 79.4989 182.4060 -21.9491 17.3233 -31.1286
# 4 0.8704 -5.8631 -21.9491 40.2961 -16.9822 -2.6918
# 5 13.1277 -3.4101 17.3233 -16.9822 32.8755 -2.5802
# 6 -1.5095 -39.6130 -31.1286 -2.6918 -2.5802 37.5613
#
#
#
# Elastic Compliance Matrix: (Units=1/GPa)
#
#
# Indices 1 2 3 4 5 6 
#
# 1 0.087346 -0.050686 -0.013838 -0.048000 -0.063069 -0.069185
# 2 -0.050686 0.050221 0.001645 0.032504 0.045907 0.057773
# 3 -0.013838 0.001645 0.011239 0.009872 0.005784 0.011597
# 4 -0.048000 0.032504 0.009872 0.061508 0.052922 0.048575
# 5 -0.063069 0.045907 0.005784 0.052922 0.089410 0.060608
# 6 -0.069185 0.057773 0.011597 0.048575 0.060608 0.102028
#
#
# Mechanical properties :
#
#
# Convention : Reuss Voigt Hill
#
# Bulk Modulus (GPa) = 43.39068 75.55496 59.47282
# Shear Modulus (GPa) = 9.34243 33.67659 21.50951
#
# Velocity S-wave (km/s) = 1.96311 3.72716 2.97872
# Velocity P-wave (km/s) = 4.79971 7.04904 6.03018
#
# Compressibility (1/GPa) = 0.02304642
#
# Stress axis : x y z
#
# Youngs Moduli (GPa) = 11.44877 19.91192 88.97651
#
# Poissons Ratio (x) = 1.00925 1.23130
# Poissons Ratio (y) = 0.58029 -0.14633
# Poissons Ratio (z) = 0.15843 -0.03275
#
# Static dielectric constant tensor:
#      x y z
#    x 2.014460 0.090720 -0.018550 
#    y 0.090720 2.142480 0.022800 
#    z -0.018550 0.022800 1.895820 
# 
# From -- ./inp_files/450004.got.cif
#   From: 2010.05.17/outbox.cif.g08.bks.cpg/sg2_226_cif.got.tgz:450004.got - 2010.06.03 11:33:40.
