data_PCOD9036818
_publ_section_title
;
Structure prediction by ZEFSAII (Michael W. Deem and Ramdas Pophale) SiO2 
 PCOD9036818
Probable space group: P -1
;
_chemical_formula_sum "Si O2"
_cell_formula_units_Z 16
_cell_length_a 11.702419
_cell_length_b 9.908519
_cell_length_c 9.471191
_cell_angle_alpha 136.078092
_cell_angle_beta 83.501997
_cell_angle_gamma 97.968087
_cell_volume 754.312836
_symmetry_space_group_name_H-M "P -1"
_symmetry_group_IT_number 2
_symmetry_cell_setting 'triclinic'
loop_
_space_group_symop_operation_xyz
x,y,z
-x,-y,-z
loop_
_atom_site_type_symbol
_atom_site_label
_atom_site_fract_x
_atom_site_fract_y
_atom_site_fract_z
Si Si1 0.172735 0.466954 0.968858
Si Si2 0.827187 0.473273 0.318589
Si Si3 0.046775 0.835147 0.267472
Si Si4 0.420310 0.003975 0.875394
Si Si5 0.155399 0.961403 0.917383
Si Si6 0.959548 0.845568 0.690801
Si Si7 0.392192 0.564081 0.476360
Si Si8 0.406453 0.389336 0.030714
O O1 0.134885 0.678597 0.186221
O O2 0.282043 0.392604 0.976361
O O3 0.199024 0.493046 0.816887
O O4 0.062271 0.308694 0.877569
O O5 0.858386 0.252960 0.170676
O O6 0.928351 0.636426 0.471115
O O7 0.721177 0.495591 0.458009
O O8 0.100185 0.984361 0.254638
O O9 0.000000 0.000000 0.500000
O O10 0.288716 0.030617 0.956307
O O11 0.410818 0.797102 0.644877
O O12 0.453035 0.179778 0.898274
O O13 0.500000 0.000000 0.000000
O O14 0.094893 0.913236 0.738278
O O15 0.090103 0.131525 0.128258
O O16 0.500000 0.500000 0.500000
O O17 0.392781 0.480784 0.256777
O O18 0.500000 0.500000 0.000000
#
# Coordination Sequence:
#
# PCOD9036818 Si02
#       8
#     2   2   2   2   2   2   2   2
#     4  11  25  43  65  99 143 179 227 284 348 404
#     4  11  22  41  67  98 133 178 225 281 336 410
#     4  11  23  42  65  93 140 185 221 272 348 416
#     4  11  24  45  73  97 136 180 230 285 345 403
#     4  10  23  39  62  98 129 168 226 280 333 399
#     4  11  21  38  64  94 131 172 225 272 337 402
#     4  11  24  46  71 101 134 182 230 284 348 408
#     4  12  27  47  71 105 140 179 232 294 341 416
#
# _framework density 21.211359000000002
#
# number of rings (size 3 to 8) (size 9 to 14) (size 15 to 20)
#    0.000    1.000    3.750    2.625    1.750    4.500 
#    0.000    0.000    0.000    0.000    0.000    0.000 
#    0.000    0.000    0.000    0.000    0.000    0.000 
#
# Total GULP energy -89304.760172 kJ/mol
# GULP energy per Si atom -5581.547511 kJ/mol
# Density = 2.116308 g / cm^3
# Si number density = 21.211359 Si / 1000 Ang^3
#
#
#
# Elastic Constant Matrix: (Units=GPa)
#
#
# Indices 1 2 3 4 5 6 
#
# 1 86.5823 15.6526 10.2774 -7.5572 7.3527 -7.2074
# 2 15.6526 113.1764 13.3307 3.5371 10.4398 2.8242
# 3 10.2774 13.3307 88.1610 -12.8845 0.2715 8.3611
# 4 -7.5572 3.5371 -12.8845 28.3262 4.0060 9.2306
# 5 7.3527 10.4398 0.2715 4.0060 29.6147 -6.9383
# 6 -7.2074 2.8242 8.3611 9.2306 -6.9383 29.0283
#
#
#
# Elastic Compliance Matrix: (Units=1/GPa)
#
#
# Indices 1 2 3 4 5 6 
#
# 1 0.012571 -0.001530 -0.001027 0.002736 -0.002448 0.002111
# 2 -0.001530 0.009563 -0.001344 -0.001381 -0.003078 -0.001220
# 3 -0.001027 -0.001344 0.013675 0.008871 -0.002340 -0.007443
# 4 0.002736 -0.001381 0.008871 0.048330 -0.011462 -0.019849
# 5 -0.002448 -0.003078 -0.002340 -0.011462 0.040224 0.013625
# 6 0.002111 -0.001220 -0.007443 -0.019849 0.013625 0.046804
#
#
# Mechanical properties :
#
#
# Convention : Reuss Voigt Hill
#
# Bulk Modulus (GPa) = 35.70553 40.71567 38.21060
# Shear Modulus (GPa) = 26.55274 33.97111 30.26193
#
# Velocity S-wave (km/s) = 3.54194 4.00628 3.78125
# Velocity P-wave (km/s) = 5.79628 6.37474 6.09238
#
# Compressibility (1/GPa) = 0.02800686
#
# Stress axis : x y z
#
# Youngs Moduli (GPa) = 79.55084 104.56715 73.12373
#
# Poissons Ratio (x) = 0.15999 0.07509
# Poissons Ratio (y) = 0.12171 0.09831
# Poissons Ratio (z) = 0.08169 0.14058
#
# Static dielectric constant tensor:
#      x y z
#    x 1.818900 0.005680 -0.021330 
#    y 0.005680 1.851390 -0.062240 
#    z -0.021330 -0.062240 1.829290 
# 
# From -- ./inp_files/246093.got.cif
#   From: 2010.05.17/outbox.cif.g08.bks.cpg/sg2_124_cif.got.tgz:246093.got - 2010.06.03 11:33:40.
