data_PCOD9036977
_publ_section_title
;
Structure prediction by ZEFSAII (Michael W. Deem and Ramdas Pophale) SiO2 
 PCOD9036977
Probable space group: P -1
;
_chemical_formula_sum "Si O2"
_cell_formula_units_Z 16
_cell_length_a 7.898974
_cell_length_b 19.573530
_cell_length_c 5.421504
_cell_angle_alpha 123.111233
_cell_angle_beta 61.132518
_cell_angle_gamma 112.046363
_cell_volume 607.699591
_symmetry_space_group_name_H-M "P -1"
_symmetry_group_IT_number 2
_symmetry_cell_setting 'triclinic'
loop_
_space_group_symop_operation_xyz
x,y,z
-x,-y,-z
loop_
_atom_site_type_symbol
_atom_site_label
_atom_site_fract_x
_atom_site_fract_y
_atom_site_fract_z
Si Si1 0.598037 0.039473 0.256945
Si Si2 0.409735 0.294326 0.715336
Si Si3 0.556757 0.814913 0.131832
Si Si4 0.251724 0.695571 0.803845
Si Si5 0.738696 0.489419 0.509612
Si Si6 0.039768 0.197593 0.677948
Si Si7 0.709315 0.546840 0.143415
Si Si8 0.992722 0.888438 0.960314
O O1 0.555714 0.133854 0.493110
O O2 0.831311 0.037573 0.070297
O O3 0.500000 0.000000 0.500000
O O4 0.500000 0.000000 0.000000
O O5 0.374503 0.268996 0.972645
O O6 0.641752 0.309053 0.541575
O O7 0.335014 0.367499 0.765944
O O8 0.274084 0.215249 0.536405
O O9 0.391620 0.774447 0.978894
O O10 0.757726 0.878186 0.076595
O O11 0.256593 0.606405 0.744089
O O12 0.040154 0.720723 0.011660
O O13 0.809686 0.545639 0.336515
O O14 0.510066 0.501853 0.743484
O O15 0.819049 0.508649 0.767502
O O16 0.966766 0.173569 0.410442
O O17 0.978791 0.133610 0.815706
#
# Coordination Sequence:
#
# PCOD9036977 Si02
#       8
#     2   2   2   2   2   2   2   2
#     4  12  28  47  72 100 137 169 203 261 326 386
#     4  10  23  39  67  94 128 174 222 270 324 374
#     4  11  25  42  71  98 129 171 222 261 319 386
#     4  11  22  38  67  93 128 174 223 271 319 381
#     4   9  20  32  55  88 123 170 214 264 325 376
#     4  11  23  40  66 100 129 167 221 275 313 373
#     4   9  19  35  54  85 129 166 213 269 321 378
#     4  11  24  45  68  99 133 165 215 265 314 383
#
# _framework density 26.328800000000001
#
# number of rings (size 3 to 8) (size 9 to 14) (size 15 to 20)
#    0.000    1.500    2.500    1.500   10.500    1.000 
#    0.000    1.250    0.000    0.000    0.000    0.000 
#    0.000    0.000    0.000    0.000    0.000    0.000 
#
# Total GULP energy -89190.829009 kJ/mol
# GULP energy per Si atom -5574.426813 kJ/mol
# Density = 2.626887 g / cm^3
# Si number density = 26.328800 Si / 1000 Ang^3
#
#
#
# Elastic Constant Matrix: (Units=GPa)
#
#
# Indices 1 2 3 4 5 6 
#
# 1 81.8324 19.1316 31.1183 -16.5711 -11.2421 8.5634
# 2 19.1316 125.0031 39.5846 -28.0944 2.0705 -13.3946
# 3 31.1183 39.5846 104.0868 -21.1392 5.8602 -5.3453
# 4 -16.5711 -28.0944 -21.1392 31.0123 4.6954 -6.6277
# 5 -11.2421 2.0705 5.8602 4.6954 35.0328 -1.9861
# 6 8.5634 -13.3946 -5.3453 -6.6277 -1.9861 33.6096
#
#
#
# Elastic Compliance Matrix: (Units=1/GPa)
#
#
# Indices 1 2 3 4 5 6 
#
# 1 0.015826 -0.000922 -0.004273 0.003028 0.005205 -0.004175
# 2 -0.000922 0.011833 -0.001569 0.010871 -0.001808 0.006738
# 3 -0.004273 -0.001569 0.013280 0.006766 -0.004199 0.003662
# 4 0.003028 0.010871 0.006766 0.052501 -0.007013 0.014576
# 5 0.005205 -0.001808 -0.004199 -0.007013 0.031839 -0.002216
# 6 -0.004175 0.006738 0.003662 0.014576 -0.002216 0.036828
#
#
# Mechanical properties :
#
#
# Convention : Reuss Voigt Hill
#
# Bulk Modulus (GPa) = 36.48151 54.51013 45.49582
# Shear Modulus (GPa) = 27.06049 34.67013 30.86531
#
# Velocity S-wave (km/s) = 3.20940 3.63273 3.42760
# Velocity P-wave (km/s) = 5.25546 6.19227 5.74300
#
# Compressibility (1/GPa) = 0.02741114
#
# Stress axis : x y z
#
# Youngs Moduli (GPa) = 63.18818 84.50920 75.30051
#
# Poissons Ratio (x) = 0.07791 0.32177
# Poissons Ratio (y) = 0.05825 0.11813
# Poissons Ratio (z) = 0.27002 0.13258
#
# Static dielectric constant tensor:
#      x y z
#    x 2.182160 -0.066960 0.025670 
#    y -0.066960 2.169220 0.005780 
#    z 0.025670 0.005780 2.146980 
# 
# From -- ./inp_files/48810.got.cif
#   From: 2010.05.17/outbox.cif.g08.bks.cpg/sg2_25_cif.got.tgz:48810.got - 2010.06.03 11:33:40.
