data_PCOD9036710
_publ_section_title
;
Structure prediction by ZEFSAII (Michael W. Deem and Ramdas Pophale) SiO2 
 PCOD9036710
Probable space group: P -1
;
_chemical_formula_sum "Si O2"
_cell_formula_units_Z 14
_cell_length_a 12.014954
_cell_length_b 14.053643
_cell_length_c 10.829932
_cell_angle_alpha 149.251648
_cell_angle_beta 58.387770
_cell_angle_gamma 133.911864
_cell_volume 660.588469
_symmetry_space_group_name_H-M "P -1"
_symmetry_group_IT_number 2
_symmetry_cell_setting 'triclinic'
loop_
_space_group_symop_operation_xyz
x,y,z
-x,-y,-z
loop_
_atom_site_type_symbol
_atom_site_label
_atom_site_fract_x
_atom_site_fract_y
_atom_site_fract_z
Si Si1 0.324358 0.695683 0.539653
Si Si2 0.802800 0.669050 0.974967
Si Si3 0.847468 0.140590 0.054123
Si Si4 0.734301 0.741834 0.843401
Si Si5 0.183720 0.110767 0.538349
Si Si6 0.409211 0.522248 0.694116
Si Si7 0.666885 0.113463 0.885893
O O1 0.317008 0.584780 0.288335
O O2 0.195011 0.752382 0.691352
O O3 0.272249 0.485451 0.425377
O O4 0.493130 0.903935 0.715469
O O5 0.808500 0.815363 0.017978
O O6 0.975179 0.713147 0.933635
O O7 0.764467 0.745217 0.206305
O O8 0.724397 0.097907 0.971320
O O9 0.818070 0.916175 0.880079
O O10 0.554049 0.665963 0.865356
O O11 0.284539 0.284647 0.563420
O O12 0.219464 0.919081 0.303583
O O13 0.000000 0.000000 0.500000
O O14 0.500000 0.500000 0.500000
O O15 0.335271 0.665708 0.873870
#
# Coordination Sequence:
#
# PCOD9036710 Si02
#       7
#     2   2   2   2   2   2   2
#     4  10  23  40  67 106 138 182 237 289 344 413
#     4  10  25  45  64 102 149 185 224 294 356 413
#     4  12  21  43  68 105 142 183 239 292 342 412
#     4  10  23  38  69  99 134 183 233 280 346 401
#     4  12  26  50  69 102 149 186 229 295 356 419
#     4  12  26  46  74 108 136 184 244 290 345 422
#     4  12  25  42  75 101 138 186 240 285 353 416
#
# _framework density 21.193223
#
# number of rings (size 3 to 8) (size 9 to 14) (size 15 to 20)
#    0.857    0.000    4.286    3.000    0.000    2.857 
#    2.571    1.429    0.000    0.000    0.000    0.000 
#    0.000    0.000    0.000    0.000    0.000    0.000 
#
# Total GULP energy -78108.854311 kJ/mol
# GULP energy per Si atom -5579.203879 kJ/mol
# Density = 2.114499 g / cm^3
# Si number density = 21.193223 Si / 1000 Ang^3
#
#
#
# Elastic Constant Matrix: (Units=GPa)
#
#
# Indices 1 2 3 4 5 6 
#
# 1 95.2860 35.0717 46.3516 -5.6142 -5.1648 11.1439
# 2 35.0717 53.4267 16.3347 -3.3013 6.4661 12.5082
# 3 46.3516 16.3347 108.1866 -23.0350 -5.3699 -6.6739
# 4 -5.6142 -3.3013 -23.0350 39.7390 -4.0252 -5.1350
# 5 -5.1648 6.4661 -5.3699 -4.0252 38.3420 -7.4899
# 6 11.1439 12.5082 -6.6739 -5.1350 -7.4899 21.9728
#
#
#
# Elastic Compliance Matrix: (Units=1/GPa)
#
#
# Indices 1 2 3 4 5 6 
#
# 1 0.017807 -0.008015 -0.007533 -0.003355 0.000932 -0.007222
# 2 -0.008015 0.030815 -0.003931 -0.004497 -0.011110 -0.019508
# 3 -0.007533 -0.003931 0.016679 0.010950 0.006221 0.015803
# 4 -0.003355 -0.004497 0.010950 0.033985 0.009044 0.018612
# 5 0.000932 -0.011110 0.006221 0.009044 0.034096 0.021477
# 6 -0.007222 -0.019508 0.015803 0.018612 0.021477 0.076750
#
#
# Mechanical properties :
#
#
# Convention : Reuss Voigt Hill
#
# Bulk Modulus (GPa) = 37.96110 50.26837 44.11473
# Shear Modulus (GPa) = 19.38966 30.62018 25.00492
#
# Velocity S-wave (km/s) = 3.02801 3.80519 3.43863
# Velocity P-wave (km/s) = 5.49326 6.56327 6.05196
#
# Compressibility (1/GPa) = 0.02634276
#
# Stress axis : x y z
#
# Youngs Moduli (GPa) = 56.15896 32.45209 59.95524
#
# Poissons Ratio (x) = 0.26011 0.45162
# Poissons Ratio (y) = 0.45013 0.23568
# Poissons Ratio (z) = 0.42302 0.12757
#
# Static dielectric constant tensor:
#      x y z
#    x 1.807950 -0.011550 0.020440 
#    y -0.011550 1.765690 -0.005330 
#    z 0.020440 -0.005330 1.827660 
# 
# From -- ./inp_files/433470.got.cif
#   From: 2010.05.17/outbox.cif.g08.bks.cpg/sg2_217_cif.got.tgz:433470.got - 2010.06.03 11:33:40.
