data_PCOD9036950
_publ_section_title
;
Structure prediction by ZEFSAII (Michael W. Deem and Ramdas Pophale) SiO2 
 PCOD9036950
Probable space group: P -1
;
_chemical_formula_sum "Si O2"
_cell_formula_units_Z 12
_cell_length_a 10.428065
_cell_length_b 8.338381
_cell_length_c 9.779820
_cell_angle_alpha 43.813356
_cell_angle_beta 88.996264
_cell_angle_gamma 116.216685
_cell_volume 444.046316
_symmetry_space_group_name_H-M "P -1"
_symmetry_group_IT_number 2
_symmetry_cell_setting 'triclinic'
loop_
_space_group_symop_operation_xyz
x,y,z
-x,-y,-z
loop_
_atom_site_type_symbol
_atom_site_label
_atom_site_fract_x
_atom_site_fract_y
_atom_site_fract_z
Si Si1 0.091469 0.561872 0.318058
Si Si2 0.276065 0.914216 0.763864
Si Si3 0.413639 0.805401 0.257575
Si Si4 0.052428 0.195795 0.240313
Si Si5 0.169001 0.144667 0.992421
Si Si6 0.722661 0.226086 0.445556
O O1 0.225758 0.518412 0.378829
O O2 0.192297 0.568666 0.030210
O O3 0.000000 0.500000 0.500000
O O4 0.922972 0.382208 0.338919
O O5 0.342332 0.957035 0.581078
O O6 0.113917 0.888170 0.773861
O O7 0.439121 0.173985 0.689389
O O8 0.205336 0.929336 0.073850
O O9 0.368079 0.923203 0.315552
O O10 0.500000 0.000000 0.000000
O O11 0.134442 0.125126 0.167773
O O12 0.000000 0.000000 0.500000
O O13 0.280855 0.499145 0.736545
O O14 0.000000 0.000000 0.000000
#
# Coordination Sequence:
#
# PCOD9036950 Si02
#       6
#     2   2   2   2   2   2
#     4   9  20  37  65  87 119 165 205 245 312 377
#     4  10  23  42  63  93 134 159 213 258 316 374
#     4  11  24  37  62  96 125 162 209 263 318 360
#     4  10  23  39  66  96 122 169 209 261 309 376
#     4   9  19  37  62  89 119 161 216 248 303 376
#     4   9  20  42  64  86 125 174 203 254 313 378
#
# _framework density 27.024207000000001
#
# number of rings (size 3 to 8) (size 9 to 14) (size 15 to 20)
#    0.000    2.333    0.000    0.500   14.000    2.667 
#    3.000    2.500    0.000    0.000    0.000    0.000 
#    0.000    0.000    0.000    0.000    0.000    0.000 
#
# Total GULP energy -66962.795706 kJ/mol
# GULP energy per Si atom -5580.232976 kJ/mol
# Density = 2.696270 g / cm^3
# Si number density = 27.024207 Si / 1000 Ang^3
#
#
#
# Elastic Constant Matrix: (Units=GPa)
#
#
# Indices 1 2 3 4 5 6 
#
# 1 118.3852 70.2219 36.9863 -22.9170 -1.0318 22.3558
# 2 70.2219 122.4993 40.6234 -1.9157 12.6244 23.8009
# 3 36.9863 40.6234 167.5431 27.1286 -12.8892 11.3414
# 4 -22.9170 -1.9157 27.1286 46.1560 7.4784 6.0240
# 5 -1.0318 12.6244 -12.8892 7.4784 45.1073 -2.6447
# 6 22.3558 23.8009 11.3414 6.0240 -2.6447 61.9198
#
#
#
# Elastic Compliance Matrix: (Units=1/GPa)
#
#
# Indices 1 2 3 4 5 6 
#
# 1 0.016647 -0.007551 -0.003324 0.010430 -0.000392 -0.003530
# 2 -0.007551 0.013987 -0.001732 -0.001099 -0.004542 -0.002420
# 3 -0.003324 -0.001732 0.008596 -0.007613 0.004198 0.001211
# 4 0.010430 -0.001099 -0.007613 0.033199 -0.007456 -0.005497
# 5 -0.000392 -0.004542 0.004198 -0.007456 0.026041 0.002956
# 6 -0.003530 -0.002420 0.001211 -0.005497 0.002956 0.018794
#
#
# Mechanical properties :
#
#
# Convention : Reuss Voigt Hill
#
# Bulk Modulus (GPa) = 71.34770 78.23230 74.79000
# Shear Modulus (GPa) = 33.97896 48.00970 40.99433
#
# Velocity S-wave (km/s) = 3.54976 4.21948 3.89903
# Velocity P-wave (km/s) = 6.57722 7.26295 6.92858
#
# Compressibility (1/GPa) = 0.01401587
#
# Stress axis : x y z
#
# Youngs Moduli (GPa) = 60.07212 71.49298 116.33144
#
# Poissons Ratio (x) = 0.53983 0.38669
# Poissons Ratio (y) = 0.45360 0.20152
# Poissons Ratio (z) = 0.19968 0.12385
#
# Static dielectric constant tensor:
#      x y z
#    x 2.250810 0.017270 0.090630 
#    y 0.017270 2.290710 0.054330 
#    z 0.090630 0.054330 2.248780 
# 
# From -- ./inp_files/230706.got.cif
#   From: 2010.05.17/outbox.cif.g08.bks.cpg/sg2_116_cif.got.tgz:230706.got - 2010.06.03 11:33:40.
