data_PCOD9036163
_publ_section_title
;
Structure prediction by ZEFSAII (Michael W. Deem and Ramdas Pophale) SiO2 
 PCOD9036163
Probable space group: P -1
;
_chemical_formula_sum "Si O2"
_cell_formula_units_Z 12
_cell_length_a 13.198503
_cell_length_b 14.727057
_cell_length_c 5.009185
_cell_angle_alpha 60.604948
_cell_angle_beta 72.591530
_cell_angle_gamma 30.168760
_cell_volume 408.526481
_symmetry_space_group_name_H-M "P -1"
_symmetry_group_IT_number 2
_symmetry_cell_setting 'triclinic'
loop_
_space_group_symop_operation_xyz
x,y,z
-x,-y,-z
loop_
_atom_site_type_symbol
_atom_site_label
_atom_site_fract_x
_atom_site_fract_y
_atom_site_fract_z
Si Si1 0.533384 0.543135 0.156654
Si Si2 0.829224 0.741250 0.096036
Si Si3 0.684357 0.760253 0.684714
Si Si4 0.455892 0.813200 0.375273
Si Si5 0.865391 0.386186 0.330856
Si Si6 0.142186 0.982896 0.983899
O O1 0.500000 0.500000 0.500000
O O2 0.351949 0.783017 0.935407
O O3 0.500000 0.500000 0.000000
O O4 0.768314 0.384282 0.207702
O O5 0.843523 0.682577 0.465712
O O6 0.020127 0.629920 0.935719
O O7 0.657411 0.979655 0.904093
O O8 0.974784 0.813500 0.318586
O O9 0.578621 0.750579 0.638295
O O10 0.760323 0.705859 0.007216
O O11 0.500000 0.000000 0.500000
O O12 0.256623 0.908041 0.289700
O O13 0.656266 0.595503 0.364434
O O14 0.000000 0.000000 0.000000
#
# Coordination Sequence:
#
# PCOD9036163 Si02
#       6
#     2   2   2   2   2   2
#     4  11  26  48  76 107 147 199 256 320 380 452
#     4  11  24  46  80 110 155 207 252 317 389 461
#     4  10  22  47  78 112 156 203 253 317 387 458
#     4  10  24  45  73 113 157 200 261 318 386 459
#     4  11  26  46  76 117 156 202 265 317 390 461
#     4  11  24  47  79 107 154 203 260 318 387 455
#
# _framework density 29.373864999999999
#
# number of rings (size 3 to 8) (size 9 to 14) (size 15 to 20)
#    0.000    1.333    1.667    3.000    2.333    7.333 
#    0.000   16.667    0.000    4.000    0.000    0.000 
#    0.000    0.000    0.000    0.000    0.000    0.000 
#
# Total GULP energy -67078.569535 kJ/mol
# GULP energy per Si atom -5589.880795 kJ/mol
# Density = 2.930701 g / cm^3
# Si number density = 29.373865 Si / 1000 Ang^3
#
#
#
# Elastic Constant Matrix: (Units=GPa)
#
#
# Indices 1 2 3 4 5 6 
#
# 1 237.3038 47.9589 90.8681 11.9057 28.0819 -24.1284
# 2 47.9589 169.0375 9.2228 -21.5614 11.9266 -2.3129
# 3 90.8681 9.2228 153.1496 -8.9811 41.9602 -6.2573
# 4 11.9057 -21.5614 -8.9811 45.4057 2.8490 6.2920
# 5 28.0819 11.9266 41.9602 2.8490 66.7856 7.2546
# 6 -24.1284 -2.3129 -6.2573 6.2920 7.2546 55.9251
#
#
#
# Elastic Compliance Matrix: (Units=1/GPa)
#
#
# Indices 1 2 3 4 5 6 
#
# 1 0.006621 -0.002117 -0.003888 -0.003890 -0.000100 0.002784
# 2 -0.002117 0.007086 0.001434 0.004398 -0.001379 -0.000776
# 3 -0.003888 0.001434 0.010445 0.004132 -0.005336 -0.000222
# 4 -0.003890 0.004398 0.004132 0.026618 -0.002478 -0.003707
# 5 -0.000100 -0.001379 -0.005336 -0.002478 0.019033 -0.002887
# 6 0.002784 -0.000776 -0.000222 -0.003707 -0.002887 0.019817
#
#
# Mechanical properties :
#
#
# Convention : Reuss Voigt Hill
#
# Bulk Modulus (GPa) = 66.62787 95.06560 80.84673
# Shear Modulus (GPa) = 48.18505 61.05269 54.61887
#
# Velocity S-wave (km/s) = 4.05459 4.56397 4.31680
# Velocity P-wave (km/s) = 6.68218 7.75934 7.24082
#
# Compressibility (1/GPa) = 0.01500874
#
# Stress axis : x y z
#
# Youngs Moduli (GPa) = 151.04128 141.12363 95.73829
#
# Poissons Ratio (x) = 0.29881 0.37221
# Poissons Ratio (y) = 0.31981 -0.13725
# Poissons Ratio (z) = 0.58722 -0.20232
#
# Static dielectric constant tensor:
#      x y z
#    x 2.314630 -0.015740 -0.263080 
#    y -0.015740 2.529650 -0.144640 
#    z -0.263080 -0.144640 3.622790 
# 
# From -- ./inp_files/99051.got.cif
#   From: 2010.05.17/outbox.cif.g08.bks.cpg/sg2_50_cif.got.tgz:99051.got - 2010.06.03 11:33:40.
