data_PCOD9036855
_publ_section_title
;
Structure prediction by ZEFSAII (Michael W. Deem and Ramdas Pophale) SiO2 
 PCOD9036855
Probable space group: P -1
;
_chemical_formula_sum "Si O2"
_cell_formula_units_Z 16
_cell_length_a 16.913802
_cell_length_b 12.017185
_cell_length_c 16.817018
_cell_angle_alpha 158.094439
_cell_angle_beta 27.755660
_cell_angle_gamma 150.220275
_cell_volume 571.843326
_symmetry_space_group_name_H-M "P -1"
_symmetry_group_IT_number 2
_symmetry_cell_setting 'triclinic'
loop_
_space_group_symop_operation_xyz
x,y,z
-x,-y,-z
loop_
_atom_site_type_symbol
_atom_site_label
_atom_site_fract_x
_atom_site_fract_y
_atom_site_fract_z
Si Si1 0.410247 0.265295 0.528810
Si Si2 0.206642 0.648264 0.903698
Si Si3 0.339134 0.220160 0.245350
Si Si4 0.610637 0.782814 0.975083
Si Si5 0.805093 0.578366 0.788490
Si Si6 0.110803 0.182231 0.871000
Si Si7 0.973336 0.553022 0.350195
Si Si8 0.668193 0.954916 0.277122
O O1 0.321253 0.402548 0.625447
O O2 0.472564 0.953931 0.250606
O O3 0.239626 0.188471 0.687734
O O4 0.568725 0.525026 0.603042
O O5 0.235358 0.898567 0.972875
O O6 0.000000 0.500000 0.000000
O O7 0.315210 0.849068 0.015853
O O8 0.130929 0.193523 0.400700
O O9 0.442465 0.323534 0.138470
O O10 0.696794 0.524536 0.765852
O O11 0.662032 0.720199 0.054667
O O12 0.895998 0.419629 0.671763
O O13 0.968504 0.853330 0.792737
O O14 0.229040 0.184080 0.843027
O O15 0.040033 0.473613 0.151958
O O16 0.806963 0.262186 0.326046
O O17 0.500000 0.000000 0.500000
#
# Coordination Sequence:
#
# PCOD9036855 Si02
#       8
#     2   2   2   2   2   2   2   2
#     4  12  21  43  68  87 130 166 202 266 314 356
#     4  10  24  45  65  93 123 159 213 260 315 374
#     4  10  24  40  64  96 123 160 216 252 313 374
#     4  10  23  39  64  92 126 161 212 248 317 369
#     4   9  17  33  57  88 129 168 200 251 309 359
#     4   9  18  30  58  91 116 166 208 239 307 372
#     4   9  18  35  55  92 131 159 206 261 291 373
#     4   9  15  27  54  86 120 161 207 243 301 368
#
# _framework density 27.979692
#
# number of rings (size 3 to 8) (size 9 to 14) (size 15 to 20)
#    0.750    1.500    0.000    6.000    0.000    0.500 
#    2.250    1.250    0.000    9.750    0.000    0.000 
#    0.000    0.000    0.000    0.000    0.000    0.000 
#
# Total GULP energy -89167.424128 kJ/mol
# GULP energy per Si atom -5572.964008 kJ/mol
# Density = 2.791601 g / cm^3
# Si number density = 27.979692 Si / 1000 Ang^3
#
#
#
# Elastic Constant Matrix: (Units=GPa)
#
#
# Indices 1 2 3 4 5 6 
#
# 1 104.7541 32.0458 27.7457 2.2990 5.4082 11.7069
# 2 32.0458 89.8800 17.1702 -31.0378 6.5888 32.8936
# 3 27.7457 17.1702 122.3041 -12.5169 7.8610 2.4288
# 4 2.2990 -31.0378 -12.5169 53.0839 -10.0143 5.7279
# 5 5.4082 6.5888 7.8610 -10.0143 53.5214 -6.1752
# 6 11.7069 32.8936 2.4288 5.7279 -6.1752 38.5054
#
#
#
# Elastic Compliance Matrix: (Units=1/GPa)
#
#
# Indices 1 2 3 4 5 6 
#
# 1 0.012076 -0.006801 -0.002362 -0.005516 -0.000723 0.002992
# 2 -0.006801 0.031467 0.000028 0.021294 -0.002481 -0.028381
# 3 -0.002362 0.000028 0.008979 0.002133 -0.000720 -0.000304
# 4 -0.005516 0.021294 0.002133 0.034661 0.001622 -0.021544
# 5 -0.000723 -0.002481 -0.000720 0.001622 0.020091 0.005365
# 6 0.002992 -0.028381 -0.000304 -0.021544 0.005365 0.053390
#
#
# Mechanical properties :
#
#
# Convention : Reuss Voigt Hill
#
# Bulk Modulus (GPa) = 29.19620 52.31796 40.75708
# Shear Modulus (GPa) = 26.26691 45.02057 35.64374
#
# Velocity S-wave (km/s) = 3.06728 4.01564 3.57307
# Velocity P-wave (km/s) = 4.79601 6.34347 5.62323
#
# Compressibility (1/GPa) = 0.03425104
#
# Stress axis : x y z
#
# Youngs Moduli (GPa) = 82.80579 31.77884 111.37178
#
# Poissons Ratio (x) = 0.21613 0.26309
# Poissons Ratio (y) = 0.56318 -0.00307
# Poissons Ratio (z) = 0.19561 -0.00088
#
# Static dielectric constant tensor:
#      x y z
#    x 2.261770 -0.099210 -0.086100 
#    y -0.099210 2.386350 0.241130 
#    z -0.086100 0.241130 2.073310 
# 
# From -- ./inp_files/614201.got.cif
#   From: 2010.05.17/outbox.cif.g08.bks.cpg/sg2_308_cif.got.tgz:614201.got - 2010.06.03 11:33:40.
