data_PCOD9036991
_publ_section_title
;
Structure prediction by ZEFSAII (Michael W. Deem and Ramdas Pophale) SiO2 
 PCOD9036991
Probable space group: P -1
;
_chemical_formula_sum "Si O2"
_cell_formula_units_Z 14
_cell_length_a 11.040379
_cell_length_b 6.576335
_cell_length_c 14.057404
_cell_angle_alpha 96.434511
_cell_angle_beta 58.258278
_cell_angle_gamma 59.513175
_cell_volume 640.204577
_symmetry_space_group_name_H-M "P -1"
_symmetry_group_IT_number 2
_symmetry_cell_setting 'triclinic'
loop_
_space_group_symop_operation_xyz
x,y,z
-x,-y,-z
loop_
_atom_site_type_symbol
_atom_site_label
_atom_site_fract_x
_atom_site_fract_y
_atom_site_fract_z
Si Si1 0.783206 0.341888 0.928417
Si Si2 0.235383 0.518004 0.410901
Si Si3 0.389755 0.634849 0.185416
Si Si4 0.888290 0.744226 0.681117
Si Si5 0.415487 0.748253 0.621532
Si Si6 0.080132 0.386782 0.773264
Si Si7 0.900789 0.194598 0.143180
O O1 0.677889 0.451219 0.875881
O O2 0.909171 0.422646 0.895110
O O3 0.617384 0.447900 0.077176
O O4 0.943956 0.010285 0.849082
O O5 0.306354 0.629140 0.317607
O O6 0.183853 0.370858 0.361585
O O7 0.407336 0.314559 0.402967
O O8 0.043188 0.738406 0.562388
O O9 0.295899 0.939061 0.209573
O O10 0.995421 0.544733 0.716478
O O11 0.500000 0.500000 0.500000
O O12 0.291737 0.737870 0.747597
O O13 0.263062 0.062954 0.663555
O O14 0.130195 0.533930 0.824873
O O15 0.000000 0.000000 0.000000
#
# Coordination Sequence:
#
# PCOD9036991 Si02
#       7
#     2   2   2   2   2   2   2
#     4  10  23  39  67  99 130 178 224 278 341 398
#     4  11  25  42  66 101 134 174 230 281 339 411
#     4  11  22  41  66  98 135 172 223 281 338 403
#     4  11  24  42  70 100 134 178 224 286 346 397
#     4  11  27  45  71 101 140 186 231 283 350 411
#     4  11  24  46  70 102 141 179 232 286 345 413
#     4  11  24  44  69  99 142 187 229 281 344 415
#
# _framework density 21.868008
#
# number of rings (size 3 to 8) (size 9 to 14) (size 15 to 20)
#    0.000    1.143    2.857    2.143    2.000   12.000 
#    0.000    0.000    0.000    0.000    0.000    0.000 
#    0.000    0.000    0.000    0.000    0.000    0.000 
#
# Total GULP energy -78216.034725 kJ/mol
# GULP energy per Si atom -5586.859623 kJ/mol
# Density = 2.181824 g / cm^3
# Si number density = 21.868008 Si / 1000 Ang^3
#
#
#
# Elastic Constant Matrix: (Units=GPa)
#
#
# Indices 1 2 3 4 5 6 
#
# 1 92.4479 35.4627 34.1294 14.9272 -6.2467 -7.5865
# 2 35.4627 92.4931 28.9334 9.7045 -3.8550 2.3622
# 3 34.1294 28.9334 103.0866 4.4216 -10.2633 3.2764
# 4 14.9272 9.7045 4.4216 34.1938 -2.3644 3.1110
# 5 -6.2467 -3.8550 -10.2633 -2.3644 38.2110 3.7279
# 6 -7.5865 2.3622 3.2764 3.1110 3.7279 30.5236
#
#
#
# Elastic Compliance Matrix: (Units=1/GPa)
#
#
# Indices 1 2 3 4 5 6 
#
# 1 0.015084 -0.004173 -0.003729 -0.005357 0.000225 0.004991
# 2 -0.004173 0.013314 -0.002223 -0.001506 0.000136 -0.001692
# 3 -0.003729 -0.002223 0.011854 0.001135 0.002661 -0.002468
# 4 -0.005357 -0.001506 0.001135 0.032428 0.001757 -0.004856
# 5 0.000225 0.000136 0.002661 0.001757 0.027412 -0.003767
# 6 0.004991 -0.001692 -0.002468 -0.004856 -0.003767 0.035353
#
#
# Mechanical properties :
#
#
# Convention : Reuss Voigt Hill
#
# Bulk Modulus (GPa) = 49.99753 53.89764 51.94758
# Shear Modulus (GPa) = 30.79532 33.21916 32.00724
#
# Velocity S-wave (km/s) = 3.75672 3.90176 3.82993
# Velocity P-wave (km/s) = 6.45989 6.70810 6.58517
#
# Compressibility (1/GPa) = 0.02000099
#
# Stress axis : x y z
#
# Youngs Moduli (GPa) = 66.29532 75.10922 84.35994
#
# Poissons Ratio (x) = 0.31342 0.31460
# Poissons Ratio (y) = 0.27664 0.18757
# Poissons Ratio (z) = 0.24723 0.16700
#
# Static dielectric constant tensor:
#      x y z
#    x 1.816340 -0.017070 0.041240 
#    y -0.017070 1.812640 -0.030170 
#    z 0.041240 -0.030170 1.792800 
# 
# From -- ./inp_files/124377.got.cif
#   From: 2010.05.17/outbox.cif.g08.bks.cpg/sg2_63_cif.got.tgz:124377.got - 2010.06.03 11:33:40.
