data_PCOD9036962
_publ_section_title
;
Structure prediction by ZEFSAII (Michael W. Deem and Ramdas Pophale) SiO2 
 PCOD9036962
Probable space group: P -1
;
_chemical_formula_sum "Si O2"
_cell_formula_units_Z 14
_cell_length_a 12.393818
_cell_length_b 8.150696
_cell_length_c 10.269490
_cell_angle_alpha 97.465275
_cell_angle_beta 50.044156
_cell_angle_gamma 62.873553
_cell_volume 555.490825
_symmetry_space_group_name_H-M "P -1"
_symmetry_group_IT_number 2
_symmetry_cell_setting 'triclinic'
loop_
_space_group_symop_operation_xyz
x,y,z
-x,-y,-z
loop_
_atom_site_type_symbol
_atom_site_label
_atom_site_fract_x
_atom_site_fract_y
_atom_site_fract_z
Si Si1 0.055225 0.270990 0.831201
Si Si2 0.532952 0.399594 0.316333
Si Si3 0.306332 0.275524 0.166918
Si Si4 0.909920 0.463616 0.370749
Si Si5 0.582434 0.996226 0.301244
Si Si6 0.609381 0.635078 0.133825
Si Si7 0.015542 0.019740 0.144268
O O1 0.114465 0.371645 0.701599
O O2 0.183293 0.171924 0.855597
O O3 0.082524 0.064756 0.729747
O O4 0.812830 0.473418 0.048759
O O5 0.500000 0.500000 0.500000
O O6 0.473676 0.603368 0.291998
O O7 0.745051 0.184183 0.051995
O O8 0.088527 0.726021 0.702741
O O9 0.221214 0.402100 0.384590
O O10 0.135677 0.310134 0.231547
O O11 0.339158 0.409353 0.062929
O O12 0.500000 0.000000 0.000000
O O13 0.519600 0.747771 0.633097
O O14 0.535233 0.884567 0.232429
O O15 0.500000 0.000000 0.500000
O O16 0.000000 0.000000 0.000000
#
# Coordination Sequence:
#
# PCOD9036962 Si02
#       7
#     2   2   2   2   2   2   2
#     4  10  23  39  66  98 134 179 221 273 356 413
#     4  11  22  38  57  97 143 169 216 274 338 414
#     4  10  23  47  75  99 132 190 242 285 343 405
#     4  10  24  46  72 101 140 180 233 293 341 408
#     4  12  23  35  62 100 135 176 214 274 350 410
#     4  10  23  41  65  94 131 176 228 280 338 412
#     4  11  23  41  66 101 140 177 222 274 349 419
#
# _framework density 25.202936000000001
#
# number of rings (size 3 to 8) (size 9 to 14) (size 15 to 20)
#    0.000    1.429    2.857    2.143    6.000    0.000 
#    2.571   12.857    0.000   14.571    0.000    0.000 
#    0.000    0.000    0.000    0.000    0.000    0.000 
#
# Total GULP energy -78130.128285 kJ/mol
# GULP energy per Si atom -5580.723449 kJ/mol
# Density = 2.514557 g / cm^3
# Si number density = 25.202936 Si / 1000 Ang^3
#
#
#
# Elastic Constant Matrix: (Units=GPa)
#
#
# Indices 1 2 3 4 5 6 
#
# 1 119.2286 92.9710 28.4334 -16.9663 11.4580 44.4378
# 2 92.9710 170.1293 67.0434 -17.3407 6.3061 42.4928
# 3 28.4334 67.0434 111.5481 -8.4630 10.2881 26.2023
# 4 -16.9663 -17.3407 -8.4630 61.4375 8.2797 -12.7315
# 5 11.4580 6.3061 10.2881 8.2797 35.1075 2.5608
# 6 44.4378 42.4928 26.2023 -12.7315 2.5608 69.3667
#
#
#
# Elastic Compliance Matrix: (Units=1/GPa)
#
#
# Indices 1 2 3 4 5 6 
#
# 1 0.017828 -0.008868 0.002954 0.002168 -0.005127 -0.006517
# 2 -0.008868 0.012924 -0.005668 0.000085 0.002225 -0.000162
# 3 0.002954 -0.005668 0.012709 0.000852 -0.003657 -0.002929
# 4 0.002168 0.000085 0.000852 0.018105 -0.005371 0.001759
# 5 -0.005127 0.002225 -0.003657 -0.005371 0.032013 0.001135
# 6 -0.006517 -0.000162 -0.002929 0.001759 0.001135 0.020078
#
#
# Mechanical properties :
#
#
# Convention : Reuss Voigt Hill
#
# Bulk Modulus (GPa) = 49.27053 86.42241 67.84647
# Shear Modulus (GPa) = 34.82248 47.34624 41.08436
#
# Velocity S-wave (km/s) = 3.72113 4.33898 4.04188
# Velocity P-wave (km/s) = 6.16883 7.71151 6.98290
#
# Compressibility (1/GPa) = 0.02029611
#
# Stress axis : x y z
#
# Youngs Moduli (GPa) = 56.09231 77.37563 78.68693
#
# Poissons Ratio (x) = 0.68613 -0.23241
# Poissons Ratio (y) = 0.49740 0.44601
# Poissons Ratio (z) = -0.16567 0.43858
#
# Static dielectric constant tensor:
#      x y z
#    x 2.152990 -0.007200 -0.085720 
#    y -0.007200 2.087350 0.052440 
#    z -0.085720 0.052440 2.211810 
# 
# From -- ./inp_files/429405.got.cif
#   From: 2010.05.17/outbox.cif.g08.bks.cpg/sg2_215_cif.got.tgz:429405.got - 2010.06.03 11:33:40.
