data_PCOD9036533
_publ_section_title
;
Structure prediction by ZEFSAII (Michael W. Deem and Ramdas Pophale) SiO2 
 PCOD9036533
Probable space group: P -1
;
_chemical_formula_sum "Si O2"
_cell_formula_units_Z 14
_cell_length_a 18.388158
_cell_length_b 11.329460
_cell_length_c 10.358684
_cell_angle_alpha 130.165058
_cell_angle_beta 36.288950
_cell_angle_gamma 150.548537
_cell_volume 615.880378
_symmetry_space_group_name_H-M "P -1"
_symmetry_group_IT_number 2
_symmetry_cell_setting 'triclinic'
loop_
_space_group_symop_operation_xyz
x,y,z
-x,-y,-z
loop_
_atom_site_type_symbol
_atom_site_label
_atom_site_fract_x
_atom_site_fract_y
_atom_site_fract_z
Si Si1 0.996472 0.490620 0.155109
Si Si2 0.978908 0.153926 0.870767
Si Si3 0.047017 0.196092 0.194342
Si Si4 0.306582 0.036611 0.074120
Si Si5 0.343147 0.294913 0.688085
Si Si6 0.661511 0.579261 0.633630
Si Si7 0.282444 0.595590 0.343104
O O1 0.799881 0.359899 0.408365
O O2 0.162501 0.773011 0.158940
O O3 0.000000 0.500000 0.000000
O O4 0.024685 0.337917 0.032398
O O5 0.153660 0.308132 0.627122
O O6 0.956537 0.967054 0.834105
O O7 0.788724 0.014440 0.963764
O O8 0.124243 0.402500 0.324064
O O9 0.214263 0.315197 0.935304
O O10 0.824070 0.987235 0.318174
O O11 0.321780 0.218380 0.247559
O O12 0.516154 0.167588 0.845569
O O13 0.500000 0.500000 0.500000
O O14 0.468050 0.353361 0.670572
O O15 0.672019 0.514408 0.714348
#
# Coordination Sequence:
#
# PCOD9036533 Si02
#       7
#     2   2   2   2   2   2   2
#     4  10  23  38  54  94 135 162 196 252 310 367
#     4  11  21  38  60  91 130 161 199 249 311 363
#     4  11  23  41  65  93 123 157 209 261 300 368
#     4  11  21  36  60  92 125 159 201 255 305 363
#     4  11  24  39  62  96 123 158 201 262 317 355
#     4  12  20  38  65  96 122 157 204 262 308 358
#     4  12  22  39  66  96 124 161 207 255 310 360
#
# _framework density 22.731687000000001
#
# number of rings (size 3 to 8) (size 9 to 14) (size 15 to 20)
#    0.000    0.857    7.143    2.571    0.000    2.286 
#    2.571    0.000    0.000    6.857    0.000    0.000 
#    0.000    0.000    0.000    0.000    0.000    0.000 
#
# Total GULP energy -78257.351350 kJ/mol
# GULP energy per Si atom -5589.810811 kJ/mol
# Density = 2.267995 g / cm^3
# Si number density = 22.731687 Si / 1000 Ang^3
#
#
#
# Elastic Constant Matrix: (Units=GPa)
#
#
# Indices 1 2 3 4 5 6 
#
# 1 33.8519 22.9497 -7.0988 -5.7246 8.0046 19.2496
# 2 22.9497 63.7970 30.5011 -23.1728 -14.0910 30.7789
# 3 -7.0988 30.5011 129.0154 -15.7496 1.1118 9.5783
# 4 -5.7246 -23.1728 -15.7496 29.7858 -3.0085 -0.8422
# 5 8.0046 -14.0910 1.1118 -3.0085 9.8099 2.7781
# 6 19.2496 30.7789 9.5783 -0.8422 2.7781 40.3318
#
#
#
# Elastic Compliance Matrix: (Units=1/GPa)
#
#
# Indices 1 2 3 4 5 6 
#
# 1 0.025031 0.031359 0.000448 0.032959 0.045560 -0.038434
# 2 0.031359 -0.032424 0.006171 -0.024044 -0.084088 0.013602
# 3 0.000448 0.006171 0.008009 0.010207 0.012843 -0.007496
# 4 0.032959 -0.024044 0.010207 0.020923 -0.057471 0.004590
# 5 0.045560 -0.084088 0.012843 -0.057471 -0.087622 0.044211
# 6 -0.038434 0.013602 -0.007496 0.004590 0.044211 0.031589
#
#
# Mechanical properties :
#
#
# Convention : Reuss Voigt Hill
#
# Bulk Modulus (GPa) = 13.06013 35.48536 24.27274
# Shear Modulus (GPa) = -58.87429 28.00632 -15.43398
#
# Velocity S-wave (km/s) = -5.09469 3.51385 -2.60852
# Velocity P-wave (km/s) = 5.37122 5.66633 1.27617
#
# Compressibility (1/GPa) = 0.07656893
#
# Stress axis : x y z
#
# Youngs Moduli (GPa) = 39.95106 -30.84089 124.86473
#
# Poissons Ratio (x) = 0.96713 -0.05593
# Poissons Ratio (y) = -1.25281 -0.77049
# Poissons Ratio (z) = -0.01789 0.19031
#
# Static dielectric constant tensor:
#      x y z
#    x 1.900860 0.005050 0.036380 
#    y 0.005050 1.893450 0.011600 
#    z 0.036380 0.011600 1.872310 
# 
# From -- ./inp_files/255415.got.cif
#   From: 2010.05.17/outbox.cif.g08.bks.cpg/sg2_128_cif.got.tgz:255415.got - 2010.06.03 11:33:40.
