data_PCOD9036907
_publ_section_title
;
Structure prediction by ZEFSAII (Michael W. Deem and Ramdas Pophale) SiO2 
 PCOD9036907
Probable space group: P -1
;
_chemical_formula_sum "Si O2"
_cell_formula_units_Z 14
_cell_length_a 18.712259
_cell_length_b 11.909230
_cell_length_c 11.422291
_cell_angle_alpha 51.669223
_cell_angle_beta 26.791935
_cell_angle_gamma 36.909854
_cell_volume 646.608050
_symmetry_space_group_name_H-M "P -1"
_symmetry_group_IT_number 2
_symmetry_cell_setting 'triclinic'
loop_
_space_group_symop_operation_xyz
x,y,z
-x,-y,-z
loop_
_atom_site_type_symbol
_atom_site_label
_atom_site_fract_x
_atom_site_fract_y
_atom_site_fract_z
Si Si1 0.476510 0.504057 0.885530
Si Si2 0.019232 0.653749 0.413123
Si Si3 0.424868 0.007618 0.236967
Si Si4 0.701600 0.799842 0.478128
Si Si5 0.677523 0.095936 0.195515
Si Si6 0.106949 0.335990 0.153742
Si Si7 0.034370 0.858788 0.640191
O O1 0.431716 0.683101 0.772614
O O2 0.704728 0.308609 0.626275
O O3 0.500000 0.500000 0.000000
O O4 0.270803 0.541141 0.119880
O O5 0.000000 0.500000 0.500000
O O6 0.952074 0.705280 0.612865
O O7 0.835927 0.865992 0.477920
O O8 0.392320 0.157795 0.280492
O O9 0.632605 0.790977 0.130223
O O10 0.500000 0.000000 0.000000
O O11 0.506293 0.864018 0.642689
O O12 0.929195 0.576530 0.256865
O O13 0.724376 0.954729 0.320822
O O14 0.899326 0.984724 0.870420
O O15 0.054634 0.246190 0.193338
O O16 0.000000 0.000000 0.500000
#
# Coordination Sequence:
#
# PCOD9036907 Si02
#       7
#     2   2   2   2   2   2   2
#     4  12  23  42  65  95 134 173 216 280 336 379
#     4  11  22  39  66  94 126 170 219 273 329 383
#     4  10  23  39  65  96 128 168 224 273 322 389
#     4  11  22  41  66  95 139 174 217 272 328 401
#     4  11  24  40  63 100 137 174 216 270 335 392
#     4  11  21  38  63  95 131 171 214 271 330 387
#     4  12  23  36  65  95 133 166 221 273 327 387
#
# _framework density 21.651446
#
# number of rings (size 3 to 8) (size 9 to 14) (size 15 to 20)
#    0.000    0.857    7.143    0.000    2.000    1.714 
#    2.571    0.714    0.000    1.714    0.000    0.000 
#    0.000    0.000    0.000    0.000    0.000    0.000 
#
# Total GULP energy -77969.875003 kJ/mol
# GULP energy per Si atom -5569.276786 kJ/mol
# Density = 2.160217 g / cm^3
# Si number density = 21.651446 Si / 1000 Ang^3
#
#
#
# Elastic Constant Matrix: (Units=GPa)
#
#
# Indices 1 2 3 4 5 6 
#
# 1 49.3886 11.9662 20.9222 6.3916 -19.7225 -8.2227
# 2 11.9662 106.6468 60.0355 17.9079 -8.9305 -12.1429
# 3 20.9222 60.0355 154.6898 43.8231 -31.2858 -17.4872
# 4 6.3916 17.9079 43.8231 47.3134 -4.1066 -6.4474
# 5 -19.7225 -8.9305 -31.2858 -4.1066 37.4114 6.1757
# 6 -8.2227 -12.1429 -17.4872 -6.4474 6.1757 21.1837
#
#
#
# Elastic Compliance Matrix: (Units=1/GPa)
#
#
# Indices 1 2 3 4 5 6 
#
# 1 0.026754 -0.001352 0.000779 -0.001881 0.013267 0.005813
# 2 -0.001352 0.012362 -0.004735 0.000151 -0.002259 0.003357
# 3 0.000779 -0.004735 0.012812 -0.009042 0.008519 0.002930
# 4 -0.001881 0.000151 -0.009042 0.029561 -0.005693 0.002549
# 5 0.013267 -0.002259 0.008519 -0.005693 0.040103 -0.002536
# 6 0.005813 0.003357 0.002930 0.002549 -0.002536 0.055320
#
#
# Mechanical properties :
#
#
# Convention : Reuss Voigt Hill
#
# Bulk Modulus (GPa) = 24.20525 55.17479 39.69002
# Shear Modulus (GPa) = 24.83880 35.70180 30.27030
#
# Velocity S-wave (km/s) = 3.39073 4.06511 3.74314
# Velocity P-wave (km/s) = 5.15103 6.89725 6.08708
#
# Compressibility (1/GPa) = 0.04131334
#
# Stress axis : x y z
#
# Youngs Moduli (GPa) = 37.37723 80.89573 78.04953
#
# Poissons Ratio (x) = 0.10937 -0.06083
# Poissons Ratio (y) = 0.05053 0.36955
# Poissons Ratio (z) = -0.02913 0.38303
#
# Static dielectric constant tensor:
#      x y z
#    x 2.576040 0.505660 -0.064810 
#    y 0.505660 2.248060 -0.039590 
#    z -0.064810 -0.039590 1.838770 
# 
# From -- ./inp_files/464432.got.cif
#   From: 2010.05.17/outbox.cif.g08.bks.cpg/sg2_233_cif.got.tgz:464432.got - 2010.06.03 11:33:40.
