data_PCOD9036130
_publ_section_title
;
Structure prediction by ZEFSAII (Michael W. Deem and Ramdas Pophale) SiO2 
 PCOD9036130
Probable space group: P -1
;
_chemical_formula_sum "Si O2"
_cell_formula_units_Z 16
_cell_length_a 10.520642
_cell_length_b 19.631282
_cell_length_c 5.344745
_cell_angle_alpha 93.297065
_cell_angle_beta 89.191827
_cell_angle_gamma 31.999988
_cell_volume 579.854018
_symmetry_space_group_name_H-M "P -1"
_symmetry_group_IT_number 2
_symmetry_cell_setting 'triclinic'
loop_
_space_group_symop_operation_xyz
x,y,z
-x,-y,-z
loop_
_atom_site_type_symbol
_atom_site_label
_atom_site_fract_x
_atom_site_fract_y
_atom_site_fract_z
Si Si1 0.260673 0.788128 0.146495
Si Si2 0.352485 0.665045 0.605780
Si Si3 0.763887 0.044235 0.341283
Si Si4 0.645572 0.807266 0.309372
Si Si5 0.269649 0.095989 0.848220
Si Si6 0.766543 0.395749 0.086284
Si Si7 0.361770 0.295834 0.096934
Si Si8 0.133995 0.531899 0.283562
O O1 0.256944 0.735915 0.361358
O O2 0.505307 0.719989 0.124626
O O3 0.259140 0.751641 0.867816
O O4 0.037271 0.939247 0.255488
O O5 0.272615 0.623797 0.647739
O O6 0.639210 0.549422 0.571291
O O7 0.630840 0.086669 0.611383
O O8 0.755129 0.972816 0.203134
O O9 0.577777 0.182739 0.259559
O O10 0.672780 0.874966 0.363012
O O11 0.699041 0.749480 0.025698
O O12 0.870654 0.671699 0.424879
O O13 0.013145 0.243981 0.972250
O O14 0.500000 0.000000 0.000000
O O15 0.500000 0.500000 0.000000
O O16 0.811372 0.449629 0.970489
O O17 0.156925 0.440503 0.224236
#
# Coordination Sequence:
#
# PCOD9036130 Si02
#       8
#     2   2   2   2   2   2   2   2
#     4  11  26  44  75 107 146 184 246 300 362 436
#     4  10  22  47  75 107 140 191 240 308 360 426
#     4  12  26  44  72 104 145 189 240 302 368 437
#     4  11  25  44  71 101 144 190 238 301 368 437
#     4  11  22  44  70 105 143 183 247 301 372 431
#     4   9  19  42  75 100 143 187 244 304 363 426
#     4  11  25  46  69 104 142 194 239 298 361 436
#     4   9  22  46  69 106 144 187 249 293 361 441
#
# _framework density 27.593154999999999
#
# number of rings (size 3 to 8) (size 9 to 14) (size 15 to 20)
#    0.000    1.500    2.500    1.125    7.000    1.000 
#    4.500   10.000    0.000    0.000    0.000    0.000 
#    0.000    0.000    0.000    0.000    0.000    0.000 
#
# Total GULP energy -89351.625038 kJ/mol
# GULP energy per Si atom -5584.476565 kJ/mol
# Density = 2.753035 g / cm^3
# Si number density = 27.593155 Si / 1000 Ang^3
#
#
#
# Elastic Constant Matrix: (Units=GPa)
#
#
# Indices 1 2 3 4 5 6 
#
# 1 76.9643 29.8297 7.1109 12.9044 -9.0410 6.1471
# 2 29.8297 190.2310 31.1386 18.1209 5.4018 5.4958
# 3 7.1109 31.1386 91.4907 1.1902 -10.7455 8.8344
# 4 12.9044 18.1209 1.1902 50.5411 9.8471 -8.5755
# 5 -9.0410 5.4018 -10.7455 9.8471 30.6699 -1.2822
# 6 6.1471 5.4958 8.8344 -8.5755 -1.2822 66.9787
#
#
#
# Elastic Compliance Matrix: (Units=1/GPa)
#
#
# Indices 1 2 3 4 5 6 
#
# 1 0.015519 -0.002205 0.000558 -0.004780 0.006618 -0.001802
# 2 -0.002205 0.006132 -0.002125 -0.001214 -0.002094 -0.000216
# 3 0.000558 -0.002125 0.012369 -0.000926 0.005106 -0.001529
# 4 -0.004780 -0.001214 -0.000926 0.023821 -0.009020 0.003538
# 5 0.006618 -0.002094 0.005106 -0.009020 0.039547 -0.001507
# 6 -0.001802 -0.000216 -0.001529 0.003538 -0.001507 0.015739
#
#
# Mechanical properties :
#
#
# Convention : Reuss Voigt Hill
#
# Bulk Modulus (GPa) = 37.77068 54.98272 46.37670
# Shear Modulus (GPa) = 38.61104 49.01172 43.81138
#
# Velocity S-wave (km/s) = 3.74478 4.21910 3.98900
# Velocity P-wave (km/s) = 5.69350 6.61089 6.16927
#
# Compressibility (1/GPa) = 0.02647557
#
# Stress axis : x y z
#
# Youngs Moduli (GPa) = 64.43695 163.08623 80.84562
#
# Poissons Ratio (x) = 0.35966 -0.04510
# Poissons Ratio (y) = 0.14211 0.17178
# Poissons Ratio (z) = -0.03595 0.34652
#
# Static dielectric constant tensor:
#      x y z
#    x 2.259570 -0.024340 0.000930 
#    y -0.024340 2.214030 0.017900 
#    z 0.000930 0.017900 2.291700 
# 
# From -- ./inp_files/83190.got.cif
#   From: 2010.05.17/outbox.cif.g08.bks.cpg/sg2_42_cif.got.tgz:83190.got - 2010.06.03 11:33:40.
