data_PCOD9036848
_publ_section_title
;
Structure prediction by ZEFSAII (Michael W. Deem and Ramdas Pophale) SiO2 
 PCOD9036848
Probable space group: P -1
;
_chemical_formula_sum "Si O2"
_cell_formula_units_Z 14
_cell_length_a 7.844307
_cell_length_b 16.458048
_cell_length_c 5.344990
_cell_angle_alpha 111.364758
_cell_angle_beta 102.192159
_cell_angle_gamma 68.397487
_cell_volume 595.119314
_symmetry_space_group_name_H-M "P -1"
_symmetry_group_IT_number 2
_symmetry_cell_setting 'triclinic'
loop_
_space_group_symop_operation_xyz
x,y,z
-x,-y,-z
loop_
_atom_site_type_symbol
_atom_site_label
_atom_site_fract_x
_atom_site_fract_y
_atom_site_fract_z
Si Si1 0.332987 0.013945 0.649202
Si Si2 0.822138 0.125168 0.752946
Si Si3 0.511077 0.718057 0.341264
Si Si4 0.407405 0.446870 0.103091
Si Si5 0.005551 0.823742 0.642190
Si Si6 0.267637 0.629700 0.486960
Si Si7 0.369729 0.142735 0.195611
O O1 0.188122 0.975682 0.422823
O O2 0.500000 0.000000 0.500000
O O3 0.428637 0.933491 0.794536
O O4 0.291583 0.110317 0.886156
O O5 0.610993 0.195602 0.764809
O O6 0.921655 0.154982 0.579756
O O7 0.911674 0.132391 0.054573
O O8 0.363297 0.673737 0.353978
O O9 0.597878 0.760455 0.639496
O O10 0.649128 0.634108 0.137436
O O11 0.255177 0.530854 0.287528
O O12 0.575767 0.395788 0.280752
O O13 0.500000 0.500000 0.000000
O O14 0.786231 0.856579 0.646880
O O15 0.086201 0.712928 0.589805
#
# Coordination Sequence:
#
# PCOD9036848 Si02
#       7
#     2   2   2   2   2   2   2
#     4  10  24  42  61  85 117 163 200 250 293 369
#     4  10  23  39  64  84 124 156 207 241 302 350
#     4   9  18  36  58  86 112 163 196 244 290 362
#     4   9  16  31  56  87 112 151 202 238 286 352
#     4  11  23  41  60  94 119 160 196 255 296 353
#     4   9  18  32  59  84 117 151 200 244 287 354
#     4  10  24  39  59  87 120 153 203 249 305 350
#
# _framework density 23.524694
#
# number of rings (size 3 to 8) (size 9 to 14) (size 15 to 20)
#    0.000    2.286    1.429    0.000   10.000    1.143 
#    0.000    0.714    0.000    7.714    0.000    0.000 
#    0.000    0.000    0.000    0.000    0.000    0.000 
#
# Total GULP energy -78106.170915 kJ/mol
# GULP energy per Si atom -5579.012208 kJ/mol
# Density = 2.347115 g / cm^3
# Si number density = 23.524694 Si / 1000 Ang^3
#
#
#
# Elastic Constant Matrix: (Units=GPa)
#
#
# Indices 1 2 3 4 5 6 
#
# 1 56.6050 16.1768 16.6957 18.6430 -5.8359 -11.0286
# 2 16.1768 101.1063 50.9768 33.8580 15.7199 -15.4595
# 3 16.6957 50.9768 161.3167 49.1489 11.7834 -4.6810
# 4 18.6430 33.8580 49.1489 57.0303 10.6794 0.1654
# 5 -5.8359 15.7199 11.7834 10.6794 22.7499 -1.6713
# 6 -11.0286 -15.4595 -4.6810 0.1654 -1.6713 23.7477
#
#
#
# Elastic Compliance Matrix: (Units=1/GPa)
#
#
# Indices 1 2 3 4 5 6 
#
# 1 0.024808 -0.000759 0.000225 -0.010220 0.012452 0.012019
# 2 -0.000759 0.015449 -0.002331 -0.005759 -0.006309 0.008841
# 3 0.000225 -0.002331 0.008846 -0.006330 0.000087 0.000381
# 4 -0.010220 -0.005759 -0.006330 0.031861 -0.011110 -0.010747
# 5 0.012452 -0.006309 0.000087 -0.011110 0.057106 0.005789
# 6 0.012019 0.008841 0.000381 -0.010747 0.005789 0.054004
#
#
# Mechanical properties :
#
#
# Convention : Reuss Voigt Hill
#
# Bulk Modulus (GPa) = 23.05595 54.08071 38.56833
# Shear Modulus (GPa) = 23.55596 36.38416 29.97006
#
# Velocity S-wave (km/s) = 3.16781 3.93700 3.57316
# Velocity P-wave (km/s) = 4.81685 6.61101 5.78392
#
# Compressibility (1/GPa) = 0.04337275
#
# Stress axis : x y z
#
# Youngs Moduli (GPa) = 40.30925 64.73079 113.04857
#
# Poissons Ratio (x) = 0.04910 -0.02545
# Poissons Ratio (y) = 0.03058 0.26357
# Poissons Ratio (z) = -0.00907 0.15092
#
# Static dielectric constant tensor:
#      x y z
#    x 1.879450 -0.023020 -0.030640 
#    y -0.023020 2.032840 -0.010740 
#    z -0.030640 -0.010740 1.970820 
# 
# From -- ./inp_files/32614.got.cif
#   From: 2010.05.17/outbox.cif.g08.bks.cpg/sg2_17_cif.got.tgz:32614.got - 2010.06.03 11:33:40.
