data_PCOD9036346
_publ_section_title
;
Structure prediction by ZEFSAII (Michael W. Deem and Ramdas Pophale) SiO2 
 PCOD9036346
Probable space group: P -1
;
_chemical_formula_sum "Si O2"
_cell_formula_units_Z 14
_cell_length_a 18.722577
_cell_length_b 5.192188
_cell_length_c 7.796583
_cell_angle_alpha 116.178418
_cell_angle_beta 126.140849
_cell_angle_gamma 71.442458
_cell_volume 547.519693
_symmetry_space_group_name_H-M "P -1"
_symmetry_group_IT_number 2
_symmetry_cell_setting 'triclinic'
loop_
_space_group_symop_operation_xyz
x,y,z
-x,-y,-z
loop_
_atom_site_type_symbol
_atom_site_label
_atom_site_fract_x
_atom_site_fract_y
_atom_site_fract_z
Si Si1 0.303348 0.719766 0.410466
Si Si2 0.246010 0.244890 0.616228
Si Si3 0.093809 0.714060 0.525153
Si Si4 0.419081 0.420337 0.744607
Si Si5 0.420177 0.701640 0.257969
Si Si6 0.319679 0.190660 0.058150
Si Si7 0.999565 0.129069 0.232223
O O1 0.358851 0.677755 0.649545
O O2 0.373798 0.810653 0.397994
O O3 0.224008 0.961694 0.396237
O O4 0.281305 0.404585 0.219200
O O5 0.187497 0.534532 0.577735
O O6 0.346498 0.270750 0.704338
O O7 0.248178 0.193793 0.807416
O O8 0.028231 0.453935 0.346894
O O9 0.085254 0.840955 0.745841
O O10 0.065917 0.940879 0.402186
O O11 0.476586 0.279686 0.625076
O O12 0.359687 0.882686 0.087346
O O13 0.500000 0.500000 0.000000
O O14 0.400273 0.366324 0.149221
O O15 0.000000 0.000000 0.000000
#
# Coordination Sequence:
#
# PCOD9036346 Si02
#       7
#     2   2   2   2   2   2   2
#     4  10  25  41  65  91 131 183 242 291 342 400
#     4  12  26  41  67 101 147 175 231 292 348 401
#     4  10  25  44  74 115 144 177 233 286 341 435
#     4  12  23  41  67  93 134 194 240 290 349 394
#     4  10  23  43  62  86 127 181 248 282 334 393
#     4  10  24  44  61  93 128 178 233 294 342 397
#     4  10  22  50  81 107 142 186 222 275 359 436
#
# _framework density 25.569856000000001
#
# number of rings (size 3 to 8) (size 9 to 14) (size 15 to 20)
#    0.857    0.571    1.429    2.571    4.000    3.429 
#    2.571    0.000    0.000    0.000    0.000    0.000 
#    0.000    0.000    0.000    0.000    0.000    0.000 
#
# Total GULP energy -78124.306119 kJ/mol
# GULP energy per Si atom -5580.307580 kJ/mol
# Density = 2.551166 g / cm^3
# Si number density = 25.569856 Si / 1000 Ang^3
#
#
#
# Elastic Constant Matrix: (Units=GPa)
#
#
# Indices 1 2 3 4 5 6 
#
# 1 82.3938 12.8630 32.5039 6.6148 -23.5320 -12.1699
# 2 12.8630 133.7377 30.1687 -11.0870 -22.6060 -4.6535
# 3 32.5039 30.1687 100.8931 -1.4233 -41.2397 -6.8721
# 4 6.6148 -11.0870 -1.4233 33.8407 1.4249 -16.1114
# 5 -23.5320 -22.6060 -41.2397 1.4249 35.2824 3.9575
# 6 -12.1699 -4.6535 -6.8721 -16.1114 3.9575 51.6781
#
#
#
# Elastic Compliance Matrix: (Units=1/GPa)
#
#
# Indices 1 2 3 4 5 6 
#
# 1 0.015678 0.000163 -0.001399 -0.002448 0.008792 0.002084
# 2 0.000163 0.008711 -0.000590 0.003266 0.004711 0.001402
# 3 -0.001399 -0.000590 0.019180 0.000314 0.021021 0.000656
# 4 -0.002448 0.003266 0.000314 0.036577 -0.001919 0.011310
# 5 0.008792 0.004711 0.021021 -0.001919 0.061878 -0.000047
# 6 0.002084 0.001402 0.000656 0.011310 -0.000047 0.023585
#
#
# Mechanical properties :
#
#
# Convention : Reuss Voigt Hill
#
# Bulk Modulus (GPa) = 25.05137 52.01064 38.53100
# Shear Modulus (GPa) = 27.38728 40.25951 33.82340
#
# Velocity S-wave (km/s) = 3.27628 3.97229 3.64096
# Velocity P-wave (km/s) = 4.91228 6.43611 5.72512
#
# Compressibility (1/GPa) = 0.03991798
#
# Stress axis : x y z
#
# Youngs Moduli (GPa) = 63.78163 114.80274 52.13753
#
# Poissons Ratio (x) = -0.01874 0.07293
# Poissons Ratio (y) = -0.01041 0.03076
# Poissons Ratio (z) = 0.08922 0.06773
#
# Static dielectric constant tensor:
#      x y z
#    x 2.079370 0.005150 -0.041540 
#    y 0.005150 1.987840 0.089910 
#    z -0.041540 0.089910 2.173710 
# 
# From -- ./inp_files/324140.got.cif
#   From: 2010.05.17/outbox.cif.g08.bks.cpg/sg2_163_cif.got.tgz:324140.got - 2010.06.03 11:33:40.
