data_PCOD9036677
_publ_section_title
;
Structure prediction by ZEFSAII (Michael W. Deem and Ramdas Pophale) SiO2 
 PCOD9036677
Probable space group: P -1
;
_chemical_formula_sum "Si O2"
_cell_formula_units_Z 14
_cell_length_a 6.569772
_cell_length_b 8.965469
_cell_length_c 11.001643
_cell_angle_alpha 101.847673
_cell_angle_beta 76.984338
_cell_angle_gamma 72.687968
_cell_volume 576.346918
_symmetry_space_group_name_H-M "P -1"
_symmetry_group_IT_number 2
_symmetry_cell_setting 'triclinic'
loop_
_space_group_symop_operation_xyz
x,y,z
-x,-y,-z
loop_
_atom_site_type_symbol
_atom_site_label
_atom_site_fract_x
_atom_site_fract_y
_atom_site_fract_z
Si Si1 0.405905 0.195558 0.921196
Si Si2 0.366132 0.601106 0.153375
Si Si3 0.890536 0.587358 0.190265
Si Si4 0.948221 0.189004 0.396899
Si Si5 0.408457 0.161462 0.202459
Si Si6 0.761319 0.905916 0.415739
Si Si7 0.629146 0.411582 0.304565
O O1 0.630272 0.222215 0.849712
O O2 0.203147 0.344442 0.917334
O O3 0.420079 0.023607 0.837712
O O4 0.398870 0.193115 0.065410
O O5 0.457941 0.561319 0.272335
O O6 0.138887 0.573028 0.175801
O O7 0.500000 0.500000 0.000000
O O8 0.761182 0.745833 0.317640
O O9 0.842758 0.426276 0.205717
O O10 0.741603 0.357802 0.414296
O O11 0.165041 0.176269 0.284680
O O12 0.060538 0.169588 0.511300
O O13 0.854624 0.040818 0.369410
O O14 0.516682 0.279253 0.270284
O O15 0.500000 0.000000 0.500000
#
# Coordination Sequence:
#
# PCOD9036677 Si02
#       7
#     2   2   2   2   2   2   2
#     4  10  23  38  67  95 136 176 219 274 325 401
#     4  11  23  42  63  97 141 179 218 263 323 399
#     4  11  25  42  68  98 133 181 219 267 341 388
#     4  11  24  42  73  93 131 175 219 283 336 379
#     4  11  22  42  63 103 133 172 225 273 331 398
#     4  11  25  49  72  97 128 170 229 285 331 395
#     4  11  24  40  66  99 138 172 220 272 323 405
#
# _framework density 24.290925000000001
#
# number of rings (size 3 to 8) (size 9 to 14) (size 15 to 20)
#    0.000    1.143    1.429    4.286    2.000    5.143 
#    0.000    7.143    0.000    0.000    0.000    0.000 
#    0.000    0.000    0.000    0.000    0.000    0.000 
#
# Total GULP energy -78046.650380 kJ/mol
# GULP energy per Si atom -5574.760741 kJ/mol
# Density = 2.423564 g / cm^3
# Si number density = 24.290925 Si / 1000 Ang^3
#
#
#
# Elastic Constant Matrix: (Units=GPa)
#
#
# Indices 1 2 3 4 5 6 
#
# 1 167.0607 31.5395 39.8282 -10.2290 -6.4549 25.1077
# 2 31.5395 84.1142 26.3138 -22.6912 -4.4006 13.4579
# 3 39.8282 26.3138 70.3959 -20.2481 10.6222 -1.6020
# 4 -10.2290 -22.6912 -20.2481 43.0797 -0.4503 -3.1373
# 5 -6.4549 -4.4006 10.6222 -0.4503 43.6582 -9.0251
# 6 25.1077 13.4579 -1.6020 -3.1373 -9.0251 53.8587
#
#
#
# Elastic Compliance Matrix: (Units=1/GPa)
#
#
# Indices 1 2 3 4 5 6 
#
# 1 0.007784 -0.001195 -0.004586 -0.001161 0.001454 -0.003291
# 2 -0.001195 0.015692 -0.003798 0.006010 0.001807 -0.002824
# 3 -0.004586 -0.003798 0.021137 0.007022 -0.005468 0.003208
# 4 -0.001161 0.006010 0.007022 0.029455 -0.000799 0.000830
# 5 0.001454 0.001807 -0.005468 -0.000799 0.025221 0.002888
# 6 -0.003291 -0.002824 0.003208 0.000830 0.002888 0.021435
#
#
# Mechanical properties :
#
#
# Convention : Reuss Voigt Hill
#
# Bulk Modulus (GPa) = 39.28212 57.43710 48.35961
# Shear Modulus (GPa) = 33.69985 43.04529 38.37257
#
# Velocity S-wave (km/s) = 3.72875 4.21417 3.97887
# Velocity P-wave (km/s) = 5.89446 6.88301 6.40783
#
# Compressibility (1/GPa) = 0.02545687
#
# Stress axis : x y z
#
# Youngs Moduli (GPa) = 128.46290 63.72475 47.30937
#
# Poissons Ratio (x) = 0.07614 0.21695
# Poissons Ratio (y) = 0.15349 0.17969
# Poissons Ratio (z) = 0.58910 0.24204
#
# Static dielectric constant tensor:
#      x y z
#    x 1.948810 -0.037000 -0.009700 
#    y -0.037000 1.993600 0.023950 
#    z -0.009700 0.023950 2.001570 
# 
# From -- ./inp_files/98534.got.cif
#   From: 2010.05.17/outbox.cif.g08.bks.cpg/sg2_50_cif.got.tgz:98534.got - 2010.06.03 11:33:40.
