data_PCOD9036992
_publ_section_title
;
Structure prediction by ZEFSAII (Michael W. Deem and Ramdas Pophale) SiO2 
 PCOD9036992
Probable space group: P -1
;
_chemical_formula_sum "Si O2"
_cell_formula_units_Z 16
_cell_length_a 13.003968
_cell_length_b 22.144830
_cell_length_c 7.645508
_cell_angle_alpha 113.940979
_cell_angle_beta 97.287075
_cell_angle_gamma 26.430937
_cell_volume 728.735528
_symmetry_space_group_name_H-M "P -1"
_symmetry_group_IT_number 2
_symmetry_cell_setting 'triclinic'
loop_
_space_group_symop_operation_xyz
x,y,z
-x,-y,-z
loop_
_atom_site_type_symbol
_atom_site_label
_atom_site_fract_x
_atom_site_fract_y
_atom_site_fract_z
Si Si1 0.272761 0.430543 0.842303
Si Si2 0.694349 0.547979 0.516300
Si Si3 0.920212 0.123308 0.164272
Si Si4 0.871708 0.621327 0.387996
Si Si5 0.830755 0.040882 0.601838
Si Si6 0.780293 0.829452 0.966933
Si Si7 0.751193 0.798215 0.274375
Si Si8 0.739938 0.002218 0.207777
O O1 0.390502 0.380759 0.617403
O O2 0.091405 0.472666 0.799160
O O3 0.517875 0.257474 0.816370
O O4 0.101297 0.592661 0.086008
O O5 0.420907 0.675220 0.686660
O O6 0.848635 0.514914 0.619976
O O7 0.955443 0.344027 0.299945
O O8 0.029959 0.069613 0.322492
O O9 0.000000 0.000000 0.000000
O O10 0.077610 0.076130 0.003623
O O11 0.751568 0.741245 0.351226
O O12 0.597425 0.785635 0.650410
O O13 0.804837 0.002312 0.399790
O O14 0.000000 0.000000 0.500000
O O15 0.713273 0.813066 0.076207
O O16 0.500000 0.000000 0.000000
O O17 0.816200 0.880709 0.114071
O O18 0.500000 0.000000 0.500000
#
# Coordination Sequence:
#
# PCOD9036992 Si02
#       8
#     2   2   2   2   2   2   2   2
#     4  10  23  39  68 100 137 176 233 292 349 409
#     4  11  23  43  70  97 140 177 230 294 353 409
#     4  12  25  44  73 101 138 190 230 292 357 410
#     4  11  22  43  66 106 135 174 239 293 345 418
#     4  11  22  46  67  99 144 179 235 290 341 418
#     4  11  23  46  68  99 143 183 230 294 351 427
#     4  11  22  40  63  95 137 181 219 283 364 401
#     4  11  24  44  72 103 140 188 232 286 357 420
#
# _framework density 21.955839000000001
#
# number of rings (size 3 to 8) (size 9 to 14) (size 15 to 20)
#    0.000    1.000    5.000    1.500    1.750    2.500 
#    2.250    0.625    0.000    0.000    0.000    0.000 
#    0.000    0.000    0.000    0.000    0.000    0.000 
#
# Total GULP energy -89155.966049 kJ/mol
# GULP energy per Si atom -5572.247878 kJ/mol
# Density = 2.190587 g / cm^3
# Si number density = 21.955839 Si / 1000 Ang^3
#
#
#
# Elastic Constant Matrix: (Units=GPa)
#
#
# Indices 1 2 3 4 5 6 
#
# 1 55.7618 37.6271 30.7923 -10.3390 -6.1756 4.7511
# 2 37.6271 118.4366 49.4922 12.6818 -12.8250 -4.7332
# 3 30.7923 49.4922 125.8290 14.0667 -18.3513 -1.7212
# 4 -10.3390 12.6818 14.0667 32.7609 10.5933 -0.0468
# 5 -6.1756 -12.8250 -18.3513 10.5933 48.4858 3.4912
# 6 4.7511 -4.7332 -1.7212 -0.0468 3.4912 37.6967
#
#
#
# Elastic Compliance Matrix: (Units=1/GPa)
#
#
# Indices 1 2 3 4 5 6 
#
# 1 0.031546 -0.009918 -0.006603 0.018143 -0.004704 -0.005064
# 2 -0.009918 0.013618 -0.001366 -0.008975 0.003599 0.002553
# 3 -0.006603 -0.001366 0.011756 -0.008215 0.004990 0.000725
# 4 0.018143 -0.008975 -0.008215 0.047577 -0.013388 -0.002490
# 5 -0.004704 0.003599 0.004990 -0.013388 0.025873 -0.001140
# 6 -0.005064 0.002553 0.000725 -0.002490 -0.001140 0.027622
#
#
# Mechanical properties :
#
#
# Convention : Reuss Voigt Hill
#
# Bulk Modulus (GPa) = 47.28611 59.53896 53.41254
# Shear Modulus (GPa) = 24.89856 35.92973 30.41415
#
# Velocity S-wave (km/s) = 3.37119 4.04970 3.72592
# Velocity P-wave (km/s) = 6.06110 7.00309 6.54905
#
# Compressibility (1/GPa) = 0.02114786
#
# Stress axis : x y z
#
# Youngs Moduli (GPa) = 31.69945 73.43350 85.05941
#
# Poissons Ratio (x) = 0.72828 0.56161
# Poissons Ratio (y) = 0.31438 0.11621
# Poissons Ratio (z) = 0.20930 0.10032
#
# Static dielectric constant tensor:
#      x y z
#    x 2.156730 0.243140 0.202960 
#    y 0.243140 2.086100 0.205990 
#    z 0.202960 0.205990 2.074270 
# 
# From -- ./inp_files/282097.got.cif
#   From: 2010.05.17/outbox.cif.g08.bks.cpg/sg2_142_cif.got.tgz:282097.got - 2010.06.03 11:33:40.
