data_PCOD9036166
_publ_section_title
;
Structure prediction by ZEFSAII (Michael W. Deem and Ramdas Pophale) SiO2 
 PCOD9036166
Probable space group: P -1
;
_chemical_formula_sum "Si O2"
_cell_formula_units_Z 10
_cell_length_a 7.340656
_cell_length_b 14.238023
_cell_length_c 6.961034
_cell_angle_alpha 115.133184
_cell_angle_beta 41.823756
_cell_angle_gamma 129.596845
_cell_volume 372.043634
_symmetry_space_group_name_H-M "P -1"
_symmetry_group_IT_number 2
_symmetry_cell_setting 'triclinic'
loop_
_space_group_symop_operation_xyz
x,y,z
-x,-y,-z
loop_
_atom_site_type_symbol
_atom_site_label
_atom_site_fract_x
_atom_site_fract_y
_atom_site_fract_z
Si Si1 0.867670 0.587037 0.221047
Si Si2 0.467508 0.202180 0.455833
Si Si3 0.620358 0.635328 0.094530
Si Si4 0.484546 0.222729 0.001856
Si Si5 0.265607 0.958073 0.962434
O O1 0.500000 0.500000 0.500000
O O2 0.128053 0.690131 0.247335
O O3 0.870811 0.653853 0.080415
O O4 0.000000 0.500000 0.000000
O O5 0.642715 0.128630 0.294028
O O6 0.603086 0.329497 0.575228
O O7 0.100680 0.116107 0.744090
O O8 0.500000 0.500000 0.000000
O O9 0.676676 0.715953 0.932476
O O10 0.350145 0.086025 0.917313
O O11 0.435842 0.218804 0.267243
O O12 0.500000 0.000000 0.000000
#
# Coordination Sequence:
#
# PCOD9036166 Si02
#       5
#     2   2   2   2   2
#     4  12  27  51  72 107 154 198 255 314 369 457
#     4  11  25  49  76 115 154 195 258 314 376 466
#     4  12  27  49  79 115 152 210 259 310 389 457
#     4  11  25  51  82 113 157 204 251 325 386 452
#     4  10  22  47  79 111 151 201 247 315 390 447
#
# _framework density 26.87857
#
# number of rings (size 3 to 8) (size 9 to 14) (size 15 to 20)
#    0.000    0.800    2.000    6.000    0.000    4.000 
#    7.200    0.000    0.000    1.200    0.000    0.000 
#    0.000    0.000    0.000    0.000    0.000    0.000 
#
# Total GULP energy -56036.047216 kJ/mol
# GULP energy per Si atom -5603.604722 kJ/mol
# Density = 2.681739 g / cm^3
# Si number density = 26.878570 Si / 1000 Ang^3
#
#
#
# Elastic Constant Matrix: (Units=GPa)
#
#
# Indices 1 2 3 4 5 6 
#
# 1 166.9045 75.5767 51.3131 -6.5424 -3.5217 -26.0833
# 2 75.5767 260.4127 95.5588 39.9580 -13.3945 -29.6376
# 3 51.3131 95.5588 192.2801 13.6599 -13.9317 0.3761
# 4 -6.5424 39.9580 13.6599 56.9567 11.4680 -6.5643
# 5 -3.5217 -13.3945 -13.9317 11.4680 54.2078 -3.5485
# 6 -26.0833 -29.6376 0.3761 -6.5643 -3.5485 52.9711
#
#
#
# Elastic Compliance Matrix: (Units=1/GPa)
#
#
# Indices 1 2 3 4 5 6 
#
# 1 0.007906 -0.001928 -0.001437 0.003128 -0.000787 0.003159
# 2 -0.001928 0.006152 -0.002116 -0.004162 0.001870 0.002117
# 3 -0.001437 -0.002116 0.006778 -0.000765 0.001160 -0.001957
# 4 0.003128 -0.004162 -0.000765 0.022342 -0.005643 0.001607
# 5 -0.000787 0.001870 0.001160 -0.005643 0.020437 0.001320
# 6 0.003159 0.002117 -0.001957 0.001607 0.001320 0.021920
#
#
# Mechanical properties :
#
#
# Convention : Reuss Voigt Hill
#
# Bulk Modulus (GPa) = 101.27465 118.27716 109.77590
# Shear Modulus (GPa) = 50.10655 59.30371 54.70513
#
# Velocity S-wave (km/s) = 4.32230 4.70228 4.51629
# Velocity P-wave (km/s) = 7.91645 8.57798 8.25384
#
# Compressibility (1/GPa) = 0.00987414
#
# Stress axis : x y z
#
# Youngs Moduli (GPa) = 126.48548 162.55410 147.53752
#
# Poissons Ratio (x) = 0.31341 0.21203
# Poissons Ratio (y) = 0.24387 0.31215
# Poissons Ratio (z) = 0.18177 0.34392
#
# Static dielectric constant tensor:
#      x y z
#    x 2.084610 0.036500 0.012670 
#    y 0.036500 2.165990 -0.021420 
#    z 0.012670 -0.021420 2.182520 
# 
# From -- ./inp_files/89597.got.cif
#   From: 2010.05.17/outbox.cif.g08.bks.cpg/sg2_45_cif.got.tgz:89597.got - 2010.06.03 11:33:40.
