data_PCOD9036691
_publ_section_title
;
Structure prediction by ZEFSAII (Michael W. Deem and Ramdas Pophale) SiO2 
 PCOD9036691
Probable space group: P -1
;
_chemical_formula_sum "Si O2"
_cell_formula_units_Z 14
_cell_length_a 12.175725
_cell_length_b 7.023958
_cell_length_c 12.456826
_cell_angle_alpha 121.043581
_cell_angle_beta 46.609529
_cell_angle_gamma 135.540561
_cell_volume 541.553317
_symmetry_space_group_name_H-M "P -1"
_symmetry_group_IT_number 2
_symmetry_cell_setting 'triclinic'
loop_
_space_group_symop_operation_xyz
x,y,z
-x,-y,-z
loop_
_atom_site_type_symbol
_atom_site_label
_atom_site_fract_x
_atom_site_fract_y
_atom_site_fract_z
Si Si1 0.148912 0.514313 0.982533
Si Si2 0.651973 0.884119 0.896679
Si Si3 0.678829 0.588029 0.474183
Si Si4 0.598406 0.367537 0.820223
Si Si5 0.371549 0.250831 0.740281
Si Si6 0.185260 0.866812 0.371884
Si Si7 0.886582 0.353903 0.296613
O O1 0.038016 0.366212 0.123281
O O2 0.276549 0.833561 0.013780
O O3 0.263797 0.392173 0.838897
O O4 0.000000 0.500000 0.000000
O O5 0.722626 0.693679 0.816672
O O6 0.699704 0.968148 0.765182
O O7 0.455310 0.693398 0.035216
O O8 0.500000 0.500000 0.500000
O O9 0.578084 0.437509 0.608871
O O10 0.783974 0.459449 0.328214
O O11 0.816377 0.910874 0.493308
O O12 0.413739 0.232836 0.831452
O O13 0.698191 0.227983 0.678902
O O14 0.260648 0.961065 0.671562
O O15 0.995550 0.588454 0.381245
#
# Coordination Sequence:
#
# PCOD9036691 Si02
#       7
#     2   2   2   2   2   2   2
#     4  11  24  42  68 101 146 181 226 291 357 400
#     4  10  23  38  68 103 144 179 233 277 347 413
#     4  12  25  49  72  96 139 192 233 286 347 420
#     4  11  23  39  72 105 141 183 233 285 345 413
#     4  12  25  45  73 104 138 184 243 280 343 426
#     4  11  24  45  69 103 143 182 232 287 351 407
#     4  11  26  43  69 102 143 178 231 291 348 407
#
# _framework density 25.851564
#
# number of rings (size 3 to 8) (size 9 to 14) (size 15 to 20)
#    0.000    0.857    1.429    5.143   10.000    0.000 
#    0.000    1.429    0.000    0.000    0.000    0.000 
#    0.000    0.000    0.000    0.000    0.000    0.000 
#
# Total GULP energy -78279.517103 kJ/mol
# GULP energy per Si atom -5591.394079 kJ/mol
# Density = 2.579272 g / cm^3
# Si number density = 25.851564 Si / 1000 Ang^3
#
#
#
# Elastic Constant Matrix: (Units=GPa)
#
#
# Indices 1 2 3 4 5 6 
#
# 1 115.8425 47.3526 18.0014 10.1499 -11.7207 -1.7184
# 2 47.3526 175.2433 35.3314 42.5700 -1.8138 6.1282
# 3 18.0014 35.3314 88.2124 14.1787 -15.5619 -7.6498
# 4 10.1499 42.5700 14.1787 42.6862 -4.4708 -3.7283
# 5 -11.7207 -1.8138 -15.5619 -4.4708 31.4494 8.9070
# 6 -1.7184 6.1282 -7.6498 -3.7283 8.9070 41.1666
#
#
#
# Elastic Compliance Matrix: (Units=1/GPa)
#
#
# Indices 1 2 3 4 5 6 
#
# 1 0.010139 -0.002846 -0.000457 0.000954 0.003498 0.000091
# 2 -0.002846 0.008894 -0.002291 -0.007846 -0.002201 -0.002103
# 3 -0.000457 -0.002291 0.013741 -0.001426 0.005876 0.001475
# 4 0.000954 -0.007846 -0.001426 0.032079 0.002842 0.003233
# 5 0.003498 -0.002201 0.005876 0.002842 0.038104 -0.006421
# 6 0.000091 -0.002103 0.001475 0.003233 -0.006421 0.026565
#
#
# Mechanical properties :
#
#
# Convention : Reuss Voigt Hill
#
# Bulk Modulus (GPa) = 46.32896 64.51879 55.42387
# Shear Modulus (GPa) = 33.80551 41.63464 37.72008
#
# Velocity S-wave (km/s) = 3.62011 4.01749 3.82396
# Velocity P-wave (km/s) = 5.95261 6.82143 6.40178
#
# Compressibility (1/GPa) = 0.02158477
#
# Stress axis : x y z
#
# Youngs Moduli (GPa) = 98.63374 112.43460 72.77456
#
# Poissons Ratio (x) = 0.31999 0.03329
# Poissons Ratio (y) = 0.28071 0.16673
# Poissons Ratio (z) = 0.04511 0.25759
#
# Static dielectric constant tensor:
#      x y z
#    x 2.142390 -0.013410 0.087280 
#    y -0.013410 2.024210 -0.051610 
#    z 0.087280 -0.051610 2.075440 
# 
# From -- ./inp_files/511225.got.cif
#   From: 2010.05.17/outbox.cif.g08.bks.cpg/sg2_256_cif.got.tgz:511225.got - 2010.06.03 11:33:40.
