data_PCOD9036257
_publ_section_title
;
Structure prediction by ZEFSAII (Michael W. Deem and Ramdas Pophale) SiO2 
 PCOD9036257
Probable space group: P -1
;
_chemical_formula_sum "Si O2"
_cell_formula_units_Z 12
_cell_length_a 7.726611
_cell_length_b 6.781303
_cell_length_c 10.792395
_cell_angle_alpha 88.985184
_cell_angle_beta 99.549763
_cell_angle_gamma 57.588937
_cell_volume 466.901588
_symmetry_space_group_name_H-M "P -1"
_symmetry_group_IT_number 2
_symmetry_cell_setting 'triclinic'
loop_
_space_group_symop_operation_xyz
x,y,z
-x,-y,-z
loop_
_atom_site_type_symbol
_atom_site_label
_atom_site_fract_x
_atom_site_fract_y
_atom_site_fract_z
Si Si1 0.833258 0.275417 0.452611
Si Si2 0.440463 0.313938 0.399125
Si Si3 0.251966 0.638693 0.971891
Si Si4 0.634784 0.049663 0.683159
Si Si5 0.980696 0.138255 0.818904
Si Si6 0.813836 0.606545 0.254965
O O1 0.629762 0.312088 0.354963
O O2 0.725801 0.439780 0.559039
O O3 0.912806 0.407082 0.376606
O O4 0.000000 0.000000 0.500000
O O5 0.566073 0.146597 0.533905
O O6 0.911243 0.763439 0.254126
O O7 0.175728 0.515527 0.871293
O O8 0.500000 0.500000 0.000000
O O9 0.161443 0.665470 0.098041
O O10 0.160311 0.903972 0.911648
O O11 0.830074 0.061953 0.744996
O O12 0.430441 0.219709 0.739066
O O13 0.661147 0.797943 0.688855
#
# Coordination Sequence:
#
# PCOD9036257 Si02
#       6
#     2   2   2   2   2   2
#     4  10  23  47  74 112 153 203 256 308 377 451
#     4   9  22  46  71 106 157 200 254 312 366 446
#     4  11  25  52  77 115 153 194 256 321 382 455
#     4  10  22  48  74 109 153 206 252 313 377 450
#     4  11  26  50  77 113 154 199 256 313 389 453
#     4  11  25  48  80 113 150 206 254 318 377 453
#
# _framework density 25.701349
#
# number of rings (size 3 to 8) (size 9 to 14) (size 15 to 20)
#    0.000    1.667    1.667    0.500    4.667    0.667 
#   15.000   11.667    0.000    0.000    0.000    0.000 
#    0.000    0.000    0.000    0.000    0.000    0.000 
#
# Total GULP energy -67289.554859 kJ/mol
# GULP energy per Si atom -5607.462905 kJ/mol
# Density = 2.564285 g / cm^3
# Si number density = 25.701349 Si / 1000 Ang^3
#
#
#
# Elastic Constant Matrix: (Units=GPa)
#
#
# Indices 1 2 3 4 5 6 
#
# 1 215.1556 77.3114 50.4893 -13.9900 -3.1826 9.7776
# 2 77.3114 172.5387 35.1447 -12.6523 0.1042 4.7136
# 3 50.4893 35.1447 52.2022 -7.3332 7.9976 4.4531
# 4 -13.9900 -12.6523 -7.3332 48.5486 5.9177 6.7944
# 5 -3.1826 0.1042 7.9976 5.9177 40.3965 2.3777
# 6 9.7776 4.7136 4.4531 6.7944 2.3777 51.3699
#
#
#
# Elastic Compliance Matrix: (Units=1/GPa)
#
#
# Indices 1 2 3 4 5 6 
#
# 1 0.006641 -0.001840 -0.005275 0.000560 0.001536 -0.000783
# 2 -0.001840 0.007313 -0.003049 0.000903 0.000319 -0.000191
# 3 -0.005275 -0.003049 0.027765 0.002809 -0.006245 -0.001206
# 4 0.000560 0.000903 0.002809 0.022307 -0.003593 -0.003217
# 5 0.001536 0.000319 -0.006245 -0.003593 0.026669 -0.000539
# 6 -0.000783 -0.000191 -0.001206 -0.003217 -0.000539 0.020188
#
#
# Mechanical properties :
#
#
# Convention : Reuss Voigt Hill
#
# Bulk Modulus (GPa) = 46.74829 85.08749 65.91789
# Shear Modulus (GPa) = 36.14231 46.52642 41.33437
#
# Velocity S-wave (km/s) = 3.75406 4.25934 4.01466
# Velocity P-wave (km/s) = 6.08433 7.57413 6.86974
#
# Compressibility (1/GPa) = 0.02139116
#
# Stress axis : x y z
#
# Youngs Moduli (GPa) = 150.56927 136.75036 36.01646
#
# Poissons Ratio (x) = 0.25162 0.18998
# Poissons Ratio (y) = 0.27704 0.10983
# Poissons Ratio (z) = 0.79421 0.41700
#
# Static dielectric constant tensor:
#      x y z
#    x 2.047430 0.005150 -0.024240 
#    y 0.005150 2.024010 -0.004740 
#    z -0.024240 -0.004740 2.081160 
# 
# From -- ./inp_files/420912.got.cif
#   From: 2010.05.17/outbox.cif.g08.bks.cpg/sg2_211_cif.got.tgz:420912.got - 2010.06.03 11:33:40.
