data_PCOD9036435
_publ_section_title
;
Structure prediction by ZEFSAII (Michael W. Deem and Ramdas Pophale) SiO2 
 PCOD9036435
Probable space group: P -1
;
_chemical_formula_sum "Si O2"
_cell_formula_units_Z 13
_cell_length_a 12.944513
_cell_length_b 9.590806
_cell_length_c 5.488854
_cell_angle_alpha 71.533065
_cell_angle_beta 61.143914
_cell_angle_gamma 58.180640
_cell_volume 505.347850
_symmetry_space_group_name_H-M "P -1"
_symmetry_group_IT_number 2
_symmetry_cell_setting 'triclinic'
loop_
_space_group_symop_operation_xyz
x,y,z
-x,-y,-z
loop_
_atom_site_type_symbol
_atom_site_label
_atom_site_fract_x
_atom_site_fract_y
_atom_site_fract_z
Si Si1 0.296048 0.484273 0.955344
Si Si2 0.980587 0.656186 0.165361
Si Si3 0.033572 0.684266 0.596161
Si Si4 0.500000 0.500000 0.500000
Si Si5 0.672168 0.962829 0.075859
Si Si6 0.644639 0.824135 0.674808
Si Si7 0.299238 0.716574 0.182867
O O1 0.323113 0.363482 0.214455
O O2 0.340313 0.623394 0.921270
O O3 0.143553 0.562396 0.021901
O O4 0.400142 0.407775 0.665707
O O5 0.940905 0.507391 0.311351
O O6 0.956796 0.748554 0.395792
O O7 0.950414 0.755950 0.894752
O O8 0.164526 0.708172 0.414721
O O9 0.406734 0.628169 0.316955
O O10 0.512338 0.069765 0.215468
O O11 0.707516 0.855270 0.342266
O O12 0.723839 0.099500 0.930533
O O13 0.692949 0.868184 0.849838
#
# Coordination Sequence:
#
# PCOD9036435 Si02
#       7
#     2   2   2   1   2   2   2
#     4  11  23  35  58  84 116 144 188 235 279 326
#     4   9  18  33  53  80 109 141 181 228 278 324
#     4   9  18  33  53  80 109 141 181 228 278 324
#     4  12  22  32  54  92 116 140 180 246 280 322
#     4  10  23  37  53  75 112 153 184 217 272 339
#     4  10  23  37  53  75 112 153 184 217 272 339
#     4  11  23  35  58  84 116 144 188 235 279 326
#
# _framework density 25.724851999999998
#
# number of rings (size 3 to 8) (size 9 to 14) (size 15 to 20)
#    0.000    1.846    3.077    0.462    4.308    0.000 
#    0.000    0.000    0.000    1.846    0.000    0.000 
#    0.000    0.000    0.000    0.000    0.000    0.000 
#
# Total GULP energy -72559.309668 kJ/mol
# GULP energy per Si atom -5581.485359 kJ/mol
# Density = 2.566630 g / cm^3
# Si number density = 25.724852 Si / 1000 Ang^3
#
#
#
# Elastic Constant Matrix: (Units=GPa)
#
#
# Indices 1 2 3 4 5 6 
#
# 1 115.0148 31.6489 69.2250 -7.0694 0.3626 13.9945
# 2 31.6489 39.0698 31.0385 -13.4123 3.8132 9.2536
# 3 69.2250 31.0385 170.1313 -16.4981 -1.7925 7.4087
# 4 -7.0694 -13.4123 -16.4981 43.6821 -6.9055 -6.4325
# 5 0.3626 3.8132 -1.7925 -6.9055 67.1322 4.6218
# 6 13.9945 9.2536 7.4087 -6.4325 4.6218 32.7991
#
#
#
# Elastic Compliance Matrix: (Units=1/GPa)
#
#
# Indices 1 2 3 4 5 6 
#
# 1 0.013585 -0.007699 -0.004195 -0.002173 0.000244 -0.003137
# 2 -0.007699 0.038300 -0.002815 0.008549 -0.000981 -0.005070
# 3 -0.004195 -0.002815 0.008234 0.001796 0.000518 0.001003
# 4 -0.002173 0.008549 0.001796 0.026624 0.002104 0.003035
# 5 0.000244 -0.000981 0.000518 0.002104 0.015297 -0.001688
# 6 -0.003137 -0.005070 0.001003 0.003035 -0.001688 0.033864
#
#
# Mechanical properties :
#
#
# Convention : Reuss Voigt Hill
#
# Bulk Modulus (GPa) = 32.57217 65.33787 48.95502
# Shear Modulus (GPa) = 28.48109 41.54291 35.01200
#
# Velocity S-wave (km/s) = 3.33099 4.02293 3.69320
# Velocity P-wave (km/s) = 5.24244 6.85803 6.10392
#
# Compressibility (1/GPa) = 0.03070105
#
# Stress axis : x y z
#
# Youngs Moduli (GPa) = 73.60950 26.10987 121.44602
#
# Poissons Ratio (x) = 0.20103 0.50942
# Poissons Ratio (y) = 0.56674 0.34189
# Poissons Ratio (z) = 0.30876 0.07350
#
# Static dielectric constant tensor:
#      x y z
#    x 2.067810 0.043390 0.091600 
#    y 0.043390 1.525230 -0.534760 
#    z 0.091600 -0.534760 1.260600 
# 
# From -- ./inp_files/61423.got.cif
#   From: 2010.05.17/outbox.cif.g08.bks.cpg/sg2_31_cif.got.tgz:61423.got - 2010.06.03 11:33:40.
