data_PCOD9036154
_publ_section_title
;
Structure prediction by ZEFSAII (Michael W. Deem and Ramdas Pophale) SiO2 
 PCOD9036154
Probable space group: P -1
;
_chemical_formula_sum "Si O2"
_cell_formula_units_Z 12
_cell_length_a 5.475530
_cell_length_b 11.098764
_cell_length_c 8.369218
_cell_angle_alpha 81.420562
_cell_angle_beta 82.389781
_cell_angle_gamma 88.556005
_cell_volume 498.482095
_symmetry_space_group_name_H-M "P -1"
_symmetry_group_IT_number 2
_symmetry_cell_setting 'triclinic'
loop_
_space_group_symop_operation_xyz
x,y,z
-x,-y,-z
loop_
_atom_site_type_symbol
_atom_site_label
_atom_site_fract_x
_atom_site_fract_y
_atom_site_fract_z
Si Si1 0.735393 0.254097 0.910807
Si Si2 0.086794 0.696817 0.783045
Si Si3 0.689622 0.523303 0.835296
Si Si4 0.725870 0.833441 0.215105
Si Si5 0.160707 0.935734 0.635207
Si Si6 0.494852 0.713382 0.554680
O O1 0.737055 0.386477 0.799366
O O2 0.502969 0.178569 0.883769
O O3 0.003862 0.196767 0.869219
O O4 0.718790 0.275861 0.097927
O O5 0.219571 0.657352 0.614211
O O6 0.916232 0.593004 0.880609
O O7 0.977039 0.830344 0.736851
O O8 0.632791 0.619831 0.679651
O O9 0.500000 0.500000 0.000000
O O10 0.752847 0.966201 0.264466
O O11 0.651014 0.736440 0.379336
O O12 0.602508 0.146959 0.422729
O O13 0.000000 0.000000 0.500000
#
# Coordination Sequence:
#
# PCOD9036154 Si02
#       6
#     2   2   2   2   2   2
#     4  12  28  44  71 108 152 185 227 305 364 409
#     4  10  25  45  74 103 130 198 245 279 349 431
#     4  12  23  46  75 102 141 188 250 288 345 434
#     4  12  27  46  69 111 151 182 230 303 366 410
#     4  10  22  47  77 101 140 188 247 289 347 431
#     4  10  25  44  75 101 130 198 242 281 351 430
#
# _framework density 24.073083
#
# number of rings (size 3 to 8) (size 9 to 14) (size 15 to 20)
#    1.000    0.000    1.667    4.000    4.667    4.000 
#    0.000    0.000    0.000    0.000    0.000    0.000 
#    0.000    0.000    0.000    0.000    0.000    0.000 
#
# Total GULP energy -66809.132922 kJ/mol
# GULP energy per Si atom -5567.427744 kJ/mol
# Density = 2.401829 g / cm^3
# Si number density = 24.073083 Si / 1000 Ang^3
#
#
#
# Elastic Constant Matrix: (Units=GPa)
#
#
# Indices 1 2 3 4 5 6 
#
# 1 113.2919 34.7574 4.6183 4.6195 -0.4296 13.3529
# 2 34.7574 84.7817 -12.5807 -17.2230 22.8437 20.0628
# 3 4.6183 -12.5807 28.6802 -20.9130 2.6097 -12.9471
# 4 4.6195 -17.2230 -20.9130 37.9107 -4.3906 4.8353
# 5 -0.4296 22.8437 2.6097 -4.3906 47.4946 -7.2238
# 6 13.3529 20.0628 -12.9471 4.8353 -7.2238 45.8466
#
#
#
# Elastic Compliance Matrix: (Units=1/GPa)
#
#
# Indices 1 2 3 4 5 6 
#
# 1 0.018144 -0.020933 -0.035578 -0.030087 0.009169 -0.001553
# 2 -0.020933 0.052479 0.072363 0.064373 -0.024534 -0.007088
# 3 -0.035578 0.072363 0.172091 0.127363 -0.031454 0.008906
# 4 -0.030087 0.064373 0.127363 0.126583 -0.026681 -0.000994
# 5 0.009169 -0.024534 -0.031454 -0.026681 0.033302 0.007244
# 6 -0.001553 -0.007088 0.008906 -0.000994 0.007244 0.029127
#
#
# Mechanical properties :
#
#
# Convention : Reuss Voigt Hill
#
# Bulk Modulus (GPa) = 3.64407 31.14930 17.39669
# Shear Modulus (GPa) = 10.17305 39.58099 24.87702
#
# Velocity S-wave (km/s) = 2.05793 4.05927 3.21813
# Velocity P-wave (km/s) = 2.67653 5.91082 4.58812
#
# Compressibility (1/GPa) = 0.27441826
#
# Stress axis : x y z
#
# Youngs Moduli (GPa) = 55.11548 19.05514 5.81089
#
# Poissons Ratio (x) = 0.39887 0.20674
# Poissons Ratio (y) = 1.15371 -0.42049
# Poissons Ratio (z) = 1.96089 -1.37888
#
# Static dielectric constant tensor:
#      x y z
#    x 2.235130 -0.055420 -0.047560 
#    y -0.055420 1.963930 -0.000690 
#    z -0.047560 -0.000690 2.033510 
# 
# From -- ./inp_files/130607.got.cif
#   From: 2010.05.17/outbox.cif.g08.bks.cpg/sg2_66_cif.got.tgz:130607.got - 2010.06.03 11:33:40.
