data_PCOD9036751
_publ_section_title
;
Structure prediction by ZEFSAII (Michael W. Deem and Ramdas Pophale) SiO2 
 PCOD9036751
Probable space group: P -1
;
_chemical_formula_sum "Si O2"
_cell_formula_units_Z 16
_cell_length_a 5.207005
_cell_length_b 16.632611
_cell_length_c 8.584785
_cell_angle_alpha 117.329922
_cell_angle_beta 88.006466
_cell_angle_gamma 87.139705
_cell_volume 658.284887
_symmetry_space_group_name_H-M "P -1"
_symmetry_group_IT_number 2
_symmetry_cell_setting 'triclinic'
loop_
_space_group_symop_operation_xyz
x,y,z
-x,-y,-z
loop_
_atom_site_type_symbol
_atom_site_label
_atom_site_fract_x
_atom_site_fract_y
_atom_site_fract_z
Si Si1 0.195700 0.953264 0.832990
Si Si2 0.565689 0.900945 0.223572
Si Si3 0.301353 0.464155 0.098391
Si Si4 0.829594 0.242443 0.255874
Si Si5 0.339933 0.243408 0.444843
Si Si6 0.796470 0.932127 0.554653
Si Si7 0.035280 0.639548 0.221207
Si Si8 0.634942 0.292094 0.986037
O O1 0.267747 0.858802 0.832021
O O2 0.048401 0.928766 0.653724
O O3 0.372228 0.033886 0.861466
O O4 0.000000 0.000000 0.000000
O O5 0.790708 0.899661 0.347792
O O6 0.513336 0.799079 0.097010
O O7 0.325249 0.964183 0.354648
O O8 0.165536 0.557452 0.251046
O O9 0.500000 0.500000 0.000000
O O10 0.089519 0.411821 0.964904
O O11 0.461792 0.384095 0.113263
O O12 0.600399 0.283568 0.412250
O O13 0.115228 0.242002 0.318316
O O14 0.828967 0.278910 0.114272
O O15 0.378581 0.140490 0.420765
O O16 0.190526 0.302664 0.634772
O O17 0.239771 0.697357 0.178516
#
# Coordination Sequence:
#
# PCOD9036751 Si02
#       8
#     2   2   2   2   2   2   2   2
#     4  11  24  41  63  91 139 190 232 279 340 402
#     4  11  23  39  65  94 132 174 237 277 342 390
#     4   9  21  43  73 101 132 165 232 286 342 408
#     4  11  27  44  66 102 147 185 226 285 345 411
#     4  11  25  45  70  98 143 185 229 280 350 408
#     4  10  23  39  60  92 132 179 228 288 325 396
#     4  10  23  44  74 100 129 179 228 284 345 414
#     4  11  25  41  70 100 135 177 231 285 343 412
#
# _framework density 24.305588
#
# number of rings (size 3 to 8) (size 9 to 14) (size 15 to 20)
#    0.000    1.500    1.250    1.875   10.500    5.000 
#    0.000    1.250    0.000    0.000    0.000    0.000 
#    0.000    0.000    0.000    0.000    0.000    0.000 
#
# Total GULP energy -89371.172253 kJ/mol
# GULP energy per Si atom -5585.698266 kJ/mol
# Density = 2.425027 g / cm^3
# Si number density = 24.305588 Si / 1000 Ang^3
#
#
#
# Elastic Constant Matrix: (Units=GPa)
#
#
# Indices 1 2 3 4 5 6 
#
# 1 62.2260 16.8626 8.0804 8.3271 9.8930 -5.6338
# 2 16.8626 136.2741 38.4419 11.8115 9.0675 -14.2630
# 3 8.0804 38.4419 55.5254 -1.6788 -0.1277 -6.7794
# 4 8.3271 11.8115 -1.6788 26.4520 -7.5599 6.9905
# 5 9.8930 9.0675 -0.1277 -7.5599 34.6006 -0.2068
# 6 -5.6338 -14.2630 -6.7794 6.9905 -0.2068 33.3812
#
#
#
# Elastic Compliance Matrix: (Units=1/GPa)
#
#
# Indices 1 2 3 4 5 6 
#
# 1 0.019342 0.000246 -0.002711 -0.009858 -0.007730 0.004835
# 2 0.000246 0.010853 -0.007209 -0.007997 -0.004659 0.004861
# 3 -0.002711 -0.007209 0.023593 0.006821 0.004241 -0.000148
# 4 -0.009858 -0.007997 0.006821 0.053555 0.016552 -0.014808
# 5 -0.007730 -0.004659 0.004241 0.016552 0.035931 -0.005678
# 6 0.004835 0.004861 -0.000148 -0.014808 -0.005678 0.035886
#
#
# Mechanical properties :
#
#
# Convention : Reuss Voigt Hill
#
# Bulk Modulus (GPa) = 29.03501 42.31059 35.67280
# Shear Modulus (GPa) = 23.81106 31.59613 27.70359
#
# Velocity S-wave (km/s) = 3.13334 3.60940 3.37976
# Velocity P-wave (km/s) = 5.00621 5.90050 5.47166
#
# Compressibility (1/GPa) = 0.03444118
#
# Stress axis : x y z
#
# Youngs Moduli (GPa) = 51.70221 92.13861 42.38539
#
# Poissons Ratio (x) = -0.02267 0.11489
# Poissons Ratio (y) = -0.01272 0.30555
# Poissons Ratio (z) = 0.14014 0.66421
#
# Static dielectric constant tensor:
#      x y z
#    x 2.105580 -0.012710 -0.076500 
#    y -0.012710 1.969770 0.013060 
#    z -0.076500 0.013060 1.987420 
# 
# From -- ./inp_files/135693.got.cif
#   From: 2010.05.17/outbox.cif.g08.bks.cpg/sg2_68_cif.got.tgz:135693.got - 2010.06.03 11:33:40.
