data_PCOD9036821
_publ_section_title
;
Structure prediction by ZEFSAII (Michael W. Deem and Ramdas Pophale) SiO2 
 PCOD9036821
Probable space group: P -1
;
_chemical_formula_sum "Si O2"
_cell_formula_units_Z 16
_cell_length_a 6.594579
_cell_length_b 29.665139
_cell_length_c 11.034220
_cell_angle_alpha 149.899420
_cell_angle_beta 69.751916
_cell_angle_gamma 130.774211
_cell_volume 669.924690
_symmetry_space_group_name_H-M "P -1"
_symmetry_group_IT_number 2
_symmetry_cell_setting 'triclinic'
loop_
_space_group_symop_operation_xyz
x,y,z
-x,-y,-z
loop_
_atom_site_type_symbol
_atom_site_label
_atom_site_fract_x
_atom_site_fract_y
_atom_site_fract_z
Si Si1 0.663325 0.289870 0.975240
Si Si2 0.542615 0.962111 0.526983
Si Si3 0.495661 0.186150 0.323636
Si Si4 0.173021 0.253924 0.126404
Si Si5 0.912988 0.113104 0.353638
Si Si6 0.003707 0.662016 0.227464
Si Si7 0.361993 0.617621 0.442625
Si Si8 0.127752 0.417324 0.396760
O O1 0.457968 0.143626 0.734294
O O2 0.746557 0.289204 0.819576
O O3 0.430300 0.300353 0.078490
O O4 0.982785 0.386405 0.220680
O O5 0.226389 0.891749 0.505243
O O6 0.500000 0.000000 0.500000
O O7 0.874342 0.092892 0.829302
O O8 0.839593 0.300750 0.586810
O O9 0.508345 0.257245 0.371423
O O10 0.224617 0.146402 0.374498
O O11 0.371376 0.044747 0.002005
O O12 0.383405 0.325684 0.371726
O O13 0.998155 0.289868 0.200822
O O14 0.022232 0.237957 0.550521
O O15 0.717905 0.499009 0.885290
O O16 0.021114 0.546733 0.410847
O O17 0.500000 0.500000 0.500000
#
# Coordination Sequence:
#
# PCOD9036821 Si02
#       8
#     2   2   2   2   2   2   2   2
#     4  10  23  39  63 103 132 177 230 273 348 403
#     4  11  22  40  69  98 133 173 228 280 343 403
#     4  11  25  46  71  95 139 183 229 285 329 402
#     4  11  23  40  65  95 142 178 217 290 337 405
#     4  10  26  45  68 100 133 177 236 277 347 395
#     4  11  24  44  68  98 136 177 232 283 329 409
#     4  11  26  43  67 104 135 183 234 270 348 406
#     4  11  22  40  65  94 137 178 218 282 342 404
#
# _framework density 23.883279000000002
#
# number of rings (size 3 to 8) (size 9 to 14) (size 15 to 20)
#    0.000    1.250    1.250    3.375    3.500   11.500 
#    0.000    0.000    0.000    0.000    0.000    0.000 
#    0.000    0.000    0.000    0.000    0.000    0.000 
#
# Total GULP energy -89361.314054 kJ/mol
# GULP energy per Si atom -5585.082128 kJ/mol
# Density = 2.382892 g / cm^3
# Si number density = 23.883279 Si / 1000 Ang^3
#
#
#
# Elastic Constant Matrix: (Units=GPa)
#
#
# Indices 1 2 3 4 5 6 
#
# 1 101.5847 27.6211 46.6928 -11.8377 -32.8732 -1.6293
# 2 27.6211 59.0394 1.7668 3.9489 -4.9994 2.1809
# 3 46.6928 1.7668 137.5833 11.9271 -21.0785 -13.4846
# 4 -11.8377 3.9489 11.9271 31.8572 3.6755 -4.8159
# 5 -32.8732 -4.9994 -21.0785 3.6755 41.8986 4.7853
# 6 -1.6293 2.1809 -13.4846 -4.8159 4.7853 43.6554
#
#
#
# Elastic Compliance Matrix: (Units=1/GPa)
#
#
# Indices 1 2 3 4 5 6 
#
# 1 0.019171 -0.008483 -0.005642 0.008961 0.010492 -0.000765
# 2 -0.008483 0.021141 0.002780 -0.006736 -0.002025 -0.001035
# 3 -0.005642 0.002780 0.010059 -0.006059 0.001275 0.001950
# 4 0.008961 -0.006736 -0.006059 0.038352 -0.000538 0.003089
# 5 0.010492 -0.002025 0.001275 -0.000538 0.032863 -0.002775
# 6 -0.000765 -0.001035 0.001950 0.003089 -0.002775 0.024177
#
#
# Mechanical properties :
#
#
# Convention : Reuss Voigt Hill
#
# Bulk Modulus (GPa) = 36.12633 50.04100 43.08366
# Shear Modulus (GPa) = 28.14059 38.29070 33.21565
#
# Velocity S-wave (km/s) = 3.43630 4.00840 3.73332
# Velocity P-wave (km/s) = 5.55907 6.51312 6.05491
#
# Compressibility (1/GPa) = 0.02768064
#
# Stress axis : x y z
#
# Youngs Moduli (GPa) = 52.16240 47.30257 99.41454
#
# Poissons Ratio (x) = 0.40126 0.56086
# Poissons Ratio (y) = 0.44248 -0.27633
# Poissons Ratio (z) = 0.29428 -0.13148
#
# Static dielectric constant tensor:
#      x y z
#    x 1.884020 -0.014220 -0.065780 
#    y -0.014220 1.973200 0.110840 
#    z -0.065780 0.110840 1.989990 
# 
# From -- ./inp_files/371603.got.cif
#   From: 2010.05.17/outbox.cif.g08.bks.cpg/sg2_186_cif.got.tgz:371603.got - 2010.06.03 11:33:40.
