data_PCOD9036823
_publ_section_title
;
Structure prediction by ZEFSAII (Michael W. Deem and Ramdas Pophale) SiO2 
 PCOD9036823
Probable space group: P -1
;
_chemical_formula_sum "Si O2"
_cell_formula_units_Z 12
_cell_length_a 7.214915
_cell_length_b 7.606886
_cell_length_c 8.991611
_cell_angle_alpha 71.641865
_cell_angle_beta 102.168644
_cell_angle_gamma 111.514853
_cell_volume 433.192200
_symmetry_space_group_name_H-M "P -1"
_symmetry_group_IT_number 2
_symmetry_cell_setting 'triclinic'
loop_
_space_group_symop_operation_xyz
x,y,z
-x,-y,-z
loop_
_atom_site_type_symbol
_atom_site_label
_atom_site_fract_x
_atom_site_fract_y
_atom_site_fract_z
Si Si1 0.548411 0.039833 0.826980
Si Si2 0.983053 0.143899 0.779574
Si Si3 0.130913 0.700321 0.550200
Si Si4 0.166608 0.507579 0.902689
Si Si5 0.730184 0.744053 0.817970
Si Si6 0.557627 0.726015 0.488610
O O1 0.779230 0.175621 0.804220
O O2 0.406632 0.133680 0.686284
O O3 0.562204 0.837111 0.818271
O O4 0.500000 0.000000 0.000000
O O5 0.964880 0.160094 0.593905
O O6 0.150997 0.322132 0.836991
O O7 0.937150 0.912260 0.861235
O O8 0.361032 0.758456 0.519981
O O9 0.000000 0.500000 0.500000
O O10 0.139781 0.663584 0.736548
O O11 0.000000 0.500000 0.000000
O O12 0.317674 0.467349 0.061498
O O13 0.719201 0.748480 0.638309
O O14 0.500000 0.500000 0.500000
#
# Coordination Sequence:
#
# PCOD9036823 Si02
#       6
#     2   2   2   2   2   2
#     4   9  21  40  63  88 122 160 209 252 313 365
#     4   8  20  42  61  82 128 160 199 253 307 362
#     4   9  21  41  64  84 128 163 203 252 312 361
#     4  11  23  39  64  94 124 162 211 256 308 369
#     4  10  23  39  63  88 128 162 206 253 316 359
#     4  11  24  40  66  92 128 162 209 258 314 371
#
# _framework density 27.701329999999999
#
# number of rings (size 3 to 8) (size 9 to 14) (size 15 to 20)
#    1.000    1.333    0.000    1.000    9.333    2.000 
#    0.000    0.833    0.000    0.000    0.000    0.000 
#    0.000    0.000    0.000    0.000    0.000    0.000 
#
# Total GULP energy -66896.937927 kJ/mol
# GULP energy per Si atom -5574.744827 kJ/mol
# Density = 2.763828 g / cm^3
# Si number density = 27.701330 Si / 1000 Ang^3
#
#
#
# Elastic Constant Matrix: (Units=GPa)
#
#
# Indices 1 2 3 4 5 6 
#
# 1 48.3078 -5.0822 29.1368 1.9266 3.8466 -4.7073
# 2 -5.0822 75.3699 31.0627 -0.1950 4.1067 -7.4669
# 3 29.1368 31.0627 283.0727 -17.1471 -6.6895 -18.3002
# 4 1.9266 -0.1950 -17.1471 48.8312 -8.7501 7.0372
# 5 3.8466 4.1067 -6.6895 -8.7501 47.8739 2.8422
# 6 -4.7073 -7.4669 -18.3002 7.0372 2.8422 33.4025
#
#
#
# Elastic Compliance Matrix: (Units=1/GPa)
#
#
# Indices 1 2 3 4 5 6 
#
# 1 0.023450 0.003248 -0.002809 -0.002980 -0.003302 0.003401
# 2 0.003248 0.014707 -0.001890 -0.001607 -0.002273 0.003242
# 3 -0.002809 -0.001890 0.004226 0.001655 0.001219 0.001045
# 4 -0.002980 -0.001607 0.001655 0.022819 0.005083 -0.005113
# 5 -0.003302 -0.002273 0.001219 0.005083 0.022644 -0.003303
# 6 0.003401 0.003242 0.001045 -0.005113 -0.003303 0.033072
#
#
# Mechanical properties :
#
#
# Convention : Reuss Voigt Hill
#
# Bulk Modulus (GPa) = 25.32875 57.44278 41.38576
# Shear Modulus (GPa) = 36.50225 49.46373 42.98299
#
# Velocity S-wave (km/s) = 3.63396 4.23023 3.94338
# Velocity P-wave (km/s) = 5.17406 6.68141 5.97546
#
# Compressibility (1/GPa) = 0.03948083
#
# Stress axis : x y z
#
# Youngs Moduli (GPa) = 42.64476 67.99694 236.64708
#
# Poissons Ratio (x) = -0.22085 0.66469
# Poissons Ratio (y) = -0.13851 0.44717
# Poissons Ratio (z) = 0.11978 0.12849
#
# Static dielectric constant tensor:
#      x y z
#    x 2.340210 0.071740 -0.030330 
#    y 0.071740 2.276990 -0.054440 
#    z -0.030330 -0.054440 2.208210 
# 
# From -- ./inp_files/145058.got.cif
#   From: 2010.05.17/outbox.cif.g08.bks.cpg/sg2_73_cif.got.tgz:145058.got - 2010.06.03 11:33:40.
