data_PCOD9036053
_publ_section_title
;
Structure prediction by ZEFSAII (Michael W. Deem and Ramdas Pophale) SiO2 
 PCOD9036053
Probable space group: P -1
;
_chemical_formula_sum "Si O2"
_cell_formula_units_Z 14
_cell_length_a 22.820606
_cell_length_b 10.928483
_cell_length_c 5.465042
_cell_angle_alpha 50.410143
_cell_angle_beta 117.600084
_cell_angle_gamma 145.199336
_cell_volume 593.839974
_symmetry_space_group_name_H-M "P -1"
_symmetry_group_IT_number 2
_symmetry_cell_setting 'triclinic'
loop_
_space_group_symop_operation_xyz
x,y,z
-x,-y,-z
loop_
_atom_site_type_symbol
_atom_site_label
_atom_site_fract_x
_atom_site_fract_y
_atom_site_fract_z
Si Si1 0.216456 0.400180 0.869462
Si Si2 0.359405 0.083870 0.668472
Si Si3 0.761242 0.908172 0.853257
Si Si4 0.408733 0.469956 0.633132
Si Si5 0.895483 0.709121 0.706170
Si Si6 0.377792 0.766093 0.042164
Si Si7 0.021372 0.630109 0.122512
O O1 0.211878 0.201330 0.099996
O O2 0.331986 0.679751 0.788348
O O3 0.168238 0.381843 0.552237
O O4 0.161215 0.342654 0.090043
O O5 0.379366 0.258142 0.688323
O O6 0.467549 0.282120 0.469236
O O7 0.341619 0.864711 0.974169
O O8 0.258492 0.964854 0.487735
O O9 0.646259 0.662723 0.047949
O O10 0.856399 0.098837 0.980869
O O11 0.357539 0.546364 0.367838
O O12 0.939868 0.619917 0.961022
O O13 0.000000 0.000000 0.500000
O O14 0.500000 0.000000 0.000000
O O15 0.000000 0.500000 0.500000
O O16 0.000000 0.500000 0.000000
#
# Coordination Sequence:
#
# PCOD9036053 Si02
#       7
#     2   2   2   2   2   2   2
#     4  12  26  47  79 108 146 202 255 312 382 456
#     4  10  23  43  73 106 150 191 251 311 381 445
#     4  12  26  45  75 101 149 197 255 307 389 451
#     4  10  22  47  71 106 148 198 248 310 378 456
#     4  12  27  49  76 106 145 197 257 311 379 454
#     4  10  23  45  72 110 151 195 253 312 378 457
#     4  12  31  49  74 112 154 194 254 324 380 451
#
# _framework density 23.575377
#
# number of rings (size 3 to 8) (size 9 to 14) (size 15 to 20)
#    0.000    0.857    2.857    2.571    8.000    0.000 
#    2.571    3.571    0.000    0.000    0.000    0.000 
#    0.000    0.000    0.000    0.000    0.000    0.000 
#
# Total GULP energy -78136.286132 kJ/mol
# GULP energy per Si atom -5581.163295 kJ/mol
# Density = 2.352172 g / cm^3
# Si number density = 23.575377 Si / 1000 Ang^3
#
#
#
# Elastic Constant Matrix: (Units=GPa)
#
#
# Indices 1 2 3 4 5 6 
#
# 1 167.3146 41.2166 86.6628 10.4434 36.5776 -19.6061
# 2 41.2166 139.3603 49.5358 24.9062 7.6581 -12.1982
# 3 86.6628 49.5358 162.4713 17.2349 33.5136 -10.8330
# 4 10.4434 24.9062 17.2349 41.1417 0.6931 9.4227
# 5 36.5776 7.6581 33.5136 0.6931 57.2125 -9.3280
# 6 -19.6061 -12.1982 -10.8330 9.4227 -9.3280 38.4252
#
#
#
# Elastic Compliance Matrix: (Units=1/GPa)
#
#
# Indices 1 2 3 4 5 6 
#
# 1 0.009169 -0.000815 -0.003722 -0.000871 -0.003101 0.002831
# 2 -0.000815 0.009299 -0.001773 -0.005527 0.000973 0.003628
# 3 -0.003722 -0.001773 0.009482 -0.001898 -0.002920 -0.000032
# 4 -0.000871 -0.005527 -0.001898 0.031010 0.000362 -0.010251
# 5 -0.003101 0.000973 -0.002920 0.000362 0.021533 0.003042
# 6 0.002831 0.003628 -0.000032 -0.010251 0.003042 0.031864
#
#
# Mechanical properties :
#
#
# Convention : Reuss Voigt Hill
#
# Bulk Modulus (GPa) = 65.22761 91.55296 78.39028
# Shear Modulus (GPa) = 38.43597 46.80463 42.62030
#
# Velocity S-wave (km/s) = 4.04213 4.46052 4.25647
# Velocity P-wave (km/s) = 7.03654 8.08992 7.58155
#
# Compressibility (1/GPa) = 0.01533093
#
# Stress axis : x y z
#
# Youngs Moduli (GPa) = 109.06004 107.54191 105.46232
#
# Poissons Ratio (x) = 0.08765 0.39248
# Poissons Ratio (y) = 0.08889 0.18698
# Poissons Ratio (z) = 0.40587 0.19066
#
# Static dielectric constant tensor:
#      x y z
#    x 1.925540 0.053440 0.003310 
#    y 0.053440 1.934280 -0.019000 
#    z 0.003310 -0.019000 1.906500 
# 
# From -- ./inp_files/126826.got.cif
#   From: 2010.05.17/outbox.cif.g08.bks.cpg/sg2_64_cif.got.tgz:126826.got - 2010.06.03 11:33:40.
