data_PCOD9036395
_publ_section_title
;
Structure prediction by ZEFSAII (Michael W. Deem and Ramdas Pophale) SiO2 
 PCOD9036395
Probable space group: P -1
;
_chemical_formula_sum "Si O2"
_cell_formula_units_Z 14
_cell_length_a 8.153369
_cell_length_b 8.310784
_cell_length_c 9.714670
_cell_angle_alpha 125.925150
_cell_angle_beta 96.191735
_cell_angle_gamma 106.744851
_cell_volume 476.804288
_symmetry_space_group_name_H-M "P -1"
_symmetry_group_IT_number 2
_symmetry_cell_setting 'triclinic'
loop_
_space_group_symop_operation_xyz
x,y,z
-x,-y,-z
loop_
_atom_site_type_symbol
_atom_site_label
_atom_site_fract_x
_atom_site_fract_y
_atom_site_fract_z
Si Si1 0.321853 0.321407 0.198610
Si Si2 0.644539 0.423871 0.077713
Si Si3 0.233753 0.847843 0.859471
Si Si4 0.263280 0.162294 0.403600
Si Si5 0.570133 0.033945 0.333694
Si Si6 0.055437 0.305913 0.943198
Si Si7 0.032750 0.729378 0.539256
O O1 0.502463 0.447881 0.184711
O O2 0.319757 0.339294 0.371166
O O3 0.229592 0.359268 0.886075
O O4 0.146960 0.333352 0.116232
O O5 0.773538 0.337927 0.131660
O O6 0.535451 0.222222 0.854924
O O7 0.374324 0.852742 0.755880
O O8 0.081969 0.865485 0.755569
O O9 0.298029 0.073164 0.056332
O O10 0.441259 0.126370 0.443736
O O11 0.138083 0.243997 0.524767
O O12 0.119471 0.917548 0.220047
O O13 0.779697 0.148410 0.469756
O O14 0.000000 0.500000 0.000000
O O15 0.000000 0.500000 0.500000
#
# Coordination Sequence:
#
# PCOD9036395 Si02
#       7
#     2   2   2   2   2   2   2
#     4  11  19  34  54  83 114 152 178 223 295 338
#     4  11  18  35  54  89 121 143 174 230 296 344
#     4   9  17  35  58  77 115 142 180 231 277 333
#     4  12  20  37  60  81 114 153 184 229 286 339
#     4   9  18  34  56  81 113 146 175 232 279 331
#     4  12  23  28  50  92 125 141 177 223 288 359
#     4  10  23  36  55  85 109 146 202 239 265 318
#
# _framework density 29.362155000000001
#
# number of rings (size 3 to 8) (size 9 to 14) (size 15 to 20)
#    0.857    0.571    5.714    1.714    2.000    0.571 
#    0.000    0.000    0.000    0.857    0.000    5.000 
#    0.000    0.000    0.000    0.000    0.000    0.000 
#
# Total GULP energy -78208.979548 kJ/mol
# GULP energy per Si atom -5586.355682 kJ/mol
# Density = 2.929533 g / cm^3
# Si number density = 29.362155 Si / 1000 Ang^3
#
#
#
# Elastic Constant Matrix: (Units=GPa)
#
#
# Indices 1 2 3 4 5 6 
#
# 1 230.4875 28.6373 36.7403 15.2933 -1.9462 -8.1386
# 2 28.6373 121.7563 12.3394 4.8332 6.4848 19.6887
# 3 36.7403 12.3394 76.2551 20.9605 3.5144 9.2192
# 4 15.2933 4.8332 20.9605 29.4362 3.7515 5.2489
# 5 -1.9462 6.4848 3.5144 3.7515 38.1986 2.8690
# 6 -8.1386 19.6887 9.2192 5.2489 2.8690 67.8110
#
#
#
# Elastic Compliance Matrix: (Units=1/GPa)
#
#
# Indices 1 2 3 4 5 6 
#
# 1 0.004938 -0.001146 -0.002038 -0.001237 0.000660 0.001270
# 2 -0.001146 0.009033 -0.000573 0.000164 -0.001357 -0.002638
# 3 -0.002038 -0.000573 0.017394 -0.010898 -0.000418 -0.001582
# 4 -0.001237 0.000164 -0.010898 0.043094 -0.003177 -0.001916
# 5 0.000660 -0.001357 -0.000418 -0.003177 0.026820 -0.000359
# 6 0.001270 -0.002638 -0.001582 -0.001916 -0.000359 0.016044
#
#
# Mechanical properties :
#
#
# Convention : Reuss Voigt Hill
#
# Bulk Modulus (GPa) = 41.92583 64.88143 53.40363
# Shear Modulus (GPa) = 37.65372 50.47463 44.06418
#
# Velocity S-wave (km/s) = 3.58493 4.15063 3.87811
# Velocity P-wave (km/s) = 5.60763 6.71678 6.18711
#
# Compressibility (1/GPa) = 0.02385165
#
# Stress axis : x y z
#
# Youngs Moduli (GPa) = 202.49374 110.70323 57.48955
#
# Poissons Ratio (x) = 0.12692 0.11715
# Poissons Ratio (y) = 0.23215 0.03294
# Poissons Ratio (z) = 0.41265 0.06342
#
# Static dielectric constant tensor:
#      x y z
#    x 2.483100 0.096520 0.199910 
#    y 0.096520 2.224170 0.101580 
#    z 0.199910 0.101580 2.609650 
# 
# From -- ./inp_files/491609.got.cif
#   From: 2010.05.17/outbox.cif.g08.bks.cpg/sg2_246_cif.got.tgz:491609.got - 2010.06.03 11:33:40.
