data_PCOD9036282
_publ_section_title
;
Structure prediction by ZEFSAII (Michael W. Deem and Ramdas Pophale) SiO2 
 PCOD9036282
Probable space group: P -1
;
_chemical_formula_sum "Si O2"
_cell_formula_units_Z 16
_cell_length_a 5.485269
_cell_length_b 22.532122
_cell_length_c 7.468239
_cell_angle_alpha 56.232672
_cell_angle_beta 113.810513
_cell_angle_gamma 98.828897
_cell_volume 698.952755
_symmetry_space_group_name_H-M "P -1"
_symmetry_group_IT_number 2
_symmetry_cell_setting 'triclinic'
loop_
_space_group_symop_operation_xyz
x,y,z
-x,-y,-z
loop_
_atom_site_type_symbol
_atom_site_label
_atom_site_fract_x
_atom_site_fract_y
_atom_site_fract_z
Si Si1 0.385131 0.657247 0.597307
Si Si2 0.983680 0.584763 0.832521
Si Si3 0.143185 0.188688 0.505920
Si Si4 0.459407 0.761955 0.168719
Si Si5 0.681855 0.307384 0.091993
Si Si6 0.317348 0.070340 0.469100
Si Si7 0.177746 0.929247 0.227035
Si Si8 0.223424 0.917438 0.873620
O O1 0.670148 0.615649 0.693170
O O2 0.277640 0.715457 0.319573
O O3 0.443147 0.694690 0.742856
O O4 0.148670 0.608445 0.666628
O O5 0.164529 0.620110 0.980624
O O6 0.000000 0.500000 0.000000
O O7 0.309015 0.228801 0.633845
O O8 0.269262 0.140708 0.461213
O O9 0.923995 0.245747 0.262110
O O10 0.998740 0.132959 0.676037
O O11 0.508845 0.713093 0.089781
O O12 0.349435 0.843346 0.948490
O O13 0.636441 0.062062 0.560104
O O14 0.098540 0.083427 0.228722
O O15 0.272096 0.995537 0.681659
O O16 0.332894 0.912603 0.115511
O O17 0.000000 0.000000 0.000000
#
# Coordination Sequence:
#
# PCOD9036282 Si02
#       8
#     2   2   2   2   2   2   2   2
#     4  10  23  46  71 109 147 178 240 287 340 438
#     4  10  22  48  78 104 148 190 222 289 356 416
#     4  12  23  43  62  92 133 172 236 290 349 419
#     4  12  22  45  70 102 137 189 235 291 362 419
#     4  10  25  42  70 105 141 186 226 291 355 424
#     4  11  24  42  59  87 129 171 237 293 345 418
#     4  12  24  39  61  87 121 177 232 299 359 410
#     4  11  23  40  63  87 129 178 230 296 355 415
#
# _framework density 22.891390999999999
#
# number of rings (size 3 to 8) (size 9 to 14) (size 15 to 20)
#    0.750    0.250    5.000    2.250    0.000    1.500 
#    6.750    1.250    0.000    0.000    0.000    0.000 
#    0.000    0.000    0.000    0.000    0.000    0.000 
#
# Total GULP energy -89228.400478 kJ/mol
# GULP energy per Si atom -5576.775030 kJ/mol
# Density = 2.283929 g / cm^3
# Si number density = 22.891391 Si / 1000 Ang^3
#
#
#
# Elastic Constant Matrix: (Units=GPa)
#
#
# Indices 1 2 3 4 5 6 
#
# 1 59.8729 11.0210 7.9696 -5.7103 11.5561 1.9732
# 2 11.0210 110.9757 30.4841 -11.3741 7.2147 -1.7763
# 3 7.9696 30.4841 50.8468 2.3116 7.2977 4.1896
# 4 -5.7103 -11.3741 2.3116 45.2151 1.4156 -3.4174
# 5 11.5561 7.2147 7.2977 1.4156 30.4673 -3.0951
# 6 1.9732 -1.7763 4.1896 -3.4174 -3.0951 32.4178
#
#
#
# Elastic Compliance Matrix: (Units=1/GPa)
#
#
# Indices 1 2 3 4 5 6 
#
# 1 0.018618 -0.000789 -0.001465 0.002335 -0.006773 -0.001388
# 2 -0.000789 0.011400 -0.006910 0.003283 -0.000710 0.001844
# 3 -0.001465 -0.006910 0.025137 -0.003404 -0.004107 -0.004289
# 4 0.002335 0.003283 -0.003404 0.023676 -0.001662 0.002815
# 5 -0.006773 -0.000710 -0.004107 -0.001662 0.037054 0.004267
# 6 -0.001388 0.001844 -0.004289 0.002815 0.004267 0.032291
#
#
# Mechanical properties :
#
#
# Convention : Reuss Voigt Hill
#
# Bulk Modulus (GPa) = 27.15409 35.62718 31.39064
# Shear Modulus (GPa) = 27.96759 33.10143 30.53451
#
# Velocity S-wave (km/s) = 3.49915 3.80678 3.65620
# Velocity P-wave (km/s) = 5.31162 5.90927 5.61840
#
# Compressibility (1/GPa) = 0.03682686
#
# Stress axis : x y z
#
# Youngs Moduli (GPa) = 53.71134 87.72233 39.78243
#
# Poissons Ratio (x) = 0.06923 0.05827
# Poissons Ratio (y) = 0.04239 0.27489
# Poissons Ratio (z) = 0.07867 0.60616
#
# Static dielectric constant tensor:
#      x y z
#    x 1.958910 -0.018550 0.018570 
#    y -0.018550 1.904470 0.009170 
#    z 0.018570 0.009170 1.801950 
# 
# From -- ./inp_files/142565.got.cif
#   From: 2010.05.17/outbox.cif.g08.bks.cpg/sg2_72_cif.got.tgz:142565.got - 2010.06.03 11:33:40.
