data_PCOD9036077
_publ_section_title
;
Structure prediction by ZEFSAII (Michael W. Deem and Ramdas Pophale) SiO2 
 PCOD9036077
Probable space group: P -1
;
_chemical_formula_sum "Si O2"
_cell_formula_units_Z 10
_cell_length_a 5.465460
_cell_length_b 14.438240
_cell_length_c 7.705668
_cell_angle_alpha 132.193574
_cell_angle_beta 86.125569
_cell_angle_gamma 75.580166
_cell_volume 412.285867
_symmetry_space_group_name_H-M "P -1"
_symmetry_group_IT_number 2
_symmetry_cell_setting 'triclinic'
loop_
_space_group_symop_operation_xyz
x,y,z
-x,-y,-z
loop_
_atom_site_type_symbol
_atom_site_label
_atom_site_fract_x
_atom_site_fract_y
_atom_site_fract_z
Si Si1 0.215314 0.058060 0.989606
Si Si2 0.903069 0.377811 0.340611
Si Si3 0.393521 0.855736 0.431802
Si Si4 0.992986 0.748413 0.187031
Si Si5 0.342976 0.614859 0.291798
O O1 0.284063 0.994306 0.715401
O O2 0.091424 0.222174 0.195476
O O3 0.500000 0.000000 0.000000
O O4 0.000000 0.000000 0.000000
O O5 0.673088 0.418661 0.550152
O O6 0.000000 0.500000 0.500000
O O7 0.881732 0.353364 0.106193
O O8 0.675285 0.817937 0.279854
O O9 0.440156 0.736968 0.422922
O O10 0.166974 0.840190 0.302530
O O11 0.055819 0.677302 0.285219
O O12 0.500000 0.500000 0.000000
#
# Coordination Sequence:
#
# PCOD9036077 Si02
#       5
#     2   2   2   2   2
#     4  12  25  49  80 113 153 206 254 312 384 464
#     4  12  27  48  79 120 151 202 260 320 380 456
#     4  10  22  47  72 104 149 201 245 308 378 451
#     4  10  25  47  72 112 150 195 255 314 374 455
#     4  10  23  46  72 103 156 199 243 310 387 443
#
# _framework density 24.255016000000001
#
# number of rings (size 3 to 8) (size 9 to 14) (size 15 to 20)
#    1.200    0.000    2.000    3.600    0.000    8.800 
#    3.600    0.000    0.000    0.000    0.000    0.000 
#    0.000    0.000    0.000    0.000    0.000    0.000 
#
# Total GULP energy -55798.940853 kJ/mol
# GULP energy per Si atom -5579.894085 kJ/mol
# Density = 2.419981 g / cm^3
# Si number density = 24.255016 Si / 1000 Ang^3
#
#
#
# Elastic Constant Matrix: (Units=GPa)
#
#
# Indices 1 2 3 4 5 6 
#
# 1 156.8638 49.9214 67.2268 -4.9062 3.5767 21.7604
# 2 49.9214 103.6441 50.0374 -6.0803 4.2940 35.4741
# 3 67.2268 50.0374 222.8842 -14.5352 7.6183 17.9108
# 4 -4.9062 -6.0803 -14.5352 60.2394 1.9444 3.1009
# 5 3.5767 4.2940 7.6183 1.9444 47.3502 -9.7040
# 6 21.7604 35.4741 17.9108 3.1009 -9.7040 31.0389
#
#
#
# Elastic Compliance Matrix: (Units=1/GPa)
#
#
# Indices 1 2 3 4 5 6 
#
# 1 0.008187 -0.002258 -0.001740 0.000161 -0.000625 -0.002366
# 2 -0.002258 0.019312 -0.001531 0.002704 -0.005896 -0.021718
# 3 -0.001740 -0.001531 0.005497 0.001083 -0.000771 -0.000551
# 4 0.000161 0.002704 0.001083 0.017554 -0.002454 -0.006349
# 5 -0.000625 -0.005896 -0.000771 -0.002454 0.025150 0.015730
# 6 -0.002366 -0.021718 -0.000551 -0.006349 0.015730 0.064568
#
#
# Mechanical properties :
#
#
# Convention : Reuss Voigt Hill
#
# Bulk Modulus (GPa) = 45.58699 90.86260 68.22479
# Shear Modulus (GPa) = 31.51822 48.80613 40.16217
#
# Velocity S-wave (km/s) = 3.60870 4.49063 4.07360
# Velocity P-wave (km/s) = 6.01659 8.02685 7.09330
#
# Compressibility (1/GPa) = 0.02193608
#
# Stress axis : x y z
#
# Youngs Moduli (GPa) = 122.14539 51.78253 181.92887
#
# Poissons Ratio (x) = 0.11691 0.31664
# Poissons Ratio (y) = 0.27578 0.27859
# Poissons Ratio (z) = 0.21259 0.07929
#
# Static dielectric constant tensor:
#      x y z
#    x 1.680060 -0.600090 -0.155090 
#    y -0.600090 1.732800 0.010050 
#    z -0.155090 0.010050 1.929020 
# 
# From -- ./inp_files/137013.got.cif
#   From: 2010.05.17/outbox.cif.g08.bks.cpg/sg2_69_cif.got.tgz:137013.got - 2010.06.03 11:33:40.
