data_PCOD9036608
_publ_section_title
;
Structure prediction by ZEFSAII (Michael W. Deem and Ramdas Pophale) SiO2 
 PCOD9036608
Probable space group: P -1
;
_chemical_formula_sum "Si O2"
_cell_formula_units_Z 14
_cell_length_a 12.096776
_cell_length_b 14.628829
_cell_length_c 12.356078
_cell_angle_alpha 19.180235
_cell_angle_beta 109.029851
_cell_angle_gamma 106.418285
_cell_volume 676.852557
_symmetry_space_group_name_H-M "P -1"
_symmetry_group_IT_number 2
_symmetry_cell_setting 'triclinic'
loop_
_space_group_symop_operation_xyz
x,y,z
-x,-y,-z
loop_
_atom_site_type_symbol
_atom_site_label
_atom_site_fract_x
_atom_site_fract_y
_atom_site_fract_z
Si Si1 0.915625 0.902517 0.931003
Si Si2 0.643183 0.266395 0.649463
Si Si3 0.423416 0.239859 0.272493
Si Si4 0.603023 0.839897 0.392392
Si Si5 0.699727 0.401189 0.742169
Si Si6 0.135917 0.182152 0.744580
Si Si7 0.228617 0.518207 0.751241
O O1 0.816883 0.162886 0.593274
O O2 0.038537 0.036403 0.808641
O O3 0.910988 0.789240 0.179540
O O4 0.881888 0.648897 0.130565
O O5 0.529487 0.117209 0.743896
O O6 0.628790 0.438750 0.563581
O O7 0.685796 0.458706 0.351254
O O8 0.749598 0.034523 0.965388
O O9 0.404787 0.176140 0.463388
O O10 0.500000 0.000000 0.500000
O O11 0.500000 0.500000 0.000000
O O12 0.301607 0.342484 0.061275
O O13 0.649365 0.565953 0.646913
O O14 0.687361 0.079314 0.123353
O O15 0.821635 0.532213 0.607714
#
# Coordination Sequence:
#
# PCOD9036608 Si02
#       7
#     2   2   2   2   2   2   2
#     4  10  23  39  64  94 124 166 208 267 311 364
#     4  11  23  39  64  96 132 167 203 253 325 381
#     4  12  25  45  68  91 125 170 215 262 305 365
#     4  12  27  39  63  93 133 170 206 252 317 383
#     4  12  24  40  60  95 134 169 202 252 320 390
#     4  10  23  38  63  93 132 162 210 253 321 373
#     4  11  23  40  67  92 126 159 215 263 316 355
#
# _framework density 20.683972000000001
#
# number of rings (size 3 to 8) (size 9 to 14) (size 15 to 20)
#    0.000    0.857    4.286    2.571    6.000    1.714 
#    0.000    0.000    0.000    5.143    0.000    0.000 
#    0.000    0.000    0.000    0.000    0.000    0.000 
#
# Total GULP energy -78251.145235 kJ/mol
# GULP energy per Si atom -5589.367517 kJ/mol
# Density = 2.063689 g / cm^3
# Si number density = 20.683972 Si / 1000 Ang^3
#
#
#
# Elastic Constant Matrix: (Units=GPa)
#
#
# Indices 1 2 3 4 5 6 
#
# 1 53.8172 20.6790 22.2675 5.7232 -16.7164 8.2935
# 2 20.6790 99.4976 38.6804 0.0918 -10.3752 -11.7529
# 3 22.2675 38.6804 67.6272 -7.1669 -15.2651 -6.3046
# 4 5.7232 0.0918 -7.1669 38.3363 -0.2800 -7.0696
# 5 -16.7164 -10.3752 -15.2651 -0.2800 42.8898 -8.5138
# 6 8.2935 -11.7529 -6.3046 -7.0696 -8.5138 40.0640
#
#
#
# Elastic Compliance Matrix: (Units=1/GPa)
#
#
# Indices 1 2 3 4 5 6 
#
# 1 0.026187 -0.002998 -0.007061 -0.006549 0.005455 -0.007408
# 2 -0.002998 0.013643 -0.006335 -0.000074 0.000620 0.003745
# 3 -0.007061 -0.006335 0.023062 0.006420 0.005044 0.005437
# 4 -0.006549 -0.000074 0.006420 0.029732 0.001478 0.007905
# 5 0.005455 0.000620 0.005044 0.001478 0.028625 0.006190
# 6 -0.007408 0.003745 0.005437 0.007905 0.006190 0.031158
#
#
# Mechanical properties :
#
#
# Convention : Reuss Voigt Hill
#
# Bulk Modulus (GPa) = 33.21869 42.68839 37.95354
# Shear Modulus (GPa) = 25.61070 33.54569 29.57819
#
# Velocity S-wave (km/s) = 3.52261 4.03155 3.78564
# Velocity P-wave (km/s) = 5.71314 6.50803 6.12350
#
# Compressibility (1/GPa) = 0.03010354
#
# Stress axis : x y z
#
# Youngs Moduli (GPa) = 38.18626 73.29510 43.36208
#
# Poissons Ratio (x) = 0.21971 0.30620
# Poissons Ratio (y) = 0.11447 0.27472
# Poissons Ratio (z) = 0.26965 0.46435
#
# Static dielectric constant tensor:
#      x y z
#    x 1.779670 -0.006480 0.020790 
#    y -0.006480 1.787540 0.015380 
#    z 0.020790 0.015380 1.760800 
# 
# From -- ./inp_files/362681.got.cif
#   From: 2010.05.17/outbox.cif.g08.bks.cpg/sg2_182_cif.got.tgz:362681.got - 2010.06.03 11:33:40.
