data_PCOD9036707
_publ_section_title
;
Structure prediction by ZEFSAII (Michael W. Deem and Ramdas Pophale) SiO2 
 PCOD9036707
Probable space group: P -1
;
_chemical_formula_sum "Si O2"
_cell_formula_units_Z 16
_cell_length_a 17.256809
_cell_length_b 5.597494
_cell_length_c 11.881581
_cell_angle_alpha 113.842216
_cell_angle_beta 40.354960
_cell_angle_gamma 99.710953
_cell_volume 660.655775
_symmetry_space_group_name_H-M "P -1"
_symmetry_group_IT_number 2
_symmetry_cell_setting 'triclinic'
loop_
_space_group_symop_operation_xyz
x,y,z
-x,-y,-z
loop_
_atom_site_type_symbol
_atom_site_label
_atom_site_fract_x
_atom_site_fract_y
_atom_site_fract_z
Si Si1 0.133524 0.072553 0.531010
Si Si2 0.597331 0.627930 0.485579
Si Si3 0.917561 0.453401 0.754743
Si Si4 0.037735 0.881489 0.814198
Si Si5 0.711220 0.537571 0.556784
Si Si6 0.289809 0.628015 0.877476
Si Si7 0.270977 0.479815 0.206330
Si Si8 0.415182 0.137001 0.800712
O O1 0.039934 0.053079 0.731714
O O2 0.217646 0.800160 0.337483
O O3 0.226525 0.230086 0.511466
O O4 0.048488 0.241599 0.560008
O O5 0.500000 0.500000 0.500000
O O6 0.599834 0.547143 0.598362
O O7 0.723080 0.474509 0.255446
O O8 0.550270 0.949313 0.594039
O O9 0.845853 0.577649 0.745292
O O10 0.951873 0.682240 0.837562
O O11 0.822767 0.320498 0.902120
O O12 0.181310 0.726357 0.627069
O O13 0.000000 0.000000 0.000000
O O14 0.694496 0.599988 0.718812
O O15 0.366881 0.340859 0.791407
O O16 0.340973 0.899959 0.863039
O O17 0.388231 0.337265 0.975156
#
# Coordination Sequence:
#
# PCOD9036707 Si02
#       8
#     2   2   2   2   2   2   2   2
#     4  10  23  40  61  98 135 180 218 279 335 405
#     4  10  23  46  71  97 131 175 231 287 348 408
#     4  10  23  38  69  97 132 187 220 273 338 413
#     4  10  24  40  62  99 139 179 222 275 343 408
#     4  10  24  42  63  97 136 176 220 288 339 401
#     4  10  23  41  70 106 133 169 232 284 339 404
#     4  10  23  42  64  96 137 174 231 273 336 408
#     4  10  23  44  69 101 131 179 226 291 337 398
#
# _framework density 24.218361999999999
#
# number of rings (size 3 to 8) (size 9 to 14) (size 15 to 20)
#    0.000    2.000    0.000    0.750   10.500    8.000 
#   13.500    0.625    0.000    0.000    0.000    0.000 
#    0.000    0.000    0.000    0.000    0.000    0.000 
#
# Total GULP energy -89133.364090 kJ/mol
# GULP energy per Si atom -5570.835256 kJ/mol
# Density = 2.416324 g / cm^3
# Si number density = 24.218362 Si / 1000 Ang^3
#
#
#
# Elastic Constant Matrix: (Units=GPa)
#
#
# Indices 1 2 3 4 5 6 
#
# 1 117.1023 27.0832 10.5208 12.0695 14.8387 -20.0416
# 2 27.0832 90.6568 23.1995 -9.9271 14.3679 -5.1942
# 3 10.5208 23.1995 116.0639 4.2637 37.3169 -11.5815
# 4 12.0695 -9.9271 4.2637 27.4591 0.3973 -5.1820
# 5 14.8387 14.3679 37.3169 0.3973 31.2429 -7.5450
# 6 -20.0416 -5.1942 -11.5815 -5.1820 -7.5450 21.7422
#
#
#
# Elastic Compliance Matrix: (Units=1/GPa)
#
#
# Indices 1 2 3 4 5 6 
#
# 1 0.011622 -0.003380 0.002020 -0.005017 -0.004313 0.008289
# 2 -0.003380 0.013651 -0.001855 0.006721 -0.002575 -0.000134
# 3 0.002020 -0.001855 0.014605 -0.003091 -0.016883 0.002604
# 4 -0.005017 0.006721 -0.003091 0.042787 0.004121 0.006962
# 5 -0.004313 -0.002575 -0.016883 0.004121 0.057095 0.007211
# 6 0.008289 -0.000134 0.002604 0.006962 0.007211 0.059151
#
#
# Mechanical properties :
#
#
# Convention : Reuss Voigt Hill
#
# Bulk Modulus (GPa) = 29.89534 49.49222 39.69378
# Shear Modulus (GPa) = 23.09580 33.62347 28.35963
#
# Velocity S-wave (km/s) = 3.09147 3.73009 3.42570
# Velocity P-wave (km/s) = 5.01137 6.24753 5.66328
#
# Compressibility (1/GPa) = 0.03345003
#
# Stress axis : x y z
#
# Youngs Moduli (GPa) = 86.04339 73.25269 68.46910
#
# Poissons Ratio (x) = 0.24759 -0.13832
# Poissons Ratio (y) = 0.29082 0.12698
# Poissons Ratio (z) = -0.17383 0.13585
#
# Static dielectric constant tensor:
#      x y z
#    x 2.005050 -0.015660 -0.069820 
#    y -0.015660 2.084360 -0.173730 
#    z -0.069820 -0.173730 2.220620 
# 
# From -- ./inp_files/113239.got.cif
#   From: 2010.05.17/outbox.cif.g08.bks.cpg/sg2_57_cif.got.tgz:113239.got - 2010.06.03 11:33:40.
