data_PCOD9036761
_publ_section_title
;
Structure prediction by ZEFSAII (Michael W. Deem and Ramdas Pophale) SiO2 
 PCOD9036761
Probable space group: P -1
;
_chemical_formula_sum "Si O2"
_cell_formula_units_Z 14
_cell_length_a 15.037364
_cell_length_b 14.569667
_cell_length_c 5.687494
_cell_angle_alpha 89.069580
_cell_angle_beta 102.866632
_cell_angle_gamma 30.567107
_cell_volume 560.789716
_symmetry_space_group_name_H-M "P -1"
_symmetry_group_IT_number 2
_symmetry_cell_setting 'triclinic'
loop_
_space_group_symop_operation_xyz
x,y,z
-x,-y,-z
loop_
_atom_site_type_symbol
_atom_site_label
_atom_site_fract_x
_atom_site_fract_y
_atom_site_fract_z
Si Si1 0.905457 0.816242 0.663359
Si Si2 0.020895 0.033577 0.761427
Si Si3 0.561203 0.823063 0.012469
Si Si4 0.223338 0.222533 0.065422
Si Si5 0.609153 0.212930 0.214940
Si Si6 0.848473 0.513378 0.564749
Si Si7 0.754236 0.422775 0.771057
O O1 0.018935 0.668426 0.521288
O O2 0.753708 0.029821 0.486168
O O3 0.795619 0.830750 0.729814
O O4 0.069857 0.713798 0.934182
O O5 0.241927 0.877765 0.882356
O O6 0.000000 0.000000 0.500000
O O7 0.850209 0.263212 0.660892
O O8 0.000000 0.000000 0.000000
O O9 0.526595 0.746483 0.971326
O O10 0.356755 0.049915 0.958636
O O11 0.656534 0.789782 0.848064
O O12 0.716925 0.695930 0.320140
O O13 0.004651 0.426951 0.821830
O O14 0.452727 0.419710 0.238276
O O15 0.721543 0.550674 0.625137
#
# Coordination Sequence:
#
# PCOD9036761 Si02
#       7
#     2   2   2   2   2   2   2
#     4  11  21  43  68  99 147 194 241 298 355 424
#     4  12  29  52  80 114 149 184 241 313 385 463
#     4  11  22  40  63 101 137 193 252 298 359 430
#     4  10  23  39  60  96 150 191 246 308 351 411
#     4  12  24  47  77 103 143 196 241 304 372 445
#     4  11  21  41  66  96 144 191 243 295 355 425
#     4  11  25  46  75 106 140 194 241 293 374 448
#
# _framework density 24.964793
#
# number of rings (size 3 to 8) (size 9 to 14) (size 15 to 20)
#    0.000    0.857    4.286    3.000    0.000    3.429 
#    2.571    0.000    0.000    0.000    0.000    0.000 
#    0.000    0.000    0.000    0.000    0.000    0.000 
#
# Total GULP energy -78418.525087 kJ/mol
# GULP energy per Si atom -5601.323220 kJ/mol
# Density = 2.490797 g / cm^3
# Si number density = 24.964793 Si / 1000 Ang^3
#
#
#
# Elastic Constant Matrix: (Units=GPa)
#
#
# Indices 1 2 3 4 5 6 
#
# 1 121.7595 54.2049 33.3628 20.0025 -31.0308 -23.9872
# 2 54.2049 165.9242 31.3133 11.3833 3.2630 -24.0420
# 3 33.3628 31.3133 88.7524 -0.8610 -15.1530 1.3447
# 4 20.0025 11.3833 -0.8610 41.9738 1.8377 -1.7309
# 5 -31.0308 3.2630 -15.1530 1.8377 36.5841 20.7248
# 6 -23.9872 -24.0420 1.3447 -1.7309 20.7248 46.8248
#
#
#
# Elastic Compliance Matrix: (Units=1/GPa)
#
#
# Indices 1 2 3 4 5 6 
#
# 1 0.014969 -0.004400 -0.001930 -0.006565 0.012895 -0.000485
# 2 -0.004400 0.009320 -0.003448 0.000228 -0.010006 0.007068
# 3 -0.001930 -0.003448 0.014811 0.001491 0.008679 -0.006970
# 4 -0.006565 0.000228 0.001491 0.027245 -0.006736 0.000700
# 5 0.012895 -0.010006 0.008679 -0.006736 0.056786 -0.024164
# 6 -0.000485 0.007068 -0.006970 0.000700 -0.024164 0.035658
#
#
# Mechanical properties :
#
#
# Convention : Reuss Voigt Hill
#
# Bulk Modulus (GPa) = 51.16004 68.24426 59.70215
# Shear Modulus (GPa) = 27.04762 42.24689 34.64725
#
# Velocity S-wave (km/s) = 3.29512 4.11817 3.72942
# Velocity P-wave (km/s) = 5.91730 7.07163 6.52006
#
# Compressibility (1/GPa) = 0.01954651
#
# Stress axis : x y z
#
# Youngs Moduli (GPa) = 66.80292 107.29557 67.51742
#
# Poissons Ratio (x) = 0.47206 0.13028
# Poissons Ratio (y) = 0.29391 0.23278
# Poissons Ratio (z) = 0.12891 0.36993
#
# Static dielectric constant tensor:
#      x y z
#    x 2.015650 0.032040 0.015130 
#    y 0.032040 1.984490 0.060740 
#    z 0.015130 0.060740 2.011770 
# 
# From -- ./inp_files/97919.got.cif
#   From: 2010.05.17/outbox.cif.g08.bks.cpg/sg2_49_cif.got.tgz:97919.got - 2010.06.03 11:33:40.
