data_PCOD9036169
_publ_section_title
;
Structure prediction by ZEFSAII (Michael W. Deem and Ramdas Pophale) SiO2 
 PCOD9036169
Probable space group: P -1
;
_chemical_formula_sum "Si O2"
_cell_formula_units_Z 11
_cell_length_a 12.021922
_cell_length_b 9.130948
_cell_length_c 8.848662
_cell_angle_alpha 134.939616
_cell_angle_beta 132.067300
_cell_angle_gamma 49.254212
_cell_volume 479.733507
_symmetry_space_group_name_H-M "P -1"
_symmetry_group_IT_number 2
_symmetry_cell_setting 'triclinic'
loop_
_space_group_symop_operation_xyz
x,y,z
-x,-y,-z
loop_
_atom_site_type_symbol
_atom_site_label
_atom_site_fract_x
_atom_site_fract_y
_atom_site_fract_z
Si Si1 0.163780 0.988910 0.222900
Si Si2 0.135605 0.086109 0.617635
Si Si3 0.541625 0.453653 0.831814
Si Si4 0.518690 0.258740 0.270254
Si Si5 0.000000 0.500000 0.000000
Si Si6 0.295008 0.264707 0.313953
O O1 0.126198 0.097163 0.434319
O O2 0.250080 0.105642 0.272597
O O3 0.289866 0.742413 0.181403
O O4 0.000000 0.000000 0.000000
O O5 0.301216 0.897199 0.670003
O O6 0.111823 0.309480 0.847651
O O7 0.000000 0.000000 0.500000
O O8 0.542923 0.668454 0.900083
O O9 0.393966 0.387692 0.586934
O O10 0.500000 0.500000 0.000000
O O11 0.500000 0.500000 0.500000
O O12 0.416513 0.157864 0.210222
O O13 0.137272 0.419354 0.200422
#
# Coordination Sequence:
#
# PCOD9036169 Si02
#       6
#     2   2   2   2   1   2
#     4  12  28  48  77 113 159 205 259 330 393 464
#     4  12  26  50  75 111 160 205 262 323 394 468
#     4  11  26  47  79 114 152 201 262 321 401 467
#     4  10  22  47  80 105 149 204 256 317 387 466
#     4  12  30  44  78 112 156 204 266 316 392 464
#     4  11  26  51  73 114 151 203 263 320 391 467
#
# _framework density 22.929397000000002
#
# number of rings (size 3 to 8) (size 9 to 14) (size 15 to 20)
#    0.000    0.727    3.636    3.818   10.182    2.909 
#    0.000    0.000    0.000    0.000    0.000    0.000 
#    0.000    0.000    0.000    0.000    0.000    0.000 
#
# Total GULP energy -61280.169385 kJ/mol
# GULP energy per Si atom -5570.924490 kJ/mol
# Density = 2.287721 g / cm^3
# Si number density = 22.929397 Si / 1000 Ang^3
#
#
#
# Elastic Constant Matrix: (Units=GPa)
#
#
# Indices 1 2 3 4 5 6 
#
# 1 207.0053 88.0619 56.7558 -9.1245 -17.2599 16.8616
# 2 88.0619 169.3415 81.5717 -24.6488 -8.2021 -32.0414
# 3 56.7558 81.5717 132.8686 -21.5742 -35.4239 0.6526
# 4 -9.1245 -24.6488 -21.5742 42.4951 -1.2601 -4.4960
# 5 -17.2599 -8.2021 -35.4239 -1.2601 47.2802 -2.3571
# 6 16.8616 -32.0414 0.6526 -4.4960 -2.3571 57.4046
#
#
#
# Elastic Compliance Matrix: (Units=1/GPa)
#
#
# Indices 1 2 3 4 5 6 
#
# 1 0.007418 -0.005040 0.000089 -0.001774 0.001601 -0.005066
# 2 -0.005040 0.014138 -0.006893 0.004522 -0.003951 0.009642
# 3 0.000089 -0.006893 0.014978 0.003566 0.009987 -0.003355
# 4 -0.001774 0.004522 0.003566 0.028267 0.003830 0.005376
# 5 0.001601 -0.003951 0.009987 0.003830 0.028568 -0.001316
# 6 -0.005066 0.009642 -0.003355 0.005376 -0.001316 0.024695
#
#
# Mechanical properties :
#
#
# Convention : Reuss Voigt Hill
#
# Bulk Modulus (GPa) = 77.84502 106.88823 92.36663
# Shear Modulus (GPa) = 34.23847 48.29105 41.26476
#
# Velocity S-wave (km/s) = 3.86840 4.59418 4.24682
# Velocity P-wave (km/s) = 7.34686 8.65213 8.02607
#
# Compressibility (1/GPa) = 0.01284604
#
# Stress axis : x y z
#
# Youngs Moduli (GPa) = 134.80101 70.73341 66.76364
#
# Poissons Ratio (x) = 0.35648 -0.00593
# Poissons Ratio (y) = 0.67937 0.46021
# Poissons Ratio (z) = -0.01198 0.48757
#
# Static dielectric constant tensor:
#      x y z
#    x 1.874780 0.052090 0.031940 
#    y 0.052090 1.855330 0.054540 
#    z 0.031940 0.054540 1.910510 
# 
# From -- ./inp_files/234985.got.cif
#   From: 2010.05.17/outbox.cif.g08.bks.cpg/sg2_118_cif.got.tgz:234985.got - 2010.06.03 11:33:40.
