data_PCOD9036862
_publ_section_title
;
Structure prediction by ZEFSAII (Michael W. Deem and Ramdas Pophale) SiO2 
 PCOD9036862
Probable space group: P -1
;
_chemical_formula_sum "Si O2"
_cell_formula_units_Z 14
_cell_length_a 21.272871
_cell_length_b 6.598002
_cell_length_c 5.684094
_cell_angle_alpha 100.888083
_cell_angle_beta 71.304355
_cell_angle_gamma 134.378370
_cell_volume 539.402047
_symmetry_space_group_name_H-M "P -1"
_symmetry_group_IT_number 2
_symmetry_cell_setting 'triclinic'
loop_
_space_group_symop_operation_xyz
x,y,z
-x,-y,-z
loop_
_atom_site_type_symbol
_atom_site_label
_atom_site_fract_x
_atom_site_fract_y
_atom_site_fract_z
Si Si1 0.917969 0.309925 0.745733
Si Si2 0.972246 0.762648 0.159902
Si Si3 0.511409 0.277738 0.433557
Si Si4 0.487131 0.720343 0.069826
Si Si5 0.723135 0.589174 0.762231
Si Si6 0.796571 0.313022 0.559616
Si Si7 0.727199 0.765378 0.297679
O O1 0.832646 0.237191 0.704015
O O2 0.000000 0.500000 0.500000
O O3 0.940379 0.127898 0.773725
O O4 0.938262 0.502845 0.980575
O O5 0.886549 0.608884 0.401660
O O6 0.000000 0.000000 0.000000
O O7 0.500000 0.500000 0.500000
O O8 0.471363 0.117142 0.695412
O O9 0.620149 0.486759 0.356070
O O10 0.474670 0.123913 0.192941
O O11 0.379039 0.535380 0.157994
O O12 0.500000 0.500000 0.000000
O O13 0.733191 0.364630 0.729143
O O14 0.763468 0.726811 0.481578
O O15 0.760922 0.769579 0.000126
O O16 0.746093 0.047920 0.383616
#
# Coordination Sequence:
#
# PCOD9036862 Si02
#       7
#     2   2   2   2   2   2   2
#     4   9  22  43  62  92 124 163 213 273 331 406
#     4  10  23  44  68  92 125 168 221 271 338 407
#     4   8  14  29  55  82 117 169 214 254 320 384
#     4   8  14  29  54  83 120 167 215 259 315 386
#     4  10  23  39  64  96 131 179 221 270 344 396
#     4  11  25  41  66  96 133 170 224 282 335 407
#     4  10  23  40  62  95 135 174 219 277 337 394
#
# _framework density 25.954668000000002
#
# number of rings (size 3 to 8) (size 9 to 14) (size 15 to 20)
#    0.000    2.571    0.000    0.000    4.000    6.857 
#    0.000    0.000    0.000   27.429    0.000    0.000 
#    0.000    0.000    0.000    0.000    0.000    0.571 
#
# Total GULP energy -78190.916045 kJ/mol
# GULP energy per Si atom -5585.065432 kJ/mol
# Density = 2.589559 g / cm^3
# Si number density = 25.954668 Si / 1000 Ang^3
#
#
#
# Elastic Constant Matrix: (Units=GPa)
#
#
# Indices 1 2 3 4 5 6 
#
# 1 163.8116 52.8268 60.4233 -5.4545 -5.1326 -27.5355
# 2 52.8268 100.4087 29.5540 4.9200 2.3130 -18.3902
# 3 60.4233 29.5540 204.4489 17.0765 41.5804 -13.8507
# 4 -5.4545 4.9200 17.0765 52.2968 -11.4736 9.5275
# 5 -5.1326 2.3130 41.5804 -11.4736 49.7966 -12.8042
# 6 -27.5355 -18.3902 -13.8507 9.5275 -12.8042 41.8176
#
#
#
# Elastic Compliance Matrix: (Units=1/GPa)
#
#
# Indices 1 2 3 4 5 6 
#
# 1 0.009571 -0.003413 -0.003455 0.002871 0.005930 0.004819
# 2 -0.003413 0.012630 -0.000352 -0.002133 -0.000207 0.003613
# 3 -0.003455 -0.000352 0.007951 -0.004516 -0.008360 -0.001327
# 4 0.002871 -0.002133 -0.004516 0.023611 0.008774 -0.003236
# 5 0.005930 -0.000207 -0.008360 0.008774 0.031977 0.008837
# 6 0.004819 0.003613 -0.001327 -0.003236 0.008837 0.031678
#
#
# Mechanical properties :
#
#
# Convention : Reuss Voigt Hill
#
# Bulk Modulus (GPa) = 63.64722 83.80858 73.72790
# Shear Modulus (GPa) = 36.47135 50.50654 43.48894
#
# Velocity S-wave (km/s) = 3.75266 4.41608 4.09782
# Velocity P-wave (km/s) = 6.58425 7.63956 7.13145
#
# Compressibility (1/GPa) = 0.01571160
#
# Stress axis : x y z
#
# Youngs Moduli (GPa) = 104.48333 79.17894 125.77715
#
# Poissons Ratio (x) = 0.27027 0.43450
# Poissons Ratio (y) = 0.35664 0.04425
# Poissons Ratio (z) = 0.36094 0.02786
#
# Static dielectric constant tensor:
#      x y z
#    x 2.154400 0.220050 -0.196040 
#    y 0.220050 2.543420 -0.371530 
#    z -0.196040 -0.371530 2.381810 
# 
# From -- ./inp_files/9935.got.cif
#   From: 2010.05.17/outbox.cif.g08.bks.cpg/sg2_5_cif.got.tgz:9935.got - 2010.06.03 11:33:40.
