data_PCOD9036086
_publ_section_title
;
Structure prediction by ZEFSAII (Michael W. Deem and Ramdas Pophale) SiO2 
 PCOD9036086
Probable space group: P -1
;
_chemical_formula_sum "Si O2"
_cell_formula_units_Z 14
_cell_length_a 18.104330
_cell_length_b 22.013414
_cell_length_c 9.569925
_cell_angle_alpha 147.378044
_cell_angle_beta 138.762650
_cell_angle_gamma 18.009878
_cell_volume 607.621526
_symmetry_space_group_name_H-M "P -1"
_symmetry_group_IT_number 2
_symmetry_cell_setting 'triclinic'
loop_
_space_group_symop_operation_xyz
x,y,z
-x,-y,-z
loop_
_atom_site_type_symbol
_atom_site_label
_atom_site_fract_x
_atom_site_fract_y
_atom_site_fract_z
Si Si1 0.541012 0.346797 0.680658
Si Si2 0.526790 0.119844 0.913077
Si Si3 0.747776 0.219719 0.247083
Si Si4 0.146943 0.644367 0.455784
Si Si5 0.330613 0.059716 0.539262
Si Si6 0.543166 0.659809 0.163293
Si Si7 0.917377 0.930821 0.196908
O O1 0.312461 0.528339 0.602327
O O2 0.539234 0.261767 0.640631
O O3 0.789304 0.122564 0.504967
O O4 0.500000 0.500000 0.000000
O O5 0.378553 0.145892 0.811326
O O6 0.667244 0.954124 0.651950
O O7 0.331195 0.398396 0.150994
O O8 0.737993 0.982139 0.044999
O O9 0.500000 0.500000 0.500000
O O10 0.905500 0.187875 0.365372
O O11 0.869874 0.029817 0.169228
O O12 0.651904 0.231760 0.003536
O O13 0.912272 0.780307 0.429989
O O14 0.557283 0.775018 0.355819
O O15 0.803918 0.359686 0.943572
#
# Coordination Sequence:
#
# PCOD9036086 Si02
#       7
#     2   2   2   2   2   2   2
#     4  11  23  42  66 103 143 182 229 284 351 417
#     4  10  22  47  72  99 135 184 239 289 343 408
#     4  12  22  45  71 101 140 187 226 279 360 414
#     4  11  23  44  69 103 142 179 232 293 346 413
#     4  11  24  43  73 101 134 187 240 283 343 417
#     4  12  26  43  65 110 139 185 232 282 354 418
#     4  11  25  47  69 103 148 181 229 294 347 417
#
# _framework density 23.040659000000002
#
# number of rings (size 3 to 8) (size 9 to 14) (size 15 to 20)
#    0.000    0.857    5.714    1.286    0.000    6.857 
#    2.571    2.857    0.000    0.000    0.000    0.000 
#    0.000    0.000    0.000    0.000    0.000    0.000 
#
# Total GULP energy -78378.678160 kJ/mol
# GULP energy per Si atom -5598.477011 kJ/mol
# Density = 2.298822 g / cm^3
# Si number density = 23.040659 Si / 1000 Ang^3
#
#
#
# Elastic Constant Matrix: (Units=GPa)
#
#
# Indices 1 2 3 4 5 6 
#
# 1 115.7120 43.5305 36.5361 -4.1386 11.8571 -14.2946
# 2 43.5305 107.9909 40.5163 5.2649 1.7354 -8.6395
# 3 36.5361 40.5163 102.1265 2.1297 8.0088 -4.8675
# 4 -4.1386 5.2649 2.1297 34.8769 -5.8355 -4.3473
# 5 11.8571 1.7354 8.0088 -5.8355 54.0826 0.6818
# 6 -14.2946 -8.6395 -4.8675 -4.3473 0.6818 41.8118
#
#
#
# Elastic Compliance Matrix: (Units=1/GPa)
#
#
# Indices 1 2 3 4 5 6 
#
# 1 0.011376 -0.003495 -0.002434 0.002110 -0.001833 0.003133
# 2 -0.003495 0.012133 -0.003546 -0.001826 0.000696 0.000698
# 3 -0.002434 -0.003546 0.012172 -0.000728 -0.001231 -0.000204
# 4 0.002110 -0.001826 -0.000728 0.030148 0.002915 0.003346
# 5 -0.001833 0.000696 -0.001231 0.002915 0.019375 -0.000639
# 6 0.003133 0.000698 -0.000204 0.003346 -0.000639 0.025467
#
#
# Mechanical properties :
#
#
# Convention : Reuss Voigt Hill
#
# Bulk Modulus (GPa) = 59.77496 62.99949 61.38722
# Shear Modulus (GPa) = 36.98307 39.83737 38.41022
#
# Velocity S-wave (km/s) = 4.01074 4.16264 4.08740
# Velocity P-wave (km/s) = 6.88823 7.10672 6.99833
#
# Compressibility (1/GPa) = 0.01672941
#
# Stress axis : x y z
#
# Youngs Moduli (GPa) = 87.90512 82.41894 82.15888
#
# Poissons Ratio (x) = 0.28806 0.19998
# Poissons Ratio (y) = 0.30724 0.29137
# Poissons Ratio (z) = 0.21397 0.29229
#
# Static dielectric constant tensor:
#      x y z
#    x 1.943730 -0.011800 -0.022270 
#    y -0.011800 1.868840 0.014190 
#    z -0.022270 0.014190 1.902830 
# 
# From -- ./inp_files/337941.got.cif
#   From: 2010.05.17/outbox.cif.g08.bks.cpg/sg2_169_cif.got.tgz:337941.got - 2010.06.03 11:33:40.
