data_PCOD9036276
_publ_section_title
;
Structure prediction by ZEFSAII (Michael W. Deem and Ramdas Pophale) SiO2 
 PCOD9036276
Probable space group: P -1
;
_chemical_formula_sum "Si O2"
_cell_formula_units_Z 16
_cell_length_a 17.887734
_cell_length_b 20.657645
_cell_length_c 8.216156
_cell_angle_alpha 133.336603
_cell_angle_beta 142.266198
_cell_angle_gamma 21.004069
_cell_volume 646.974732
_symmetry_space_group_name_H-M "P -1"
_symmetry_group_IT_number 2
_symmetry_cell_setting 'triclinic'
loop_
_space_group_symop_operation_xyz
x,y,z
-x,-y,-z
loop_
_atom_site_type_symbol
_atom_site_label
_atom_site_fract_x
_atom_site_fract_y
_atom_site_fract_z
Si Si1 0.937155 0.227071 0.518077
Si Si2 0.524263 0.334529 0.553619
Si Si3 0.978420 0.895745 0.894511
Si Si4 0.582514 0.346884 0.320405
Si Si5 0.848329 0.542327 0.676692
Si Si6 0.520892 0.843526 0.383421
Si Si7 0.086350 0.639191 0.780068
Si Si8 0.326812 0.069619 0.153530
O O1 0.689314 0.448458 0.433325
O O2 0.051624 0.117064 0.361437
O O3 0.837879 0.208063 0.424004
O O4 0.153689 0.143712 0.840153
O O5 0.589665 0.284807 0.389476
O O6 0.389705 0.341280 0.428105
O O7 0.792293 0.182033 0.838214
O O8 0.091877 0.739350 0.919612
O O9 0.705601 0.078825 0.824836
O O10 0.500000 0.500000 0.500000
O O11 0.365763 0.444016 0.999607
O O12 0.770355 0.648625 0.566346
O O13 0.968330 0.380725 0.512069
O O14 0.000000 0.500000 0.000000
O O15 0.497625 0.957006 0.623443
O O16 0.482361 0.893346 0.213657
O O17 0.882276 0.759912 0.781122
#
# Coordination Sequence:
#
# PCOD9036276 Si02
#       8
#     2   2   2   2   2   2   2   2
#     4  11  18  34  67 102 120 154 218 269 304 363
#     4  11  20  38  66  96 130 159 212 265 314 362
#     4  11  21  38  68  99 123 167 214 265 316 366
#     4  10  17  32  62 103 123 151 212 270 306 358
#     4  12  27  44  62  94 133 168 210 259 324 385
#     4  10  25  44  58  93 129 172 209 257 323 379
#     4  11  20  38  68  96 122 168 211 264 314 371
#     4  10  21  43  66  89 126 168 216 267 302 377
#
# _framework density 24.730488000000001
#
# number of rings (size 3 to 8) (size 9 to 14) (size 15 to 20)
#    0.000    1.250    6.250    2.625    0.000    1.500 
#    4.500    0.000    0.000    3.000    0.000    0.000 
#    0.000    0.000    0.000    0.000    0.000    0.000 
#
# Total GULP energy -89414.118740 kJ/mol
# GULP energy per Si atom -5588.382421 kJ/mol
# Density = 2.467420 g / cm^3
# Si number density = 24.730488 Si / 1000 Ang^3
#
#
#
# Elastic Constant Matrix: (Units=GPa)
#
#
# Indices 1 2 3 4 5 6 
#
# 1 83.5444 5.8602 3.0351 4.8047 15.3191 -0.9216
# 2 5.8602 54.6555 22.8370 -12.3397 -3.4142 8.3474
# 3 3.0351 22.8370 166.6800 0.0946 6.4243 -10.0421
# 4 4.8047 -12.3397 0.0946 17.9873 -0.3881 -4.4873
# 5 15.3191 -3.4142 6.4243 -0.3881 38.9028 3.3339
# 6 -0.9216 8.3474 -10.0421 -4.4873 3.3339 17.3248
#
#
#
# Elastic Compliance Matrix: (Units=1/GPa)
#
#
# Indices 1 2 3 4 5 6 
#
# 1 0.013700 -0.003843 0.000677 -0.005768 -0.006129 0.002658
# 2 -0.003843 0.026571 -0.004561 0.016271 0.005837 -0.012559
# 3 0.000677 -0.004561 0.007087 -0.001819 -0.002398 0.006332
# 4 -0.005768 0.016271 -0.001819 0.070460 0.003993 0.008280
# 5 -0.006129 0.005837 -0.002398 0.003993 0.029858 -0.009240
# 6 0.002658 -0.012559 0.006332 0.008280 -0.009240 0.071507
#
#
# Mechanical properties :
#
#
# Convention : Reuss Voigt Hill
#
# Bulk Modulus (GPa) = 31.34555 40.92720 36.13638
# Shear Modulus (GPa) = 20.38560 33.05280 26.71920
#
# Velocity S-wave (km/s) = 2.87420 3.65981 3.29053
# Velocity P-wave (km/s) = 4.87002 5.86892 5.39264
#
# Compressibility (1/GPa) = 0.03190245
#
# Stress axis : x y z
#
# Youngs Moduli (GPa) = 72.99511 37.63537 141.10146
#
# Poissons Ratio (x) = 0.14462 -0.09548
# Poissons Ratio (y) = 0.28050 0.64362
# Poissons Ratio (z) = -0.04939 0.17167
#
# Static dielectric constant tensor:
#      x y z
#    x 2.011750 0.012390 0.058240 
#    y 0.012390 2.110020 -0.029700 
#    z 0.058240 -0.029700 1.962440 
# 
# From -- ./inp_files/337775.got.cif
#   From: 2010.05.17/outbox.cif.g08.bks.cpg/sg2_169_cif.got.tgz:337775.got - 2010.06.03 11:33:40.
