data_PCOD9036454
_publ_section_title
;
Structure prediction by ZEFSAII (Michael W. Deem and Ramdas Pophale) SiO2 
 PCOD9036454
Probable space group: P -1
;
_chemical_formula_sum "Si O2"
_cell_formula_units_Z 14
_cell_length_a 14.646975
_cell_length_b 12.514518
_cell_length_c 15.265187
_cell_angle_alpha 27.567071
_cell_angle_beta 146.811038
_cell_angle_gamma 149.652600
_cell_volume 622.581156
_symmetry_space_group_name_H-M "P -1"
_symmetry_group_IT_number 2
_symmetry_cell_setting 'triclinic'
loop_
_space_group_symop_operation_xyz
x,y,z
-x,-y,-z
loop_
_atom_site_type_symbol
_atom_site_label
_atom_site_fract_x
_atom_site_fract_y
_atom_site_fract_z
Si Si1 0.360547 0.719611 0.476018
Si Si2 0.011892 0.291709 0.097586
Si Si3 0.981595 0.781363 0.451722
Si Si4 0.242390 0.571320 0.911928
Si Si5 0.191227 0.263349 0.931418
Si Si6 0.234157 0.810695 0.485191
Si Si7 0.344554 0.012783 0.091470
O O1 0.238739 0.781696 0.405792
O O2 0.243906 0.404531 0.608088
O O3 0.573360 0.928156 0.523109
O O4 0.345706 0.787674 0.315637
O O5 0.039311 0.064302 0.332457
O O6 0.167980 0.440639 0.040223
O O7 0.000000 0.500000 0.000000
O O8 0.818106 0.124207 0.010129
O O9 0.086802 0.643943 0.689668
O O10 0.068015 0.834447 0.383885
O O11 0.273570 0.379459 0.009049
O O12 0.447674 0.819919 0.902246
O O13 0.211554 0.533947 0.706310
O O14 0.297734 0.173077 0.012534
O O15 0.000000 0.000000 0.000000
#
# Coordination Sequence:
#
# PCOD9036454 Si02
#       7
#     2   2   2   2   2   2   2
#     4  11  21  37  65  98 142 179 218 267 341 419
#     4  12  29  49  72  98 131 183 243 294 345 399
#     4  11  23  45  69  95 135 181 226 284 346 402
#     4  11  25  45  70 104 139 178 232 277 350 417
#     4  11  20  38  67 103 143 183 210 273 343 414
#     4  10  23  37  60 105 140 178 226 262 340 425
#     4  12  23  44  68 104 144 181 224 283 341 410
#
# _framework density 22.487030000000001
#
# number of rings (size 3 to 8) (size 9 to 14) (size 15 to 20)
#    0.000    0.857    5.714    2.571    2.000    4.571 
#    0.000    0.714    0.000    0.000    0.000    0.000 
#    0.000    0.000    0.000    0.000    0.000    0.000 
#
# Total GULP energy -78152.760212 kJ/mol
# GULP energy per Si atom -5582.340015 kJ/mol
# Density = 2.243585 g / cm^3
# Si number density = 22.487030 Si / 1000 Ang^3
#
#
#
# Elastic Constant Matrix: (Units=GPa)
#
#
# Indices 1 2 3 4 5 6 
#
# 1 71.2824 73.3261 23.8061 -25.8468 -8.2000 7.2375
# 2 73.3261 117.1273 48.0335 -38.7217 -7.0897 34.2296
# 3 23.8061 48.0335 72.5525 -23.6172 -10.6524 5.9969
# 4 -25.8468 -38.7217 -23.6172 35.1510 -2.7238 -3.6311
# 5 -8.2000 -7.0897 -10.6524 -2.7238 22.7055 -16.1822
# 6 7.2375 34.2296 5.9969 -3.6311 -16.1822 46.4020
#
#
#
# Elastic Compliance Matrix: (Units=1/GPa)
#
#
# Indices 1 2 3 4 5 6 
#
# 1 0.110128 -0.100234 0.040709 0.013408 0.088675 0.083475
# 2 -0.100234 0.112847 -0.045979 0.003420 -0.087676 -0.091977
# 3 0.040709 -0.045979 0.039209 0.013679 0.049478 0.040826
# 4 0.013408 0.003420 0.013679 0.053639 0.022896 0.005800
# 5 0.088675 -0.087676 0.049478 0.022896 0.143198 0.096182
# 6 0.083475 -0.091977 0.040826 0.005800 0.096182 0.105100
#
#
# Mechanical properties :
#
#
# Convention : Reuss Voigt Hill
#
# Bulk Modulus (GPa) = 19.54042 61.25487 40.39764
# Shear Modulus (GPa) = 6.31165 28.57147 17.44156
#
# Velocity S-wave (km/s) = 1.67717 3.56838 2.78803
# Velocity P-wave (km/s) = 3.52973 6.65410 5.32616
#
# Compressibility (1/GPa) = 0.05117598
#
# Stress axis : x y z
#
# Youngs Moduli (GPa) = 9.08037 8.86157 25.50463
#
# Poissons Ratio (x) = 0.88823 -1.03826
# Poissons Ratio (y) = 0.91016 1.17267
# Poissons Ratio (z) = -0.36965 0.40744
#
# Static dielectric constant tensor:
#      x y z
#    x 1.781000 0.034530 0.023960 
#    y 0.034530 1.839060 0.006180 
#    z 0.023960 0.006180 1.957140 
# 
# From -- ./inp_files/530917.got.cif
#   From: 2010.05.17/outbox.cif.g08.bks.cpg/sg2_266_cif.got.tgz:530917.got - 2010.06.03 11:33:40.
