data_PCOD9036913
_publ_section_title
;
Structure prediction by ZEFSAII (Michael W. Deem and Ramdas Pophale) SiO2 
 PCOD9036913
Probable space group: P -1
;
_chemical_formula_sum "Si O2"
_cell_formula_units_Z 16
_cell_length_a 10.972625
_cell_length_b 13.682782
_cell_length_c 8.808270
_cell_angle_alpha 98.148907
_cell_angle_beta 88.080745
_cell_angle_gamma 31.919403
_cell_volume 661.587561
_symmetry_space_group_name_H-M "P -1"
_symmetry_group_IT_number 2
_symmetry_cell_setting 'triclinic'
loop_
_space_group_symop_operation_xyz
x,y,z
-x,-y,-z
loop_
_atom_site_type_symbol
_atom_site_label
_atom_site_fract_x
_atom_site_fract_y
_atom_site_fract_z
Si Si1 0.892692 0.900889 0.095003
Si Si2 0.433237 0.246342 0.966409
Si Si3 0.166778 0.393052 0.283618
Si Si4 0.401933 0.991682 0.631499
Si Si5 0.371391 0.485988 0.832758
Si Si6 0.102674 0.906888 0.306756
Si Si7 0.845453 0.457409 0.433058
Si Si8 0.730117 0.995223 0.653148
O O1 0.822169 0.860637 0.207502
O O2 0.928601 0.973626 0.211987
O O3 0.662626 0.077544 0.033834
O O4 0.137089 0.710939 0.945862
O O5 0.209426 0.366385 0.099435
O O6 0.381738 0.390025 0.933375
O O7 0.500150 0.130879 0.795916
O O8 0.204090 0.473467 0.378143
O O9 0.924630 0.505673 0.362484
O O10 0.373568 0.184982 0.309487
O O11 0.340468 0.945947 0.505987
O O12 0.500000 0.000000 0.500000
O O13 0.647105 0.331540 0.771701
O O14 0.329785 0.471389 0.662405
O O15 0.174405 0.968608 0.275388
O O16 0.000000 0.000000 0.500000
O O17 0.064462 0.228464 0.388206
#
# Coordination Sequence:
#
# PCOD9036913 Si02
#       8
#     2   2   2   2   2   2   2   2
#     4  11  24  45  69 101 135 176 229 272 332 400
#     4  10  24  41  67  98 133 175 220 275 332 394
#     4  10  23  39  65  97 135 178 222 275 330 402
#     4  11  22  40  70  98 133 180 220 273 334 397
#     4  11  25  44  68  96 140 174 224 281 333 395
#     4  11  24  45  71  96 132 179 223 278 334 398
#     4  11  23  41  63  98 136 175 226 271 334 402
#     4  11  22  42  65  96 134 173 222 272 334 391
#
# _framework density 24.184252999999998
#
# number of rings (size 3 to 8) (size 9 to 14) (size 15 to 20)
#    0.000    1.250    3.750    1.875    3.500    4.000 
#    2.250    0.625    0.000    0.000    0.000    0.000 
#    0.000    0.000    0.000    0.000    0.000    0.000 
#
# Total GULP energy -89220.549387 kJ/mol
# GULP energy per Si atom -5576.284337 kJ/mol
# Density = 2.412921 g / cm^3
# Si number density = 24.184253 Si / 1000 Ang^3
#
#
#
# Elastic Constant Matrix: (Units=GPa)
#
#
# Indices 1 2 3 4 5 6 
#
# 1 38.6053 -3.8445 -4.9000 -0.3916 7.5238 0.0985
# 2 -3.8445 62.1432 7.2773 2.0098 4.4299 -0.4445
# 3 -4.9000 7.2773 101.4444 5.6333 -9.6686 1.3991
# 4 -0.3916 2.0098 5.6333 40.2596 -4.1963 7.9971
# 5 7.5238 4.4299 -9.6686 -4.1963 33.7607 -1.7232
# 6 0.0985 -0.4445 1.3991 7.9971 -1.7232 29.0859
#
#
#
# Elastic Compliance Matrix: (Units=1/GPa)
#
#
# Indices 1 2 3 4 5 6 
#
# 1 0.027409 0.002087 0.000608 -0.000514 -0.006288 -0.000321
# 2 0.002087 0.016638 -0.001340 -0.001031 -0.003139 0.000409
# 3 0.000608 -0.001340 0.010315 -0.001061 0.002860 -0.000058
# 4 -0.000514 -0.001031 -0.001061 0.026756 0.002907 -0.007147
# 5 -0.006288 -0.003139 0.002860 0.002907 0.032664 0.000972
# 6 -0.000321 0.000409 -0.000058 -0.007147 0.000972 0.036414
#
#
# Mechanical properties :
#
#
# Convention : Reuss Voigt Hill
#
# Bulk Modulus (GPa) = 17.52173 22.13984 19.83078
# Shear Modulus (GPa) = 30.02798 34.19855 32.11327
#
# Velocity S-wave (km/s) = 3.52750 3.76451 3.64793
# Velocity P-wave (km/s) = 4.88384 5.29810 5.09518
#
# Compressibility (1/GPa) = 0.05707199
#
# Stress axis : x y z
#
# Youngs Moduli (GPa) = 36.48392 60.10329 96.94234
#
# Poissons Ratio (x) = -0.12544 -0.05893
# Poissons Ratio (y) = -0.07615 0.12994
# Poissons Ratio (z) = -0.02218 0.08056
#
# Static dielectric constant tensor:
#      x y z
#    x 2.122190 -0.057530 -0.030010 
#    y -0.057530 1.959820 0.044250 
#    z -0.030010 0.044250 2.009010 
# 
# From -- ./inp_files/208206.got.cif
#   From: 2010.05.17/outbox.cif.g08.bks.cpg/sg2_105_cif.got.tgz:208206.got - 2010.06.03 11:33:40.
