data_PCOD9036265
_publ_section_title
;
Structure prediction by ZEFSAII (Michael W. Deem and Ramdas Pophale) SiO2 
 PCOD9036265
Probable space group: P -1
;
_chemical_formula_sum "Si O2"
_cell_formula_units_Z 14
_cell_length_a 25.619270
_cell_length_b 15.768575
_cell_length_c 5.395357
_cell_angle_alpha 107.042434
_cell_angle_beta 65.808846
_cell_angle_gamma 162.787894
_cell_volume 547.886260
_symmetry_space_group_name_H-M "P -1"
_symmetry_group_IT_number 2
_symmetry_cell_setting 'triclinic'
loop_
_space_group_symop_operation_xyz
x,y,z
-x,-y,-z
loop_
_atom_site_type_symbol
_atom_site_label
_atom_site_fract_x
_atom_site_fract_y
_atom_site_fract_z
Si Si1 0.967264 0.664246 0.132675
Si Si2 0.242701 0.545095 0.000792
Si Si3 0.120913 0.201032 0.188635
Si Si4 0.458149 0.587778 0.633971
Si Si5 0.680205 0.159185 0.634680
Si Si6 0.156130 0.771951 0.727816
Si Si7 0.319549 0.219741 0.298788
O O1 0.772172 0.333498 0.352524
O O2 0.123259 0.910091 0.260661
O O3 0.061389 0.727535 0.831951
O O4 0.918132 0.679982 0.092936
O O5 0.167462 0.374821 0.228136
O O6 0.292371 0.719821 0.124921
O O7 0.446142 0.800546 0.742665
O O8 0.326734 0.454107 0.954594
O O9 0.000000 0.000000 0.500000
O O10 0.000000 0.000000 0.000000
O O11 0.316826 0.305696 0.537307
O O12 0.609578 0.756745 0.652940
O O13 0.607787 0.854366 0.367948
O O14 0.799834 0.247504 0.550871
O O15 0.000000 0.500000 0.000000
O O16 0.500000 0.500000 0.000000
#
# Coordination Sequence:
#
# PCOD9036265 Si02
#       7
#     2   2   2   2   2   2   2
#     4  11  25  44  79 117 157 204 272 328 411 484
#     4  11  26  49  77 112 157 205 271 335 405 479
#     4  12  32  52  83 117 162 222 276 337 411 492
#     4  11  26  51  76 114 162 207 276 336 407 488
#     4  10  24  48  74 110 155 211 263 333 404 482
#     4  10  22  48  75 115 153 209 262 325 403 485
#     4  11  26  45  79 114 158 208 261 346 409 481
#
# _framework density 25.552748999999999
#
# number of rings (size 3 to 8) (size 9 to 14) (size 15 to 20)
#    0.000    1.143    2.857    0.429   10.000    0.571 
#    7.714    0.000    0.000    0.000    0.000    0.000 
#    0.000    0.000    0.000    0.000    0.000    0.000 
#
# Total GULP energy -78256.243420 kJ/mol
# GULP energy per Si atom -5589.731673 kJ/mol
# Density = 2.549459 g / cm^3
# Si number density = 25.552749 Si / 1000 Ang^3
#
#
#
# Elastic Constant Matrix: (Units=GPa)
#
#
# Indices 1 2 3 4 5 6 
#
# 1 129.5232 67.4015 64.4093 -5.9093 -11.9361 0.1329
# 2 67.4015 106.6463 57.0484 -11.8312 -0.1796 0.7651
# 3 64.4093 57.0484 150.0011 -37.0329 -5.8868 5.2650
# 4 -5.9093 -11.8312 -37.0329 56.0569 -11.7985 2.2176
# 5 -11.9361 -0.1796 -5.8868 -11.7985 50.3304 -0.7173
# 6 0.1329 0.7651 5.2650 2.2176 -0.7173 7.8663
#
#
#
# Elastic Compliance Matrix: (Units=1/GPa)
#
#
# Indices 1 2 3 4 5 6 
#
# 1 0.013059 -0.006539 -0.003688 -0.002123 0.002197 0.003682
# 2 -0.006539 0.015122 -0.003000 0.000121 -0.001813 0.000449
# 3 -0.003688 -0.003000 0.011651 0.007487 0.002099 -0.009363
# 4 -0.002123 0.000121 0.007487 0.024276 0.005903 -0.011292
# 5 0.002197 -0.001813 0.002099 0.005903 0.021999 -0.000924
# 6 0.003682 0.000449 -0.009363 -0.011292 -0.000924 0.136385
#
#
# Mechanical properties :
#
#
# Convention : Reuss Voigt Hill
#
# Bulk Modulus (GPa) = 74.75392 84.87655 79.81523
# Shear Modulus (GPa) = 19.73130 36.00480 27.86805
#
# Velocity S-wave (km/s) = 2.78183 3.75779 3.30602
# Velocity P-wave (km/s) = 6.29574 7.21916 6.77320
#
# Compressibility (1/GPa) = 0.01337723
#
# Stress axis : x y z
#
# Youngs Moduli (GPa) = 76.57513 66.13044 85.83268
#
# Poissons Ratio (x) = 0.43243 0.31652
# Poissons Ratio (y) = 0.50073 0.25753
# Poissons Ratio (z) = 0.28238 0.19841
#
# Static dielectric constant tensor:
#      x y z
#    x 2.035450 -0.016150 0.012050 
#    y -0.016150 2.120760 0.046410 
#    z 0.012050 0.046410 2.009160 
# 
# From -- ./inp_files/124297.got.cif
#   From: 2010.05.17/outbox.cif.g08.bks.cpg/sg2_63_cif.got.tgz:124297.got - 2010.06.03 11:33:40.
