data_PCOD9036487
_publ_section_title
;
Structure prediction by ZEFSAII (Michael W. Deem and Ramdas Pophale) SiO2 
 PCOD9036487
Probable space group: P -1
;
_chemical_formula_sum "Si O2"
_cell_formula_units_Z 16
_cell_length_a 10.420805
_cell_length_b 8.030730
_cell_length_c 16.573041
_cell_angle_alpha 118.644004
_cell_angle_beta 147.177709
_cell_angle_gamma 55.920239
_cell_volume 622.550209
_symmetry_space_group_name_H-M "P -1"
_symmetry_group_IT_number 2
_symmetry_cell_setting 'triclinic'
loop_
_space_group_symop_operation_xyz
x,y,z
-x,-y,-z
loop_
_atom_site_type_symbol
_atom_site_label
_atom_site_fract_x
_atom_site_fract_y
_atom_site_fract_z
Si Si1 0.527719 0.280254 0.923680
Si Si2 0.676594 0.192594 0.673818
Si Si3 0.059290 0.421746 0.803674
Si Si4 0.023529 0.764703 0.555304
Si Si5 0.574376 0.583994 0.273176
Si Si6 0.758959 0.907626 0.065679
Si Si7 0.229562 0.765589 0.490654
Si Si8 0.318606 0.198979 0.336542
O O1 0.247434 0.291424 0.805061
O O2 0.554728 0.312479 0.851835
O O3 0.500000 0.500000 0.000000
O O4 0.694769 0.059032 0.990601
O O5 0.610833 0.386423 0.741841
O O6 0.460483 0.228589 0.500921
O O7 0.957793 0.094699 0.765963
O O8 0.663308 0.027923 0.694081
O O9 0.172603 0.331397 0.928868
O O10 0.807073 0.378231 0.632816
O O11 0.966124 0.658580 0.794316
O O12 0.256963 0.648610 0.708759
O O13 0.140349 0.706245 0.514392
O O14 0.793716 0.682801 0.431087
O O15 0.930559 0.003716 0.561106
O O16 0.500000 0.000000 0.000000
O O17 0.512005 0.769176 0.639415
#
# Coordination Sequence:
#
# PCOD9036487 Si02
#       8
#     2   2   2   2   2   2   2   2
#     4  11  25  44  68  89 123 185 231 267 318 390
#     4  11  23  40  65 101 135 170 217 271 337 393
#     4  11  22  39  65  94 133 165 222 275 321 396
#     4  10  23  37  63  98 138 169 208 264 355 394
#     4  11  23  41  64  96 134 171 216 283 325 396
#     4  10  24  43  64  91 123 177 227 268 312 382
#     4  11  20  38  61 100 135 171 202 263 339 409
#     4  11  23  36  67 104 134 168 209 274 342 402
#
# _framework density 25.700738000000001
#
# number of rings (size 3 to 8) (size 9 to 14) (size 15 to 20)
#    0.000    1.250    3.750    1.875    5.250    0.500 
#    0.000    0.000    0.000    3.750    0.000    0.000 
#    0.000    0.000    0.000    0.000    0.000    0.000 
#
# Total GULP energy -89128.747657 kJ/mol
# GULP energy per Si atom -5570.546729 kJ/mol
# Density = 2.564224 g / cm^3
# Si number density = 25.700738 Si / 1000 Ang^3
#
#
#
# Elastic Constant Matrix: (Units=GPa)
#
#
# Indices 1 2 3 4 5 6 
#
# 1 87.2846 13.5670 26.9992 -16.4215 4.3138 2.8732
# 2 13.5670 104.5832 33.6716 -52.3370 -11.3018 11.8157
# 3 26.9992 33.6716 89.3664 -44.0842 -3.5187 -3.4265
# 4 -16.4215 -52.3370 -44.0842 61.8080 10.3459 -3.2539
# 5 4.3138 -11.3018 -3.5187 10.3459 38.9583 -8.3965
# 6 2.8732 11.8157 -3.4265 -3.2539 -8.3965 36.0765
#
#
#
# Elastic Compliance Matrix: (Units=1/GPa)
#
#
# Indices 1 2 3 4 5 6 
#
# 1 0.012948 0.000034 -0.003431 0.001342 -0.002483 -0.001825
# 2 0.000034 0.017275 0.000650 0.014842 0.000218 -0.004209
# 3 -0.003431 0.000650 0.018536 0.013114 -0.000624 0.002859
# 4 0.001342 0.014842 0.013114 0.039286 -0.005401 -0.001436
# 5 -0.002483 0.000218 -0.000624 -0.005401 0.028735 0.006268
# 6 -0.001825 -0.004209 0.002859 -0.001436 0.006268 0.030844
#
#
# Mechanical properties :
#
#
# Convention : Reuss Voigt Hill
#
# Bulk Modulus (GPa) = 23.11343 47.74553 35.42948
# Shear Modulus (GPa) = 29.84396 41.16831 35.50613
#
# Velocity S-wave (km/s) = 3.41135 4.00663 3.72092
# Velocity P-wave (km/s) = 4.95270 6.32629 5.68116
#
# Compressibility (1/GPa) = 0.04326490
#
# Stress axis : x y z
#
# Youngs Moduli (GPa) = 77.23285 57.88779 53.94977
#
# Poissons Ratio (x) = -0.00198 0.18508
# Poissons Ratio (y) = -0.00264 -0.03505
# Poissons Ratio (z) = 0.26495 -0.03761
#
# Static dielectric constant tensor:
#      x y z
#    x 2.106730 0.065360 0.113440 
#    y 0.065360 2.090000 0.031500 
#    z 0.113440 0.031500 2.124130 
# 
# From -- ./inp_files/593253.got.cif
#   From: 2010.05.17/outbox.cif.g08.bks.cpg/sg2_297_cif.got.tgz:593253.got - 2010.06.03 11:33:40.
