data_PCOD9036820
_publ_section_title
;
Structure prediction by ZEFSAII (Michael W. Deem and Ramdas Pophale) SiO2 
 PCOD9036820
Probable space group: P -1
;
_chemical_formula_sum "Si O2"
_cell_formula_units_Z 12
_cell_length_a 8.492449
_cell_length_b 19.060686
_cell_length_c 5.288322
_cell_angle_alpha 67.833524
_cell_angle_beta 61.173244
_cell_angle_gamma 42.776367
_cell_volume 508.928294
_symmetry_space_group_name_H-M "P -1"
_symmetry_group_IT_number 2
_symmetry_cell_setting 'triclinic'
loop_
_space_group_symop_operation_xyz
x,y,z
-x,-y,-z
loop_
_atom_site_type_symbol
_atom_site_label
_atom_site_fract_x
_atom_site_fract_y
_atom_site_fract_z
Si Si1 0.088709 0.199478 0.123029
Si Si2 0.402571 0.875618 0.227254
Si Si3 0.453267 0.719630 0.093494
Si Si4 0.951305 0.085478 0.163823
Si Si5 0.960514 0.560903 0.695985
Si Si6 0.847703 0.330801 0.626612
O O1 0.368076 0.135629 0.922850
O O2 0.031662 0.248061 0.378055
O O3 0.928899 0.287132 0.909720
O O4 0.028989 0.128107 0.247734
O O5 0.500777 0.764182 0.223663
O O6 0.247711 0.910354 0.553436
O O7 0.198574 0.969622 0.067553
O O8 0.399806 0.645988 0.274603
O O9 0.675191 0.667194 0.798350
O O10 0.807443 0.175177 0.947902
O O11 0.000000 0.500000 0.500000
O O12 0.135512 0.583793 0.523502
O O13 0.000000 0.500000 0.000000
#
# Coordination Sequence:
#
# PCOD9036820 Si02
#       6
#     2   2   2   2   2   2
#     4  11  22  41  66  99 138 179 215 266 319 388
#     4  11  21  39  66  97 137 183 218 267 315 392
#     4  11  24  43  69  93 140 172 217 278 329 386
#     4  10  23  39  63 102 135 179 226 257 325 386
#     4  12  28  46  73  99 126 169 224 277 342 398
#     4  11  24  44  70  97 132 173 218 270 338 391
#
# _framework density 23.578959999999999
#
# number of rings (size 3 to 8) (size 9 to 14) (size 15 to 20)
#    0.000    1.000    3.333    3.000    2.333    1.333 
#    0.000    2.500    0.000    0.000    0.000    0.000 
#    0.000    0.000    0.000    0.000    0.000    0.000 
#
# Total GULP energy -67067.340443 kJ/mol
# GULP energy per Si atom -5588.945037 kJ/mol
# Density = 2.352529 g / cm^3
# Si number density = 23.578960 Si / 1000 Ang^3
#
#
#
# Elastic Constant Matrix: (Units=GPa)
#
#
# Indices 1 2 3 4 5 6 
#
# 1 45.3315 30.4853 25.0266 0.7614 -10.0616 11.4451
# 2 30.4853 87.4760 24.2453 -1.9628 9.5525 21.0143
# 3 25.0266 24.2453 100.3424 -3.2906 1.5438 10.8334
# 4 0.7614 -1.9628 -3.2906 41.1770 6.5650 1.6925
# 5 -10.0616 9.5525 1.5438 6.5650 36.8280 4.3830
# 6 11.4451 21.0143 10.8334 1.6925 4.3830 39.6835
#
#
#
# Elastic Compliance Matrix: (Units=1/GPa)
#
#
# Indices 1 2 3 4 5 6 
#
# 1 0.038480 -0.012323 -0.006523 -0.004070 0.015220 -0.004299
# 2 -0.012323 0.018006 -0.000526 0.002505 -0.007857 -0.005076
# 3 -0.006523 -0.000526 0.011900 0.001449 -0.002296 -0.000897
# 4 -0.004070 0.002505 0.001449 0.025636 -0.006280 -0.000948
# 5 0.015220 -0.007857 -0.002296 -0.006280 0.034945 -0.003194
# 6 -0.004299 -0.005076 -0.000897 -0.000948 -0.003194 0.029765
#
#
# Mechanical properties :
#
#
# Convention : Reuss Voigt Hill
#
# Bulk Modulus (GPa) = 33.73710 43.62937 38.68324
# Shear Modulus (GPa) = 24.11301 33.76389 28.93845
#
# Velocity S-wave (km/s) = 3.20136 3.78822 3.50708
# Velocity P-wave (km/s) = 5.29189 6.13822 5.73070
#
# Compressibility (1/GPa) = 0.02964096
#
# Stress axis : x y z
#
# Youngs Moduli (GPa) = 25.98750 55.53783 84.03597
#
# Poissons Ratio (x) = 0.68438 0.54820
# Poissons Ratio (y) = 0.32024 0.04421
# Poissons Ratio (z) = 0.16953 0.02922
#
# Static dielectric constant tensor:
#      x y z
#    x 2.136700 -0.078260 0.091700 
#    y -0.078260 1.996470 -0.074840 
#    z 0.091700 -0.074840 1.885730 
# 
# From -- ./inp_files/40609.got.cif
#   From: 2010.05.17/outbox.cif.g08.bks.cpg/sg2_21_cif.got.tgz:40609.got - 2010.06.03 11:33:40.
