data_PCOD9036398
_publ_section_title
;
Structure prediction by ZEFSAII (Michael W. Deem and Ramdas Pophale) SiO2 
 PCOD9036398
Probable space group: P -1
;
_chemical_formula_sum "Si O2"
_cell_formula_units_Z 16
_cell_length_a 13.182931
_cell_length_b 11.307450
_cell_length_c 8.974562
_cell_angle_alpha 39.295240
_cell_angle_beta 99.695290
_cell_angle_gamma 81.130553
_cell_volume 743.369925
_symmetry_space_group_name_H-M "P -1"
_symmetry_group_IT_number 2
_symmetry_cell_setting 'triclinic'
loop_
_space_group_symop_operation_xyz
x,y,z
-x,-y,-z
loop_
_atom_site_type_symbol
_atom_site_label
_atom_site_fract_x
_atom_site_fract_y
_atom_site_fract_z
Si Si1 0.074198 0.679916 0.683798
Si Si2 0.836969 0.764156 0.417791
Si Si3 0.228259 0.301712 0.241100
Si Si4 0.412985 0.130412 0.191624
Si Si5 0.217089 0.465304 0.629181
Si Si6 0.860817 0.072609 0.905732
Si Si7 0.427071 0.749064 0.726278
Si Si8 0.166386 0.987505 0.373724
O O1 0.146480 0.556861 0.674944
O O2 0.073561 0.904570 0.464042
O O3 0.953220 0.684385 0.620225
O O4 0.145982 0.548411 0.969966
O O5 0.745092 0.775422 0.507824
O O6 0.843585 0.613097 0.431925
O O7 0.827977 0.971656 0.134633
O O8 0.335448 0.238571 0.216307
O O9 0.157440 0.191371 0.252492
O O10 0.526230 0.161668 0.213662
O O11 0.435768 0.889227 0.451467
O O12 0.336400 0.267556 0.901940
O O13 0.214400 0.676668 0.357294
O O14 0.832435 0.988905 0.826549
O O15 0.000000 0.000000 0.000000
O O16 0.291880 0.810290 0.631811
O O17 0.500000 0.500000 0.000000
#
# Coordination Sequence:
#
# PCOD9036398 Si02
#       8
#     2   2   2   2   2   2   2   2
#     4  10  20  35  52  79 109 149 190 223 266 319
#     4  12  22  33  54  82 112 156 181 221 277 326
#     4  10  22  35  52  79 119 145 181 223 281 331
#     4   9  20  37  56  86 108 138 185 234 275 330
#     4  10  21  36  57  79 115 144 190 233 264 318
#     4  11  21  36  55  80 109 150 194 224 264 316
#     4  10  17  32  63  85 103 136 183 236 285 313
#     4  10  21  37  57  82 112 141 184 236 268 324
#
# _framework density 21.523603000000001
#
# number of rings (size 3 to 8) (size 9 to 14) (size 15 to 20)
#    0.000    1.750    2.500    5.250    1.750    1.500 
#    0.000    0.000    0.000   12.000    0.000   27.125 
#    0.000    0.000    0.000    0.000    0.000    0.000 
#
# Total GULP energy -89204.882224 kJ/mol
# GULP energy per Si atom -5575.305139 kJ/mol
# Density = 2.147461 g / cm^3
# Si number density = 21.523603 Si / 1000 Ang^3
#
#
#
# Elastic Constant Matrix: (Units=GPa)
#
#
# Indices 1 2 3 4 5 6 
#
# 1 28.6088 28.0476 9.3085 24.1131 1.9744 0.5412
# 2 28.0476 19.8823 11.4550 -3.6912 -7.5833 16.5166
# 3 9.3085 11.4550 127.9438 -5.1056 -15.8150 -14.1249
# 4 24.1131 -3.6912 -5.1056 28.6260 5.4967 1.8943
# 5 1.9744 -7.5833 -15.8150 5.4967 33.5551 5.0955
# 6 0.5412 16.5166 -14.1249 1.8943 5.0955 19.4114
#
#
#
# Elastic Compliance Matrix: (Units=1/GPa)
#
#
# Indices 1 2 3 4 5 6 
#
# 1 0.002447 0.033628 -0.005844 0.001705 0.009841 -0.035683
# 2 0.033628 -0.007803 -0.002269 -0.030026 -0.000993 0.007242
# 3 -0.005844 -0.002269 0.009847 0.005397 0.002356 0.008114
# 4 0.001705 -0.030026 0.005397 0.031294 -0.014033 0.030057
# 5 0.009841 -0.000993 0.002356 -0.014033 0.033175 -0.005054
# 6 -0.035683 0.007242 0.008114 0.030057 -0.005054 0.050647
#
#
# Mechanical properties :
#
#
# Convention : Reuss Voigt Hill
#
# Bulk Modulus (GPa) = 18.01177 30.45080 24.23128
# Shear Modulus (GPa) = 57.41697 24.82675 41.12186
#
# Velocity S-wave (km/s) = 5.17051 3.39996 4.37572
# Velocity P-wave (km/s) = 6.63567 5.43979 6.06727
#
# Compressibility (1/GPa) = 0.05551925
#
# Stress axis : x y z
#
# Youngs Moduli (GPa) = 408.72773 -128.14874 101.55831
#
# Poissons Ratio (x) = 4.30936 0.59347
# Poissons Ratio (y) = -13.74462 0.23047
# Poissons Ratio (z) = 2.38847 -0.29082
#
# Static dielectric constant tensor:
#      x y z
#    x 1.867710 -0.019350 -0.013100 
#    y -0.019350 1.777490 -0.014280 
#    z -0.013100 -0.014280 1.859160 
# 
# From -- ./inp_files/285969.got.cif
#   From: 2010.05.17/outbox.cif.g08.bks.cpg/sg2_143_cif.got.tgz:285969.got - 2010.06.03 11:33:40.
