data_PCOD9036997
_publ_section_title
;
Structure prediction by ZEFSAII (Michael W. Deem and Ramdas Pophale) SiO2 
 PCOD9036997
Probable space group: P -1
;
_chemical_formula_sum "Si O2"
_cell_formula_units_Z 12
_cell_length_a 10.454946
_cell_length_b 8.262079
_cell_length_c 7.412227
_cell_angle_alpha 106.620001
_cell_angle_beta 84.320924
_cell_angle_gamma 120.914462
_cell_volume 525.459950
_symmetry_space_group_name_H-M "P -1"
_symmetry_group_IT_number 2
_symmetry_cell_setting 'triclinic'
loop_
_space_group_symop_operation_xyz
x,y,z
-x,-y,-z
loop_
_atom_site_type_symbol
_atom_site_label
_atom_site_fract_x
_atom_site_fract_y
_atom_site_fract_z
Si Si1 0.164583 0.053335 0.065708
Si Si2 0.025410 0.338994 0.028192
Si Si3 0.273636 0.308322 0.818937
Si Si4 0.569135 0.373704 0.365736
Si Si5 0.275773 0.034138 0.416587
Si Si6 0.163529 0.590004 0.418835
O O1 0.185365 0.068781 0.280571
O O2 0.286944 0.230371 0.988300
O O3 0.000000 0.000000 0.000000
O O4 0.887258 0.708894 0.151162
O O5 0.134751 0.436795 0.213069
O O6 0.861244 0.160189 0.045240
O O7 0.000000 0.500000 0.000000
O O8 0.383293 0.528625 0.807170
O O9 0.273246 0.154045 0.628725
O O10 0.500000 0.500000 0.500000
O O11 0.442337 0.148414 0.343832
O O12 0.715347 0.407560 0.461870
O O13 0.218258 0.808756 0.403244
O O14 0.000000 0.500000 0.500000
#
# Coordination Sequence:
#
# PCOD9036997 Si02
#       6
#     2   2   2   2   2   2
#     4  10  23  39  68 101 140 176 236 287 347 411
#     4  11  22  42  64 107 139 175 238 295 343 407
#     4  10  24  42  69  98 141 183 233 278 356 414
#     4  10  25  46  71 104 142 190 231 286 360 419
#     4  11  24  48  69 100 143 186 234 289 356 416
#     4  12  25  45  78 101 143 186 238 292 349 419
#
# _framework density 22.837136000000001
#
# number of rings (size 3 to 8) (size 9 to 14) (size 15 to 20)
#    0.000    1.333    1.667    2.500   11.667    3.333 
#    3.000    0.833    0.000    0.000    0.000    0.000 
#    0.000    0.000    0.000    0.000    0.000    0.000 
#
# Total GULP energy -66885.924922 kJ/mol
# GULP energy per Si atom -5573.827077 kJ/mol
# Density = 2.278516 g / cm^3
# Si number density = 22.837136 Si / 1000 Ang^3
#
#
#
# Elastic Constant Matrix: (Units=GPa)
#
#
# Indices 1 2 3 4 5 6 
#
# 1 80.0865 25.0956 19.9194 -15.1470 9.9466 17.4103
# 2 25.0956 141.5838 46.0283 -47.3140 -12.4250 18.4994
# 3 19.9194 46.0283 65.8794 -23.4485 -1.4101 0.6669
# 4 -15.1470 -47.3140 -23.4485 49.9129 -0.7190 1.7610
# 5 9.9466 -12.4250 -1.4101 -0.7190 32.8721 -0.2613
# 6 17.4103 18.4994 0.6669 1.7610 -0.2613 35.2329
#
#
#
# Elastic Compliance Matrix: (Units=1/GPa)
#
#
# Indices 1 2 3 4 5 6 
#
# 1 0.016532 0.000181 -0.003870 0.003594 -0.005088 -0.008408
# 2 0.000181 0.014088 -0.005773 0.011051 0.005202 -0.007891
# 3 -0.003870 -0.005773 0.021516 0.003307 0.000019 0.004371
# 4 0.003594 0.011051 0.003307 0.033538 0.003891 -0.009288
# 5 -0.005088 0.005202 0.000019 0.003891 0.034011 -0.000159
# 6 -0.008408 -0.007891 0.004371 -0.009288 -0.000159 0.037061
#
#
# Mechanical properties :
#
#
# Convention : Reuss Voigt Hill
#
# Bulk Modulus (GPa) = 30.10961 52.18181 41.14571
# Shear Modulus (GPa) = 26.77505 36.70402 31.73953
#
# Velocity S-wave (km/s) = 3.42780 4.01335 3.73207
# Velocity P-wave (km/s) = 5.37397 6.66146 6.05205
#
# Compressibility (1/GPa) = 0.03321199
#
# Stress axis : x y z
#
# Youngs Moduli (GPa) = 60.48936 70.98188 46.47674
#
# Poissons Ratio (x) = -0.01283 0.17985
# Poissons Ratio (y) = -0.01093 0.26832
# Poissons Ratio (z) = 0.23407 0.40979
#
# Static dielectric constant tensor:
#      x y z
#    x 1.851490 0.097550 -0.018940 
#    y 0.097550 1.792560 0.210160 
#    z -0.018940 0.210160 1.914710 
# 
# From -- ./inp_files/238549.got.cif
#   From: 2010.05.17/outbox.cif.g08.bks.cpg/sg2_120_cif.got.tgz:238549.got - 2010.06.03 11:33:40.
