data_PCOD9036049
_publ_section_title
;
Structure prediction by ZEFSAII (Michael W. Deem and Ramdas Pophale) SiO2 
 PCOD9036049
Probable space group: P -1
;
_chemical_formula_sum "Si O2"
_cell_formula_units_Z 14
_cell_length_a 11.659020
_cell_length_b 12.483969
_cell_length_c 8.551353
_cell_angle_alpha 41.263845
_cell_angle_beta 61.741226
_cell_angle_gamma 47.461046
_cell_volume 603.294466
_symmetry_space_group_name_H-M "P -1"
_symmetry_group_IT_number 2
_symmetry_cell_setting 'triclinic'
loop_
_space_group_symop_operation_xyz
x,y,z
-x,-y,-z
loop_
_atom_site_type_symbol
_atom_site_label
_atom_site_fract_x
_atom_site_fract_y
_atom_site_fract_z
Si Si1 0.621433 0.617308 0.970410
Si Si2 0.079796 0.814271 0.269487
Si Si3 0.452707 0.204161 0.872578
Si Si4 0.599048 0.152747 0.391678
Si Si5 0.717772 0.231661 0.518571
Si Si6 0.730739 0.603600 0.484343
Si Si7 0.812080 0.744507 0.543960
O O1 0.477190 0.681782 0.876602
O O2 0.769334 0.600199 0.809097
O O3 0.558536 0.792431 0.940585
O O4 0.671356 0.433711 0.247260
O O5 0.149324 0.843580 0.352301
O O6 0.207964 0.622362 0.298080
O O7 0.960616 0.754411 0.464724
O O8 0.000000 0.000000 0.000000
O O9 0.574932 0.256196 0.683769
O O10 0.288104 0.355336 0.732613
O O11 0.500000 0.000000 0.000000
O O12 0.727131 0.117082 0.478588
O O13 0.441299 0.249465 0.491593
O O14 0.671099 0.955860 0.462277
O O15 0.823680 0.682087 0.423891
#
# Coordination Sequence:
#
# PCOD9036049 Si02
#       7
#     2   2   2   2   2   2   2
#     4  11  21  41  72 103 139 174 234 300 349 408
#     4  12  29  47  70  99 150 196 237 283 343 433
#     4  11  22  39  74 105 138 176 238 297 348 415
#     4  10  23  43  75 106 140 175 233 303 356 407
#     4  11  25  44  67 107 139 187 236 284 357 419
#     4  10  22  47  71 103 135 189 239 285 349 413
#     4  11  25  46  69 107 145 187 234 284 360 419
#
# _framework density 23.205914
#
# number of rings (size 3 to 8) (size 9 to 14) (size 15 to 20)
#    0.000    1.143    1.429    5.571    6.000    3.429 
#    0.000    0.000    0.000    0.000    0.000    0.000 
#    0.000    0.000    0.000    0.000    0.000    0.000 
#
# Total GULP energy -77984.879774 kJ/mol
# GULP energy per Si atom -5570.348555 kJ/mol
# Density = 2.315310 g / cm^3
# Si number density = 23.205914 Si / 1000 Ang^3
#
#
#
# Elastic Constant Matrix: (Units=GPa)
#
#
# Indices 1 2 3 4 5 6 
#
# 1 160.5610 29.9248 57.6448 12.9309 24.2101 25.6977
# 2 29.9248 72.4454 10.9690 -12.0483 12.3259 16.4624
# 3 57.6448 10.9690 121.9880 -3.5997 14.9038 -6.0821
# 4 12.9309 -12.0483 -3.5997 38.5648 -2.8405 1.3786
# 5 24.2101 12.3259 14.9038 -2.8405 44.0169 15.4394
# 6 25.6977 16.4624 -6.0821 1.3786 15.4394 42.1926
#
#
#
# Elastic Compliance Matrix: (Units=1/GPa)
#
#
# Indices 1 2 3 4 5 6 
#
# 1 0.009733 -0.002715 -0.004519 -0.004488 -0.001684 -0.004758
# 2 -0.002715 0.017333 -0.000191 0.006399 -0.001156 -0.004923
# 3 -0.004519 -0.000191 0.011046 0.002073 -0.002976 0.005440
# 4 -0.004488 0.006399 0.002073 0.029848 0.002358 -0.001302
# 5 -0.001684 -0.001156 -0.002976 0.002358 0.028438 -0.009435
# 6 -0.004758 -0.004923 0.005440 -0.001302 -0.009435 0.032799
#
#
# Mechanical properties :
#
#
# Convention : Reuss Voigt Hill
#
# Bulk Modulus (GPa) = 42.98760 61.34127 52.16443
# Shear Modulus (GPa) = 32.93763 42.05192 37.49477
#
# Velocity S-wave (km/s) = 3.77153 4.26152 4.02399
# Velocity P-wave (km/s) = 6.12622 7.12074 6.64212
#
# Compressibility (1/GPa) = 0.02326252
#
# Stress axis : x y z
#
# Youngs Moduli (GPa) = 102.73836 57.69192 90.52879
#
# Poissons Ratio (x) = 0.15664 0.40912
# Poissons Ratio (y) = 0.27894 0.01729
# Poissons Ratio (z) = 0.46430 0.01102
#
# Static dielectric constant tensor:
#      x y z
#    x 2.012000 0.072620 -0.012630 
#    y 0.072620 2.081460 -0.156540 
#    z -0.012630 -0.156540 2.081530 
# 
# From -- ./inp_files/261285.got.cif
#   From: 2010.05.17/outbox.cif.g08.bks.cpg/sg2_131_cif.got.tgz:261285.got - 2010.06.03 11:33:40.
