data_PCOD9036598
_publ_section_title
;
Structure prediction by ZEFSAII (Michael W. Deem and Ramdas Pophale) SiO2 
 PCOD9036598
Probable space group: P -1
;
_chemical_formula_sum "Si O2"
_cell_formula_units_Z 16
_cell_length_a 10.356769
_cell_length_b 11.276651
_cell_length_c 10.538863
_cell_angle_alpha 63.889613
_cell_angle_beta 41.377671
_cell_angle_gamma 82.338463
_cell_volume 689.196863
_symmetry_space_group_name_H-M "P -1"
_symmetry_group_IT_number 2
_symmetry_cell_setting 'triclinic'
loop_
_space_group_symop_operation_xyz
x,y,z
-x,-y,-z
loop_
_atom_site_type_symbol
_atom_site_label
_atom_site_fract_x
_atom_site_fract_y
_atom_site_fract_z
Si Si1 0.976101 0.443608 0.339242
Si Si2 0.301610 0.662291 0.177127
Si Si3 0.621031 0.033671 0.026789
Si Si4 0.691629 0.641745 0.026246
Si Si5 0.193977 0.878378 0.763312
Si Si6 0.773533 0.629929 0.251974
Si Si7 0.587183 0.853763 0.373097
Si Si8 0.950969 0.957472 0.700008
O O1 0.830224 0.336940 0.598156
O O2 0.826497 0.507743 0.342130
O O3 0.142362 0.563841 0.242183
O O4 0.116634 0.386969 0.170392
O O5 0.391737 0.819556 0.983493
O O6 0.484357 0.603664 0.113130
O O7 0.859790 0.054627 0.806247
O O8 0.500000 0.000000 0.000000
O O9 0.543275 0.906797 0.242466
O O10 0.767164 0.809127 0.907436
O O11 0.669029 0.583237 0.213623
O O12 0.392762 0.831542 0.618730
O O13 0.142866 0.936742 0.640104
O O14 0.239974 0.006863 0.765846
O O15 0.996696 0.747897 0.005282
O O16 0.654475 0.718342 0.373424
O O17 0.000000 0.000000 0.500000
#
# Coordination Sequence:
#
# PCOD9036598 Si02
#       8
#     2   2   2   2   2   2   2   2
#     4  11  26  44  66  94 134 178 226 268 318 394
#     4  11  25  44  65  98 130 178 217 273 332 391
#     4  12  21  40  68  97 133 165 215 274 337 391
#     4  11  23  44  64  95 129 172 224 267 324 390
#     4  10  23  38  62  95 131 168 215 270 333 396
#     4  11  23  43  66  92 130 174 220 276 323 385
#     4  11  22  40  62  98 132 170 217 269 337 398
#     4  11  22  38  63  96 131 168 209 273 329 391
#
# _framework density 23.215426999999998
#
# number of rings (size 3 to 8) (size 9 to 14) (size 15 to 20)
#    0.000    1.000    3.750    3.375    1.750    4.500 
#    0.000    0.000    0.000    0.000    0.000    0.000 
#    0.000    0.000    0.000    0.000    0.000    0.000 
#
# Total GULP energy -89555.437133 kJ/mol
# GULP energy per Si atom -5597.214821 kJ/mol
# Density = 2.316259 g / cm^3
# Si number density = 23.215427 Si / 1000 Ang^3
#
#
#
# Elastic Constant Matrix: (Units=GPa)
#
#
# Indices 1 2 3 4 5 6 
#
# 1 91.4912 17.4323 12.4292 5.5335 1.0180 -9.1103
# 2 17.4323 72.7044 27.8773 21.6794 5.3547 -20.3346
# 3 12.4292 27.8773 52.6270 12.0711 -12.5617 -11.5645
# 4 5.5335 21.6794 12.0711 43.7871 -4.8863 -7.6965
# 5 1.0180 5.3547 -12.5617 -4.8863 30.2155 5.4091
# 6 -9.1103 -20.3346 -11.5645 -7.6965 5.4091 38.4366
#
#
#
# Elastic Compliance Matrix: (Units=1/GPa)
#
#
# Indices 1 2 3 4 5 6 
#
# 1 0.011647 -0.001546 -0.001863 -0.000054 -0.001177 0.001537
# 2 -0.001546 0.024551 -0.011571 -0.008516 -0.012123 0.009141
# 3 -0.001863 -0.011571 0.029065 -0.000456 0.014104 0.000106
# 4 -0.000054 -0.008516 -0.000456 0.027853 0.005807 0.000105
# 5 -0.001177 -0.012123 0.014104 0.005807 0.043410 -0.007395
# 6 0.001537 0.009141 0.000106 0.000105 -0.007395 0.032311
#
#
# Mechanical properties :
#
#
# Convention : Reuss Voigt Hill
#
# Bulk Modulus (GPa) = 28.32555 36.92223 32.62389
# Shear Modulus (GPa) = 23.74563 33.09342 28.41953
#
# Velocity S-wave (km/s) = 3.20165 3.77967 3.50260
# Velocity P-wave (km/s) = 5.08872 5.91494 5.51732
#
# Compressibility (1/GPa) = 0.03530382
#
# Stress axis : x y z
#
# Youngs Moduli (GPa) = 85.85906 40.73186 34.40506
#
# Poissons Ratio (x) = 0.06295 0.06409
# Poissons Ratio (y) = 0.13270 0.39812
# Poissons Ratio (z) = 0.15993 0.47133
#
# Static dielectric constant tensor:
#      x y z
#    x 1.913460 0.010490 -0.004180 
#    y 0.010490 1.852640 0.026940 
#    z -0.004180 0.026940 1.885840 
# 
# From -- ./inp_files/423571.got.cif
#   From: 2010.05.17/outbox.cif.g08.bks.cpg/sg2_212_cif.got.tgz:423571.got - 2010.06.03 11:33:40.
