data_PCOD9036834
_publ_section_title
;
Structure prediction by ZEFSAII (Michael W. Deem and Ramdas Pophale) SiO2 
 PCOD9036834
Probable space group: P -1
;
_chemical_formula_sum "Si O2"
_cell_formula_units_Z 16
_cell_length_a 17.588377
_cell_length_b 8.738424
_cell_length_c 9.118293
_cell_angle_alpha 111.848524
_cell_angle_beta 49.696697
_cell_angle_gamma 131.382806
_cell_volume 798.137807
_symmetry_space_group_name_H-M "P -1"
_symmetry_group_IT_number 2
_symmetry_cell_setting 'triclinic'
loop_
_space_group_symop_operation_xyz
x,y,z
-x,-y,-z
loop_
_atom_site_type_symbol
_atom_site_label
_atom_site_fract_x
_atom_site_fract_y
_atom_site_fract_z
Si Si1 0.941462 0.361895 0.879993
Si Si2 0.333138 0.285105 0.263715
Si Si3 0.905628 0.755765 0.529500
Si Si4 0.313541 0.075716 0.923523
Si Si5 0.509151 0.380626 0.574720
Si Si6 0.469884 0.920227 0.672659
Si Si7 0.628019 0.048490 0.789931
Si Si8 0.118345 0.518276 0.291813
O O1 0.897104 0.460158 0.854906
O O2 0.040088 0.342990 0.666338
O O3 0.000000 0.500000 0.000000
O O4 0.827048 0.126154 0.976262
O O5 0.212836 0.281929 0.414408
O O6 0.430441 0.486170 0.306866
O O7 0.339550 0.108240 0.263837
O O8 0.339676 0.245085 0.068964
O O9 0.884481 0.661928 0.687172
O O10 0.000000 0.000000 0.500000
O O11 0.375568 0.186833 0.731773
O O12 0.385827 0.984145 0.859101
O O13 0.500000 0.500000 0.500000
O O14 0.587396 0.313561 0.371980
O O15 0.500000 0.000000 0.500000
O O16 0.591115 0.018766 0.654640
O O17 0.749347 0.273347 0.754541
O O18 0.500000 0.000000 0.000000
O O19 0.000000 0.500000 0.500000
#
# Coordination Sequence:
#
# PCOD9036834 Si02
#       8
#     2   2   2   2   2   2   2   2
#     4  11  24  47  71 100 131 179 232 282 332 407
#     4  12  23  42  68  97 137 177 223 277 342 395
#     4  11  24  46  69  98 138 173 228 283 338 402
#     4  11  23  45  66  94 137 177 230 268 337 413
#     4  11  25  41  62 102 138 172 214 284 350 394
#     4  10  23  39  63  94 133 174 219 271 337 393
#     4  12  22  42  70  98 133 179 234 275 324 419
#     4  10  23  43  71  98 128 187 231 268 339 418
#
# _framework density 20.046665000000001
#
# number of rings (size 3 to 8) (size 9 to 14) (size 15 to 20)
#    0.000    1.000    5.000    1.125    5.250    4.000 
#    4.500    0.625    0.000    0.000    0.000    0.000 
#    0.000    0.000    0.000    0.000    0.000    0.000 
#
# Total GULP energy -89089.360559 kJ/mol
# GULP energy per Si atom -5568.085035 kJ/mol
# Density = 2.000104 g / cm^3
# Si number density = 20.046665 Si / 1000 Ang^3
#
#
#
# Elastic Constant Matrix: (Units=GPa)
#
#
# Indices 1 2 3 4 5 6 
#
# 1 145.5770 61.2458 59.3033 -10.2970 8.7027 -1.3626
# 2 61.2458 94.0024 39.5936 0.2181 1.3128 8.0586
# 3 59.3033 39.5936 77.7143 1.0899 4.1142 15.4411
# 4 -10.2970 0.2181 1.0899 41.4076 -1.6020 5.0637
# 5 8.7027 1.3128 4.1142 -1.6020 37.9537 11.2742
# 6 -1.3626 8.0586 15.4411 5.0637 11.2742 41.3401
#
#
#
# Elastic Compliance Matrix: (Units=1/GPa)
#
#
# Indices 1 2 3 4 5 6 
#
# 1 0.012766 -0.005401 -0.007841 0.002677 -0.003251 0.004961
# 2 -0.005401 0.015834 -0.003570 -0.000988 0.001712 -0.002277
# 3 -0.007841 -0.003570 0.022220 -0.001440 0.001888 -0.008200
# 4 0.002677 -0.000988 -0.001440 0.025240 0.001433 -0.002664
# 5 -0.003251 0.001712 0.001888 0.001433 0.029688 -0.009418
# 6 0.004961 -0.002277 -0.008200 -0.002664 -0.009418 0.030755
#
#
# Mechanical properties :
#
#
# Convention : Reuss Voigt Hill
#
# Bulk Modulus (GPa) = 58.15474 70.84211 64.49843
# Shear Modulus (GPa) = 28.43211 34.61702 31.52457
#
# Velocity S-wave (km/s) = 3.77011 4.16001 3.96985
# Velocity P-wave (km/s) = 6.92996 7.64785 7.29774
#
# Compressibility (1/GPa) = 0.01719550
#
# Stress axis : x y z
#
# Youngs Moduli (GPa) = 78.33522 63.15459 45.00540
#
# Poissons Ratio (x) = 0.34108 0.35289
# Poissons Ratio (y) = 0.42307 0.16068
# Poissons Ratio (z) = 0.61422 0.22547
#
# Static dielectric constant tensor:
#      x y z
#    x 1.662680 -0.000450 0.005720 
#    y -0.000450 1.696680 -0.022030 
#    z 0.005720 -0.022030 1.759560 
# 
# From -- ./inp_files/329282.got.cif
#   From: 2010.05.17/outbox.cif.g08.bks.cpg/sg2_165_cif.got.tgz:329282.got - 2010.06.03 11:33:40.
