data_PCOD9036233
_publ_section_title
;
Structure prediction by ZEFSAII (Michael W. Deem and Ramdas Pophale) SiO2 
 PCOD9036233
Probable space group: P -1
;
_chemical_formula_sum "Si O2"
_cell_formula_units_Z 16
_cell_length_a 24.326206
_cell_length_b 11.544811
_cell_length_c 7.979631
_cell_angle_alpha 141.383091
_cell_angle_beta 31.873322
_cell_angle_gamma 142.144703
_cell_volume 682.394760
_symmetry_space_group_name_H-M "P -1"
_symmetry_group_IT_number 2
_symmetry_cell_setting 'triclinic'
loop_
_space_group_symop_operation_xyz
x,y,z
-x,-y,-z
loop_
_atom_site_type_symbol
_atom_site_label
_atom_site_fract_x
_atom_site_fract_y
_atom_site_fract_z
Si Si1 0.418349 0.461649 0.478008
Si Si2 0.784055 0.559553 0.238869
Si Si3 0.816136 0.036286 0.358687
Si Si4 0.878459 0.918279 0.628643
Si Si5 0.220480 0.352115 0.124859
Si Si6 0.909878 0.459260 0.479975
Si Si7 0.163314 0.766938 0.120620
Si Si8 0.562690 0.850653 0.701953
O O1 0.334754 0.435398 0.509640
O O2 0.337158 0.452589 0.839355
O O3 0.517227 0.678667 0.482314
O O4 0.456221 0.278696 0.220405
O O5 0.866091 0.774162 0.338600
O O6 0.843260 0.500562 0.858503
O O7 0.767822 0.378321 0.207398
O O8 0.899749 0.234618 0.277413
O O9 0.801918 0.084662 0.641661
O O10 0.847476 0.843231 0.037719
O O11 0.695724 0.978380 0.513346
O O12 0.842416 0.099391 0.870586
O O13 0.788131 0.758403 0.803968
O O14 0.000000 0.000000 0.500000
O O15 0.156295 0.501923 0.462524
O O16 0.035687 0.613884 0.313459
O O17 0.500000 0.000000 0.000000
#
# Coordination Sequence:
#
# PCOD9036233 Si02
#       8
#     2   2   2   2   2   2   2   2
#     4   9  20  37  59  84 108 143 178 235 281 323
#     4  10  22  38  55  80 113 145 189 231 272 327
#     4  10  21  35  60  86 107 144 183 235 275 327
#     4  12  25  35  52  81 116 158 188 222 269 323
#     4  10  21  37  52  80 119 143 187 224 273 328
#     4  10  20  35  57  80 109 149 188 229 275 318
#     4  11  22  36  56  79 113 154 189 226 273 323
#     4  10  17  32  61  90 109 127 180 236 289 327
#
# _framework density 23.446838
#
# number of rings (size 3 to 8) (size 9 to 14) (size 15 to 20)
#    0.000    1.750    1.250    6.000    3.500    2.500 
#    0.000    0.000    0.000   12.000    0.000   27.125 
#    0.000    0.000    0.000    0.000    0.000    0.000 
#
# Total GULP energy -89299.210296 kJ/mol
# GULP energy per Si atom -5581.200643 kJ/mol
# Density = 2.339347 g / cm^3
# Si number density = 23.446838 Si / 1000 Ang^3
#
#
#
# Elastic Constant Matrix: (Units=GPa)
#
#
# Indices 1 2 3 4 5 6 
#
# 1 153.9799 47.1816 35.8192 16.4256 -36.8667 -10.1099
# 2 47.1816 84.1491 15.1887 15.9972 -8.4238 1.6314
# 3 35.8192 15.1887 43.7455 24.3719 -18.6880 -7.5047
# 4 16.4256 15.9972 24.3719 36.2554 -10.3275 -9.8837
# 5 -36.8667 -8.4238 -18.6880 -10.3275 38.8375 16.5964
# 6 -10.1099 1.6314 -7.5047 -9.8837 16.5964 44.5772
#
#
#
# Elastic Compliance Matrix: (Units=1/GPa)
#
#
# Indices 1 2 3 4 5 6 
#
# 1 0.010713 -0.004817 -0.005776 0.003138 0.007355 -0.000409
# 2 -0.004817 0.015518 0.001199 -0.006506 -0.001332 -0.002405
# 3 -0.005776 0.001199 0.046448 -0.026868 0.011613 -0.003815
# 4 0.003138 -0.006506 -0.026868 0.048739 -0.001773 0.007893
# 5 0.007355 -0.001332 0.011613 -0.001773 0.042997 -0.012729
# 6 -0.000409 -0.002405 -0.003815 0.007893 -0.012729 0.028275
#
#
# Mechanical properties :
#
#
# Convention : Reuss Voigt Hill
#
# Bulk Modulus (GPa) = 18.55567 53.13928 35.84748
# Shear Modulus (GPa) = 21.79196 36.17968 28.98582
#
# Velocity S-wave (km/s) = 3.05195 3.93243 3.51983
# Velocity P-wave (km/s) = 4.51113 6.58268 5.64278
#
# Compressibility (1/GPa) = 0.05389187
#
# Stress axis : x y z
#
# Youngs Moduli (GPa) = 93.34275 64.44129 21.52932
#
# Poissons Ratio (x) = 0.31039 0.12436
# Poissons Ratio (y) = 0.44959 -0.02582
# Poissons Ratio (z) = 0.53918 -0.07727
#
# Static dielectric constant tensor:
#      x y z
#    x 2.003680 -0.033540 0.028230 
#    y -0.033540 1.891880 0.012020 
#    z 0.028230 0.012020 1.955370 
# 
# From -- ./inp_files/285079.got.cif
#   From: 2010.05.17/outbox.cif.g08.bks.cpg/sg2_143_cif.got.tgz:285079.got - 2010.06.03 11:33:40.
