data_PCOD9036247
_publ_section_title
;
Structure prediction by ZEFSAII (Michael W. Deem and Ramdas Pophale) SiO2 
 PCOD9036247
Probable space group: P -1
;
_chemical_formula_sum "Si O2"
_cell_formula_units_Z 15
_cell_length_a 7.056214
_cell_length_b 8.302391
_cell_length_c 15.109217
_cell_angle_alpha 107.134251
_cell_angle_beta 127.514018
_cell_angle_gamma 90.738915
_cell_volume 648.992806
_symmetry_space_group_name_H-M "P -1"
_symmetry_group_IT_number 2
_symmetry_cell_setting 'triclinic'
loop_
_space_group_symop_operation_xyz
x,y,z
-x,-y,-z
loop_
_atom_site_type_symbol
_atom_site_label
_atom_site_fract_x
_atom_site_fract_y
_atom_site_fract_z
Si Si1 0.958338 0.318718 0.658232
Si Si2 0.008257 0.958645 0.599810
Si Si3 0.842846 0.615315 0.766357
Si Si4 0.398954 0.218543 0.417625
Si Si5 0.522512 0.575823 0.225679
Si Si6 0.550059 0.039936 0.759183
Si Si7 0.337729 0.863394 0.999785
Si Si8 0.500000 0.500000 0.000000
O O1 0.015999 0.141956 0.679236
O O2 0.967551 0.455060 0.761137
O O3 0.686152 0.267571 0.532084
O O4 0.184618 0.399505 0.670224
O O5 0.272348 0.922504 0.682849
O O6 0.768602 0.828108 0.550116
O O7 0.000000 0.000000 0.500000
O O8 0.695949 0.638206 0.640144
O O9 0.648228 0.558063 0.779003
O O10 0.061584 0.783789 0.872651
O O11 0.355945 0.056589 0.310367
O O12 0.469330 0.767961 0.246706
O O13 0.472100 0.505417 0.101076
O O14 0.681430 0.062432 0.894851
O O15 0.460446 0.701066 0.017255
O O16 0.500000 0.000000 0.000000
#
# Coordination Sequence:
#
# PCOD9036247 Si02
#       8
#     2   2   2   2   2   2   2   1
#     4  11  24  45  70  97 145 182 230 294 342 429
#     4  11  23  44  72 102 136 183 239 294 345 422
#     4  12  27  45  69 104 139 186 230 291 356 424
#     4  12  26  42  68 106 139 184 237 285 358 420
#     4  10  24  45  71 101 138 185 238 288 355 417
#     4  10  24  44  69 103 136 189 233 294 351 418
#     4  11  25  49  74 105 147 184 241 297 355 427
#     4  10  22  48  74 102 142 188 232 294 354 422
#
# _framework density 23.112736000000002
#
# number of rings (size 3 to 8) (size 9 to 14) (size 15 to 20)
#    0.000    1.067    2.667    2.400    5.600    4.267 
#    9.600    0.000    0.000    0.000    0.000    0.000 
#    0.000    0.000    0.000    0.000    0.000    0.000 
#
# Total GULP energy -83648.564174 kJ/mol
# GULP energy per Si atom -5576.570945 kJ/mol
# Density = 2.306013 g / cm^3
# Si number density = 23.112736 Si / 1000 Ang^3
#
#
#
# Elastic Constant Matrix: (Units=GPa)
#
#
# Indices 1 2 3 4 5 6 
#
# 1 146.1957 52.9974 38.2798 -0.5799 -0.1017 42.4828
# 2 52.9974 54.1893 12.9663 -3.7307 -3.4370 24.0571
# 3 38.2798 12.9663 83.3511 6.4644 -7.9623 29.5932
# 4 -0.5799 -3.7307 6.4644 26.7687 -2.9243 -8.5379
# 5 -0.1017 -3.4370 -7.9623 -2.9243 41.8924 13.4283
# 6 42.4828 24.0571 29.5932 -8.5379 13.4283 43.5161
#
#
#
# Elastic Compliance Matrix: (Units=1/GPa)
#
#
# Indices 1 2 3 4 5 6 
#
# 1 0.012506 -0.008772 -0.001472 -0.002786 0.001165 -0.007265
# 2 -0.008772 0.033785 0.005906 -0.001402 0.009314 -0.017280
# 3 -0.001472 0.005906 0.021189 -0.010016 0.010703 -0.021505
# 4 -0.002786 -0.001402 -0.010016 0.045601 -0.005564 0.020970
# 5 0.001165 0.009314 0.010703 -0.005564 0.034382 -0.025266
# 6 -0.007265 -0.017280 -0.021505 0.020970 -0.025266 0.066161
#
#
# Mechanical properties :
#
#
# Convention : Reuss Voigt Hill
#
# Bulk Modulus (GPa) = 17.00523 54.69147 35.84835
# Shear Modulus (GPa) = 20.66953 34.40161 27.53557
#
# Velocity S-wave (km/s) = 2.99372 3.86220 3.45535
# Velocity P-wave (km/s) = 4.39582 6.60326 5.60920
#
# Compressibility (1/GPa) = 0.05880542
#
# Stress axis : x y z
#
# Youngs Moduli (GPa) = 79.95945 29.59901 47.19347
#
# Poissons Ratio (x) = 0.25963 0.06949
# Poissons Ratio (y) = 0.70137 -0.27874
# Poissons Ratio (z) = 0.11773 -0.17482
#
# Static dielectric constant tensor:
#      x y z
#    x 1.866570 -0.038220 0.039050 
#    y -0.038220 1.892680 0.022930 
#    z 0.039050 0.022930 1.913550 
# 
# From -- ./inp_files/446527.got.cif
#   From: 2010.05.17/outbox.cif.g08.bks.cpg/sg2_224_cif.got.tgz:446527.got - 2010.06.03 11:33:40.
