data_PCOD9036089
_publ_section_title
;
Structure prediction by ZEFSAII (Michael W. Deem and Ramdas Pophale) SiO2 
 PCOD9036089
Probable space group: P -1
;
_chemical_formula_sum "Si O2"
_cell_formula_units_Z 14
_cell_length_a 17.271393
_cell_length_b 8.291259
_cell_length_c 5.512416
_cell_angle_alpha 85.676541
_cell_angle_beta 49.655159
_cell_angle_gamma 105.682184
_cell_volume 544.482941
_symmetry_space_group_name_H-M "P -1"
_symmetry_group_IT_number 2
_symmetry_cell_setting 'triclinic'
loop_
_space_group_symop_operation_xyz
x,y,z
-x,-y,-z
loop_
_atom_site_type_symbol
_atom_site_label
_atom_site_fract_x
_atom_site_fract_y
_atom_site_fract_z
Si Si1 0.420944 0.342550 0.418032
Si Si2 0.750013 0.362502 0.027092
Si Si3 0.944017 0.589107 0.928719
Si Si4 0.453300 0.716079 0.223083
Si Si5 0.612196 0.987993 0.171021
Si Si6 0.941419 0.018134 0.369618
Si Si7 0.238330 0.333674 0.393552
O O1 0.460245 0.551390 0.378382
O O2 0.369728 0.169170 0.708346
O O3 0.331164 0.325590 0.389016
O O4 0.528625 0.326654 0.082033
O O5 0.875667 0.459942 0.863953
O O6 0.663947 0.295666 0.440327
O O7 0.711960 0.181438 0.969808
O O8 0.734403 0.516402 0.886712
O O9 0.849658 0.630747 0.257920
O O10 0.000000 0.500000 0.000000
O O11 0.042807 0.781154 0.655458
O O12 0.561244 0.899991 0.028185
O O13 0.500000 0.000000 0.500000
O O14 0.821781 0.855630 0.597971
O O15 0.000000 0.000000 0.500000
O O16 0.000000 0.000000 0.000000
#
# Coordination Sequence:
#
# PCOD9036089 Si02
#       7
#     2   2   2   2   2   2   2
#     4  11  24  41  70  97 134 187 229 278 348 424
#     4  11  24  44  67  99 140 176 230 287 353 420
#     4  11  25  46  70  99 140 180 232 298 363 423
#     4  10  24  42  68  95 137 179 231 277 338 419
#     4  10  25  41  63  98 139 178 225 287 345 416
#     4  10  22  47  73 101 140 185 242 301 361 430
#     4  11  25  44  68 100 133 184 232 288 354 429
#
# _framework density 25.712471000000001
#
# number of rings (size 3 to 8) (size 9 to 14) (size 15 to 20)
#    0.000    1.429    2.857    0.429   12.000    4.000 
#    0.000    0.000    0.000    0.000    0.000    0.000 
#    0.000    0.000    0.000    0.000    0.000    0.000 
#
# Total GULP energy -78219.750768 kJ/mol
# GULP energy per Si atom -5587.125055 kJ/mol
# Density = 2.565395 g / cm^3
# Si number density = 25.712471 Si / 1000 Ang^3
#
#
#
# Elastic Constant Matrix: (Units=GPa)
#
#
# Indices 1 2 3 4 5 6 
#
# 1 169.2634 67.4411 22.0019 -39.2623 5.5411 13.8056
# 2 67.4411 198.8893 29.1461 -63.8552 -7.4621 37.4015
# 3 22.0019 29.1461 86.4217 -12.9715 -7.5413 -6.4678
# 4 -39.2623 -63.8552 -12.9715 62.6985 -12.4157 -5.5612
# 5 5.5411 -7.4621 -7.5413 -12.4157 37.7307 -12.3010
# 6 13.8056 37.4015 -6.4678 -5.5612 -12.3010 49.7461
#
#
#
# Elastic Compliance Matrix: (Units=1/GPa)
#
#
# Indices 1 2 3 4 5 6 
#
# 1 0.007333 -0.001227 -0.001219 0.002774 -0.001048 -0.001220
# 2 -0.001227 0.009659 -0.001790 0.008775 0.002836 -0.005472
# 3 -0.001219 -0.001790 0.013466 0.001522 0.004560 0.004733
# 4 0.002774 0.008775 0.001522 0.028952 0.010743 -0.001276
# 5 -0.001048 0.002836 0.004560 0.010743 0.034425 0.008465
# 6 -0.001220 -0.005472 0.004733 -0.001276 0.008465 0.027121
#
#
# Mechanical properties :
#
#
# Convention : Reuss Voigt Hill
#
# Bulk Modulus (GPa) = 45.48660 76.86140 61.17400
# Shear Modulus (GPa) = 36.56138 52.43409 44.49774
#
# Velocity S-wave (km/s) = 3.77494 4.52070 4.16455
# Velocity P-wave (km/s) = 6.06046 7.56350 6.85331
#
# Compressibility (1/GPa) = 0.02198450
#
# Stress axis : x y z
#
# Youngs Moduli (GPa) = 136.37671 103.53116 74.26137
#
# Poissons Ratio (x) = 0.12703 0.09055
# Poissons Ratio (y) = 0.16733 0.13294
# Poissons Ratio (z) = 0.16630 0.18534
#
# Static dielectric constant tensor:
#      x y z
#    x 1.984970 0.059740 -0.047330 
#    y 0.059740 2.133700 0.054320 
#    z -0.047330 0.054320 1.991500 
# 
# From -- ./inp_files/104892.got.cif
#   From: 2010.05.17/outbox.cif.g08.bks.cpg/sg2_53_cif.got.tgz:104892.got - 2010.06.03 11:33:40.
