data_PCOD9036812
_publ_section_title
;
Structure prediction by ZEFSAII (Michael W. Deem and Ramdas Pophale) SiO2 
 PCOD9036812
Probable space group: P -1
;
_chemical_formula_sum "Si O2"
_cell_formula_units_Z 16
_cell_length_a 11.268544
_cell_length_b 11.164961
_cell_length_c 7.152270
_cell_angle_alpha 94.355290
_cell_angle_beta 71.263965
_cell_angle_gamma 64.633866
_cell_volume 745.642202
_symmetry_space_group_name_H-M "P -1"
_symmetry_group_IT_number 2
_symmetry_cell_setting 'triclinic'
loop_
_space_group_symop_operation_xyz
x,y,z
-x,-y,-z
loop_
_atom_site_type_symbol
_atom_site_label
_atom_site_fract_x
_atom_site_fract_y
_atom_site_fract_z
Si Si1 0.150334 0.787010 0.821494
Si Si2 0.739552 0.819387 0.857785
Si Si3 0.697558 0.661919 0.536750
Si Si4 0.267761 0.769194 0.371582
Si Si5 0.640732 0.506363 0.865711
Si Si6 0.145158 0.973960 0.165979
Si Si7 0.960909 0.423945 0.173304
Si Si8 0.581066 0.728949 0.191891
O O1 0.261196 0.746848 0.591763
O O2 0.115168 0.664650 0.867201
O O3 0.193901 0.847978 0.981859
O O4 0.006953 0.910614 0.818420
O O5 0.705644 0.779189 0.668150
O O6 0.891887 0.689812 0.822491
O O7 0.756918 0.953425 0.871892
O O8 0.624177 0.827128 0.067890
O O9 0.623439 0.598146 0.702751
O O10 0.853446 0.538204 0.386112
O O11 0.618528 0.717996 0.388210
O O12 0.251684 0.647622 0.265277
O O13 0.152339 0.910589 0.357825
O O14 0.418899 0.762217 0.251509
O O15 0.500000 0.500000 0.000000
O O16 0.674206 0.581636 0.025445
O O17 0.000000 0.500000 0.000000
#
# Coordination Sequence:
#
# PCOD9036812 Si02
#       8
#     2   2   2   2   2   2   2   2
#     4  10  23  43  64  92 121 161 211 253 310 366
#     4  10  23  42  59  91 127 163 208 255 307 362
#     4  11  21  39  63  90 128 160 203 257 315 370
#     4  11  22  39  64  90 124 167 207 248 310 371
#     4   9  21  37  59  93 128 157 199 253 311 369
#     4  10  24  43  62  87 126 165 208 259 294 364
#     4  11  21  40  67  94 122 160 203 263 319 364
#     4  10  23  39  62  95 126 163 204 255 314 367
#
# _framework density 21.458013000000001
#
# number of rings (size 3 to 8) (size 9 to 14) (size 15 to 20)
#    0.000    1.750    2.500    0.750    1.750    6.500 
#    6.750    1.250    0.000    0.000    0.000    0.000 
#    0.000    0.000    0.000    0.000    0.000    0.000 
#
# Total GULP energy -89365.144633 kJ/mol
# GULP energy per Si atom -5585.321540 kJ/mol
# Density = 2.140917 g / cm^3
# Si number density = 21.458013 Si / 1000 Ang^3
#
#
#
# Elastic Constant Matrix: (Units=GPa)
#
#
# Indices 1 2 3 4 5 6 
#
# 1 72.9748 43.9526 49.6459 2.0360 9.6427 30.8295
# 2 43.9526 80.5063 44.8456 -10.6008 11.7656 29.4545
# 3 49.6459 44.8456 134.4617 -10.2046 9.3370 26.6384
# 4 2.0360 -10.6008 -10.2046 20.3440 -4.4422 -0.7609
# 5 9.6427 11.7656 9.3370 -4.4422 37.7204 -0.1865
# 6 30.8295 29.4545 26.6384 -0.7609 -0.1865 42.7036
#
#
#
# Elastic Compliance Matrix: (Units=1/GPa)
#
#
# Indices 1 2 3 4 5 6 
#
# 1 0.029052 -0.009467 -0.006023 -0.012249 -0.004479 -0.010924
# 2 -0.009467 0.023426 -0.001627 0.011338 -0.003189 -0.008120
# 3 -0.006023 -0.001627 0.010833 0.005136 -0.000035 -0.001195
# 4 -0.012249 0.011338 0.005136 0.060000 0.005384 -0.001089
# 5 -0.004479 -0.003189 -0.000035 0.005384 0.029321 0.005679
# 6 -0.010924 -0.008120 -0.001195 -0.001089 0.005679 0.037656
#
#
# Mechanical properties :
#
#
# Convention : Reuss Voigt Hill
#
# Bulk Modulus (GPa) = 34.39253 62.75897 48.57575
# Shear Modulus (GPa) = 21.34787 30.12018 25.73403
#
# Velocity S-wave (km/s) = 3.15757 3.75064 3.46681
# Velocity P-wave (km/s) = 5.41815 6.93305 6.22188
#
# Compressibility (1/GPa) = 0.02907608
#
# Stress axis : x y z
#
# Youngs Moduli (GPa) = 34.42100 42.68702 92.31293
#
# Poissons Ratio (x) = 0.40412 0.55604
# Poissons Ratio (y) = 0.32587 0.15020
# Poissons Ratio (z) = 0.20733 0.06945
#
# Static dielectric constant tensor:
#      x y z
#    x 1.777740 -0.020240 -0.008660 
#    y -0.020240 1.784950 0.018940 
#    z -0.008660 0.018940 1.768050 
# 
# From -- ./inp_files/70370.got.cif
#   From: 2010.05.17/outbox.cif.g08.bks.cpg/sg2_36_cif.got.tgz:70370.got - 2010.06.03 11:33:40.
