data_PCOD9036373
_publ_section_title
;
Structure prediction by ZEFSAII (Michael W. Deem and Ramdas Pophale) SiO2 
 PCOD9036373
Probable space group: P -1
;
_chemical_formula_sum "Si O2"
_cell_formula_units_Z 16
_cell_length_a 5.269009
_cell_length_b 8.402816
_cell_length_c 19.206089
_cell_angle_alpha 99.498153
_cell_angle_beta 59.751111
_cell_angle_gamma 88.377123
_cell_volume 718.267195
_symmetry_space_group_name_H-M "P -1"
_symmetry_group_IT_number 2
_symmetry_cell_setting 'triclinic'
loop_
_space_group_symop_operation_xyz
x,y,z
-x,-y,-z
loop_
_atom_site_type_symbol
_atom_site_label
_atom_site_fract_x
_atom_site_fract_y
_atom_site_fract_z
Si Si1 0.714395 0.265201 0.369305
Si Si2 0.736922 0.245028 0.140335
Si Si3 0.449249 0.189146 0.541867
Si Si4 0.235544 0.501046 0.733347
Si Si5 0.342264 0.534540 0.134553
Si Si6 0.199832 0.351866 0.000139
Si Si7 0.621614 0.917387 0.717084
Si Si8 0.251468 0.760542 0.348310
O O1 0.560502 0.279582 0.466323
O O2 0.737519 0.439543 0.344220
O O3 0.525612 0.167896 0.334348
O O4 0.045403 0.172127 0.324845
O O5 0.849094 0.332881 0.199530
O O6 0.518100 0.392859 0.146907
O O7 0.564902 0.108440 0.188655
O O8 0.002563 0.216215 0.044958
O O9 0.643375 0.206655 0.584952
O O10 0.099469 0.234144 0.606198
O O11 0.500000 0.000000 0.500000
O O12 0.548046 0.408856 0.707689
O O13 0.969096 0.401021 0.782185
O O14 0.292590 0.435982 0.063788
O O15 0.526869 0.677185 0.093150
O O16 0.000000 0.500000 0.000000
O O17 0.645829 0.100781 0.705008
#
# Coordination Sequence:
#
# PCOD9036373 Si02
#       8
#     2   2   2   2   2   2   2   2
#     4  11  22  38  61  78 111 148 192 238 288 333
#     4   9  18  32  55  80 117 145 191 226 275 330
#     4  12  23  41  61  81 108 149 198 243 281 342
#     4  10  23  35  53  87 117 147 182 241 291 336
#     4   9  15  31  53  78 117 145 181 228 276 325
#     4   8  15  27  51  86 108 146 185 227 263 325
#     4  11  20  37  58  84 108 153 191 235 275 339
#     4  12  25  38  61  84 113 149 193 236 296 339
#
# _framework density 22.275831
#
# number of rings (size 3 to 8) (size 9 to 14) (size 15 to 20)
#    0.000    1.750    3.750    1.125    1.750    1.000 
#    0.000    0.000    0.000    0.750    0.000   29.750 
#    0.000    0.000    0.000    0.000    0.000    0.000 
#
# Total GULP energy -89275.777642 kJ/mol
# GULP energy per Si atom -5579.736103 kJ/mol
# Density = 2.222513 g / cm^3
# Si number density = 22.275831 Si / 1000 Ang^3
#
#
#
# Elastic Constant Matrix: (Units=GPa)
#
#
# Indices 1 2 3 4 5 6 
#
# 1 88.1465 13.4746 29.3129 -8.3767 -0.2584 -11.6271
# 2 13.4746 74.4164 59.8731 -32.0441 -7.5034 -9.3300
# 3 29.3129 59.8731 151.8065 -60.6976 -31.9738 -2.4932
# 4 -8.3767 -32.0441 -60.6976 45.4239 1.3717 0.7137
# 5 -0.2584 -7.5034 -31.9738 1.3717 45.9767 -1.0727
# 6 -11.6271 -9.3300 -2.4932 0.7137 -1.0727 23.3758
#
#
#
# Elastic Compliance Matrix: (Units=1/GPa)
#
#
# Indices 1 2 3 4 5 6 
#
# 1 0.013294 0.000253 -0.004518 -0.003420 -0.002779 0.006209
# 2 0.000253 0.022410 -0.005343 0.008590 -0.000121 0.008233
# 3 -0.004518 -0.005343 0.022491 0.025063 0.013947 -0.002106
# 4 -0.003420 0.008590 0.025063 0.060366 0.017089 0.003342
# 5 -0.002779 -0.000121 0.013947 0.017089 0.030926 0.000954
# 6 0.006209 0.008233 -0.002106 0.003342 0.000954 0.048870
#
#
# Mechanical properties :
#
#
# Convention : Reuss Voigt Hill
#
# Bulk Modulus (GPa) = 25.65436 57.74340 41.69888
# Shear Modulus (GPa) = 21.68576 37.06922 29.37749
#
# Velocity S-wave (km/s) = 3.12350 4.08376 3.63548
# Velocity P-wave (km/s) = 4.95480 6.94366 6.03177
#
# Compressibility (1/GPa) = 0.03897973
#
# Stress axis : x y z
#
# Youngs Moduli (GPa) = 75.22089 44.62317 44.46231
#
# Poissons Ratio (x) = -0.01129 0.20087
# Poissons Ratio (y) = -0.01903 0.23756
# Poissons Ratio (z) = 0.33982 0.23842
#
# Static dielectric constant tensor:
#      x y z
#    x 1.937050 0.041850 0.014060 
#    y 0.041850 1.836900 -0.055510 
#    z 0.014060 -0.055510 1.947890 
# 
# From -- ./inp_files/44414.got.cif
#   From: 2010.05.17/outbox.cif.g08.bks.cpg/sg2_23_cif.got.tgz:44414.got - 2010.06.03 11:33:40.
