data_PCOD9036289
_publ_section_title
;
Structure prediction by ZEFSAII (Michael W. Deem and Ramdas Pophale) SiO2 
 PCOD9036289
Probable space group: P -1
;
_chemical_formula_sum "Si O2"
_cell_formula_units_Z 14
_cell_length_a 9.010584
_cell_length_b 12.887417
_cell_length_c 16.976956
_cell_angle_alpha 23.272284
_cell_angle_beta 40.879319
_cell_angle_gamma 46.643551
_cell_volume 509.524937
_symmetry_space_group_name_H-M "P -1"
_symmetry_group_IT_number 2
_symmetry_cell_setting 'triclinic'
loop_
_space_group_symop_operation_xyz
x,y,z
-x,-y,-z
loop_
_atom_site_type_symbol
_atom_site_label
_atom_site_fract_x
_atom_site_fract_y
_atom_site_fract_z
Si Si1 0.025705 0.200649 0.181837
Si Si2 0.670215 0.704193 0.143711
Si Si3 0.174074 0.758094 0.511055
Si Si4 0.224930 0.376945 0.532051
Si Si5 0.249237 0.517364 0.182244
Si Si6 0.643823 0.126207 0.260747
Si Si7 0.678074 0.955761 0.130404
O O1 0.432145 0.814856 0.342959
O O2 0.813000 0.123594 0.267383
O O3 0.065752 0.040838 0.356814
O O4 0.000000 0.500000 0.000000
O O5 0.408287 0.610751 0.313037
O O6 0.804335 0.435064 0.290163
O O7 0.733711 0.878923 0.072627
O O8 0.757773 0.833053 0.938798
O O9 0.003346 0.609159 0.622489
O O10 0.579378 0.720608 0.730981
O O11 0.645450 0.829530 0.433229
O O12 0.000000 0.500000 0.500000
O O13 0.177031 0.189740 0.758383
O O14 0.263189 0.687170 0.977576
O O15 0.322454 0.734127 0.066617
#
# Coordination Sequence:
#
# PCOD9036289 Si02
#       7
#     2   2   2   2   2   2   2
#     4  12  28  48  73 114 153 203 267 320 386 473
#     4  11  26  52  75 113 158 207 255 333 391 461
#     4  11  24  47  80 108 153 205 255 318 396 458
#     4  10  23  46  79 115 158 205 261 324 389 472
#     4  10  22  48  79 109 156 207 249 331 382 459
#     4  10  23  46  72 114 151 199 270 307 391 467
#     4  10  24  49  76 118 156 203 269 312 397 471
#
# _framework density 27.476576999999999
#
# number of rings (size 3 to 8) (size 9 to 14) (size 15 to 20)
#    0.000    1.429    1.429    2.571    6.000    3.429 
#    5.143    2.143    0.000    0.000    0.000    0.000 
#    0.000    0.000    0.000    0.000    0.000    0.000 
#
# Total GULP energy -78486.380673 kJ/mol
# GULP energy per Si atom -5606.170048 kJ/mol
# Density = 2.741404 g / cm^3
# Si number density = 27.476577 Si / 1000 Ang^3
#
#
#
# Elastic Constant Matrix: (Units=GPa)
#
#
# Indices 1 2 3 4 5 6 
#
# 1 151.4892 51.8117 66.3280 -8.8842 12.0419 -12.5913
# 2 51.8117 122.4394 67.5559 -30.7040 -6.5085 2.5338
# 3 66.3280 67.5559 149.0383 -22.6946 17.2400 0.7462
# 4 -8.8842 -30.7040 -22.6946 51.6504 -6.2685 6.7279
# 5 12.0419 -6.5085 17.2400 -6.2685 67.1994 3.5610
# 6 -12.5913 2.5338 0.7462 6.7279 3.5610 39.4762
#
#
#
# Elastic Compliance Matrix: (Units=1/GPa)
#
#
# Indices 1 2 3 4 5 6 
#
# 1 0.009202 -0.002992 -0.002900 -0.002144 -0.001590 0.003691
# 2 -0.002992 0.013740 -0.004304 0.006638 0.003761 -0.003226
# 3 -0.002900 -0.004304 0.010439 0.001349 -0.002404 -0.000859
# 4 -0.002144 0.006638 0.001349 0.024663 0.003280 -0.005635
# 5 -0.001590 0.003761 -0.002404 0.003280 0.016599 -0.002760
# 6 0.003691 -0.003226 -0.000859 -0.005635 -0.002760 0.027941
#
#
# Mechanical properties :
#
#
# Convention : Reuss Voigt Hill
#
# Bulk Modulus (GPa) = 76.99570 88.26200 82.62885
# Shear Modulus (GPa) = 39.27511 47.48330 43.37921
#
# Velocity S-wave (km/s) = 3.78485 4.16160 3.97768
# Velocity P-wave (km/s) = 6.86900 7.43534 7.15777
#
# Compressibility (1/GPa) = 0.01298774
#
# Stress axis : x y z
#
# Youngs Moduli (GPa) = 108.67650 72.78044 95.79381
#
# Poissons Ratio (x) = 0.21779 0.27777
# Poissons Ratio (y) = 0.32521 0.41233
# Poissons Ratio (z) = 0.31512 0.31327
#
# Static dielectric constant tensor:
#      x y z
#    x 2.135920 -0.005910 -0.046890 
#    y -0.005910 2.248680 -0.128840 
#    z -0.046890 -0.128840 2.250750 
# 
# From -- ./inp_files/589997.got.cif
#   From: 2010.05.17/outbox.cif.g08.bks.cpg/sg2_295_cif.got.tgz:589997.got - 2010.06.03 11:33:40.
