data_PCOD9036229
_publ_section_title
;
Structure prediction by ZEFSAII (Michael W. Deem and Ramdas Pophale) SiO2 
 PCOD9036229
Probable space group: P -1
;
_chemical_formula_sum "Si O2"
_cell_formula_units_Z 15
_cell_length_a 23.205405
_cell_length_b 6.053916
_cell_length_c 5.224473
_cell_angle_alpha 102.118648
_cell_angle_beta 72.137736
_cell_angle_gamma 119.517774
_cell_volume 606.366300
_symmetry_space_group_name_H-M "P -1"
_symmetry_group_IT_number 2
_symmetry_cell_setting 'triclinic'
loop_
_space_group_symop_operation_xyz
x,y,z
-x,-y,-z
loop_
_atom_site_type_symbol
_atom_site_label
_atom_site_fract_x
_atom_site_fract_y
_atom_site_fract_z
Si Si1 0.109186 0.902580 0.039571
Si Si2 0.765370 0.358709 0.512945
Si Si3 0.534325 0.912099 0.640677
Si Si4 0.000000 0.000000 0.500000
Si Si5 0.745814 0.608503 0.090250
Si Si6 0.655069 0.796189 0.520596
Si Si7 0.437640 0.562519 0.020431
Si Si8 0.091487 0.586343 0.496305
O O1 0.108057 0.715375 0.224776
O O2 0.062262 0.027103 0.228616
O O3 0.083324 0.767493 0.767392
O O4 0.186379 0.121245 0.948256
O O5 0.757029 0.444831 0.261346
O O6 0.843588 0.441945 0.492761
O O7 0.722575 0.058669 0.536782
O O8 0.738697 0.486356 0.793231
O O9 0.600113 0.873117 0.493082
O O10 0.500000 0.000000 0.500000
O O11 0.560729 0.164067 0.848340
O O12 0.467791 0.642289 0.717806
O O13 0.027744 0.310380 0.525721
O O14 0.679664 0.637695 0.265928
O O15 0.624409 0.652141 0.793618
O O16 0.500000 0.500000 0.000000
#
# Coordination Sequence:
#
# PCOD9036229 Si02
#       8
#     2   2   2   1   2   2   2   2
#     4  12  27  49  76 112 153 205 257 315 380 455
#     4  12  27  51  76 110 154 199 256 318 379 455
#     4  10  22  48  72 106 144 187 246 308 373 455
#     4  12  28  46  80 112 160 206 256 314 386 446
#     4  12  27  51  76 108 154 201 253 317 385 446
#     4  11  25  47  73 109 145 198 250 309 384 455
#     4   9  21  46  67 101 140 183 234 301 366 447
#     4  12  27  49  77 110 155 201 260 315 381 450
#
# _framework density 24.737521999999998
#
# number of rings (size 3 to 8) (size 9 to 14) (size 15 to 20)
#    0.000    0.800    2.667    3.200    0.000    3.200 
#   31.200    0.000    0.000    0.000    0.000    0.000 
#    0.000    0.000    0.000    0.000    0.000    0.000 
#
# Total GULP energy -83582.955201 kJ/mol
# GULP energy per Si atom -5572.197013 kJ/mol
# Density = 2.468122 g / cm^3
# Si number density = 24.737522 Si / 1000 Ang^3
#
#
#
# Elastic Constant Matrix: (Units=GPa)
#
#
# Indices 1 2 3 4 5 6 
#
# 1 80.5800 -7.5337 30.8102 -12.3493 -25.0312 -14.0512
# 2 -7.5337 102.4765 23.4694 -25.5093 -9.8323 6.7728
# 3 30.8102 23.4694 102.3288 -17.0096 -21.4875 2.6797
# 4 -12.3493 -25.5093 -17.0096 65.2191 -11.5885 -3.3872
# 5 -25.0312 -9.8323 -21.4875 -11.5885 53.3278 4.3363
# 6 -14.0512 6.7728 2.6797 -3.3872 4.3363 26.5850
#
#
#
# Elastic Compliance Matrix: (Units=1/GPa)
#
#
# Indices 1 2 3 4 5 6 
#
# 1 0.019807 0.004279 -0.004224 0.006402 0.009032 0.009147
# 2 0.004279 0.012566 -0.002143 0.005984 0.004823 -0.000748
# 3 -0.004224 -0.002143 0.012702 0.002121 0.003466 -0.003262
# 4 0.006402 0.005984 0.002121 0.021247 0.009350 0.002828
# 5 0.009032 0.004823 0.003466 0.009350 0.027315 -0.000069
# 6 0.009147 -0.000748 -0.003262 0.002828 -0.000069 0.043340
#
#
# Mechanical properties :
#
#
# Convention : Reuss Voigt Hill
#
# Bulk Modulus (GPa) = 24.45094 42.09746 33.27420
# Shear Modulus (GPa) = 32.30285 44.93568 38.61926
#
# Velocity S-wave (km/s) = 3.61754 4.26666 3.95544
# Velocity P-wave (km/s) = 5.23014 6.42862 5.86010
#
# Compressibility (1/GPa) = 0.04089822
#
# Stress axis : x y z
#
# Youngs Moduli (GPa) = 50.48743 79.58220 78.73015
#
# Poissons Ratio (x) = -0.34055 0.33255
# Poissons Ratio (y) = -0.21605 0.16875
# Poissons Ratio (z) = 0.21325 0.17057
#
# Static dielectric constant tensor:
#      x y z
#    x 2.038300 0.040250 0.129840 
#    y 0.040250 1.766650 0.004580 
#    z 0.129840 0.004580 2.127420 
# 
# From -- ./inp_files/121737.got.cif
#   From: 2010.05.17/outbox.cif.g08.bks.cpg/sg2_61_cif.got.tgz:121737.got - 2010.06.03 11:33:40.
