data_PCOD9036554
_publ_section_title
;
Structure prediction by ZEFSAII (Michael W. Deem and Ramdas Pophale) SiO2 
 PCOD9036554
Probable space group: P -1
;
_chemical_formula_sum "Si O2"
_cell_formula_units_Z 16
_cell_length_a 12.330338
_cell_length_b 8.703970
_cell_length_c 8.261745
_cell_angle_alpha 61.663275
_cell_angle_beta 96.866502
_cell_angle_gamma 95.017740
_cell_volume 774.350600
_symmetry_space_group_name_H-M "P -1"
_symmetry_group_IT_number 2
_symmetry_cell_setting 'triclinic'
loop_
_space_group_symop_operation_xyz
x,y,z
-x,-y,-z
loop_
_atom_site_type_symbol
_atom_site_label
_atom_site_fract_x
_atom_site_fract_y
_atom_site_fract_z
Si Si1 0.623844 0.551934 0.557730
Si Si2 0.063197 0.935430 0.387195
Si Si3 0.242362 0.072008 0.139319
Si Si4 0.262185 0.409989 0.783021
Si Si5 0.242481 0.770343 0.723449
Si Si6 0.013699 0.353987 0.708490
Si Si7 0.616860 0.930041 0.522054
Si Si8 0.789640 0.285495 0.882403
O O1 0.500000 0.500000 0.500000
O O2 0.697638 0.594691 0.391188
O O3 0.618078 0.729301 0.571037
O O4 0.690876 0.406492 0.742416
O O5 0.152075 0.809870 0.549308
O O6 0.987906 0.827507 0.301307
O O7 0.127700 0.080360 0.215983
O O8 0.000000 0.000000 0.500000
O O9 0.323136 0.035753 0.316010
O O10 0.229194 0.906635 0.102162
O O11 0.291726 0.240283 0.972641
O O12 0.302440 0.597378 0.764239
O O13 0.130646 0.395364 0.785552
O O14 0.319238 0.944257 0.656429
O O15 0.200840 0.729622 0.915755
O O16 0.000000 0.500000 0.500000
O O17 0.906948 0.353687 0.801096
O O18 0.500000 0.000000 0.500000
#
# Coordination Sequence:
#
# PCOD9036554 Si02
#       8
#     2   2   2   2   2   2   2   2
#     4  12  25  44  71  96 127 167 212 271 327 385
#     4  10  23  38  60  90 131 168 217 260 316 374
#     4  10  24  41  63  96 129 169 214 266 312 384
#     4  12  24  42  65  97 134 171 220 260 325 377
#     4  11  24  41  63  95 129 171 213 268 312 383
#     4  11  22  40  64  91 134 177 211 268 311 384
#     4  11  24  46  70  93 128 168 214 268 326 381
#     4  11  24  43  64  98 133 169 221 260 324 379
#
# _framework density 20.662475000000001
#
# number of rings (size 3 to 8) (size 9 to 14) (size 15 to 20)
#    0.000    1.000    2.500    4.500    7.000    3.500 
#    0.000    5.000    0.000    0.000    0.000    0.000 
#    0.000    0.000    0.000    0.000    0.000    0.000 
#
# Total GULP energy -89317.855877 kJ/mol
# GULP energy per Si atom -5582.365992 kJ/mol
# Density = 2.061545 g / cm^3
# Si number density = 20.662475 Si / 1000 Ang^3
#
#
#
# Elastic Constant Matrix: (Units=GPa)
#
#
# Indices 1 2 3 4 5 6 
#
# 1 55.4863 7.3336 3.6028 -8.5074 6.6161 3.5247
# 2 7.3336 48.5274 -2.6508 2.1924 0.7430 -10.1460
# 3 3.6028 -2.6508 98.7680 -4.2486 -15.0262 -5.7479
# 4 -8.5074 2.1924 -4.2486 31.0772 -1.6956 -1.2555
# 5 6.6161 0.7430 -15.0262 -1.6956 15.2310 3.1825
# 6 3.5247 -10.1460 -5.7479 -1.2555 3.1825 33.4167
#
#
#
# Elastic Compliance Matrix: (Units=1/GPa)
#
#
# Indices 1 2 3 4 5 6 
#
# 1 0.020821 -0.003897 -0.002331 0.005001 -0.010046 -0.002636
# 2 -0.003897 0.022924 0.001068 -0.002246 -0.000186 0.007488
# 3 -0.002331 0.001068 0.012389 0.001755 0.013060 0.001523
# 4 0.005001 -0.002246 0.001755 0.034136 0.003459 0.000046
# 5 -0.010046 -0.000186 0.013060 0.003459 0.084269 -0.004646
# 6 -0.002636 0.007488 0.001523 0.000046 -0.004646 0.033183
#
#
# Mechanical properties :
#
#
# Convention : Reuss Voigt Hill
#
# Bulk Modulus (GPa) = 21.82655 24.37253 23.09954
# Shear Modulus (GPa) = 21.43036 28.91137 25.17087
#
# Velocity S-wave (km/s) = 3.22400 3.74467 3.49405
# Velocity P-wave (km/s) = 4.94421 5.52430 5.24229
#
# Compressibility (1/GPa) = 0.04581576
#
# Stress axis : x y z
#
# Youngs Moduli (GPa) = 48.02834 43.62207 80.71351
#
# Poissons Ratio (x) = 0.17000 0.18812
# Poissons Ratio (y) = 0.18717 -0.08622
# Poissons Ratio (z) = 0.11194 -0.04660
#
# Static dielectric constant tensor:
#      x y z
#    x 1.620680 0.041290 -0.006410 
#    y 0.041290 1.686380 -0.048860 
#    z -0.006410 -0.048860 1.754360 
# 
# From -- ./inp_files/186452.got.cif
#   From: 2010.05.17/outbox.cif.g08.bks.cpg/sg2_94_cif.got.tgz:186452.got - 2010.06.03 11:33:40.
