data_PCOD9036756
_publ_section_title
;
Structure prediction by ZEFSAII (Michael W. Deem and Ramdas Pophale) SiO2 
 PCOD9036756
Probable space group: P -1
;
_chemical_formula_sum "Si O2"
_cell_formula_units_Z 16
_cell_length_a 21.548680
_cell_length_b 8.296482
_cell_length_c 9.055020
_cell_angle_alpha 72.680620
_cell_angle_beta 146.601726
_cell_angle_gamma 120.171511
_cell_volume 744.676005
_symmetry_space_group_name_H-M "P -1"
_symmetry_group_IT_number 2
_symmetry_cell_setting 'triclinic'
loop_
_space_group_symop_operation_xyz
x,y,z
-x,-y,-z
loop_
_atom_site_type_symbol
_atom_site_label
_atom_site_fract_x
_atom_site_fract_y
_atom_site_fract_z
Si Si1 0.564112 0.737739 0.227665
Si Si2 0.045633 0.221778 0.887165
Si Si3 0.162742 0.951512 0.218555
Si Si4 0.802280 0.318056 0.865389
Si Si5 0.350596 0.722881 0.017743
Si Si6 0.116890 0.712271 0.654612
Si Si7 0.504715 0.173514 0.246811
Si Si8 0.433360 0.561421 0.474878
O O1 0.429432 0.689518 0.053563
O O2 0.599538 0.582347 0.412591
O O3 0.687599 0.941455 0.460944
O O4 0.539696 0.748059 0.003285
O O5 0.942339 0.131426 0.838220
O O6 0.953382 0.174598 0.574619
O O7 0.123227 0.449891 0.022625
O O8 0.134451 0.123119 0.060018
O O9 0.143679 0.779561 0.117827
O O10 0.658448 0.261603 0.542827
O O11 0.808649 0.225219 0.060549
O O12 0.335073 0.593762 0.167535
O O13 0.441231 0.946258 0.172831
O O14 0.211585 0.702816 0.721271
O O15 0.000000 0.500000 0.500000
O O16 0.468716 0.236095 0.311913
O O17 0.500000 0.500000 0.500000
#
# Coordination Sequence:
#
# PCOD9036756 Si02
#       8
#     2   2   2   2   2   2   2   2
#     4  11  24  40  66 100 133 169 217 276 335 395
#     4  10  24  44  66  92 135 173 221 273 328 395
#     4  11  23  43  68  97 131 175 219 275 331 393
#     4  11  23  41  69  95 129 174 223 272 333 392
#     4  11  22  41  66  96 129 171 219 271 336 393
#     4  10  23  41  65  91 126 175 218 270 326 397
#     4  12  22  39  67  99 131 173 219 274 334 402
#     4  10  23  39  60  94 135 173 209 272 335 392
#
# _framework density 21.485854
#
# number of rings (size 3 to 8) (size 9 to 14) (size 15 to 20)
#    0.000    1.250    2.500    3.000    3.500    0.500 
#    0.000    0.000   11.000    0.000    0.000    0.000 
#    0.000    0.000    0.000    0.000    0.000    0.000 
#
# Total GULP energy -89143.040436 kJ/mol
# GULP energy per Si atom -5571.440027 kJ/mol
# Density = 2.143695 g / cm^3
# Si number density = 21.485854 Si / 1000 Ang^3
#
#
#
# Elastic Constant Matrix: (Units=GPa)
#
#
# Indices 1 2 3 4 5 6 
#
# 1 67.5435 3.8874 24.7952 -7.8826 -2.0186 -4.6409
# 2 3.8874 70.2611 20.9198 -9.4330 -2.8647 -2.7701
# 3 24.7952 20.9198 111.3815 -21.8753 5.8622 4.7530
# 4 -7.8826 -9.4330 -21.8753 25.7365 7.9433 5.2592
# 5 -2.0186 -2.8647 5.8622 7.9433 32.9556 10.0776
# 6 -4.6409 -2.7701 4.7530 5.2592 10.0776 26.6674
#
#
#
# Elastic Compliance Matrix: (Units=1/GPa)
#
#
# Indices 1 2 3 4 5 6 
#
# 1 0.016507 0.000499 -0.003658 0.001357 0.000414 0.003152
# 2 0.000499 0.015451 -0.002456 0.003277 0.000641 0.001241
# 3 -0.003658 -0.002456 0.012773 0.010893 -0.004194 -0.003732
# 4 0.001357 0.003277 0.010893 0.055141 -0.012570 -0.007489
# 5 0.000414 0.000641 -0.004194 -0.012570 0.037506 -0.010808
# 6 0.003152 0.001241 -0.003732 -0.007489 -0.010808 0.044403
#
#
# Mechanical properties :
#
#
# Convention : Reuss Voigt Hill
#
# Bulk Modulus (GPa) = 29.84985 38.71010 34.27998
# Shear Modulus (GPa) = 24.48830 30.37748 27.43289
#
# Velocity S-wave (km/s) = 3.37967 3.76418 3.57709
# Velocity P-wave (km/s) = 5.39930 6.07847 5.74892
#
# Compressibility (1/GPa) = 0.03350100
#
# Stress axis : x y z
#
# Youngs Moduli (GPa) = 60.58095 64.71908 78.28836
#
# Poissons Ratio (x) = -0.03232 0.28639
# Poissons Ratio (y) = -0.03025 0.19231
# Poissons Ratio (z) = 0.22162 0.15898
#
# Static dielectric constant tensor:
#      x y z
#    x 1.816980 0.000910 0.004260 
#    y 0.000910 1.847020 -0.056170 
#    z 0.004260 -0.056170 1.793240 
# 
# From -- ./inp_files/329354.got.cif
#   From: 2010.05.17/outbox.cif.g08.bks.cpg/sg2_165_cif.got.tgz:329354.got - 2010.06.03 11:33:40.
