data_PCOD9036052
_publ_section_title
;
Structure prediction by ZEFSAII (Michael W. Deem and Ramdas Pophale) SiO2 
 PCOD9036052
Probable space group: P -1
;
_chemical_formula_sum "Si O2"
_cell_formula_units_Z 14
_cell_length_a 18.986297
_cell_length_b 12.768799
_cell_length_c 5.064166
_cell_angle_alpha 75.194944
_cell_angle_beta 109.308705
_cell_angle_gamma 150.774631
_cell_volume 564.254834
_symmetry_space_group_name_H-M "P -1"
_symmetry_group_IT_number 2
_symmetry_cell_setting 'triclinic'
loop_
_space_group_symop_operation_xyz
x,y,z
-x,-y,-z
loop_
_atom_site_type_symbol
_atom_site_label
_atom_site_fract_x
_atom_site_fract_y
_atom_site_fract_z
Si Si1 0.709383 0.184422 0.538034
Si Si2 0.746978 0.003047 0.460447
Si Si3 0.116562 0.923486 0.913298
Si Si4 0.601083 0.186903 0.796517
Si Si5 0.168340 0.448960 0.836234
Si Si6 0.143924 0.190677 0.866884
Si Si7 0.471590 0.541157 0.193091
O O1 0.769489 0.151294 0.507852
O O2 0.717746 0.242777 0.804558
O O3 0.780867 0.377294 0.353179
O O4 0.528726 0.936589 0.477966
O O5 0.764961 0.954211 0.782428
O O6 0.594305 0.788731 0.248065
O O7 0.864833 0.121915 0.300265
O O8 0.969235 0.716062 0.031281
O O9 0.129693 0.066000 0.749918
O O10 0.692212 0.397179 0.897929
O O11 0.500000 0.000000 0.000000
O O12 0.147132 0.319999 0.700005
O O13 0.304082 0.372980 0.079949
O O14 0.000000 0.000000 0.000000
O O15 0.500000 0.500000 0.500000
O O16 0.500000 0.500000 0.000000
#
# Coordination Sequence:
#
# PCOD9036052 Si02
#       7
#     2   2   2   2   2   2   2
#     4  10  23  41  69 100 133 187 226 299 352 425
#     4  12  25  45  71 100 146 176 240 287 360 430
#     4  11  26  45  68 104 137 190 230 296 350 433
#     4   9  20  43  64  97 133 172 241 280 352 413
#     4  10  23  44  68  96 142 181 240 288 361 414
#     4  10  22  47  71 104 142 186 241 298 352 422
#     4  12  23  47  73 103 140 187 238 288 361 424
#
# _framework density 24.811485999999999
#
# number of rings (size 3 to 8) (size 9 to 14) (size 15 to 20)
#    0.000    1.429    2.857    0.857    6.000    1.143 
#   15.429    4.286    0.000    0.000    0.000    0.000 
#    0.000    0.000    0.000    0.000    0.000    0.000 
#
# Total GULP energy -78023.010692 kJ/mol
# GULP energy per Si atom -5573.072192 kJ/mol
# Density = 2.475501 g / cm^3
# Si number density = 24.811486 Si / 1000 Ang^3
#
#
#
# Elastic Constant Matrix: (Units=GPa)
#
#
# Indices 1 2 3 4 5 6 
#
# 1 191.2987 65.2947 51.6341 -14.6166 -31.8162 -34.6299
# 2 65.2947 141.3330 25.7118 1.3560 3.7132 -14.2133
# 3 51.6341 25.7118 95.1742 -1.3044 -35.3024 -9.7400
# 4 -14.6166 1.3560 -1.3044 36.4942 5.6561 -0.8013
# 5 -31.8162 3.7132 -35.3024 5.6561 31.3309 6.4815
# 6 -34.6299 -14.2133 -9.7400 -0.8013 6.4815 50.9623
#
#
#
# Elastic Compliance Matrix: (Units=1/GPa)
#
#
# Indices 1 2 3 4 5 6 
#
# 1 0.008834 -0.003816 -0.000521 0.002576 0.007560 0.003918
# 2 -0.003816 0.009926 -0.004196 -0.000513 -0.009813 0.000614
# 3 -0.000521 -0.004196 0.020714 -0.003046 0.023995 -0.000665
# 4 0.002576 -0.000513 -0.003046 0.029409 -0.006545 0.002320
# 5 0.007560 -0.009813 0.023995 -0.006545 0.069377 -0.001940
# 6 0.003918 0.000614 -0.000665 0.002320 -0.001940 0.022612
#
#
# Mechanical properties :
#
#
# Convention : Reuss Voigt Hill
#
# Bulk Modulus (GPa) = 44.62558 79.23189 61.92874
# Shear Modulus (GPa) = 26.96785 42.76851 34.86818
#
# Velocity S-wave (km/s) = 3.30041 4.15630 3.75283
# Velocity P-wave (km/s) = 5.70513 7.41862 6.61757
#
# Compressibility (1/GPa) = 0.02240867
#
# Stress axis : x y z
#
# Youngs Moduli (GPa) = 113.19980 100.74535 48.27707
#
# Poissons Ratio (x) = 0.38441 0.02517
# Poissons Ratio (y) = 0.43194 0.20255
# Poissons Ratio (z) = 0.05901 0.42268
#
# Static dielectric constant tensor:
#      x y z
#    x 2.099280 0.041200 0.061530 
#    y 0.041200 2.050780 0.129500 
#    z 0.061530 0.129500 2.072820 
# 
# From -- ./inp_files/109687.got.cif
#   From: 2010.05.17/outbox.cif.g08.bks.cpg/sg2_55_cif.got.tgz:109687.got - 2010.06.03 11:33:40.
