data_PCOD9036585
_publ_section_title
;
Structure prediction by ZEFSAII (Michael W. Deem and Ramdas Pophale) SiO2 
 PCOD9036585
Probable space group: P -1
;
_chemical_formula_sum "Si O2"
_cell_formula_units_Z 16
_cell_length_a 20.984807
_cell_length_b 13.985268
_cell_length_c 6.576171
_cell_angle_alpha 122.470353
_cell_angle_beta 105.296872
_cell_angle_gamma 29.673070
_cell_volume 704.834284
_symmetry_space_group_name_H-M "P -1"
_symmetry_group_IT_number 2
_symmetry_cell_setting 'triclinic'
loop_
_space_group_symop_operation_xyz
x,y,z
-x,-y,-z
loop_
_atom_site_type_symbol
_atom_site_label
_atom_site_fract_x
_atom_site_fract_y
_atom_site_fract_z
Si Si1 0.931692 0.985798 0.868299
Si Si2 0.332667 0.127867 0.949483
Si Si3 0.439758 0.866046 0.369437
Si Si4 0.671247 0.400076 0.793531
Si Si5 0.159038 0.210298 0.362186
Si Si6 0.413987 0.229963 0.927557
Si Si7 0.179579 0.989963 0.820490
Si Si8 0.013043 0.661688 0.320662
O O1 0.801601 0.199628 0.839028
O O2 0.873715 0.015020 0.056669
O O3 0.042503 0.730096 0.554505
O O4 0.000000 0.000000 0.000000
O O5 0.416355 0.905235 0.632985
O O6 0.433911 0.999322 0.079690
O O7 0.332186 0.242381 0.939014
O O8 0.162841 0.360666 0.109209
O O9 0.277910 0.119075 0.425749
O O10 0.521940 0.634412 0.068841
O O11 0.541551 0.814201 0.319863
O O12 0.672101 0.520284 0.814687
O O13 0.697568 0.257761 0.498403
O O14 0.000000 0.500000 0.500000
O O15 0.121577 0.191099 0.505661
O O16 0.220268 0.039800 0.036196
O O17 0.044053 0.225340 0.823451
#
# Coordination Sequence:
#
# PCOD9036585 Si02
#       8
#     2   2   2   2   2   2   2   2
#     4  10  23  39  64  91 125 167 205 255 312 369
#     4  11  21  38  62  91 129 159 202 260 311 369
#     4  10  23  38  62  89 121 163 206 253 302 364
#     4   9  23  40  60  93 121 160 212 241 316 373
#     4  11  23  43  64  92 125 164 213 256 308 366
#     4   9  23  38  59  94 124 163 204 248 318 372
#     4  10  23  42  62  88 129 159 207 267 301 366
#     4  10  24  40  62  96 123 162 212 253 312 372
#
# _framework density 22.700372999999999
#
# number of rings (size 3 to 8) (size 9 to 14) (size 15 to 20)
#    0.750    1.250    0.000    1.875    5.250    6.500 
#    0.000    5.625    0.000    0.000    0.000    0.000 
#    0.000    0.000    0.000    0.000    0.000    0.000 
#
# Total GULP energy -89299.656124 kJ/mol
# GULP energy per Si atom -5581.228508 kJ/mol
# Density = 2.264871 g / cm^3
# Si number density = 22.700373 Si / 1000 Ang^3
#
#
#
# Elastic Constant Matrix: (Units=GPa)
#
#
# Indices 1 2 3 4 5 6 
#
# 1 53.8040 4.6621 9.6535 -8.2757 1.3509 5.9823
# 2 4.6621 61.8711 18.9317 1.3853 -4.2848 9.8513
# 3 9.6535 18.9317 124.5381 1.9823 -2.2384 -4.4407
# 4 -8.2757 1.3853 1.9823 29.3805 -0.4142 2.3586
# 5 1.3509 -4.2848 -2.2384 -0.4142 22.6583 0.4174
# 6 5.9823 9.8513 -4.4407 2.3586 0.4174 26.6820
#
#
#
# Elastic Compliance Matrix: (Units=1/GPa)
#
#
# Indices 1 2 3 4 5 6 
#
# 1 0.020548 -0.000364 -0.001851 0.006339 -0.001263 -0.005321
# 2 -0.000364 0.018498 -0.002981 -0.000142 0.003357 -0.007284
# 3 -0.001851 -0.002981 0.008761 -0.001214 0.000333 0.003076
# 4 0.006339 -0.000142 -0.001214 0.036298 0.000227 -0.004783
# 5 -0.001263 0.003357 0.000333 0.000227 0.044911 -0.001623
# 6 -0.005321 -0.007284 0.003076 -0.004783 -0.001623 0.042321
#
#
# Mechanical properties :
#
#
# Convention : Reuss Voigt Hill
#
# Bulk Modulus (GPa) = 26.72697 34.07863 30.40280
# Shear Modulus (GPa) = 25.74670 29.54189 27.64429
#
# Velocity S-wave (km/s) = 3.37144 3.61138 3.49347
# Velocity P-wave (km/s) = 5.19180 5.69512 5.44928
#
# Compressibility (1/GPa) = 0.03741539
#
# Stress axis : x y z
#
# Youngs Moduli (GPa) = 48.66657 54.06113 114.13899
#
# Poissons Ratio (x) = 0.01969 0.21124
# Poissons Ratio (y) = 0.01772 0.34023
# Poissons Ratio (z) = 0.09007 0.16115
#
# Static dielectric constant tensor:
#      x y z
#    x 1.841120 0.048670 0.005750 
#    y 0.048670 1.818080 0.017260 
#    z 0.005750 0.017260 1.913480 
# 
# From -- ./inp_files/124393.got.cif
#   From: 2010.05.17/outbox.cif.g08.bks.cpg/sg2_63_cif.got.tgz:124393.got - 2010.06.03 11:33:40.
