data_PCOD9036676
_publ_section_title
;
Structure prediction by ZEFSAII (Michael W. Deem and Ramdas Pophale) SiO2 
 PCOD9036676
Probable space group: P -1
;
_chemical_formula_sum "Si O2"
_cell_formula_units_Z 16
_cell_length_a 22.343707
_cell_length_b 15.540109
_cell_length_c 6.291751
_cell_angle_alpha 111.019712
_cell_angle_beta 66.146997
_cell_angle_gamma 160.261163
_cell_volume 673.101959
_symmetry_space_group_name_H-M "P -1"
_symmetry_group_IT_number 2
_symmetry_cell_setting 'triclinic'
loop_
_space_group_symop_operation_xyz
x,y,z
-x,-y,-z
loop_
_atom_site_type_symbol
_atom_site_label
_atom_site_fract_x
_atom_site_fract_y
_atom_site_fract_z
Si Si1 0.373341 0.265144 0.843739
Si Si2 0.854811 0.297123 0.718973
Si Si3 0.932403 0.085248 0.735769
Si Si4 0.789157 0.808723 0.313408
Si Si5 0.425780 0.125346 0.584427
Si Si6 0.806235 0.318395 0.212796
Si Si7 0.745004 0.428072 0.563535
Si Si8 0.168886 0.326632 0.991678
O O1 0.312330 0.239644 0.696351
O O2 0.453002 0.269201 0.701971
O O3 0.500000 0.500000 0.000000
O O4 0.192313 0.016657 0.026183
O O5 0.000000 0.500000 0.500000
O O6 0.980823 0.402927 0.787388
O O7 0.677685 0.024440 0.622268
O O8 0.798361 0.308896 0.959826
O O9 0.053149 0.295730 0.576649
O O10 0.806680 0.849367 0.574562
O O11 0.071568 0.219891 0.815216
O O12 0.715175 0.613495 0.162104
O O13 0.998795 0.082276 0.175556
O O14 0.609829 0.310801 0.511132
O O15 0.294220 0.905611 0.756199
O O16 0.712030 0.277047 0.441084
O O17 0.736700 0.462869 0.840603
#
# Coordination Sequence:
#
# PCOD9036676 Si02
#       8
#     2   2   2   2   2   2   2   2
#     4  11  25  42  64  95 137 176 226 283 334 394
#     4   9  22  41  68  98 130 174 223 276 333 400
#     4  10  23  38  67  94 126 182 228 275 335 401
#     4   9  19  38  61  89 125 171 224 273 325 392
#     4  11  25  42  65  99 140 176 221 281 335 394
#     4  10  23  42  69  97 134 179 225 273 336 404
#     4  11  24  40  67 100 134 175 224 274 337 401
#     4   9  19  37  61  92 128 165 218 277 328 389
#
# _framework density 23.770544000000001
#
# number of rings (size 3 to 8) (size 9 to 14) (size 15 to 20)
#    0.000    2.000    0.000    1.500   10.500    6.000 
#    0.000    0.000    0.000    0.000    0.000    0.000 
#    0.000    0.000    0.000    0.000    0.000    0.000 
#
# Total GULP energy -89313.293458 kJ/mol
# GULP energy per Si atom -5582.080841 kJ/mol
# Density = 2.371644 g / cm^3
# Si number density = 23.770544 Si / 1000 Ang^3
#
#
#
# Elastic Constant Matrix: (Units=GPa)
#
#
# Indices 1 2 3 4 5 6 
#
# 1 102.8771 28.7057 53.5766 24.3024 -35.8857 2.8263
# 2 28.7057 74.6225 30.1643 14.1881 -2.3777 7.0624
# 3 53.5766 30.1643 135.8611 32.0629 -0.2901 -7.4653
# 4 24.3024 14.1881 32.0629 44.2795 -3.5387 4.1257
# 5 -35.8857 -2.3777 -0.2901 -3.5387 28.3356 1.4534
# 6 2.8263 7.0624 -7.4653 4.1257 1.4534 27.0533
#
#
#
# Elastic Compliance Matrix: (Units=1/GPa)
#
#
# Indices 1 2 3 4 5 6 
#
# 1 0.031458 -0.005203 -0.010499 -0.004288 0.039082 -0.006271
# 2 -0.005203 0.016450 -0.001477 -0.001421 -0.005214 -0.003662
# 3 -0.010499 -0.001477 0.013406 -0.005242 -0.014284 0.006749
# 4 -0.004288 -0.001421 -0.005242 0.029526 -0.001658 -0.005041
# 5 0.039082 -0.005214 -0.014284 -0.001658 0.084558 -0.010954
# 6 -0.006271 -0.003662 0.006749 -0.005041 -0.010954 0.041795
#
#
# Mechanical properties :
#
#
# Convention : Reuss Voigt Hill
#
# Bulk Modulus (GPa) = 37.09944 59.80598 48.45271
# Shear Modulus (GPa) = 19.19115 33.32796 26.25955
#
# Velocity S-wave (km/s) = 2.84447 3.74848 3.32732
# Velocity P-wave (km/s) = 5.14094 6.62942 5.93205
#
# Compressibility (1/GPa) = 0.02695459
#
# Stress axis : x y z
#
# Youngs Moduli (GPa) = 31.78860 60.78991 74.59152
#
# Poissons Ratio (x) = 0.31629 0.78316
# Poissons Ratio (y) = 0.16540 0.11021
# Poissons Ratio (z) = 0.33376 0.08982
#
# Static dielectric constant tensor:
#      x y z
#    x 1.908210 -0.026320 -0.025310 
#    y -0.026320 1.955910 -0.000440 
#    z -0.025310 -0.000440 1.987390 
# 
# From -- ./inp_files/124880.got.cif
#   From: 2010.05.17/outbox.cif.g08.bks.cpg/sg2_63_cif.got.tgz:124880.got - 2010.06.03 11:33:40.
