data_PCOD9036081
_publ_section_title
;
Structure prediction by ZEFSAII (Michael W. Deem and Ramdas Pophale) SiO2 
 PCOD9036081
Probable space group: P -1
;
_chemical_formula_sum "Si O2"
_cell_formula_units_Z 14
_cell_length_a 13.553811
_cell_length_b 11.480970
_cell_length_c 5.390250
_cell_angle_alpha 99.714426
_cell_angle_beta 56.566562
_cell_angle_gamma 126.938784
_cell_volume 542.652807
_symmetry_space_group_name_H-M "P -1"
_symmetry_group_IT_number 2
_symmetry_cell_setting 'triclinic'
loop_
_space_group_symop_operation_xyz
x,y,z
-x,-y,-z
loop_
_atom_site_type_symbol
_atom_site_label
_atom_site_fract_x
_atom_site_fract_y
_atom_site_fract_z
Si Si1 0.281527 0.676360 0.897065
Si Si2 0.666934 0.625533 0.027703
Si Si3 0.928932 0.632871 0.733040
Si Si4 0.440106 0.097877 0.110906
Si Si5 0.169015 0.052134 0.278439
Si Si6 0.106880 0.787871 0.031712
Si Si7 0.425067 0.631572 0.319194
O O1 0.452272 0.777605 0.787869
O O2 0.276442 0.583166 0.642308
O O3 0.161125 0.547153 0.207029
O O4 0.240637 0.781945 0.914345
O O5 0.809659 0.662465 0.983771
O O6 0.731852 0.768928 0.812639
O O7 0.610728 0.479128 0.895714
O O8 0.532419 0.615688 0.333109
O O9 0.995563 0.705031 0.396008
O O10 0.045524 0.707377 0.824096
O O11 0.263763 0.026196 0.332063
O O12 0.498258 0.200864 0.820834
O O13 0.500000 0.000000 0.000000
O O14 0.159330 0.955795 0.025363
O O15 0.000000 0.000000 0.500000
#
# Coordination Sequence:
#
# PCOD9036081 Si02
#       7
#     2   2   2   2   2   2   2
#     4  12  26  45  76 108 145 199 253 320 376 449
#     4  10  22  47  72 108 146 200 252 306 385 449
#     4  12  26  47  78 110 154 197 253 312 380 454
#     4  11  24  46  73 108 148 193 255 310 384 447
#     4  11  24  47  73 108 157 201 251 313 381 457
#     4  12  28  48  75 114 153 202 251 314 379 454
#     4  10  24  46  73 107 149 190 255 320 370 454
#
# _framework density 25.799185000000001
#
# number of rings (size 3 to 8) (size 9 to 14) (size 15 to 20)
#    0.000    0.857    4.286    1.714    2.000    2.857 
#    5.143    0.000    0.000    0.000    0.000    0.000 
#    0.000    0.000    0.000    0.000    0.000    0.000 
#
# Total GULP energy -78133.767205 kJ/mol
# GULP energy per Si atom -5580.983372 kJ/mol
# Density = 2.574046 g / cm^3
# Si number density = 25.799185 Si / 1000 Ang^3
#
#
#
# Elastic Constant Matrix: (Units=GPa)
#
#
# Indices 1 2 3 4 5 6 
#
# 1 176.4080 36.3961 33.7303 3.7676 -32.6382 -6.6065
# 2 36.3961 119.2284 36.3862 4.2828 -9.8923 -12.5391
# 3 33.7303 36.3862 80.5155 11.8700 -2.1939 -13.6314
# 4 3.7676 4.2828 11.8700 30.2057 -10.2326 -2.9703
# 5 -32.6382 -9.8923 -2.1939 -10.2326 45.2357 8.4850
# 6 -6.6065 -12.5391 -13.6314 -2.9703 8.4850 58.8509
#
#
#
# Elastic Compliance Matrix: (Units=1/GPa)
#
#
# Indices 1 2 3 4 5 6 
#
# 1 0.007411 -0.001063 -0.002926 0.002203 0.005615 -0.000771
# 2 -0.001063 0.010124 -0.004053 0.000809 0.001253 0.000959
# 3 -0.002926 -0.004053 0.016877 -0.006852 -0.004290 0.002990
# 4 0.002203 0.000809 -0.006852 0.038848 0.010353 -0.000699
# 5 0.005615 0.001253 -0.004290 0.010353 0.029278 -0.003795
# 6 -0.000771 0.000959 0.002990 -0.000699 -0.003795 0.018314
#
#
# Mechanical properties :
#
#
# Convention : Reuss Voigt Hill
#
# Bulk Modulus (GPa) = 54.56333 65.46414 60.01373
# Shear Modulus (GPa) = 34.95413 44.83441 39.89427
#
# Velocity S-wave (km/s) = 3.68483 4.17324 3.93662
# Velocity P-wave (km/s) = 6.26890 6.97502 6.63136
#
# Compressibility (1/GPa) = 0.01832733
#
# Stress axis : x y z
#
# Youngs Moduli (GPa) = 134.94219 98.77056 59.25368
#
# Poissons Ratio (x) = 0.10504 0.17339
# Poissons Ratio (y) = 0.14351 0.24013
# Poissons Ratio (z) = 0.39486 0.40027
#
# Static dielectric constant tensor:
#      x y z
#    x 2.124540 0.054730 -0.008840 
#    y 0.054730 2.037150 -0.068900 
#    z -0.008840 -0.068900 2.125100 
# 
# From -- ./inp_files/65942.got.cif
#   From: 2010.05.17/outbox.cif.g08.bks.cpg/sg2_33_cif.got.tgz:65942.got - 2010.06.03 11:33:40.
