data_PCOD9036741
_publ_section_title
;
Structure prediction by ZEFSAII (Michael W. Deem and Ramdas Pophale) SiO2 
 PCOD9036741
Probable space group: P -1
;
_chemical_formula_sum "Si O2"
_cell_formula_units_Z 16
_cell_length_a 10.709078
_cell_length_b 17.567108
_cell_length_c 13.889365
_cell_angle_alpha 147.308883
_cell_angle_beta 52.470692
_cell_angle_gamma 147.204310
_cell_volume 719.989158
_symmetry_space_group_name_H-M "P -1"
_symmetry_group_IT_number 2
_symmetry_cell_setting 'triclinic'
loop_
_space_group_symop_operation_xyz
x,y,z
-x,-y,-z
loop_
_atom_site_type_symbol
_atom_site_label
_atom_site_fract_x
_atom_site_fract_y
_atom_site_fract_z
Si Si1 0.352576 0.840642 0.064433
Si Si2 0.956594 0.188926 0.483590
Si Si3 0.657208 0.906834 0.156338
Si Si4 0.821395 0.383348 0.812021
Si Si5 0.633299 0.303870 0.414389
Si Si6 0.008347 0.060642 0.883225
Si Si7 0.454350 0.660283 0.701986
Si Si8 0.091288 0.445485 0.260435
O O1 0.553310 0.909680 0.114654
O O2 0.406942 0.041169 0.245552
O O3 0.394998 0.782963 0.885156
O O4 0.074932 0.615172 0.983582
O O5 0.820907 0.211697 0.635982
O O6 0.240016 0.427265 0.606260
O O7 0.845726 0.134983 0.370031
O O8 0.920931 0.995846 0.299822
O O9 0.418155 0.722139 0.137750
O O10 0.810049 0.867121 0.040640
O O11 0.830892 0.432603 0.747544
O O12 0.572600 0.376001 0.438042
O O13 0.702745 0.406744 0.596198
O O14 0.862715 0.370334 0.336125
O O15 0.025348 0.237530 0.049018
O O16 0.728772 0.825232 0.782928
#
# Coordination Sequence:
#
# PCOD9036741 Si02
#       8
#     2   2   2   2   2   2   2   2
#     4  11  21  37  65  93 117 156 205 255 292 351
#     4   9  21  38  59  92 114 165 193 247 297 353
#     4  10  24  39  60  90 126 161 204 238 301 359
#     4  11  21  42  67  85 119 166 208 244 286 362
#     4  11  22  38  63  94 118 155 209 249 300 359
#     4  10  23  39  59  93 126 159 190 256 307 359
#     4  11  20  39  62  91 124 156 199 248 311 355
#     4  11  22  39  65  90 120 160 202 250 301 356
#
# _framework density 22.222556000000001
#
# number of rings (size 3 to 8) (size 9 to 14) (size 15 to 20)
#    0.750    0.750    3.750    3.000    1.750    1.000 
#    6.750    0.000    0.000    1.500    0.000    0.000 
#    0.000    0.000    0.000    0.000    0.000    0.000 
#
# Total GULP energy -89244.459730 kJ/mol
# GULP energy per Si atom -5577.778733 kJ/mol
# Density = 2.217198 g / cm^3
# Si number density = 22.222556 Si / 1000 Ang^3
#
#
#
# Elastic Constant Matrix: (Units=GPa)
#
#
# Indices 1 2 3 4 5 6 
#
# 1 63.6204 23.6669 8.0068 -0.5388 6.0478 15.1358
# 2 23.6669 54.8543 2.3167 6.7912 8.4388 15.5739
# 3 8.0068 2.3167 74.4828 12.7351 -1.6486 6.0163
# 4 -0.5388 6.7912 12.7351 13.4320 -1.1361 5.8345
# 5 6.0478 8.4388 -1.6486 -1.1361 35.8280 2.0396
# 6 15.1358 15.5739 6.0163 5.8345 2.0396 28.9654
#
#
#
# Elastic Compliance Matrix: (Units=1/GPa)
#
#
# Indices 1 2 3 4 5 6 
#
# 1 0.021298 -0.007934 -0.003375 0.011642 -0.001032 -0.008434
# 2 -0.007934 0.026002 0.002815 -0.013309 -0.004656 -0.007411
# 3 -0.003375 0.002815 0.016669 -0.017485 0.000102 0.000303
# 4 0.011642 -0.013309 -0.017485 0.105995 0.004693 -0.016977
# 5 -0.001032 -0.004656 0.000102 0.004693 0.029335 0.000011
# 6 -0.008434 -0.007411 0.000303 -0.016977 0.000011 0.046272
#
#
# Mechanical properties :
#
#
# Convention : Reuss Voigt Hill
#
# Bulk Modulus (GPa) = 21.28504 28.99314 25.13909
# Shear Modulus (GPa) = 17.97146 26.24289 22.10718
#
# Velocity S-wave (km/s) = 2.84686 3.44017 3.15748
# Velocity P-wave (km/s) = 4.51719 5.37166 4.96285
#
# Compressibility (1/GPa) = 0.04698136
#
# Stress axis : x y z
#
# Youngs Moduli (GPa) = 46.95302 38.45786 59.99290
#
# Poissons Ratio (x) = 0.30514 0.20247
# Poissons Ratio (y) = 0.37254 -0.16890
# Poissons Ratio (z) = 0.15846 -0.10827
#
# Static dielectric constant tensor:
#      x y z
#    x 1.879040 0.014170 -0.017140 
#    y 0.014170 1.806720 -0.006920 
#    z -0.017140 -0.006920 1.861560 
# 
# From -- ./inp_files/524096.got.cif
#   From: 2010.05.17/outbox.cif.g08.bks.cpg/sg2_263_cif.got.tgz:524096.got - 2010.06.03 11:33:40.
