data_PCOD9036650
_publ_section_title
;
Structure prediction by ZEFSAII (Michael W. Deem and Ramdas Pophale) SiO2 
 PCOD9036650
Probable space group: P -1
;
_chemical_formula_sum "Si O2"
_cell_formula_units_Z 16
_cell_length_a 13.000990
_cell_length_b 5.366506
_cell_length_c 12.481897
_cell_angle_alpha 92.476802
_cell_angle_beta 122.102562
_cell_angle_gamma 60.300929
_cell_volume 611.465173
_symmetry_space_group_name_H-M "P -1"
_symmetry_group_IT_number 2
_symmetry_cell_setting 'triclinic'
loop_
_space_group_symop_operation_xyz
x,y,z
-x,-y,-z
loop_
_atom_site_type_symbol
_atom_site_label
_atom_site_fract_x
_atom_site_fract_y
_atom_site_fract_z
Si Si1 0.638690 0.910958 0.447294
Si Si2 0.767276 0.779538 0.286278
Si Si3 0.690821 0.933849 0.708202
Si Si4 0.961889 0.601128 0.209919
Si Si5 0.603106 0.476515 0.150198
Si Si6 0.455341 0.497919 0.262298
Si Si7 0.020311 0.929934 0.885084
Si Si8 0.275105 0.332862 0.057294
O O1 0.739792 0.750339 0.396153
O O2 0.487146 0.929689 0.378481
O O3 0.721525 0.805430 0.603528
O O4 0.580951 0.262150 0.406589
O O5 0.682015 0.648702 0.178094
O O6 0.709676 0.126555 0.236645
O O7 0.926667 0.596130 0.314543
O O8 0.679557 0.240448 0.739325
O O9 0.766731 0.709877 0.846540
O O10 0.036865 0.274149 0.189683
O O11 0.798299 0.782555 0.063940
O O12 0.020445 0.800312 0.210020
O O13 0.500236 0.640108 0.199420
O O14 0.500000 0.500000 0.000000
O O15 0.429726 0.278821 0.170017
O O16 0.193432 0.672624 0.973866
O O17 0.000000 0.000000 0.000000
#
# Coordination Sequence:
#
# PCOD9036650 Si02
#       8
#     2   2   2   2   2   2   2   2
#     4   9  20  31  47  70 103 151 186 220 242 293
#     4  11  21  36  46  76 104 142 179 207 254 301
#     4  10  17  33  49  69 104 143 190 221 252 278
#     4  10  21  35  57  78 110 133 163 216 260 324
#     4  11  22  29  48  68 105 145 179 210 242 303
#     4  10  18  31  45  71 105 144 181 221 250 285
#     4  10  21  38  58  82 105 131 162 210 277 334
#     4   9  21  30  54  77 104 133 170 225 259 311
#
# _framework density 26.166658000000002
#
# number of rings (size 3 to 8) (size 9 to 14) (size 15 to 20)
#    0.750    1.250    1.250    3.375    3.500    0.000 
#    0.000    0.000    0.000    0.000    0.000    1.750 
#    0.000    0.000    0.000    0.000    0.000    0.000 
#
# Total GULP energy -89171.174476 kJ/mol
# GULP energy per Si atom -5573.198405 kJ/mol
# Density = 2.610710 g / cm^3
# Si number density = 26.166658 Si / 1000 Ang^3
#
#
#
# Elastic Constant Matrix: (Units=GPa)
#
#
# Indices 1 2 3 4 5 6 
#
# 1 34.9695 8.6582 12.5747 6.9113 -14.5522 23.4540
# 2 8.6582 111.0122 26.2119 14.4497 -7.0302 18.6012
# 3 12.5747 26.2119 117.0384 11.1927 -19.3711 -0.0754
# 4 6.9113 14.4497 11.1927 34.8479 -12.1407 -7.8641
# 5 -14.5522 -7.0302 -19.3711 -12.1407 49.8761 4.8711
# 6 23.4540 18.6012 -0.0754 -7.8641 4.8711 42.4739
#
#
#
# Elastic Compliance Matrix: (Units=1/GPa)
#
#
# Indices 1 2 3 4 5 6 
#
# 1 0.076257 0.007932 -0.004404 -0.021216 0.021570 -0.051992
# 2 0.007932 0.011979 -0.002440 -0.007490 0.002334 -0.011285
# 3 -0.004404 -0.002440 0.009870 0.000131 0.001912 0.003323
# 4 -0.021216 -0.007490 0.000131 0.041287 0.000651 0.022566
# 5 0.021570 0.002334 0.001912 0.000651 0.029151 -0.016153
# 6 -0.051992 -0.011285 0.003323 0.022566 -0.016153 0.063233
#
#
# Mechanical properties :
#
#
# Convention : Reuss Voigt Hill
#
# Bulk Modulus (GPa) = 9.97186 39.76773 24.86980
# Shear Modulus (GPa) = 19.00948 39.81127 29.41037
#
# Velocity S-wave (km/s) = 2.69825 3.90481 3.35619
# Velocity P-wave (km/s) = 3.67785 5.96330 4.95416
#
# Compressibility (1/GPa) = 0.10028219
#
# Stress axis : x y z
#
# Youngs Moduli (GPa) = 13.11358 83.47878 101.31913
#
# Poissons Ratio (x) = -0.66214 0.44620
# Poissons Ratio (y) = -0.10401 0.24719
# Poissons Ratio (z) = 0.05775 0.20366
#
# Static dielectric constant tensor:
#      x y z
#    x 2.274650 -0.034970 0.002160 
#    y -0.034970 2.120850 0.067000 
#    z 0.002160 0.067000 2.028930 
# 
# From -- ./inp_files/441257.got.cif
#   From: 2010.05.17/outbox.cif.g08.bks.cpg/sg2_221_cif.got.tgz:441257.got - 2010.06.03 11:33:40.
