data_PCOD9036878
_publ_section_title
;
Structure prediction by ZEFSAII (Michael W. Deem and Ramdas Pophale) SiO2 
 PCOD9036878
Probable space group: P -1
;
_chemical_formula_sum "Si O2"
_cell_formula_units_Z 14
_cell_length_a 16.343708
_cell_length_b 12.065953
_cell_length_c 6.724847
_cell_angle_alpha 63.542112
_cell_angle_beta 40.877704
_cell_angle_gamma 42.489252
_cell_volume 567.089292
_symmetry_space_group_name_H-M "P -1"
_symmetry_group_IT_number 2
_symmetry_cell_setting 'triclinic'
loop_
_space_group_symop_operation_xyz
x,y,z
-x,-y,-z
loop_
_atom_site_type_symbol
_atom_site_label
_atom_site_fract_x
_atom_site_fract_y
_atom_site_fract_z
Si Si1 0.481554 0.032629 0.775305
Si Si2 0.850673 0.853851 0.222139
Si Si3 0.901311 0.537999 0.350108
Si Si4 0.380454 0.523688 0.529060
Si Si5 0.430491 0.255004 0.418967
Si Si6 0.915975 0.306870 0.763827
Si Si7 0.112690 0.802012 0.493714
O O1 0.350176 0.214422 0.765740
O O2 0.650352 0.003119 0.434486
O O3 0.473848 0.906141 0.778771
O O4 0.500000 0.000000 0.000000
O O5 0.861164 0.701116 0.372599
O O6 0.928949 0.864416 0.265793
O O7 0.971034 0.808919 0.854410
O O8 0.723101 0.597903 0.560316
O O9 0.978478 0.389152 0.478032
O O10 0.000000 0.500000 0.000000
O O11 0.500000 0.500000 0.500000
O O12 0.478137 0.350156 0.365176
O O13 0.277446 0.684215 0.434503
O O14 0.224771 0.569739 0.907952
O O15 0.842309 0.274113 0.748685
O O16 0.000000 0.000000 0.500000
#
# Coordination Sequence:
#
# PCOD9036878 Si02
#       7
#     2   2   2   2   2   2   2
#     4  10  24  40  67  99 142 181 207 281 354 414
#     4  10  23  39  65 101 130 172 218 273 347 406
#     4  11  19  38  68  97 131 166 215 282 339 402
#     4  11  26  47  69 100 135 187 237 283 333 406
#     4  10  23  42  62  98 140 166 237 271 331 412
#     4  11  23  41  69  99 130 176 225 279 343 401
#     4  11  25  47  68  98 136 179 235 287 332 401
#
# _framework density 24.687470999999999
#
# number of rings (size 3 to 8) (size 9 to 14) (size 15 to 20)
#    0.000    1.429    2.857    1.286    6.000    6.286 
#    2.571    0.000    0.000    0.000    0.000    0.000 
#    0.000    0.000    0.000    0.000    0.000    0.000 
#
# Total GULP energy -78034.076267 kJ/mol
# GULP energy per Si atom -5573.862591 kJ/mol
# Density = 2.463128 g / cm^3
# Si number density = 24.687471 Si / 1000 Ang^3
#
#
#
# Elastic Constant Matrix: (Units=GPa)
#
#
# Indices 1 2 3 4 5 6 
#
# 1 171.1649 51.7337 26.1767 -4.1345 31.4077 -1.7966
# 2 51.7337 120.9741 5.5108 -9.7485 22.5139 13.3023
# 3 26.1767 5.5108 71.5704 -6.1156 19.2740 -4.4253
# 4 -4.1345 -9.7485 -6.1156 17.8445 -9.3032 0.6464
# 5 31.4077 22.5139 19.2740 -9.3032 46.5776 -2.8034
# 6 -1.7966 13.3023 -4.4253 0.6464 -2.8034 27.8074
#
#
#
# Elastic Compliance Matrix: (Units=1/GPa)
#
#
# Indices 1 2 3 4 5 6 
#
# 1 0.007543 -0.002840 -0.001746 -0.002197 -0.003353 0.001281
# 2 -0.002840 0.011026 0.001104 0.004190 -0.003379 -0.005720
# 3 -0.001746 0.001104 0.016325 0.002903 -0.005451 0.001340
# 4 -0.002197 0.004190 0.002903 0.064646 0.011042 -0.002074
# 5 -0.003353 -0.003379 -0.005451 0.011042 0.030024 0.003302
# 6 0.001281 -0.005720 0.001340 -0.002074 0.003302 0.039375
#
#
# Mechanical properties :
#
#
# Convention : Reuss Voigt Hill
#
# Bulk Modulus (GPa) = 35.80390 58.95021 47.37706
# Shear Modulus (GPa) = 26.99589 37.13177 32.06383
#
# Velocity S-wave (km/s) = 3.31041 3.88245 3.60778
# Velocity P-wave (km/s) = 5.39871 6.63538 6.04873
#
# Compressibility (1/GPa) = 0.02792992
#
# Stress axis : x y z
#
# Youngs Moduli (GPa) = 132.56635 90.69513 61.25689
#
# Poissons Ratio (x) = 0.25760 0.10694
# Poissons Ratio (y) = 0.37652 -0.06763
# Poissons Ratio (z) = 0.23144 -0.10013
#
# Static dielectric constant tensor:
#      x y z
#    x 2.238280 -0.136600 -0.095330 
#    y -0.136600 2.098140 0.098880 
#    z -0.095330 0.098880 1.969450 
# 
# From -- ./inp_files/94531.got.cif
#   From: 2010.05.17/outbox.cif.g08.bks.cpg/sg2_48_cif.got.tgz:94531.got - 2010.06.03 11:33:40.
