data_PCOD9036029
_publ_section_title
;
Structure prediction by ZEFSAII (Michael W. Deem and Ramdas Pophale) SiO2 
 PCOD9036029
Probable space group: P -1
;
_chemical_formula_sum "Si O2"
_cell_formula_units_Z 14
_cell_length_a 10.956998
_cell_length_b 5.239081
_cell_length_c 11.052640
_cell_angle_alpha 117.057014
_cell_angle_beta 92.712204
_cell_angle_gamma 69.210281
_cell_volume 523.255403
_symmetry_space_group_name_H-M "P -1"
_symmetry_group_IT_number 2
_symmetry_cell_setting 'triclinic'
loop_
_space_group_symop_operation_xyz
x,y,z
-x,-y,-z
loop_
_atom_site_type_symbol
_atom_site_label
_atom_site_fract_x
_atom_site_fract_y
_atom_site_fract_z
Si Si1 0.609896 0.759911 0.306519
Si Si2 0.299587 0.099787 0.346495
Si Si3 0.582971 0.700648 0.018365
Si Si4 0.053589 0.901888 0.345639
Si Si5 0.936921 0.878008 0.081010
Si Si6 0.225061 0.278564 0.128941
Si Si7 0.652950 0.345468 0.433842
O O1 0.630920 0.749351 0.162609
O O2 0.657456 0.444514 0.315911
O O3 0.450803 0.908195 0.354394
O O4 0.685091 0.991017 0.393990
O O5 0.310414 0.087643 0.200047
O O6 0.274204 0.456698 0.455358
O O7 0.177704 0.009179 0.359829
O O8 0.500000 0.500000 0.000000
O O9 0.704401 0.529541 0.898581
O O10 0.500000 0.000000 0.000000
O O11 0.102962 0.530885 0.247067
O O12 0.959338 0.002306 0.240726
O O13 0.000000 0.000000 0.500000
O O14 0.797280 0.931170 0.023151
O O15 0.000000 0.500000 0.000000
O O16 0.000000 0.000000 0.000000
O O17 0.500000 0.500000 0.500000
#
# Coordination Sequence:
#
# PCOD9036029 Si02
#       7
#     2   2   2   2   2   2   2
#     4  11  23  42  64 101 146 182 230 283 345 424
#     4  11  22  40  71  96 137 188 231 284 360 410
#     4  12  25  42  71 107 140 181 239 282 341 435
#     4  11  26  46  74 105 138 184 247 303 349 418
#     4  10  22  47  70 102 137 183 237 298 355 410
#     4  11  25  44  74  98 144 191 229 292 360 419
#     4  10  23  39  64 100 145 185 224 282 347 424
#
# _framework density 26.755573999999999
#
# number of rings (size 3 to 8) (size 9 to 14) (size 15 to 20)
#    0.000    1.143    2.857    3.429    8.000    1.714 
#    0.000    0.000    0.000    0.000    0.000    0.000 
#    0.000    0.000    0.000    0.000    0.000    0.000 
#
# Total GULP energy -78227.778485 kJ/mol
# GULP energy per Si atom -5587.698463 kJ/mol
# Density = 2.669468 g / cm^3
# Si number density = 26.755574 Si / 1000 Ang^3
#
#
#
# Elastic Constant Matrix: (Units=GPa)
#
#
# Indices 1 2 3 4 5 6 
#
# 1 95.8603 38.0912 82.2621 -6.8631 13.8897 27.3318
# 2 38.0912 131.8269 65.3643 -19.3487 -5.0705 33.0076
# 3 82.2621 65.3643 246.7305 -31.8707 7.3612 15.3809
# 4 -6.8631 -19.3487 -31.8707 53.3789 4.1965 -1.6631
# 5 13.8897 -5.0705 7.3612 4.1965 57.0443 -7.7286
# 6 27.3318 33.0076 15.3809 -1.6631 -7.7286 50.5184
#
#
#
# Elastic Compliance Matrix: (Units=1/GPa)
#
#
# Indices 1 2 3 4 5 6 
#
# 1 0.018496 -0.000863 -0.005386 -0.001028 -0.004974 -0.008598
# 2 -0.000863 0.010556 -0.001856 0.002395 0.000437 -0.005719
# 3 -0.005386 -0.001856 0.006516 0.002563 0.000428 0.002293
# 4 -0.001028 0.002395 0.002563 0.021084 -0.001600 -0.001340
# 5 -0.004974 0.000437 0.000428 -0.001600 0.019549 0.005214
# 6 -0.008598 -0.005719 0.002293 -0.001340 0.005214 0.028239
#
#
# Mechanical properties :
#
#
# Convention : Reuss Voigt Hill
#
# Bulk Modulus (GPa) = 51.66175 93.98365 72.82270
# Shear Modulus (GPa) = 39.33867 51.43499 45.38683
#
# Velocity S-wave (km/s) = 3.83861 4.38928 4.12315
# Velocity P-wave (km/s) = 6.24478 7.80325 7.06710
#
# Compressibility (1/GPa) = 0.01935668
#
# Stress axis : x y z
#
# Youngs Moduli (GPa) = 54.06703 94.73721 153.47109
#
# Poissons Ratio (x) = 0.08175 0.82664
# Poissons Ratio (y) = 0.04666 0.28482
# Poissons Ratio (z) = 0.29122 0.17582
#
# Static dielectric constant tensor:
#      x y z
#    x 1.873940 -0.177810 -0.531120 
#    y -0.177810 1.947160 -0.027110 
#    z -0.531120 -0.027110 1.421180 
# 
# From -- ./inp_files/408744.got.cif
#   From: 2010.05.17/outbox.cif.g08.bks.cpg/sg2_205_cif.got.tgz:408744.got - 2010.06.03 11:33:40.
