data_PCOD9036942
_publ_section_title
;
Structure prediction by ZEFSAII (Michael W. Deem and Ramdas Pophale) SiO2 
 PCOD9036942
Probable space group: P -1
;
_chemical_formula_sum "Si O2"
_cell_formula_units_Z 16
_cell_length_a 14.646295
_cell_length_b 9.709840
_cell_length_c 8.245228
_cell_angle_alpha 73.524620
_cell_angle_beta 125.419179
_cell_angle_gamma 71.583781
_cell_volume 722.857137
_symmetry_space_group_name_H-M "P -1"
_symmetry_group_IT_number 2
_symmetry_cell_setting 'triclinic'
loop_
_space_group_symop_operation_xyz
x,y,z
-x,-y,-z
loop_
_atom_site_type_symbol
_atom_site_label
_atom_site_fract_x
_atom_site_fract_y
_atom_site_fract_z
Si Si1 0.628137 0.251959 0.629068
Si Si2 0.371350 0.024252 0.451759
Si Si3 0.158821 0.251719 0.664221
Si Si4 0.575838 0.090281 0.088092
Si Si5 0.603922 0.496306 0.235337
Si Si6 0.707220 0.454804 0.799254
Si Si7 0.830295 0.469702 0.258753
Si Si8 0.152524 0.411121 0.260231
O O1 0.637543 0.355277 0.454237
O O2 0.702409 0.286349 0.833867
O O3 0.458411 0.369221 0.440835
O O4 0.687295 0.052165 0.703238
O O5 0.261625 0.229446 0.329685
O O6 0.500000 0.000000 0.500000
O O7 0.414094 0.913220 0.703813
O O8 0.201370 0.334327 0.817418
O O9 0.153852 0.355029 0.463183
O O10 0.999668 0.321597 0.504035
O O11 0.274171 0.041460 0.806026
O O12 0.483282 0.295761 0.864321
O O13 0.500000 0.000000 0.000000
O O14 0.741455 0.448773 0.303052
O O15 0.500000 0.500000 0.000000
O O16 0.797396 0.465412 0.751297
O O17 0.776386 0.455611 0.035582
O O18 0.000000 0.500000 0.000000
#
# Coordination Sequence:
#
# PCOD9036942 Si02
#       8
#     2   2   2   2   2   2   2   2
#     4  11  24  41  64  98 127 171 214 265 328 377
#     4  11  23  41  65  96 125 161 218 268 310 385
#     4  10  23  39  66  94 129 165 218 262 323 371
#     4  11  23  39  65  98 125 163 214 268 312 375
#     4  12  22  40  67  91 133 171 208 262 325 381
#     4  11  22  38  66  95 127 165 216 263 321 379
#     4  11  21  41  65  93 125 174 213 265 310 388
#     4  11  22  40  67  94 129 167 207 269 326 377
#
# _framework density 22.134385999999999
#
# number of rings (size 3 to 8) (size 9 to 14) (size 15 to 20)
#    0.000    1.000    6.250    0.750    1.750    0.000 
#    0.000    1.250    2.750    0.000    0.000    0.000 
#    0.000    0.000    0.000    0.000    0.000    0.000 
#
# Total GULP energy -89555.864929 kJ/mol
# GULP energy per Si atom -5597.241558 kJ/mol
# Density = 2.208401 g / cm^3
# Si number density = 22.134386 Si / 1000 Ang^3
#
#
#
# Elastic Constant Matrix: (Units=GPa)
#
#
# Indices 1 2 3 4 5 6 
#
# 1 150.5508 34.8159 39.9369 -5.2308 30.3792 1.1416
# 2 34.8159 132.3473 33.2732 23.8897 12.5661 11.8495
# 3 39.9369 33.2732 57.3975 18.8610 12.8650 0.7282
# 4 -5.2308 23.8897 18.8610 43.5798 0.6975 5.7862
# 5 30.3792 12.5661 12.8650 0.6975 39.7080 2.0090
# 6 1.1416 11.8495 0.7282 5.7862 2.0090 36.4329
#
#
#
# Elastic Compliance Matrix: (Units=1/GPa)
#
#
# Indices 1 2 3 4 5 6 
#
# 1 0.009890 -0.001324 -0.006569 0.004869 -0.005092 -0.000241
# 2 -0.001324 0.009689 -0.003258 -0.003727 -0.000810 -0.002408
# 3 -0.006569 -0.003258 0.028337 -0.011577 -0.003057 0.002706
# 4 0.004869 -0.003727 -0.011577 0.031061 0.000846 -0.003689
# 5 -0.005092 -0.000810 -0.003057 0.000846 0.030379 -0.001325
# 6 -0.000241 -0.002408 0.002706 -0.003689 -0.001325 0.028843
#
#
# Mechanical properties :
#
#
# Convention : Reuss Voigt Hill
#
# Bulk Modulus (GPa) = 39.04384 61.81639 50.43012
# Shear Modulus (GPa) = 29.57892 39.42878 34.50385
#
# Velocity S-wave (km/s) = 3.65955 4.22517 3.95249
# Velocity P-wave (km/s) = 5.96106 7.19660 6.60777
#
# Compressibility (1/GPa) = 0.02561223
#
# Stress axis : x y z
#
# Youngs Moduli (GPa) = 101.11547 103.21362 35.28916
#
# Poissons Ratio (x) = 0.13665 0.23183
# Poissons Ratio (y) = 0.13387 0.11498
# Poissons Ratio (z) = 0.66427 0.33631
#
# Static dielectric constant tensor:
#      x y z
#    x 1.812000 -0.036390 -0.038610 
#    y -0.036390 1.851430 0.035300 
#    z -0.038610 0.035300 1.838000 
# 
# From -- ./inp_files/298381.got.cif
#   From: 2010.05.17/outbox.cif.g08.bks.cpg/sg2_150_cif.got.tgz:298381.got - 2010.06.03 11:33:40.
