data_PCOD9036393
_publ_section_title
;
Structure prediction by ZEFSAII (Michael W. Deem and Ramdas Pophale) SiO2 
 PCOD9036393
Probable space group: P -1
;
_chemical_formula_sum "Si O2"
_cell_formula_units_Z 16
_cell_length_a 4.980859
_cell_length_b 9.994271
_cell_length_c 18.647010
_cell_angle_alpha 64.800305
_cell_angle_beta 72.189179
_cell_angle_gamma 91.301229
_cell_volume 786.948344
_symmetry_space_group_name_H-M "P -1"
_symmetry_group_IT_number 2
_symmetry_cell_setting 'triclinic'
loop_
_space_group_symop_operation_xyz
x,y,z
-x,-y,-z
loop_
_atom_site_type_symbol
_atom_site_label
_atom_site_fract_x
_atom_site_fract_y
_atom_site_fract_z
Si Si1 0.194914 0.638939 0.489730
Si Si2 0.387843 0.427342 0.639210
Si Si3 0.734349 0.187148 0.364986
Si Si4 0.175564 0.101030 0.524550
Si Si5 0.934423 0.789623 0.178700
Si Si6 0.639324 0.613279 0.715110
Si Si7 0.488385 0.676170 0.122768
Si Si8 0.216924 0.062058 0.031458
O O1 0.292630 0.559685 0.570581
O O2 0.459573 0.670296 0.406057
O O3 0.000000 0.500000 0.500000
O O4 0.008100 0.769298 0.478271
O O5 0.133167 0.311063 0.722561
O O6 0.577236 0.512290 0.670180
O O7 0.035583 0.297731 0.329136
O O8 0.569017 0.264898 0.300727
O O9 0.000000 0.000000 0.500000
O O10 0.797300 0.018687 0.387870
O O11 0.494443 0.161870 0.454355
O O12 0.646283 0.760702 0.161002
O O13 0.171976 0.714994 0.134306
O O14 0.070111 0.966114 0.132713
O O15 0.553816 0.498605 0.813905
O O16 0.685746 0.758151 0.023456
O O17 0.500000 0.000000 0.000000
O O18 0.000000 0.000000 0.000000
#
# Coordination Sequence:
#
# PCOD9036393 Si02
#       8
#     2   2   2   2   2   2   2   2
#     4  11  25  41  55  80 109 140 187 235 269 317
#     4  10  23  36  54  77 111 144 183 226 273 321
#     4  11  23  35  57  77 102 136 187 220 270 324
#     4  11  23  41  59  74 104 143 183 231 278 322
#     4   9  17  28  48  67 101 143 175 207 261 326
#     4  11  20  35  55  80 106 143 178 223 270 329
#     4   9  17  26  47  72 105 135 171 215 260 317
#     4   8  14  26  40  69  99 135 172 205 252 318
#
# _framework density 20.331706000000001
#
# number of rings (size 3 to 8) (size 9 to 14) (size 15 to 20)
#    0.000    2.000    1.250    3.000    7.000    3.000 
#    0.000    0.000    0.000    0.000    0.000    0.000 
#    0.000    2.000    0.000    0.750    0.000    0.250 
#
# Total GULP energy -89127.262907 kJ/mol
# GULP energy per Si atom -5570.453932 kJ/mol
# Density = 2.028543 g / cm^3
# Si number density = 20.331706 Si / 1000 Ang^3
#
#
#
# Elastic Constant Matrix: (Units=GPa)
#
#
# Indices 1 2 3 4 5 6 
#
# 1 114.2071 23.3606 22.4501 -13.5018 -14.5307 -13.7236
# 2 23.3606 85.9235 37.0284 -30.4856 -1.4070 -22.3312
# 3 22.4501 37.0284 124.8017 -40.4497 -32.1451 0.7203
# 4 -13.5018 -30.4856 -40.4497 30.0241 -1.3447 5.4133
# 5 -14.5307 -1.4070 -32.1451 -1.3447 33.1443 -8.2138
# 6 -13.7236 -22.3312 0.7203 5.4133 -8.2138 26.2734
#
#
#
# Elastic Compliance Matrix: (Units=1/GPa)
#
#
# Indices 1 2 3 4 5 6 
#
# 1 0.011444 0.001437 0.003958 0.010933 0.011447 0.008416
# 2 0.001437 0.025028 0.005413 0.030386 0.013056 0.019696
# 3 0.003958 0.005413 0.030548 0.048785 0.035258 0.006802
# 4 0.010933 0.030386 0.048785 0.133572 0.064476 0.022835
# 5 0.011447 0.013056 0.035258 0.064476 0.079406 0.027649
# 6 0.008416 0.019696 0.006802 0.022835 0.027649 0.062950
#
#
# Mechanical properties :
#
#
# Convention : Reuss Voigt Hill
#
# Bulk Modulus (GPa) = 11.28190 54.51226 32.89708
# Shear Modulus (GPa) = 14.24994 34.02792 24.13893
#
# Velocity S-wave (km/s) = 2.65027 4.09545 3.44940
# Velocity P-wave (km/s) = 3.86345 7.01664 5.66390
#
# Compressibility (1/GPa) = 0.08863752
#
# Stress axis : x y z
#
# Youngs Moduli (GPa) = 87.37983 39.95468 32.73487
#
# Poissons Ratio (x) = -0.05740 -0.12958
# Poissons Ratio (y) = -0.12553 -0.17720
# Poissons Ratio (z) = -0.34589 -0.21628
#
# Static dielectric constant tensor:
#      x y z
#    x 1.985500 0.000130 -0.051680 
#    y 0.000130 1.776300 -0.000330 
#    z -0.051680 -0.000330 1.900060 
# 
# From -- ./inp_files/111291.got.cif
#   From: 2010.05.17/outbox.cif.g08.bks.cpg/sg2_56_cif.got.tgz:111291.got - 2010.06.03 11:33:40.
