data_PCOD9036298
_publ_section_title
;
Structure prediction by ZEFSAII (Michael W. Deem and Ramdas Pophale) SiO2 
 PCOD9036298
Probable space group: P -1
;
_chemical_formula_sum "Si O2"
_cell_formula_units_Z 12
_cell_length_a 8.338489
_cell_length_b 6.817398
_cell_length_c 9.605779
_cell_angle_alpha 107.529294
_cell_angle_beta 48.993176
_cell_angle_gamma 97.733285
_cell_volume 391.425007
_symmetry_space_group_name_H-M "P -1"
_symmetry_group_IT_number 2
_symmetry_cell_setting 'triclinic'
loop_
_space_group_symop_operation_xyz
x,y,z
-x,-y,-z
loop_
_atom_site_type_symbol
_atom_site_label
_atom_site_fract_x
_atom_site_fract_y
_atom_site_fract_z
Si Si1 0.000000 0.500000 0.000000
Si Si2 0.386279 0.959492 0.703308
Si Si3 0.978918 0.301311 0.733144
Si Si4 0.000000 0.000000 0.500000
Si Si5 0.531614 0.193895 0.927157
Si Si6 0.473998 0.545144 0.740681
Si Si7 0.097980 0.727020 0.653461
O O1 0.069576 0.703946 0.080868
O O2 0.743614 0.559860 0.195659
O O3 0.460726 0.747167 0.696327
O O4 0.155841 0.894644 0.767421
O O5 0.500000 0.000000 0.500000
O O6 0.407968 0.142038 0.845545
O O7 0.980187 0.543614 0.758288
O O8 0.027962 0.174182 0.383795
O O9 0.150836 0.135369 0.542779
O O10 0.213760 0.807161 0.259669
O O11 0.501310 0.386269 0.095111
O O12 0.500000 0.000000 0.000000
O O13 0.684848 0.399673 0.550688
#
# Coordination Sequence:
#
# PCOD9036298 Si02
#       7
#     1   2   2   1   2   2   2
#     4  10  22  48  84 118 164 204 272 338 420 506
#     4  11  23  43  80 124 161 212 276 343 419 498
#     4  11  25  49  80 117 162 214 274 345 412 500
#     4  12  30  50  76 118 162 214 282 348 402 486
#     4   9  22  46  81 119 168 215 268 340 427 499
#     4  10  23  47  84 121 165 216 270 338 427 497
#     4  12  27  49  85 116 162 220 286 343 410 495
#
# _framework density 30.657211
#
# number of rings (size 3 to 8) (size 9 to 14) (size 15 to 20)
#    0.000    1.333    1.667    2.000    7.000    0.000 
#    0.000   10.000   14.667    0.000    0.000    0.000 
#    0.000    0.000    0.000    0.000    0.000    0.000 
#
# Total GULP energy -66875.171828 kJ/mol
# GULP energy per Si atom -5572.930986 kJ/mol
# Density = 3.058743 g / cm^3
# Si number density = 30.657211 Si / 1000 Ang^3
#
#
#
# Elastic Constant Matrix: (Units=GPa)
#
#
# Indices 1 2 3 4 5 6 
#
# 1 137.1176 65.1440 68.1625 -0.5495 14.9673 -2.8479
# 2 65.1440 132.9762 44.2014 -2.5103 7.9921 0.3339
# 3 68.1625 44.2014 174.4036 27.9600 28.7945 8.5828
# 4 -0.5495 -2.5103 27.9600 81.3788 21.5728 18.1525
# 5 14.9673 7.9921 28.7945 21.5728 79.7836 -3.2679
# 6 -2.8479 0.3339 8.5828 18.1525 -3.2679 87.0843
#
#
#
# Elastic Compliance Matrix: (Units=1/GPa)
#
#
# Indices 1 2 3 4 5 6 
#
# 1 0.011064 -0.004244 -0.003337 0.001193 -0.000751 0.000430
# 2 -0.004244 0.009930 -0.000946 0.000665 -0.000046 -0.000224
# 3 -0.003337 -0.000946 0.007918 -0.002257 -0.001546 -0.000474
# 4 0.001193 0.000665 -0.002257 0.014694 -0.003569 -0.002938
# 5 -0.000751 -0.000046 -0.001546 -0.003569 0.014260 0.001407
# 6 0.000430 -0.000224 -0.000474 -0.002938 0.001407 0.012210
#
#
# Mechanical properties :
#
#
# Convention : Reuss Voigt Hill
#
# Bulk Modulus (GPa) = 84.33353 88.83480 86.58417
# Shear Modulus (GPa) = 54.89545 67.44864 61.17204
#
# Velocity S-wave (km/s) = 4.23616 4.69560 4.47179
# Velocity P-wave (km/s) = 7.17600 7.64447 7.41394
#
# Compressibility (1/GPa) = 0.01185768
#
# Stress axis : x y z
#
# Youngs Moduli (GPa) = 90.38289 100.70837 126.29350
#
# Poissons Ratio (x) = 0.42744 0.42143
# Poissons Ratio (y) = 0.38362 0.11944
# Poissons Ratio (z) = 0.30160 0.09524
#
# Static dielectric constant tensor:
#      x y z
#    x 1.485690 0.603840 -1.511100 
#    y 0.603840 2.029410 0.860400 
#    z -1.511100 0.860400 0.757100 
# 
# From -- ./inp_files/155148.got.cif
#   From: 2010.05.17/outbox.cif.g08.bks.cpg/sg2_78_cif.got.tgz:155148.got - 2010.06.03 11:33:40.
