data_PCOD9036703
_publ_section_title
;
Structure prediction by ZEFSAII (Michael W. Deem and Ramdas Pophale) SiO2 
 PCOD9036703
Probable space group: P -1
;
_chemical_formula_sum "Si O2"
_cell_formula_units_Z 16
_cell_length_a 13.974886
_cell_length_b 9.860118
_cell_length_c 12.493078
_cell_angle_alpha 82.781829
_cell_angle_beta 103.773942
_cell_angle_gamma 154.939377
_cell_volume 691.040108
_symmetry_space_group_name_H-M "P -1"
_symmetry_group_IT_number 2
_symmetry_cell_setting 'triclinic'
loop_
_space_group_symop_operation_xyz
x,y,z
-x,-y,-z
loop_
_atom_site_type_symbol
_atom_site_label
_atom_site_fract_x
_atom_site_fract_y
_atom_site_fract_z
Si Si1 0.821124 0.062740 0.005672
Si Si2 0.924065 0.288263 0.703862
Si Si3 0.142789 0.277542 0.195685
Si Si4 0.746639 0.248347 0.076966
Si Si5 0.687488 0.271222 0.663251
Si Si6 0.872591 0.824838 0.369574
Si Si7 0.396757 0.334810 0.210451
Si Si8 0.824320 0.459286 0.448739
O O1 0.747106 0.088105 0.065335
O O2 0.926240 0.060987 0.089877
O O3 0.040251 0.407706 0.964680
O O4 0.620086 0.763778 0.898183
O O5 0.179522 0.628164 0.793671
O O6 0.961041 0.334090 0.581804
O O7 0.771514 0.223237 0.712108
O O8 0.793115 0.987625 0.736626
O O9 0.268755 0.572690 0.243290
O O10 0.310720 0.381720 0.171418
O O11 0.049059 0.083199 0.295576
O O12 0.500000 0.000000 0.000000
O O13 0.843464 0.506507 0.576288
O O14 0.414681 0.927686 0.592133
O O15 0.645369 0.632711 0.306414
O O16 0.788964 0.562096 0.373191
O O17 0.000000 0.000000 0.500000
#
# Coordination Sequence:
#
# PCOD9036703 Si02
#       8
#     2   2   2   2   2   2   2   2
#     4  10  24  44  66 102 140 179 233 283 339 409
#     4  11  22  42  70 100 132 182 228 275 346 408
#     4  12  25  45  70 102 141 180 231 286 341 408
#     4  10  23  38  69 103 139 177 222 285 343 399
#     4  11  24  44  68 101 138 176 225 293 331 405
#     4  12  26  47  68 100 141 183 229 287 350 411
#     4  11  26  44  72  96 140 185 228 284 346 411
#     4  11  24  43  70  99 137 179 229 277 348 415
#
# _framework density 23.153503000000001
#
# number of rings (size 3 to 8) (size 9 to 14) (size 15 to 20)
#    0.000    1.000    5.000    0.750    3.500    3.000 
#    4.500    0.000    0.000    0.000    0.000    0.000 
#    0.000    0.000    0.000    0.000    0.000    0.000 
#
# Total GULP energy -89505.500000 kJ/mol
# GULP energy per Si atom -5594.093750 kJ/mol
# Density = 2.310080 g / cm^3
# Si number density = 23.153503 Si / 1000 Ang^3
#
#
#
# Elastic Constant Matrix: (Units=GPa)
#
#
# Indices 1 2 3 4 5 6 
#
# 1 126.1642 16.1492 14.2230 17.1656 8.2446 -11.0751
# 2 16.1492 47.2291 15.2901 10.9993 -8.8603 -1.0198
# 3 14.2230 15.2901 94.3528 15.2211 6.1000 -1.6426
# 4 17.1656 10.9993 15.2211 39.6308 4.6800 12.1814
# 5 8.2446 -8.8603 6.1000 4.6800 38.0229 1.5394
# 6 -11.0751 -1.0198 -1.6426 12.1814 1.5394 18.6562
#
#
#
# Elastic Compliance Matrix: (Units=1/GPa)
#
#
# Indices 1 2 3 4 5 6 
#
# 1 0.010207 -0.002172 0.000268 -0.006928 -0.002342 0.010681
# 2 -0.002172 0.026184 -0.003185 -0.007238 0.007815 0.003942
# 3 0.000268 -0.003185 0.012107 -0.004994 -0.002310 0.004502
# 4 -0.006928 -0.007238 -0.004994 0.042521 -0.003304 -0.032439
# 5 -0.002342 0.007815 -0.002310 -0.003304 0.029464 -0.001441
# 6 0.010681 0.003942 0.004502 -0.032439 -0.001441 0.081854
#
#
# Mechanical properties :
#
#
# Convention : Reuss Voigt Hill
#
# Bulk Modulus (GPa) = 26.09538 39.89677 32.99608
# Shear Modulus (GPa) = 22.19368 34.06756 28.13062
#
# Velocity S-wave (km/s) = 3.09940 3.84002 3.48941
# Velocity P-wave (km/s) = 4.90952 6.07699 5.52418
#
# Compressibility (1/GPa) = 0.03832096
#
# Stress axis : x y z
#
# Youngs Moduli (GPa) = 97.96972 38.19126 82.59363
#
# Poissons Ratio (x) = 0.08297 -0.02216
# Poissons Ratio (y) = 0.21284 0.26304
# Poissons Ratio (z) = -0.02629 0.12163
#
# Static dielectric constant tensor:
#      x y z
#    x 1.873370 -0.002860 0.000090 
#    y -0.002860 1.857590 -0.026850 
#    z 0.000090 -0.026850 1.882840 
# 
# From -- ./inp_files/457688.got.cif
#   From: 2010.05.17/outbox.cif.g08.bks.cpg/sg2_229_cif.got.tgz:457688.got - 2010.06.03 11:33:40.
