data_PCOD9036018
_publ_section_title
;
Structure prediction by ZEFSAII (Michael W. Deem and Ramdas Pophale) SiO2 
 PCOD9036018
Probable space group: P -1
;
_chemical_formula_sum "Si O2"
_cell_formula_units_Z 16
_cell_length_a 23.217885
_cell_length_b 14.339597
_cell_length_c 16.626118
_cell_angle_alpha 157.243417
_cell_angle_beta 159.992581
_cell_angle_gamma 30.530066
_cell_volume 732.039097
_symmetry_space_group_name_H-M "P -1"
_symmetry_group_IT_number 2
_symmetry_cell_setting 'triclinic'
loop_
_space_group_symop_operation_xyz
x,y,z
-x,-y,-z
loop_
_atom_site_type_symbol
_atom_site_label
_atom_site_fract_x
_atom_site_fract_y
_atom_site_fract_z
Si Si1 0.889080 0.642845 0.120132
Si Si2 0.173627 0.872526 0.147448
Si Si3 0.018695 0.141445 0.872808
Si Si4 0.407546 0.167631 0.801058
Si Si5 0.218101 0.334312 0.825427
Si Si6 0.213734 0.983599 0.851839
Si Si7 0.270823 0.051486 0.247659
Si Si8 0.421668 0.610459 0.063488
O O1 0.778361 0.626879 0.043346
O O2 0.810603 0.822542 0.096486
O O3 0.074283 0.765160 0.481503
O O4 0.914360 0.377014 0.907028
O O5 0.274137 0.964673 0.431802
O O6 0.280995 0.967210 0.286002
O O7 0.159392 0.583273 0.906201
O O8 0.000000 0.000000 0.000000
O O9 0.160749 0.111341 0.966936
O O10 0.103527 0.174580 0.098173
O O11 0.910419 0.893773 0.535410
O O12 0.381667 0.245832 0.921592
O O13 0.358734 0.400758 0.871472
O O14 0.596614 0.104462 0.974887
O O15 0.424949 0.231051 0.571020
O O16 0.281683 0.801864 0.014525
O O17 0.500000 0.500000 0.000000
#
# Coordination Sequence:
#
# PCOD9036018 Si02
#       8
#     2   2   2   2   2   2   2   2
#     4  10  22  47  69  97 127 169 216 273 341 387
#     4  12  26  41  61  91 133 179 217 255 317 391
#     4  11  23  42  69  95 131 172 219 269 325 390
#     4  12  24  41  65  98 133 171 216 272 322 385
#     4  11  25  43  63  94 135 172 220 266 322 397
#     4  10  24  42  73  99 126 164 220 280 329 388
#     4  11  23  37  61  93 125 166 209 256 315 381
#     4  11  22  38  59  90 128 163 207 263 316 371
#
# _framework density 21.856755
#
# number of rings (size 3 to 8) (size 9 to 14) (size 15 to 20)
#    0.000    1.000    2.500    4.125    3.500    4.500 
#    0.000    2.500    0.000    0.000    0.000    0.000 
#    0.000    0.000    0.000    0.000    0.000    0.000 
#
# Total GULP energy -89364.866880 kJ/mol
# GULP energy per Si atom -5585.304180 kJ/mol
# Density = 2.180701 g / cm^3
# Si number density = 21.856755 Si / 1000 Ang^3
#
#
#
# Elastic Constant Matrix: (Units=GPa)
#
#
# Indices 1 2 3 4 5 6 
#
# 1 129.8809 24.7410 4.4069 5.7871 8.2042 -17.8648
# 2 24.7410 62.9442 23.8645 21.6663 -9.3728 -11.0695
# 3 4.4069 23.8645 62.3937 24.7319 1.3849 -4.4637
# 4 5.7871 21.6663 24.7319 34.6161 1.7606 4.7809
# 5 8.2042 -9.3728 1.3849 1.7606 21.6497 1.8669
# 6 -17.8648 -11.0695 -4.4637 4.7809 1.8669 39.7315
#
#
#
# Elastic Compliance Matrix: (Units=1/GPa)
#
#
# Indices 1 2 3 4 5 6 
#
# 1 0.009344 -0.004525 0.001401 0.000105 -0.005888 0.003362
# 2 -0.004525 0.027831 -0.004102 -0.015367 0.014723 0.006416
# 3 0.001401 -0.004102 0.023855 -0.015130 -0.002958 0.004127
# 4 0.000105 -0.015367 -0.015130 0.051367 -0.008893 -0.011697
# 5 -0.005888 0.014723 -0.002958 -0.008893 0.055744 -0.000427
# 6 0.003362 0.006416 0.004127 -0.011697 -0.000427 0.030359
#
#
# Mechanical properties :
#
#
# Convention : Reuss Voigt Hill
#
# Bulk Modulus (GPa) = 21.46963 40.13819 30.80391
# Shear Modulus (GPa) = 21.88384 32.67990 27.28187
#
# Velocity S-wave (km/s) = 3.16767 3.87096 3.53684
# Velocity P-wave (km/s) = 4.81903 6.19541 5.55005
#
# Compressibility (1/GPa) = 0.04657741
#
# Stress axis : x y z
#
# Youngs Moduli (GPa) = 107.02627 35.93097 41.91926
#
# Poissons Ratio (x) = 0.16259 -0.05871
# Poissons Ratio (y) = 0.48431 0.17194
# Poissons Ratio (z) = -0.14989 0.14738
#
# Static dielectric constant tensor:
#      x y z
#    x 1.878940 -0.051620 -0.035320 
#    y -0.051620 1.768810 0.008060 
#    z -0.035320 0.008060 1.850360 
# 
# From -- ./inp_files/138527.got.cif
#   From: 2010.05.17/outbox.cif.g08.bks.cpg/sg2_70_cif.got.tgz:138527.got - 2010.06.03 11:33:40.
