data_PCOD9036851
_publ_section_title
;
Structure prediction by ZEFSAII (Michael W. Deem and Ramdas Pophale) SiO2 
 PCOD9036851
Probable space group: P -1
;
_chemical_formula_sum "Si O2"
_cell_formula_units_Z 14
_cell_length_a 14.785201
_cell_length_b 9.165683
_cell_length_c 21.169543
_cell_angle_alpha 52.016208
_cell_angle_beta 29.428944
_cell_angle_gamma 32.960351
_cell_volume 691.831644
_symmetry_space_group_name_H-M "P -1"
_symmetry_group_IT_number 2
_symmetry_cell_setting 'triclinic'
loop_
_space_group_symop_operation_xyz
x,y,z
-x,-y,-z
loop_
_atom_site_type_symbol
_atom_site_label
_atom_site_fract_x
_atom_site_fract_y
_atom_site_fract_z
Si Si1 0.295458 0.912063 0.149116
Si Si2 0.623468 0.087783 0.369671
Si Si3 0.256399 0.659622 0.051255
Si Si4 0.667815 0.797329 0.050355
Si Si5 0.313646 0.804289 0.566611
Si Si6 0.768707 0.906192 0.089469
Si Si7 0.660983 0.802234 0.607954
O O1 0.376062 0.935143 0.161360
O O2 0.589967 0.583770 0.030683
O O3 0.029297 0.978012 0.291951
O O4 0.228214 0.130492 0.082867
O O5 0.615052 0.245067 0.388680
O O6 0.441070 0.252914 0.372169
O O7 0.500000 0.000000 0.500000
O O8 0.965336 0.795937 0.220276
O O9 0.500000 0.500000 0.000000
O O10 0.170579 0.927026 0.005384
O O11 0.621428 0.933500 0.109053
O O12 0.926934 0.443707 0.993357
O O13 0.500000 0.500000 0.500000
O O14 0.371523 0.960987 0.460265
O O15 0.553267 0.056861 0.239818
O O16 0.000000 0.500000 0.500000
#
# Coordination Sequence:
#
# PCOD9036851 Si02
#       7
#     2   2   2   2   2   2   2
#     4  11  22  41  66  95 121 170 223 254 311 386
#     4  10  24  43  66  93 128 170 210 259 320 377
#     4  12  22  40  71  94 122 165 222 266 303 381
#     4  10  23  39  64  90 128 162 206 270 320 370
#     4  11  23  42  63  91 129 170 210 258 314 382
#     4  11  23  42  61  94 130 162 210 268 321 365
#     4  11  25  41  63  92 130 168 209 261 319 375
#
# _framework density 20.236138
#
# number of rings (size 3 to 8) (size 9 to 14) (size 15 to 20)
#    0.000    1.143    2.857    2.571    2.000    9.143 
#    0.000    1.429    0.000    0.000    0.000    0.000 
#    0.000    0.000    0.000    0.000    0.000    0.000 
#
# Total GULP energy -78277.304214 kJ/mol
# GULP energy per Si atom -5591.236015 kJ/mol
# Density = 2.019008 g / cm^3
# Si number density = 20.236138 Si / 1000 Ang^3
#
#
#
# Elastic Constant Matrix: (Units=GPa)
#
#
# Indices 1 2 3 4 5 6 
#
# 1 145.8687 11.1663 39.6223 1.4358 0.9145 -14.6925
# 2 11.1663 98.1479 19.3245 -1.6866 8.6114 7.2727
# 3 39.6223 19.3245 124.7645 -3.9155 -2.2385 0.1698
# 4 1.4358 -1.6866 -3.9155 27.3793 4.9642 0.4553
# 5 0.9145 8.6114 -2.2385 4.9642 29.6256 0.2568
# 6 -14.6925 7.2727 0.1698 0.4553 0.2568 25.7012
#
#
#
# Elastic Compliance Matrix: (Units=1/GPa)
#
#
# Indices 1 2 3 4 5 6 
#
# 1 0.008093 -0.000801 -0.002482 -0.000892 -0.000097 0.004886
# 2 -0.000801 0.011169 -0.001496 0.001212 -0.003507 -0.003595
# 3 -0.002482 -0.001496 0.009092 0.001173 0.001011 -0.001087
# 4 -0.000892 0.001212 0.001173 0.038034 -0.006596 -0.001469
# 5 -0.000097 -0.003507 0.001011 -0.006596 0.035953 0.000688
# 6 0.004886 -0.003595 -0.001087 -0.001469 0.000688 0.042745
#
#
# Mechanical properties :
#
#
# Convention : Reuss Voigt Hill
#
# Bulk Modulus (GPa) = 53.20375 56.55639 54.88007
# Shear Modulus (GPa) = 31.07370 36.45243 33.76306
#
# Velocity S-wave (km/s) = 3.92287 4.24884 4.08910
# Velocity P-wave (km/s) = 6.84595 7.21658 7.03371
#
# Compressibility (1/GPa) = 0.01879567
#
# Stress axis : x y z
#
# Youngs Moduli (GPa) = 123.56956 89.53218 109.99230
#
# Poissons Ratio (x) = 0.07169 0.27304
# Poissons Ratio (y) = 0.09895 0.16451
# Poissons Ratio (z) = 0.30675 0.13391
#
# Static dielectric constant tensor:
#      x y z
#    x 1.762080 -0.007570 -0.005410 
#    y -0.007570 1.680850 -0.013200 
#    z -0.005410 -0.013200 1.680520 
# 
# From -- ./inp_files/159957.got.cif
#   From: 2010.05.17/outbox.cif.g08.bks.cpg/sg2_80_cif.got.tgz:159957.got - 2010.06.03 11:33:40.
