data_PCOD9036142
_publ_section_title
;
Structure prediction by ZEFSAII (Michael W. Deem and Ramdas Pophale) SiO2 
 PCOD9036142
Probable space group: P -1
;
_chemical_formula_sum "Si O2"
_cell_formula_units_Z 14
_cell_length_a 9.623777
_cell_length_b 15.838582
_cell_length_c 10.903841
_cell_angle_alpha 157.247391
_cell_angle_beta 122.098103
_cell_angle_gamma 63.128762
_cell_volume 540.858566
_symmetry_space_group_name_H-M "P -1"
_symmetry_group_IT_number 2
_symmetry_cell_setting 'triclinic'
loop_
_space_group_symop_operation_xyz
x,y,z
-x,-y,-z
loop_
_atom_site_type_symbol
_atom_site_label
_atom_site_fract_x
_atom_site_fract_y
_atom_site_fract_z
Si Si1 0.463921 0.854816 0.025202
Si Si2 0.139067 0.500428 0.674051
Si Si3 0.002269 0.383194 0.980954
Si Si4 0.479771 0.718287 0.202719
Si Si5 0.152492 0.022193 0.010814
Si Si6 0.353526 0.434058 0.143648
Si Si7 0.251242 0.899559 0.644863
O O1 0.497462 0.058803 0.410166
O O2 0.282794 0.865597 0.906555
O O3 0.599529 0.918347 0.069603
O O4 0.490681 0.622202 0.782142
O O5 0.221473 0.276849 0.393726
O O6 0.000000 0.500000 0.500000
O O7 0.297859 0.684599 0.008069
O O8 0.049480 0.495158 0.758519
O O9 0.865046 0.176178 0.625112
O O10 0.191336 0.344143 0.022954
O O11 0.000000 0.500000 0.000000
O O12 0.500000 0.500000 0.000000
O O13 0.626180 0.706619 0.157766
O O14 0.129929 0.966471 0.783373
O O15 0.000000 0.000000 0.000000
O O16 0.336158 0.682592 0.432558
#
# Coordination Sequence:
#
# PCOD9036142 Si02
#       7
#     2   2   2   2   2   2   2
#     4  12  26  45  76 105 148 199 252 301 385 446
#     4  12  27  47  78 112 150 196 250 318 382 441
#     4  10  22  47  76 104 147 201 243 305 372 448
#     4  12  22  49  74 104 150 200 245 311 376 451
#     4  12  28  46  71 110 153 192 248 316 385 436
#     4  11  25  42  75 107 141 192 259 294 366 457
#     4  11  24  48  73 104 153 196 241 313 371 447
#
# _framework density 25.884772000000002
#
# number of rings (size 3 to 8) (size 9 to 14) (size 15 to 20)
#    0.000    0.571    4.286    3.429    6.000    2.286 
#    0.000    0.000    0.000    0.000    0.000    0.000 
#    0.000    0.000    0.000    0.000    0.000    0.000 
#
# Total GULP energy -78358.884079 kJ/mol
# GULP energy per Si atom -5597.063148 kJ/mol
# Density = 2.582586 g / cm^3
# Si number density = 25.884772 Si / 1000 Ang^3
#
#
#
# Elastic Constant Matrix: (Units=GPa)
#
#
# Indices 1 2 3 4 5 6 
#
# 1 139.1545 14.7403 19.8015 -9.8973 -29.5245 3.0693
# 2 14.7403 99.8626 13.2099 1.0360 -9.7029 -14.4622
# 3 19.8015 13.2099 96.6494 -26.9926 -20.9997 15.9291
# 4 -9.8973 1.0360 -26.9926 46.1212 9.8397 1.6492
# 5 -29.5245 -9.7029 -20.9997 9.8397 45.5492 -11.8276
# 6 3.0693 -14.4622 15.9291 1.6492 -11.8276 35.2229
#
#
#
# Elastic Compliance Matrix: (Units=1/GPa)
#
#
# Indices 1 2 3 4 5 6 
#
# 1 0.008449 -0.000493 -0.000609 0.000294 0.005315 0.001108
# 2 -0.000493 0.011938 -0.002871 -0.003079 0.003531 0.007573
# 3 -0.000609 -0.002871 0.014940 0.008506 0.002074 -0.007584
# 4 0.000294 -0.003079 0.008506 0.028081 -0.004694 -0.008028
# 5 0.005315 0.003531 0.002074 -0.004694 0.030885 0.010639
# 6 0.001108 0.007573 -0.007584 -0.008028 0.010639 0.038782
#
#
# Mechanical properties :
#
#
# Convention : Reuss Voigt Hill
#
# Bulk Modulus (GPa) = 36.52205 47.90777 42.21491
# Shear Modulus (GPa) = 33.30014 44.57298 38.93656
#
# Velocity S-wave (km/s) = 3.59064 4.15417 3.88264
# Velocity P-wave (km/s) = 5.59735 6.44653 6.03689
#
# Compressibility (1/GPa) = 0.02738072
#
# Stress axis : x y z
#
# Youngs Moduli (GPa) = 118.35234 83.76530 66.93299
#
# Poissons Ratio (x) = 0.04127 0.04079
# Poissons Ratio (y) = 0.05831 0.19219
# Poissons Ratio (z) = 0.07213 0.24052
#
# Static dielectric constant tensor:
#      x y z
#    x 2.047030 0.058980 0.022160 
#    y 0.058980 2.136120 -0.028790 
#    z 0.022160 -0.028790 2.025130 
# 
# From -- ./inp_files/402573.got.cif
#   From: 2010.05.17/outbox.cif.g08.bks.cpg/sg2_202_cif.got.tgz:402573.got - 2010.06.03 11:33:40.
