data_PCOD9036614
_publ_section_title
;
Structure prediction by ZEFSAII (Michael W. Deem and Ramdas Pophale) SiO2 
 PCOD9036614
Probable space group: P -1
;
_chemical_formula_sum "Si O2"
_cell_formula_units_Z 16
_cell_length_a 7.450434
_cell_length_b 6.307097
_cell_length_c 19.882866
_cell_angle_alpha 53.809304
_cell_angle_beta 75.783222
_cell_angle_gamma 68.202682
_cell_volume 699.695255
_symmetry_space_group_name_H-M "P -1"
_symmetry_group_IT_number 2
_symmetry_cell_setting 'triclinic'
loop_
_space_group_symop_operation_xyz
x,y,z
-x,-y,-z
loop_
_atom_site_type_symbol
_atom_site_label
_atom_site_fract_x
_atom_site_fract_y
_atom_site_fract_z
Si Si1 0.031380 0.274128 0.747176
Si Si2 0.480987 0.589277 0.091913
Si Si3 0.062648 0.123163 0.403218
Si Si4 0.263405 0.811738 0.322074
Si Si5 0.790526 0.533837 0.962072
Si Si6 0.458946 0.202687 0.404029
Si Si7 0.426441 0.871682 0.735800
Si Si8 0.906385 0.986165 0.926000
O O1 0.052985 0.575655 0.671129
O O2 0.862606 0.216336 0.726332
O O3 0.233372 0.051737 0.754800
O O4 0.976475 0.223980 0.838679
O O5 0.370808 0.418767 0.088384
O O6 0.526687 0.443725 0.186289
O O7 0.316422 0.878550 0.057357
O O8 0.674875 0.563623 0.037611
O O9 0.261819 0.178423 0.395012
O O10 0.111381 0.900996 0.380715
O O11 0.000000 0.000000 0.500000
O O12 0.417440 0.513850 0.373266
O O13 0.394288 0.020026 0.276002
O O14 0.897783 0.764896 0.909894
O O15 0.938915 0.228313 0.000498
O O16 0.602086 0.115943 0.344231
O O17 0.500000 0.000000 0.500000
#
# Coordination Sequence:
#
# PCOD9036614 Si02
#       8
#     2   2   2   2   2   2   2   2
#     4  11  24  41  65  94 127 170 218 263 324 389
#     4  11  21  41  63  91 131 164 213 266 313 387
#     4  10  24  40  63  92 122 166 211 268 329 382
#     4  10  23  42  59  88 126 162 210 266 319 384
#     4  10  23  38  63  96 122 172 208 258 335 366
#     4  10  24  40  63  92 122 166 211 268 329 382
#     4  11  24  41  65  94 127 170 218 263 324 389
#     4  11  21  41  63  91 131 164 213 266 313 387
#
# _framework density 22.867099
#
# number of rings (size 3 to 8) (size 9 to 14) (size 15 to 20)
#    0.000    1.500    1.250    3.750    5.250    2.000 
#    0.000    0.000    0.000    0.000    0.000    0.000 
#    0.000    0.000    0.000    0.000    0.000    0.000 
#
# Total GULP energy -89292.688322 kJ/mol
# GULP energy per Si atom -5580.793020 kJ/mol
# Density = 2.281505 g / cm^3
# Si number density = 22.867099 Si / 1000 Ang^3
#
#
#
# Elastic Constant Matrix: (Units=GPa)
#
#
# Indices 1 2 3 4 5 6 
#
# 1 51.8858 6.4298 6.3631 -3.2572 0.5489 -19.5730
# 2 6.4298 74.6590 19.4632 -3.0127 -10.6659 -24.6680
# 3 6.3631 19.4632 114.3378 -0.2705 3.4618 -8.7054
# 4 -3.2572 -3.0127 -0.2705 31.7985 -0.7946 -2.0691
# 5 0.5489 -10.6659 3.4618 -0.7946 20.4957 2.2316
# 6 -19.5730 -24.6680 -8.7054 -2.0691 2.2316 40.5572
#
#
#
# Elastic Compliance Matrix: (Units=1/GPa)
#
#
# Indices 1 2 3 4 5 6 
#
# 1 0.024314 0.002591 -0.000754 0.003587 -0.000491 0.013358
# 2 0.002591 0.019331 -0.002790 0.003089 0.009269 0.012057
# 3 -0.000754 -0.002790 0.009362 -0.000331 -0.003037 0.000099
# 4 0.003587 0.003089 -0.000331 0.032492 0.002275 0.005071
# 5 -0.000491 0.009269 -0.003037 0.002275 0.054022 0.001892
# 6 0.013358 0.012057 0.000099 0.005071 0.001892 0.038612
#
#
# Mechanical properties :
#
#
# Convention : Reuss Voigt Hill
#
# Bulk Modulus (GPa) = 19.56947 33.93274 26.75111
# Shear Modulus (GPa) = 25.37140 32.47873 28.92506
#
# Velocity S-wave (km/s) = 3.33455 3.77281 3.56043
# Velocity P-wave (km/s) = 4.83758 5.81809 5.35034
#
# Compressibility (1/GPa) = 0.05110000
#
# Stress axis : x y z
#
# Youngs Moduli (GPa) = 41.12875 51.73075 106.81942
#
# Poissons Ratio (x) = -0.13402 0.08051
# Poissons Ratio (y) = -0.10655 0.29804
# Poissons Ratio (z) = 0.03100 0.14434
#
# Static dielectric constant tensor:
#      x y z
#    x 1.951690 0.080970 0.074570 
#    y 0.080970 1.950180 0.081730 
#    z 0.074570 0.081730 2.039830 
# 
# From -- ./inp_files/52069.got.cif
#   From: 2010.05.17/outbox.cif.g08.bks.cpg/sg2_27_cif.got.tgz:52069.got - 2010.06.03 11:33:40.
