data_PCOD9036675
_publ_section_title
;
Structure prediction by ZEFSAII (Michael W. Deem and Ramdas Pophale) SiO2 
 PCOD9036675
Probable space group: P -1
;
_chemical_formula_sum "Si O2"
_cell_formula_units_Z 16
_cell_length_a 15.208527
_cell_length_b 9.348264
_cell_length_c 8.782387
_cell_angle_alpha 112.522386
_cell_angle_beta 84.287046
_cell_angle_gamma 46.344239
_cell_volume 699.870238
_symmetry_space_group_name_H-M "P -1"
_symmetry_group_IT_number 2
_symmetry_cell_setting 'triclinic'
loop_
_space_group_symop_operation_xyz
x,y,z
-x,-y,-z
loop_
_atom_site_type_symbol
_atom_site_label
_atom_site_fract_x
_atom_site_fract_y
_atom_site_fract_z
Si Si1 0.139107 0.803242 0.581414
Si Si2 0.834623 0.583095 0.123137
Si Si3 0.313125 0.838496 0.083636
Si Si4 0.278724 0.574078 0.790679
Si Si5 0.564200 0.546253 0.724075
Si Si6 0.908656 0.632596 0.830417
Si Si7 0.088355 0.116183 0.477762
Si Si8 0.585776 0.168499 0.438110
O O1 0.186188 0.739193 0.721984
O O2 0.286784 0.565511 0.361791
O O3 0.013753 0.853647 0.593349
O O4 0.089645 0.033992 0.609994
O O5 0.785252 0.480746 0.130608
O O6 0.990159 0.396083 0.097440
O O7 0.722485 0.869505 0.321944
O O8 0.839855 0.610424 0.954706
O O9 0.208327 0.111996 0.139491
O O10 0.246813 0.906419 0.289678
O O11 0.289478 0.712606 0.945031
O O12 0.478460 0.657596 0.943790
O O13 0.440756 0.307217 0.599088
O O14 0.597881 0.328852 0.558962
O O15 0.450660 0.771377 0.710913
O O16 0.014610 0.384060 0.607725
#
# Coordination Sequence:
#
# PCOD9036675 Si02
#       8
#     2   2   2   2   2   2   2   2
#     4  10  23  41  63  89 128 161 203 254 309 359
#     4  11  22  37  64  96 120 159 206 253 302 366
#     4  11  23  42  65  94 122 163 204 257 301 367
#     4  10  23  38  67  94 121 155 210 253 305 359
#     4   9  18  37  65  91 121 160 203 248 308 362
#     4  11  25  38  61  90 127 162 203 252 307 361
#     4  11  25  41  61  87 130 166 202 251 309 363
#     4   9  17  36  62  93 125 153 195 261 306 353
#
# _framework density 22.86138
#
# number of rings (size 3 to 8) (size 9 to 14) (size 15 to 20)
#    0.000    1.750    1.250    3.000    7.000    1.500 
#    0.000    0.625    2.750    0.000    0.000    0.000 
#    0.000    0.000    0.000    0.000    0.000    0.000 
#
# Total GULP energy -89521.313956 kJ/mol
# GULP energy per Si atom -5595.082122 kJ/mol
# Density = 2.280935 g / cm^3
# Si number density = 22.861380 Si / 1000 Ang^3
#
#
#
# Elastic Constant Matrix: (Units=GPa)
#
#
# Indices 1 2 3 4 5 6 
#
# 1 53.6005 19.1282 17.1085 -7.2345 -24.9002 9.2345
# 2 19.1282 96.5810 25.3037 0.6270 -0.8110 -0.4376
# 3 17.1085 25.3037 101.8028 5.5099 -17.9908 12.7764
# 4 -7.2345 0.6270 5.5099 36.9298 7.2610 -9.6626
# 5 -24.9002 -0.8110 -17.9908 7.2610 23.8112 1.2265
# 6 9.2345 -0.4376 12.7764 -9.6626 1.2265 27.2010
#
#
#
# Elastic Compliance Matrix: (Units=1/GPa)
#
#
# Indices 1 2 3 4 5 6 
#
# 1 0.060467 -0.014676 0.012568 -0.014453 0.078457 -0.035339
# 2 -0.014676 0.014888 -0.006855 0.005213 -0.022191 0.011294
# 3 0.012568 -0.006855 0.017595 -0.010678 0.030378 -0.017805
# 4 -0.014453 0.005213 -0.010678 0.039645 -0.036419 0.025731
# 5 0.078457 -0.022191 0.030378 -0.036419 0.160509 -0.061435
# 6 -0.035339 0.011294 -0.017805 0.025731 -0.061435 0.069216
#
#
# Mechanical properties :
#
#
# Convention : Reuss Voigt Hill
#
# Bulk Modulus (GPa) = 13.32901 41.67389 27.50145
# Shear Modulus (GPa) = 12.33794 30.28466 21.31130
#
# Velocity S-wave (km/s) = 2.32563 3.64360 3.05650
# Velocity P-wave (km/s) = 3.61309 5.99747 4.95096
#
# Compressibility (1/GPa) = 0.07502433
#
# Stress axis : x y z
#
# Youngs Moduli (GPa) = 16.53789 67.16957 56.83277
#
# Poissons Ratio (x) = 0.98578 -0.71430
# Poissons Ratio (y) = 0.24271 0.38961
# Poissons Ratio (z) = -0.20786 0.46047
#
# Static dielectric constant tensor:
#      x y z
#    x 1.821100 -0.013540 -0.042650 
#    y -0.013540 1.849090 -0.009270 
#    z -0.042650 -0.009270 1.884510 
# 
# From -- ./inp_files/299172.got.cif
#   From: 2010.05.17/outbox.cif.g08.bks.cpg/sg2_150_cif.got.tgz:299172.got - 2010.06.03 11:33:40.
