data_PCOD9036591
_publ_section_title
;
Structure prediction by ZEFSAII (Michael W. Deem and Ramdas Pophale) SiO2 
 PCOD9036591
Probable space group: P -1
;
_chemical_formula_sum "Si O2"
_cell_formula_units_Z 16
_cell_length_a 16.148242
_cell_length_b 8.611230
_cell_length_c 9.895271
_cell_angle_alpha 111.357778
_cell_angle_beta 98.090003
_cell_angle_gamma 32.937127
_cell_volume 658.784160
_symmetry_space_group_name_H-M "P -1"
_symmetry_group_IT_number 2
_symmetry_cell_setting 'triclinic'
loop_
_space_group_symop_operation_xyz
x,y,z
-x,-y,-z
loop_
_atom_site_type_symbol
_atom_site_label
_atom_site_fract_x
_atom_site_fract_y
_atom_site_fract_z
Si Si1 0.002247 0.298946 0.896461
Si Si2 0.642786 0.165209 0.000733
Si Si3 0.723979 0.407097 0.344582
Si Si4 0.797566 0.209897 0.612430
Si Si5 0.921707 0.625617 0.730991
Si Si6 0.322541 0.263829 0.092707
Si Si7 0.132316 0.497330 0.568440
Si Si8 0.487715 0.540684 0.347526
O O1 0.984960 0.364470 0.752248
O O2 0.830740 0.512896 0.969658
O O3 0.147430 0.918857 0.819007
O O4 0.000000 0.500000 0.000000
O O5 0.610873 0.232739 0.176008
O O6 0.500000 0.500000 0.000000
O O7 0.808113 0.938302 0.894783
O O8 0.649750 0.959756 0.899943
O O9 0.770806 0.286238 0.472084
O O10 0.546622 0.628088 0.355653
O O11 0.742417 0.573491 0.383478
O O12 0.735635 0.483979 0.752653
O O13 0.683710 0.252850 0.651635
O O14 0.976213 0.865355 0.594407
O O15 0.069930 0.484610 0.669428
O O16 0.833781 0.689447 0.603989
O O17 0.500000 0.000000 0.000000
O O18 0.500000 0.500000 0.500000
#
# Coordination Sequence:
#
# PCOD9036591 Si02
#       8
#     2   2   2   2   2   2   2   2
#     4  11  22  38  59  88 126 163 206 257 315 372
#     4  11  22  41  63  92 132 168 207 262 325 377
#     4  11  20  37  64  90 124 165 207 262 313 367
#     4  11  20  38  65  92 121 164 219 258 310 378
#     4  10  23  38  62  94 126 163 211 259 316 380
#     4  11  22  37  62  95 118 161 219 260 301 382
#     4  11  21  40  66  94 124 165 213 261 315 380
#     4  10  23  39  64  93 126 168 211 258 324 379
#
# _framework density 24.287168999999999
#
# number of rings (size 3 to 8) (size 9 to 14) (size 15 to 20)
#    0.000    1.250    3.750    4.125    0.000    0.000 
#    0.000    3.750    0.000    8.250    0.000    0.000 
#    0.000    0.000    0.000    0.000    0.000    0.000 
#
# Total GULP energy -89226.390477 kJ/mol
# GULP energy per Si atom -5576.649405 kJ/mol
# Density = 2.423189 g / cm^3
# Si number density = 24.287169 Si / 1000 Ang^3
#
#
#
# Elastic Constant Matrix: (Units=GPa)
#
#
# Indices 1 2 3 4 5 6 
#
# 1 173.6943 1.1617 36.7564 6.6077 15.9047 -25.6689
# 2 1.1617 38.3015 15.5702 15.1959 13.1790 8.8035
# 3 36.7564 15.5702 156.1168 16.1671 13.2380 2.5976
# 4 6.6077 15.1959 16.1671 21.6423 6.5655 4.2021
# 5 15.9047 13.1790 13.2380 6.5655 48.0883 2.4520
# 6 -25.6689 8.8035 2.5976 4.2021 2.4520 32.6134
#
#
#
# Elastic Compliance Matrix: (Units=1/GPa)
#
#
# Indices 1 2 3 4 5 6 
#
# 1 0.007240 0.000516 -0.001466 -0.002003 -0.002170 0.006097
# 2 0.000516 0.040062 -0.000892 -0.024117 -0.007271 -0.006682
# 3 -0.001466 -0.000892 0.007329 -0.004011 -0.000693 -0.000928
# 4 -0.002003 -0.024117 -0.004011 0.067615 -0.000682 -0.003408
# 5 -0.002170 -0.007271 -0.000693 -0.000682 0.023861 -0.001396
# 6 0.006097 -0.006682 -0.000928 -0.003408 -0.001396 0.037883
#
#
# Mechanical properties :
#
#
# Convention : Reuss Voigt Hill
#
# Bulk Modulus (GPa) = 19.62793 52.78771 36.20782
# Shear Modulus (GPa) = 24.43136 41.44375 32.93756
#
# Velocity S-wave (km/s) = 3.17509 4.13535 3.68662
# Velocity P-wave (km/s) = 4.64120 6.67708 5.74997
#
# Compressibility (1/GPa) = 0.05094780
#
# Stress axis : x y z
#
# Youngs Moduli (GPa) = 138.12248 24.96154 136.44146
#
# Poissons Ratio (x) = -0.01289 0.20003
# Poissons Ratio (y) = -0.07134 0.12169
# Poissons Ratio (z) = 0.20250 0.02226
#
# Static dielectric constant tensor:
#      x y z
#    x 2.057010 -0.124170 -0.055790 
#    y -0.124170 2.061560 -0.023930 
#    z -0.055790 -0.023930 2.051500 
# 
# From -- ./inp_files/446330.got.cif
#   From: 2010.05.17/outbox.cif.g08.bks.cpg/sg2_224_cif.got.tgz:446330.got - 2010.06.03 11:33:40.
