data_PCOD9036071
_publ_section_title
;
Structure prediction by ZEFSAII (Michael W. Deem and Ramdas Pophale) SiO2 
 PCOD9036071
Probable space group: P -1
;
_chemical_formula_sum "Si O2"
_cell_formula_units_Z 16
_cell_length_a 12.287187
_cell_length_b 8.917880
_cell_length_c 14.374226
_cell_angle_alpha 30.431085
_cell_angle_beta 99.298996
_cell_angle_gamma 109.106293
_cell_volume 729.483444
_symmetry_space_group_name_H-M "P -1"
_symmetry_group_IT_number 2
_symmetry_cell_setting 'triclinic'
loop_
_space_group_symop_operation_xyz
x,y,z
-x,-y,-z
loop_
_atom_site_type_symbol
_atom_site_label
_atom_site_fract_x
_atom_site_fract_y
_atom_site_fract_z
Si Si1 0.562659 0.721528 0.301827
Si Si2 0.819587 0.912120 0.486632
Si Si3 0.527998 0.857279 0.842425
Si Si4 0.021312 0.828886 0.274271
Si Si5 0.233189 0.813572 0.191719
Si Si6 0.806732 0.002049 0.112171
Si Si7 0.442483 0.125190 0.508023
Si Si8 0.942339 0.748119 0.766885
O O1 0.500000 0.500000 0.500000
O O2 0.496198 0.510604 0.317810
O O3 0.547292 0.057029 0.132621
O O4 0.701910 0.800398 0.274417
O O5 0.787076 0.557397 0.628495
O O6 0.700076 0.983032 0.446317
O O7 0.878632 0.898573 0.602129
O O8 0.922593 0.151640 0.307005
O O9 0.661282 0.027532 0.806374
O O10 0.494097 0.004910 0.667690
O O11 0.500000 0.500000 0.000000
O O12 0.117863 0.854744 0.196106
O O13 0.000000 0.500000 0.500000
O O14 0.059321 0.101490 0.213286
O O15 0.902468 0.839331 0.206680
O O16 0.252778 0.977288 0.005753
O O17 0.874302 0.367696 0.958462
O O18 0.500000 0.000000 0.500000
#
# Coordination Sequence:
#
# PCOD9036071 Si02
#       8
#     2   2   2   2   2   2   2   2
#     4  10  25  48  74  98 141 189 237 299 357 436
#     4  10  22  47  72 102 147 189 239 292 367 425
#     4  11  27  44  69 106 140 185 239 297 359 422
#     4  12  26  42  75 104 143 188 240 292 360 422
#     4  11  25  47  70 105 149 187 237 301 358 435
#     4  11  27  47  71 104 145 189 239 295 366 420
#     4  11  26  44  74 101 139 192 244 293 359 435
#     4  10  24  44  73 107 140 189 237 301 351 428
#
# _framework density 21.933329000000001
#
# number of rings (size 3 to 8) (size 9 to 14) (size 15 to 20)
#    0.000    1.250    2.500    0.750   12.250    2.500 
#    0.000    0.000    0.000    0.000    0.000    0.000 
#    0.000    0.000    0.000    0.000    0.000    0.000 
#
# Total GULP energy -89442.525636 kJ/mol
# GULP energy per Si atom -5590.157852 kJ/mol
# Density = 2.188341 g / cm^3
# Si number density = 21.933329 Si / 1000 Ang^3
#
#
#
# Elastic Constant Matrix: (Units=GPa)
#
#
# Indices 1 2 3 4 5 6 
#
# 1 187.9523 57.4572 40.9802 -5.2613 -4.8975 -1.5345
# 2 57.4572 93.9580 35.0062 -8.1150 0.1164 -11.4725
# 3 40.9802 35.0062 61.2469 12.0902 -1.9613 6.1595
# 4 -5.2613 -8.1150 12.0902 20.4611 2.5780 4.8959
# 5 -4.8975 0.1164 -1.9613 2.5780 32.0480 -1.7700
# 6 -1.5345 -11.4725 6.1595 4.8959 -1.7700 42.5811
#
#
#
# Elastic Compliance Matrix: (Units=1/GPa)
#
#
# Indices 1 2 3 4 5 6 
#
# 1 0.007051 -0.002717 -0.003692 0.002900 0.000614 -0.000252
# 2 -0.002717 0.018377 -0.011733 0.012564 -0.001933 0.005026
# 3 -0.003692 -0.011733 0.030612 -0.022869 0.002917 -0.004972
# 4 0.002900 0.012564 -0.022869 0.069300 -0.006656 -0.001447
# 5 0.000614 -0.001933 0.002917 -0.006656 0.032083 0.001178
# 6 -0.000252 0.005026 -0.004972 -0.001447 0.001178 0.025764
#
#
# Mechanical properties :
#
#
# Convention : Reuss Voigt Hill
#
# Bulk Modulus (GPa) = 50.62019 67.78270 59.20145
# Shear Modulus (GPa) = 22.11826 32.99895 27.55860
#
# Velocity S-wave (km/s) = 3.17903 3.88301 3.54852
# Velocity P-wave (km/s) = 6.05014 7.14666 6.62114
#
# Compressibility (1/GPa) = 0.01975496
#
# Stress axis : x y z
#
# Youngs Moduli (GPa) = 141.81535 54.41498 32.66730
#
# Poissons Ratio (x) = 0.14787 0.12062
# Poissons Ratio (y) = 0.38537 0.38328
# Poissons Ratio (z) = 0.52364 0.63844
#
# Static dielectric constant tensor:
#      x y z
#    x 1.754020 0.025770 -0.023380 
#    y 0.025770 1.772250 0.085490 
#    z -0.023380 0.085490 1.658340 
# 
# From -- ./inp_files/514835.got.cif
#   From: 2010.05.17/outbox.cif.g08.bks.cpg/sg2_258_cif.got.tgz:514835.got - 2010.06.03 11:33:40.
