data_PCOD9036924
_publ_section_title
;
Structure prediction by ZEFSAII (Michael W. Deem and Ramdas Pophale) SiO2 
 PCOD9036924
Probable space group: P -1
;
_chemical_formula_sum "Si O2"
_cell_formula_units_Z 16
_cell_length_a 9.722689
_cell_length_b 14.743590
_cell_length_c 9.445299
_cell_angle_alpha 100.619850
_cell_angle_beta 63.507480
_cell_angle_gamma 54.114161
_cell_volume 774.333032
_symmetry_space_group_name_H-M "P -1"
_symmetry_group_IT_number 2
_symmetry_cell_setting 'triclinic'
loop_
_space_group_symop_operation_xyz
x,y,z
-x,-y,-z
loop_
_atom_site_type_symbol
_atom_site_label
_atom_site_fract_x
_atom_site_fract_y
_atom_site_fract_z
Si Si1 0.061839 0.665571 0.365865
Si Si2 0.829669 0.186668 0.763406
Si Si3 0.512820 0.377673 0.206331
Si Si4 0.563685 0.658495 0.481009
Si Si5 0.898494 0.631753 0.174126
Si Si6 0.091824 0.666967 0.862641
Si Si7 0.775985 0.873505 0.801166
Si Si8 0.898310 0.106782 0.395245
O O1 0.088957 0.746845 0.287015
O O2 0.297140 0.543480 0.315299
O O3 0.037811 0.595256 0.242655
O O4 0.848241 0.776265 0.606250
O O5 0.792837 0.160967 0.617469
O O6 0.600911 0.293116 0.996481
O O7 0.021000 0.034397 0.707677
O O8 0.432936 0.341526 0.351101
O O9 0.732992 0.335132 0.156323
O O10 0.651744 0.708676 0.372063
O O11 0.732167 0.496185 0.313700
O O12 0.297694 0.765525 0.582905
O O13 0.000000 0.500000 0.000000
O O14 0.923680 0.704798 0.075612
O O15 0.929701 0.771563 0.836709
O O16 0.875227 0.929519 0.729194
O O17 0.500000 0.000000 0.000000
#
# Coordination Sequence:
#
# PCOD9036924 Si02
#       8
#     2   2   2   2   2   2   2   2
#     4  11  23  44  67 104 131 180 238 267 340 403
#     4  10  23  39  66 100 131 177 220 283 327 401
#     4  12  22  39  74  98 130 175 230 281 321 407
#     4  11  23  42  66  98 133 176 218 287 327 396
#     4  10  25  41  63 100 142 173 219 287 343 388
#     4  11  21  44  66 101 130 178 222 273 347 392
#     4  11  24  44  70  96 139 184 220 276 340 410
#     4  10  23  44  65  98 137 174 233 268 340 398
#
# _framework density 20.662944
#
# number of rings (size 3 to 8) (size 9 to 14) (size 15 to 20)
#    0.000    1.250    3.750    2.250    3.500    5.000 
#    4.500    1.250    0.000    0.000    0.000    0.000 
#    0.000    0.000    0.000    0.000    0.000    0.000 
#
# Total GULP energy -89303.028905 kJ/mol
# GULP energy per Si atom -5581.439307 kJ/mol
# Density = 2.061591 g / cm^3
# Si number density = 20.662944 Si / 1000 Ang^3
#
#
#
# Elastic Constant Matrix: (Units=GPa)
#
#
# Indices 1 2 3 4 5 6 
#
# 1 62.0115 24.3331 30.7359 -0.2875 -2.5948 -7.0884
# 2 24.3331 102.7110 55.5637 0.5549 -3.7194 -10.1023
# 3 30.7359 55.5637 153.7520 -12.3724 -10.5003 1.1284
# 4 -0.2875 0.5549 -12.3724 39.0791 1.9411 -5.1043
# 5 -2.5948 -3.7194 -10.5003 1.9411 25.5062 -3.7966
# 6 -7.0884 -10.1023 1.1284 -5.1043 -3.7966 17.9116
#
#
#
# Elastic Compliance Matrix: (Units=1/GPa)
#
#
# Indices 1 2 3 4 5 6 
#
# 1 0.019340 -0.002221 -0.003013 0.000051 0.001428 0.006908
# 2 -0.002221 0.013386 -0.004437 -0.000753 0.000990 0.006945
# 3 -0.003013 -0.004437 0.009071 0.002398 0.002132 -0.003131
# 4 0.000051 -0.000753 0.002398 0.027306 -0.000124 0.007200
# 5 0.001428 0.000990 0.002132 -0.000124 0.041845 0.009823
# 6 0.006908 0.006945 -0.003131 0.007200 0.009823 0.066812
#
#
# Mechanical properties :
#
#
# Convention : Reuss Voigt Hill
#
# Bulk Modulus (GPa) = 44.53312 59.97110 52.25211
# Shear Modulus (GPa) = 24.43935 30.35552 27.39744
#
# Velocity S-wave (km/s) = 3.44286 3.83702 3.64527
# Velocity P-wave (km/s) = 6.11583 6.97974 6.56202
#
# Compressibility (1/GPa) = 0.02245520
#
# Stress axis : x y z
#
# Youngs Moduli (GPa) = 51.70500 74.70590 110.23702
#
# Poissons Ratio (x) = 0.16595 0.33210
# Poissons Ratio (y) = 0.11485 0.48916
# Poissons Ratio (z) = 0.15576 0.33149
#
# Static dielectric constant tensor:
#      x y z
#    x 1.760610 0.020920 0.004830 
#    y 0.020920 1.739730 -0.007560 
#    z 0.004830 -0.007560 1.745060 
# 
# From -- ./inp_files/207646.got.cif
#   From: 2010.05.17/outbox.cif.g08.bks.cpg/sg2_104_cif.got.tgz:207646.got - 2010.06.03 11:33:40.
