data_PCOD9036663
_publ_section_title
;
Structure prediction by ZEFSAII (Michael W. Deem and Ramdas Pophale) SiO2 
 PCOD9036663
Probable space group: P -1
;
_chemical_formula_sum "Si O2"
_cell_formula_units_Z 16
_cell_length_a 13.074968
_cell_length_b 17.826182
_cell_length_c 5.718612
_cell_angle_alpha 80.673919
_cell_angle_beta 133.863483
_cell_angle_gamma 127.620001
_cell_volume 677.079269
_symmetry_space_group_name_H-M "P -1"
_symmetry_group_IT_number 2
_symmetry_cell_setting 'triclinic'
loop_
_space_group_symop_operation_xyz
x,y,z
-x,-y,-z
loop_
_atom_site_type_symbol
_atom_site_label
_atom_site_fract_x
_atom_site_fract_y
_atom_site_fract_z
Si Si1 0.380198 0.123313 0.272325
Si Si2 0.411496 0.223117 0.769826
Si Si3 0.714116 0.155772 0.584356
Si Si4 0.981182 0.641663 0.822892
Si Si5 0.190491 0.528417 0.698129
Si Si6 0.972491 0.111900 0.211547
Si Si7 0.926013 0.200890 0.484584
Si Si8 0.731741 0.593678 0.822522
O O1 0.427393 0.182395 0.566322
O O2 0.520203 0.101792 0.451824
O O3 0.407140 0.177555 0.038417
O O4 0.153900 0.009991 0.982420
O O5 0.198826 0.186626 0.454112
O O6 0.604351 0.349488 0.026096
O O7 0.721264 0.135765 0.335125
O O8 0.852112 0.138055 0.899017
O O9 0.846659 0.283875 0.749253
O O10 0.882159 0.527364 0.643653
O O11 0.074316 0.725620 0.721294
O O12 0.798340 0.619932 0.646838
O O13 0.000000 0.500000 0.500000
O O14 0.208411 0.461240 0.923658
O O15 0.949110 0.128184 0.436836
O O16 0.136596 0.292501 0.904689
O O17 0.500000 0.500000 0.500000
#
# Coordination Sequence:
#
# PCOD9036663 Si02
#       8
#     2   2   2   2   2   2   2   2
#     4  12  29  50  74 104 147 195 240 302 361 422
#     4  12  31  48  74 104 152 192 241 293 365 431
#     4  10  23  44  77 103 142 181 246 298 360 429
#     4   9  21  41  64  98 139 177 230 287 354 419
#     4  11  26  42  65  97 141 186 229 279 354 431
#     4  11  26  47  75 105 140 188 246 303 359 426
#     4   9  22  39  69 103 141 175 237 296 361 415
#     4  10  23  38  66  97 138 176 230 292 352 416
#
# _framework density 23.630911000000001
#
# number of rings (size 3 to 8) (size 9 to 14) (size 15 to 20)
#    0.000    1.500    0.000    1.875   21.000    2.000 
#    0.000    0.000    0.000    0.000    0.000    0.000 
#    0.000    0.000    0.000    0.000    0.000    0.000 
#
# Total GULP energy -89125.478446 kJ/mol
# GULP energy per Si atom -5570.342403 kJ/mol
# Density = 2.357713 g / cm^3
# Si number density = 23.630911 Si / 1000 Ang^3
#
#
#
# Elastic Constant Matrix: (Units=GPa)
#
#
# Indices 1 2 3 4 5 6 
#
# 1 119.8406 13.4439 25.9549 7.5161 -0.4918 6.5083
# 2 13.4439 88.3244 41.5011 20.5287 -5.6550 3.3384
# 3 25.9549 41.5011 62.5056 6.4188 9.0374 2.4897
# 4 7.5161 20.5287 6.4188 54.6767 -4.5919 3.4905
# 5 -0.4918 -5.6550 9.0374 -4.5919 50.0161 11.6958
# 6 6.5083 3.3384 2.4897 3.4905 11.6958 28.4436
#
#
#
# Elastic Compliance Matrix: (Units=1/GPa)
#
#
# Indices 1 2 3 4 5 6 
#
# 1 0.009433 0.001198 -0.004750 -0.000903 0.001569 -0.002418
# 2 0.001198 0.018876 -0.013067 -0.005160 0.004647 -0.002623
# 3 -0.004750 -0.013067 0.027383 0.001570 -0.007009 0.002913
# 4 -0.000903 -0.005160 0.001570 0.020458 0.001584 -0.002487
# 5 0.001569 0.004647 -0.007009 0.001584 0.024407 -0.010521
# 6 -0.002418 -0.002623 0.002913 -0.002487 -0.010521 0.040395
#
#
# Mechanical properties :
#
#
# Convention : Reuss Voigt Hill
#
# Bulk Modulus (GPa) = 44.53850 48.05228 46.29539
# Shear Modulus (GPa) = 27.52162 39.27866 33.40014
#
# Velocity S-wave (km/s) = 3.41639 4.08140 3.76361
# Velocity P-wave (km/s) = 5.86948 6.52603 6.20644
#
# Compressibility (1/GPa) = 0.02245249
#
# Stress axis : x y z
#
# Youngs Moduli (GPa) = 106.00872 52.97870 36.51841
#
# Poissons Ratio (x) = -0.06346 0.17347
# Poissons Ratio (y) = -0.12697 0.47720
# Poissons Ratio (z) = 0.50356 0.69230
#
# Static dielectric constant tensor:
#      x y z
#    x 2.132030 0.022590 -0.181930 
#    y 0.022590 1.944800 -0.064300 
#    z -0.181930 -0.064300 2.096760 
# 
# From -- ./inp_files/81439.got.cif
#   From: 2010.05.17/outbox.cif.g08.bks.cpg/sg2_41_cif.got.tgz:81439.got - 2010.06.03 11:33:40.
