data_PCOD9036390
_publ_section_title
;
Structure prediction by ZEFSAII (Michael W. Deem and Ramdas Pophale) SiO2 
 PCOD9036390
Probable space group: P -1
;
_chemical_formula_sum "Si O2"
_cell_formula_units_Z 16
_cell_length_a 16.990347
_cell_length_b 23.660010
_cell_length_c 8.347668
_cell_angle_alpha 143.105955
_cell_angle_beta 31.427528
_cell_angle_gamma 160.066895
_cell_volume 596.465164
_symmetry_space_group_name_H-M "P -1"
_symmetry_group_IT_number 2
_symmetry_cell_setting 'triclinic'
loop_
_space_group_symop_operation_xyz
x,y,z
-x,-y,-z
loop_
_atom_site_type_symbol
_atom_site_label
_atom_site_fract_x
_atom_site_fract_y
_atom_site_fract_z
Si Si1 0.266739 0.542647 0.174406
Si Si2 0.959503 0.822684 0.692519
Si Si3 0.110625 0.744706 0.049901
Si Si4 0.686006 0.639209 0.223461
Si Si5 0.463973 0.088896 0.050034
Si Si6 0.222084 0.154073 0.210502
Si Si7 0.773978 0.049501 0.172157
Si Si8 0.510916 0.685460 0.385945
O O1 0.369354 0.487286 0.883237
O O2 0.494183 0.715407 0.075643
O O3 0.005893 0.393089 0.180900
O O4 0.269299 0.573826 0.426503
O O5 0.983217 0.913931 0.720883
O O6 0.901501 0.697741 0.412226
O O7 0.741425 0.757091 0.037832
O O8 0.214716 0.932683 0.613276
O O9 0.262403 0.905537 0.053408
O O10 0.295151 0.797253 0.986068
O O11 0.745038 0.746377 0.496542
O O12 0.479875 0.585663 0.342143
O O13 0.965461 0.764716 0.927762
O O14 0.464900 0.065375 0.803295
O O15 0.414860 0.176969 0.350420
O O16 0.156341 0.025775 0.124908
#
# Coordination Sequence:
#
# PCOD9036390 Si02
#       8
#     2   2   2   2   2   2   2   2
#     4  11  23  40  61  96 131 166 203 267 324 373
#     4  10  23  35  65  98 125 161 208 262 316 372
#     4  11  25  43  66  88 133 170 217 256 319 375
#     4  11  20  37  64  95 129 166 208 261 319 376
#     4  11  24  45  64  92 123 180 216 257 305 387
#     4  11  21  35  63  97 130 163 206 263 324 374
#     4  11  22  38  65  94 128 167 215 262 309 375
#     4  10  24  38  67  96 126 160 216 262 320 375
#
# _framework density 26.8247
#
# number of rings (size 3 to 8) (size 9 to 14) (size 15 to 20)
#    0.000    1.250    3.750    1.500   10.500    1.000 
#    0.000    0.625    0.000    0.000    0.000    0.000 
#    0.000    0.000    0.000    0.000    0.000    0.000 
#
# Total GULP energy -89330.467211 kJ/mol
# GULP energy per Si atom -5583.154201 kJ/mol
# Density = 2.676365 g / cm^3
# Si number density = 26.824700 Si / 1000 Ang^3
#
#
#
# Elastic Constant Matrix: (Units=GPa)
#
#
# Indices 1 2 3 4 5 6 
#
# 1 201.3475 30.3776 13.3154 11.1022 16.8848 40.3815
# 2 30.3776 65.5006 3.1543 12.9008 9.6867 10.0588
# 3 13.3154 3.1543 51.3976 27.9332 30.7724 0.6211
# 4 11.1022 12.9008 27.9332 34.1456 16.2244 10.8403
# 5 16.8848 9.6867 30.7724 16.2244 46.6838 17.9005
# 6 40.3815 10.0588 0.6211 10.8403 17.9005 49.5323
#
#
#
# Elastic Compliance Matrix: (Units=1/GPa)
#
#
# Indices 1 2 3 4 5 6 
#
# 1 0.006669 -0.003074 -0.005594 0.004284 0.003021 -0.006772
# 2 -0.003074 0.019166 0.010767 -0.012976 -0.006917 0.003818
# 3 -0.005594 0.010767 0.070844 -0.049755 -0.039889 0.026790
# 4 0.004284 -0.012976 -0.049755 0.072340 0.017366 -0.022341
# 5 0.003021 -0.006917 -0.039889 0.017366 0.050721 -0.022689
# 6 -0.006772 0.003818 0.026790 -0.022341 -0.022689 0.037687
#
#
# Mechanical properties :
#
#
# Convention : Reuss Voigt Hill
#
# Bulk Modulus (GPa) = 9.91298 45.77113 27.84206
# Shear Modulus (GPa) = 17.43046 44.16558 30.79802
#
# Velocity S-wave (km/s) = 2.55187 4.06205 3.39207
# Velocity P-wave (km/s) = 3.51940 6.25304 5.07379
#
# Compressibility (1/GPa) = 0.10087780
#
# Stress axis : x y z
#
# Youngs Moduli (GPa) = 149.95201 52.17461 14.11562
#
# Poissons Ratio (x) = 0.16038 0.07896
# Poissons Ratio (y) = 0.46095 -0.15199
# Poissons Ratio (z) = 0.83881 -0.56178
#
# Static dielectric constant tensor:
#      x y z
#    x 2.210700 0.129970 -0.025130 
#    y 0.129970 2.176180 -0.048320 
#    z -0.025130 -0.048320 2.124220 
# 
# From -- ./inp_files/338684.got.cif
#   From: 2010.05.17/outbox.cif.g08.bks.cpg/sg2_170_cif.got.tgz:338684.got - 2010.06.03 11:33:40.
