data_PCOD9036076
_publ_section_title
;
Structure prediction by ZEFSAII (Michael W. Deem and Ramdas Pophale) SiO2 
 PCOD9036076
Probable space group: P -1
;
_chemical_formula_sum "Si O2"
_cell_formula_units_Z 9
_cell_length_a 5.925936
_cell_length_b 11.399728
_cell_length_c 6.897946
_cell_angle_alpha 61.622193
_cell_angle_beta 79.930364
_cell_angle_gamma 68.255797
_cell_volume 380.815890
_symmetry_space_group_name_H-M "P -1"
_symmetry_group_IT_number 2
_symmetry_cell_setting 'triclinic'
loop_
_space_group_symop_operation_xyz
x,y,z
-x,-y,-z
loop_
_atom_site_type_symbol
_atom_site_label
_atom_site_fract_x
_atom_site_fract_y
_atom_site_fract_z
Si Si1 0.667299 0.080379 0.316557
Si Si2 0.119748 0.606862 0.305746
Si Si3 0.079400 0.801009 0.509694
Si Si4 0.759249 0.704666 0.944853
Si Si5 0.500000 0.500000 0.000000
O O1 0.715366 0.189282 0.378664
O O2 0.507313 0.174973 0.097724
O O3 0.500000 0.000000 0.500000
O O4 0.925007 0.959964 0.336894
O O5 0.171474 0.701169 0.393689
O O6 0.000000 0.500000 0.500000
O O7 0.353082 0.530727 0.203451
O O8 0.918566 0.701009 0.111748
O O9 0.900006 0.745753 0.710982
O O10 0.708690 0.561823 0.013252
#
# Coordination Sequence:
#
# PCOD9036076 Si02
#       5
#     2   2   2   2   1
#     4   9  21  43  75 103 140 187 238 298 351 424
#     4  12  27  45  71 107 145 192 236 291 359 422
#     4  10  22  47  72 103 147 184 235 299 357 420
#     4  11  24  44  68 106 144 184 242 292 346 433
#     4  12  26  44  70 104 146 188 240 286 348 432
#
# _framework density 23.633469000000002
#
# number of rings (size 3 to 8) (size 9 to 14) (size 15 to 20)
#    0.000    1.333    2.222    2.000    3.111    5.333 
#    0.000   15.556    0.000    0.000    0.000    0.000 
#    0.000    0.000    0.000    0.000    0.000    0.000 
#
# Total GULP energy -50144.666904 kJ/mol
# GULP energy per Si atom -5571.629656 kJ/mol
# Density = 2.357968 g / cm^3
# Si number density = 23.633469 Si / 1000 Ang^3
#
#
#
# Elastic Constant Matrix: (Units=GPa)
#
#
# Indices 1 2 3 4 5 6 
#
# 1 121.6534 32.9331 40.5185 10.3033 -16.1772 21.2760
# 2 32.9331 82.9828 46.5686 23.3853 -4.7197 2.6842
# 3 40.5185 46.5686 107.5223 20.6570 -8.8377 -15.9427
# 4 10.3033 23.3853 20.6570 31.3277 -9.5763 5.9151
# 5 -16.1772 -4.7197 -8.8377 -9.5763 34.9010 -5.4327
# 6 21.2760 2.6842 -15.9427 5.9151 -5.4327 42.8563
#
#
#
# Elastic Compliance Matrix: (Units=1/GPa)
#
#
# Indices 1 2 3 4 5 6 
#
# 1 0.012155 -0.002639 -0.005033 0.003947 0.003872 -0.007795
# 2 -0.002639 0.019055 -0.005655 -0.010389 -0.003076 -0.000943
# 3 -0.005033 -0.005655 0.016467 -0.006621 0.000811 0.009995
# 4 0.003947 -0.010389 -0.006621 0.047631 0.010412 -0.009026
# 5 0.003872 -0.003076 0.000811 0.010412 0.033305 0.001357
# 6 -0.007795 -0.000943 0.009995 -0.009026 0.001357 0.032399
#
#
# Mechanical properties :
#
#
# Convention : Reuss Voigt Hill
#
# Bulk Modulus (GPa) = 47.56863 61.35543 54.46203
# Shear Modulus (GPa) = 25.68411 34.62623 30.15517
#
# Velocity S-wave (km/s) = 3.30019 3.83186 3.57592
# Velocity P-wave (km/s) = 5.89008 6.75242 6.33594
#
# Compressibility (1/GPa) = 0.02102226
#
# Stress axis : x y z
#
# Youngs Moduli (GPa) = 82.27172 52.47988 60.72774
#
# Poissons Ratio (x) = 0.13850 0.30565
# Poissons Ratio (y) = 0.21713 0.34341
# Poissons Ratio (z) = 0.41409 0.29677
#
# Static dielectric constant tensor:
#      x y z
#    x 1.840900 -0.018860 0.016160 
#    y -0.018860 1.965690 -0.121850 
#    z 0.016160 -0.121850 1.944000 
# 
# From -- ./inp_files/1725.got.cif
#   From: 2010.05.17/outbox.cif.g08.bks.cpg/sg2_1_cif.got.tgz:1725.got - 2010.06.03 11:33:40.
