data_PCOD9036755
_publ_section_title
;
Structure prediction by ZEFSAII (Michael W. Deem and Ramdas Pophale) SiO2 
 PCOD9036755
Probable space group: P -1
;
_chemical_formula_sum "Si O2"
_cell_formula_units_Z 14
_cell_length_a 18.395083
_cell_length_b 21.016845
_cell_length_c 9.081916
_cell_angle_alpha 147.686346
_cell_angle_beta 42.878640
_cell_angle_gamma 160.533852
_cell_volume 583.673482
_symmetry_space_group_name_H-M "P -1"
_symmetry_group_IT_number 2
_symmetry_cell_setting 'triclinic'
loop_
_space_group_symop_operation_xyz
x,y,z
-x,-y,-z
loop_
_atom_site_type_symbol
_atom_site_label
_atom_site_fract_x
_atom_site_fract_y
_atom_site_fract_z
Si Si1 0.853611 0.466268 0.225139
Si Si2 0.793674 0.905642 0.751111
Si Si3 0.311918 0.955231 0.999559
Si Si4 0.223060 0.787659 0.502128
Si Si5 0.492692 0.278234 0.934673
Si Si6 0.098946 0.408690 0.886335
Si Si7 0.659597 0.598258 0.083250
O O1 0.963493 0.577477 0.440354
O O2 0.576929 0.193560 0.116241
O O3 0.917110 0.635981 0.349413
O O4 0.000000 0.500000 0.000000
O O5 0.695112 0.715497 0.405534
O O6 0.731906 0.968487 0.882373
O O7 0.658211 0.778990 0.858026
O O8 0.067740 0.160421 0.881844
O O9 0.250471 0.801295 0.662181
O O10 0.141217 0.796994 0.081214
O O11 0.252225 0.682781 0.194422
O O12 0.370722 0.030333 0.663832
O O13 0.750551 0.530502 0.120294
O O14 0.526088 0.349696 0.857389
O O15 0.500000 0.500000 0.000000
#
# Coordination Sequence:
#
# PCOD9036755 Si02
#       7
#     2   2   2   2   2   2   2
#     4  10  23  39  60  94 130 171 220 259 307 375
#     4  10  23  44  67  94 128 167 212 269 329 382
#     4  11  22  42  66  92 134 174 214 262 319 378
#     4  10  23  40  63  95 134 171 215 257 312 382
#     4  11  22  43  67  94 131 172 209 263 330 383
#     4  11  21  41  65  93 134 177 210 259 316 382
#     4  11  25  45  69  96 124 161 222 276 325 382
#
# _framework density 23.986013
#
# number of rings (size 3 to 8) (size 9 to 14) (size 15 to 20)
#    0.000    1.429    4.286    1.286    2.000    6.286 
#    2.571    0.000    0.000    0.000    0.000    0.000 
#    0.000    0.000    0.000    0.000    0.000    0.000 
#
# Total GULP energy -78071.549594 kJ/mol
# GULP energy per Si atom -5576.539257 kJ/mol
# Density = 2.393142 g / cm^3
# Si number density = 23.986013 Si / 1000 Ang^3
#
#
#
# Elastic Constant Matrix: (Units=GPa)
#
#
# Indices 1 2 3 4 5 6 
#
# 1 140.5744 62.3066 16.4725 24.7856 32.9942 18.5910
# 2 62.3066 195.7623 27.0373 16.8156 22.0855 17.4793
# 3 16.4725 27.0373 32.1621 6.7279 11.0840 12.5514
# 4 24.7856 16.8156 6.7279 25.4494 12.0924 6.1371
# 5 32.9942 22.0855 11.0840 12.0924 38.2554 10.6749
# 6 18.5910 17.4793 12.5514 6.1371 10.6749 48.2851
#
#
#
# Elastic Compliance Matrix: (Units=1/GPa)
#
#
# Indices 1 2 3 4 5 6 
#
# 1 0.010598 -0.002113 0.000066 -0.005916 -0.005702 -0.001320
# 2 -0.002113 0.006473 -0.003907 -0.000919 -0.000406 -0.000307
# 3 0.000066 -0.003907 0.040030 -0.003316 -0.006344 -0.007193
# 4 -0.005916 -0.000919 -0.003316 0.051202 -0.009319 -0.000975
# 5 -0.005702 -0.000406 -0.006344 -0.009319 0.036909 -0.002984
# 6 -0.001320 -0.000307 -0.007193 -0.000975 -0.002984 0.023983
#
#
# Mechanical properties :
#
#
# Convention : Reuss Voigt Hill
#
# Bulk Modulus (GPa) = 22.12727 64.45906 43.29317
# Shear Modulus (GPa) = 25.48842 39.91013 32.69928
#
# Velocity S-wave (km/s) = 3.26335 4.08351 3.69625
# Velocity P-wave (km/s) = 4.84194 7.01180 6.02535
#
# Compressibility (1/GPa) = 0.04519311
#
# Stress axis : x y z
#
# Youngs Moduli (GPa) = 94.35393 154.49887 24.98118
#
# Poissons Ratio (x) = 0.32646 -0.00165
# Poissons Ratio (y) = 0.19937 0.09760
# Poissons Ratio (z) = -0.00622 0.60360
#
# Static dielectric constant tensor:
#      x y z
#    x 2.007330 0.012790 0.049580 
#    y 0.012790 1.940350 0.025500 
#    z 0.049580 0.025500 2.210060 
# 
# From -- ./inp_files/337897.got.cif
#   From: 2010.05.17/outbox.cif.g08.bks.cpg/sg2_169_cif.got.tgz:337897.got - 2010.06.03 11:33:40.
