data_PCOD9036324
_publ_section_title
;
Structure prediction by ZEFSAII (Michael W. Deem and Ramdas Pophale) SiO2 
 PCOD9036324
Probable space group: P -1
;
_chemical_formula_sum "Si O2"
_cell_formula_units_Z 14
_cell_length_a 17.922843
_cell_length_b 9.335324
_cell_length_c 9.570424
_cell_angle_alpha 43.154346
_cell_angle_beta 142.943873
_cell_angle_gamma 148.817294
_cell_volume 493.964206
_symmetry_space_group_name_H-M "P -1"
_symmetry_group_IT_number 2
_symmetry_cell_setting 'triclinic'
loop_
_space_group_symop_operation_xyz
x,y,z
-x,-y,-z
loop_
_atom_site_type_symbol
_atom_site_label
_atom_site_fract_x
_atom_site_fract_y
_atom_site_fract_z
Si Si1 0.938710 0.301294 0.333476
Si Si2 0.612323 0.941349 0.421839
Si Si3 0.551737 0.819356 0.004112
Si Si4 0.911144 0.706944 0.157147
Si Si5 0.005319 0.179864 0.256188
Si Si6 0.271878 0.342210 0.308056
Si Si7 0.648586 0.840926 0.838033
O O1 0.043256 0.282711 0.620294
O O2 0.947708 0.535698 0.252039
O O3 0.018159 0.389122 0.234226
O O4 0.741351 0.034747 0.193547
O O5 0.446239 0.622452 0.416524
O O6 0.727850 0.910543 0.529644
O O7 0.677195 0.015093 0.622444
O O8 0.561308 0.109951 0.168967
O O9 0.571923 0.879131 0.825617
O O10 0.466524 0.495294 0.115970
O O11 0.736724 0.576586 0.920893
O O12 0.830006 0.976625 0.062458
O O13 0.000000 0.000000 0.000000
O O14 0.147168 0.295499 0.271800
O O15 0.000000 0.000000 0.500000
#
# Coordination Sequence:
#
# PCOD9036324 Si02
#       7
#     2   2   2   2   2   2   2
#     4  10  24  47  80 118 152 205 268 321 393 456
#     4  11  25  50  76 114 161 209 254 321 394 479
#     4  10  22  49  80 117 159 206 263 323 391 475
#     4  11  24  46  78 115 157 201 259 328 388 461
#     4  11  26  50  78 116 156 204 265 330 383 468
#     4  11  27  48  79 111 161 208 258 321 397 463
#     4  10  25  45  81 116 153 207 264 324 393 460
#
# _framework density 28.342134999999999
#
# number of rings (size 3 to 8) (size 9 to 14) (size 15 to 20)
#    0.000    1.429    1.429    1.286   12.000    0.571 
#    2.571    5.000    0.000    0.000    0.000    0.000 
#    0.000    0.000    0.000    0.000    0.000    0.000 
#
# Total GULP energy -78293.745502 kJ/mol
# GULP energy per Si atom -5592.410393 kJ/mol
# Density = 2.827763 g / cm^3
# Si number density = 28.342135 Si / 1000 Ang^3
#
#
#
# Elastic Constant Matrix: (Units=GPa)
#
#
# Indices 1 2 3 4 5 6 
#
# 1 218.7032 52.8480 80.4549 14.5458 -14.1243 -22.4570
# 2 52.8480 157.2670 50.6341 19.3390 -4.7863 -22.4072
# 3 80.4549 50.6341 179.8534 22.9855 -10.2210 -21.8506
# 4 14.5458 19.3390 22.9855 42.5827 -15.2165 2.3320
# 5 -14.1243 -4.7863 -10.2210 -15.2165 63.8957 6.5580
# 6 -22.4570 -22.4072 -21.8506 2.3320 6.5580 38.9071
#
#
#
# Elastic Compliance Matrix: (Units=1/GPa)
#
#
# Indices 1 2 3 4 5 6 
#
# 1 0.005786 -0.001019 -0.002049 -0.000255 0.000660 0.001507
# 2 -0.001019 0.007923 -0.000947 -0.003289 -0.000957 0.003801
# 3 -0.002049 -0.000947 0.007458 -0.003175 -0.000365 0.002712
# 4 -0.000255 -0.003289 -0.003175 0.029629 0.006940 -0.006770
# 5 0.000660 -0.000957 -0.000365 0.006940 0.017707 -0.003776
# 6 0.001507 0.003801 0.002712 -0.006770 -0.003776 0.031327
#
#
# Mechanical properties :
#
#
# Convention : Reuss Voigt Hill
#
# Bulk Modulus (GPa) = 76.11379 102.63308 89.37344
# Shear Modulus (GPa) = 44.54854 53.86954 49.20904
#
# Velocity S-wave (km/s) = 3.96891 4.36442 4.17135
# Velocity P-wave (km/s) = 6.92219 7.85419 7.40287
#
# Compressibility (1/GPa) = 0.01313822
#
# Stress axis : x y z
#
# Youngs Moduli (GPa) = 172.81667 126.21780 134.09207
#
# Poissons Ratio (x) = 0.12859 0.27469
# Poissons Ratio (y) = 0.17607 0.12698
# Poissons Ratio (z) = 0.35402 0.11952
#
# Static dielectric constant tensor:
#      x y z
#    x 2.339120 -0.017110 0.153020 
#    y -0.017110 2.493330 0.075940 
#    z 0.153020 0.075940 2.392850 
# 
# From -- ./inp_files/461817.got.cif
#   From: 2010.05.17/outbox.cif.g08.bks.cpg/sg2_231_cif.got.tgz:461817.got - 2010.06.03 11:33:40.
