data_PCOD9036338
_publ_section_title
;
Structure prediction by ZEFSAII (Michael W. Deem and Ramdas Pophale) SiO2 
 PCOD9036338
Probable space group: P -1
;
_chemical_formula_sum "Si O2"
_cell_formula_units_Z 13
_cell_length_a 6.110320
_cell_length_b 21.554659
_cell_length_c 5.888077
_cell_angle_alpha 57.726239
_cell_angle_beta 105.976793
_cell_angle_gamma 130.254741
_cell_volume 497.469646
_symmetry_space_group_name_H-M "P -1"
_symmetry_group_IT_number 2
_symmetry_cell_setting 'triclinic'
loop_
_space_group_symop_operation_xyz
x,y,z
-x,-y,-z
loop_
_atom_site_type_symbol
_atom_site_label
_atom_site_fract_x
_atom_site_fract_y
_atom_site_fract_z
Si Si1 0.065177 0.853794 0.292442
Si Si2 0.666489 0.726361 0.796306
Si Si3 0.500000 0.000000 0.500000
Si Si4 0.171188 0.756469 0.178078
Si Si5 0.255178 0.629130 0.224634
Si Si6 0.353958 0.543401 0.778407
Si Si7 0.186918 0.068766 0.126257
O O1 0.795577 0.802301 0.489507
O O2 0.336748 0.936361 0.347474
O O3 0.102368 0.778456 0.358997
O O4 0.975565 0.885177 0.987873
O O5 0.460733 0.625212 0.823540
O O6 0.459731 0.717004 0.948716
O O7 0.939799 0.741741 0.960991
O O8 0.752373 0.984730 0.579120
O O9 0.162083 0.667076 0.322031
O O10 0.481626 0.850972 0.014884
O O11 0.426736 0.595059 0.453284
O O12 0.980542 0.542458 0.186250
O O13 0.500000 0.500000 0.000000
O O14 0.000000 0.000000 0.000000
#
# Coordination Sequence:
#
# PCOD9036338 Si02
#       7
#     2   2   1   2   2   2   2
#     4  11  26  49  75 108 149 195 250 305 374 441
#     4  12  24  47  76 108 148 199 246 304 374 438
#     4  10  22  50  74 108 144 198 242 306 372 440
#     4  12  24  47  74 109 149 194 247 309 369 444
#     4  11  27  49  76 111 150 192 255 305 366 445
#     4  11  24  50  75 111 148 200 243 309 370 442
#     4  10  23  46  73 107 144 191 247 307 364 442
#
# _framework density 26.132245999999999
#
# number of rings (size 3 to 8) (size 9 to 14) (size 15 to 20)
#    0.000    0.923    3.077    3.231    0.000    5.538 
#   19.385    2.308    0.000    0.000    0.000    0.000 
#    0.000    0.000    0.000    0.000    0.000    0.000 
#
# Total GULP energy -72463.938166 kJ/mol
# GULP energy per Si atom -5574.149090 kJ/mol
# Density = 2.607277 g / cm^3
# Si number density = 26.132246 Si / 1000 Ang^3
#
#
#
# Elastic Constant Matrix: (Units=GPa)
#
#
# Indices 1 2 3 4 5 6 
#
# 1 88.1686 56.7785 60.7548 13.3605 26.4581 5.1438
# 2 56.7785 203.9584 29.9840 31.4739 7.9574 20.3290
# 3 60.7548 29.9840 135.7872 7.6308 16.9531 10.2857
# 4 13.3605 31.4739 7.6308 37.1570 16.6435 8.3961
# 5 26.4581 7.9574 16.9531 16.6435 44.2349 -5.6356
# 6 5.1438 20.3290 10.2857 8.3961 -5.6356 36.6762
#
#
#
# Elastic Compliance Matrix: (Units=1/GPa)
#
#
# Indices 1 2 3 4 5 6 
#
# 1 0.023020 -0.005198 -0.007915 0.002718 -0.010877 -0.000421
# 2 -0.005198 0.007112 0.000766 -0.005449 0.003374 -0.001662
# 3 -0.007915 0.000766 0.010911 0.000585 -0.000128 -0.002528
# 4 0.002718 -0.005449 0.000585 0.040263 -0.017215 -0.009387
# 5 -0.010877 0.003374 -0.000128 -0.017215 0.036203 0.009195
# 6 -0.000421 -0.001662 -0.002528 -0.009387 0.009195 0.032517
#
#
# Mechanical properties :
#
#
# Convention : Reuss Voigt Hill
#
# Bulk Modulus (GPa) = 61.16281 80.32767 70.74524
# Shear Modulus (GPa) = 27.75184 42.30676 35.02930
#
# Velocity S-wave (km/s) = 3.26233 4.02798 3.66520
# Velocity P-wave (km/s) = 6.13566 7.24144 6.71136
#
# Compressibility (1/GPa) = 0.01634981
#
# Stress axis : x y z
#
# Youngs Moduli (GPa) = 43.44111 140.60415 91.64948
#
# Poissons Ratio (x) = 0.73084 0.72538
# Poissons Ratio (y) = 0.22580 -0.07020
# Poissons Ratio (z) = 0.34382 -0.10770
#
# Static dielectric constant tensor:
#      x y z
#    x 2.149580 -0.087480 -0.021910 
#    y -0.087480 2.035170 -0.094010 
#    z -0.021910 -0.094010 2.247450 
# 
# From -- ./inp_files/10309.got.cif
#   From: 2010.05.17/outbox.cif.g08.bks.cpg/sg2_6_cif.got.tgz:10309.got - 2010.06.03 11:33:40.
