data_PCOD9036634
_publ_section_title
;
Structure prediction by ZEFSAII (Michael W. Deem and Ramdas Pophale) SiO2 
 PCOD9036634
Probable space group: P -1
;
_chemical_formula_sum "Si O2"
_cell_formula_units_Z 16
_cell_length_a 6.766011
_cell_length_b 18.380760
_cell_length_c 11.502235
_cell_angle_alpha 40.786146
_cell_angle_beta 52.941241
_cell_angle_gamma 46.759342
_cell_volume 670.047930
_symmetry_space_group_name_H-M "P -1"
_symmetry_group_IT_number 2
_symmetry_cell_setting 'triclinic'
loop_
_space_group_symop_operation_xyz
x,y,z
-x,-y,-z
loop_
_atom_site_type_symbol
_atom_site_label
_atom_site_fract_x
_atom_site_fract_y
_atom_site_fract_z
Si Si1 0.696709 0.741947 0.095975
Si Si2 0.181157 0.065585 0.563252
Si Si3 0.249619 0.526918 0.924357
Si Si4 0.792300 0.518476 0.747265
Si Si5 0.082128 0.803842 0.732262
Si Si6 0.141919 0.892570 0.981769
Si Si7 0.377881 0.128679 0.820010
Si Si8 0.353144 0.214688 0.483620
O O1 0.447496 0.794105 0.028930
O O2 0.884815 0.809015 0.902329
O O3 0.558618 0.784698 0.219502
O O4 0.910804 0.598303 0.210035
O O5 0.152366 0.182250 0.513169
O O6 0.036499 0.101929 0.446513
O O7 0.500000 0.000000 0.500000
O O8 0.122838 0.970839 0.778358
O O9 0.551541 0.491978 0.802873
O O10 0.134318 0.672986 0.812024
O O11 0.303835 0.461262 0.108964
O O12 0.000000 0.500000 0.000000
O O13 0.781039 0.651952 0.564388
O O14 0.375811 0.798901 0.665380
O O15 0.949831 0.823472 0.124538
O O16 0.000000 0.000000 0.000000
O O17 0.462183 0.119375 0.668252
O O18 0.500000 0.000000 0.000000
#
# Coordination Sequence:
#
# PCOD9036634 Si02
#       8
#     2   2   2   2   2   2   2   2
#     4  11  24  42  64  96 127 168 214 260 321 382
#     4  12  24  40  65  99 126 162 217 270 314 377
#     4   9  17  36  63  90 129 169 199 251 329 376
#     4   9  21  39  61  93 129 164 211 263 310 386
#     4  10  23  38  64  98 126 160 209 267 317 375
#     4  12  24  45  64  91 130 172 217 257 327 384
#     4  12  25  43  67  88 125 178 211 262 323 382
#     4  11  24  43  65  94 129 169 211 263 326 374
#
# _framework density 23.878889000000001
#
# number of rings (size 3 to 8) (size 9 to 14) (size 15 to 20)
#    0.000    1.250    3.750    2.250    1.750    3.000 
#    0.000    0.625    0.000    0.000    0.000    0.000 
#    0.000    0.000    0.000    0.000    0.000    0.000 
#
# Total GULP energy -89283.937560 kJ/mol
# GULP energy per Si atom -5580.246098 kJ/mol
# Density = 2.382454 g / cm^3
# Si number density = 23.878889 Si / 1000 Ang^3
#
#
#
# Elastic Constant Matrix: (Units=GPa)
#
#
# Indices 1 2 3 4 5 6 
#
# 1 108.3543 17.5415 11.6052 -11.0288 -13.6212 -10.8059
# 2 17.5415 77.2825 8.5651 -19.2682 1.5263 -13.9727
# 3 11.6052 8.5651 63.9033 -0.4190 1.8616 2.4438
# 4 -11.0288 -19.2682 -0.4190 37.5516 -2.0697 3.4897
# 5 -13.6212 1.5263 1.8616 -2.0697 37.3713 6.0413
# 6 -10.8059 -13.9727 2.4438 3.4897 6.0413 33.9794
#
#
#
# Elastic Compliance Matrix: (Units=1/GPa)
#
#
# Indices 1 2 3 4 5 6 
#
# 1 0.010574 -0.001283 -0.001921 0.002446 0.003807 0.002045
# 2 -0.001283 0.016424 -0.002104 0.007379 -0.001599 0.006024
# 3 -0.001921 -0.002104 0.016393 -0.001307 -0.001128 -0.002320
# 4 0.002446 0.007379 -0.001307 0.031223 0.002338 0.000284
# 5 0.003807 -0.001599 -0.001128 0.002338 0.029172 -0.004792
# 6 0.002045 0.006024 -0.002320 0.000284 -0.004792 0.033547
#
#
# Mechanical properties :
#
#
# Convention : Reuss Voigt Hill
#
# Bulk Modulus (GPa) = 30.51120 36.10706 33.30913
# Shear Modulus (GPa) = 31.47167 35.90235 33.68701
#
# Velocity S-wave (km/s) = 3.63433 3.88173 3.76006
# Velocity P-wave (km/s) = 5.51510 5.93668 5.72977
#
# Compressibility (1/GPa) = 0.03277485
#
# Stress axis : x y z
#
# Youngs Moduli (GPa) = 94.57234 60.88521 61.00318
#
# Poissons Ratio (x) = 0.07810 0.11721
# Poissons Ratio (y) = 0.12131 0.12834
# Poissons Ratio (z) = 0.18172 0.12809
#
# Static dielectric constant tensor:
#      x y z
#    x 2.041710 0.010870 -0.071920 
#    y 0.010870 1.985750 -0.000060 
#    z -0.071920 -0.000060 2.016300 
# 
# From -- ./inp_files/72292.got.cif
#   From: 2010.05.17/outbox.cif.g08.bks.cpg/sg2_37_cif.got.tgz:72292.got - 2010.06.03 11:33:40.
