data_PCOD9036965
_publ_section_title
;
Structure prediction by ZEFSAII (Michael W. Deem and Ramdas Pophale) SiO2 
 PCOD9036965
Probable space group: P -1
;
_chemical_formula_sum "Si O2"
_cell_formula_units_Z 16
_cell_length_a 9.526219
_cell_length_b 21.374839
_cell_length_c 8.309039
_cell_angle_alpha 33.661761
_cell_angle_beta 112.985857
_cell_angle_gamma 126.831738
_cell_volume 727.844481
_symmetry_space_group_name_H-M "P -1"
_symmetry_group_IT_number 2
_symmetry_cell_setting 'triclinic'
loop_
_space_group_symop_operation_xyz
x,y,z
-x,-y,-z
loop_
_atom_site_type_symbol
_atom_site_label
_atom_site_fract_x
_atom_site_fract_y
_atom_site_fract_z
Si Si1 0.219005 0.820623 0.250874
Si Si2 0.988742 0.517821 0.764839
Si Si3 0.594256 0.651146 0.429403
Si Si4 0.954164 0.271403 0.096913
Si Si5 0.466786 0.840233 0.894331
Si Si6 0.746733 0.593081 0.320209
Si Si7 0.963482 0.851174 0.318194
Si Si8 0.469056 0.048535 0.647588
O O1 0.137470 0.672555 0.464492
O O2 0.074612 0.826668 0.284674
O O3 0.387073 0.852292 0.371341
O O4 0.293975 0.937695 0.902359
O O5 0.805964 0.504929 0.640626
O O6 0.017446 0.411161 0.917334
O O7 0.000000 0.500000 0.000000
O O8 0.692901 0.663527 0.277491
O O9 0.426886 0.497241 0.678906
O O10 0.755284 0.727842 0.464809
O O11 0.497060 0.731865 0.212249
O O12 0.973892 0.172176 0.433200
O O13 0.743333 0.210415 0.102268
O O14 0.082209 0.307947 0.923000
O O15 0.550656 0.967405 0.776560
O O16 0.551086 0.880257 0.667780
O O17 0.000000 0.000000 0.000000
#
# Coordination Sequence:
#
# PCOD9036965 Si02
#       8
#     2   2   2   2   2   2   2   2
#     4  11  22  42  64  99 132 179 219 278 335 399
#     4  12  21  42  72 103 135 174 227 283 330 403
#     4  11  25  44  67  97 143 175 222 276 352 401
#     4  12  25  45  73 101 133 178 238 276 339 401
#     4  11  22  42  70 100 130 178 225 290 327 400
#     4  11  25  44  69 102 138 179 222 283 340 411
#     4  12  26  47  67  98 140 185 222 280 345 410
#     4  10  23  39  66  99 132 166 237 276 326 394
#
# _framework density 21.982718999999999
#
# number of rings (size 3 to 8) (size 9 to 14) (size 15 to 20)
#    0.000    0.750    5.000    1.875    3.500    1.500 
#    0.000    1.250    0.000    0.000    0.000    0.000 
#    0.000    0.000    0.000    0.000    0.000    0.000 
#
# Total GULP energy -89412.313808 kJ/mol
# GULP energy per Si atom -5588.269613 kJ/mol
# Density = 2.193269 g / cm^3
# Si number density = 21.982719 Si / 1000 Ang^3
#
#
#
# Elastic Constant Matrix: (Units=GPa)
#
#
# Indices 1 2 3 4 5 6 
#
# 1 60.1547 5.6306 37.4955 10.9425 -6.5095 17.0291
# 2 5.6306 84.1579 13.1776 -10.9259 -3.7391 20.7116
# 3 37.4955 13.1776 62.7801 4.8380 -5.5353 10.3040
# 4 10.9425 -10.9259 4.8380 34.7005 -6.9308 3.9825
# 5 -6.5095 -3.7391 -5.5353 -6.9308 41.3732 -6.8800
# 6 17.0291 20.7116 10.3040 3.9825 -6.8800 29.4425
#
#
#
# Elastic Compliance Matrix: (Units=1/GPa)
#
#
# Indices 1 2 3 4 5 6 
#
# 1 0.031820 0.003367 -0.017013 -0.005007 -0.000162 -0.014180
# 2 0.003367 0.016195 -0.003752 0.006103 0.000392 -0.012761
# 3 -0.017013 -0.003752 0.026383 0.000336 0.001147 0.003468
# 4 -0.005007 0.006103 0.000336 0.033771 0.004635 -0.005000
# 5 -0.000162 0.000392 0.001147 0.004635 0.025916 0.004846
# 6 -0.014180 -0.012761 0.003468 -0.005000 0.004846 0.051738
#
#
# Mechanical properties :
#
#
# Convention : Reuss Voigt Hill
#
# Bulk Modulus (GPa) = 25.24998 35.52222 30.38610
# Shear Modulus (GPa) = 21.38413 31.15582 26.26998
#
# Velocity S-wave (km/s) = 3.12231 3.76877 3.46067
# Velocity P-wave (km/s) = 4.95072 5.92726 5.46086
#
# Compressibility (1/GPa) = 0.03960399
#
# Stress axis : x y z
#
# Youngs Moduli (GPa) = 31.42650 61.74779 37.90333
#
# Poissons Ratio (x) = -0.20793 0.64484
# Poissons Ratio (y) = -0.10583 0.14221
# Poissons Ratio (z) = 0.53465 0.23167
#
# Static dielectric constant tensor:
#      x y z
#    x 1.776180 0.025770 -0.021390 
#    y 0.025770 1.877090 -0.003250 
#    z -0.021390 -0.003250 1.809330 
# 
# From -- ./inp_files/225859.got.cif
#   From: 2010.05.17/outbox.cif.g08.bks.cpg/sg2_113_cif.got.tgz:225859.got - 2010.06.03 11:33:40.
