data_PCOD9036944
_publ_section_title
;
Structure prediction by ZEFSAII (Michael W. Deem and Ramdas Pophale) SiO2 
 PCOD9036944
Probable space group: P -1
;
_chemical_formula_sum "Si O2"
_cell_formula_units_Z 16
_cell_length_a 9.047942
_cell_length_b 17.817519
_cell_length_c 5.564317
_cell_angle_alpha 95.795092
_cell_angle_beta 71.691279
_cell_angle_gamma 131.300292
_cell_volume 632.637732
_symmetry_space_group_name_H-M "P -1"
_symmetry_group_IT_number 2
_symmetry_cell_setting 'triclinic'
loop_
_space_group_symop_operation_xyz
x,y,z
-x,-y,-z
loop_
_atom_site_type_symbol
_atom_site_label
_atom_site_fract_x
_atom_site_fract_y
_atom_site_fract_z
Si Si1 0.268761 0.641111 0.355333
Si Si2 0.184944 0.247385 0.360833
Si Si3 0.632908 0.088584 0.152747
Si Si4 0.615200 0.930860 0.348185
Si Si5 0.554474 0.478479 0.216160
Si Si6 0.836072 0.241697 0.726871
Si Si7 0.957037 0.554186 0.866175
Si Si8 0.238199 0.182558 0.815425
O O1 0.181342 0.674046 0.220680
O O2 0.186572 0.531209 0.299897
O O3 0.514320 0.719779 0.274348
O O4 0.166641 0.641389 0.650325
O O5 0.420202 0.357900 0.260542
O O6 0.160610 0.189994 0.599828
O O7 0.023032 0.265200 0.485959
O O8 0.155231 0.192381 0.108913
O O9 0.464611 0.092598 0.346248
O O10 0.695207 0.040980 0.285718
O O11 0.821133 0.193999 0.972276
O O12 0.500000 0.000000 0.000000
O O13 0.391035 0.848464 0.304937
O O14 0.765196 0.909961 0.210111
O O15 0.500000 0.500000 0.500000
O O16 0.500000 0.500000 0.000000
O O17 0.804036 0.558110 0.089885
O O18 0.000000 0.500000 0.000000
#
# Coordination Sequence:
#
# PCOD9036944 Si02
#       8
#     2   2   2   2   2   2   2   2
#     4  10  23  42  63  94 123 171 226 278 317 388
#     4  12  26  44  64  98 136 174 217 273 333 395
#     4   9  19  39  69  98 127 164 219 266 316 393
#     4   9  21  41  71  95 127 170 221 261 324 389
#     4  12  27  45  66  91 135 181 220 272 338 390
#     4  10  23  39  66  94 130 169 217 269 328 385
#     4  11  24  40  65  91 125 170 229 277 323 382
#     4  11  25  44  67  94 134 174 215 272 333 385
#
# _framework density 25.290935000000001
#
# number of rings (size 3 to 8) (size 9 to 14) (size 15 to 20)
#    0.000    1.500    1.250    2.250   12.250    1.000 
#    0.000    1.250    0.000    0.000    0.000    0.000 
#    0.000    0.000    0.000    0.000    0.000    0.000 
#
# Total GULP energy -89392.829420 kJ/mol
# GULP energy per Si atom -5587.051839 kJ/mol
# Density = 2.523337 g / cm^3
# Si number density = 25.290935 Si / 1000 Ang^3
#
#
#
# Elastic Constant Matrix: (Units=GPa)
#
#
# Indices 1 2 3 4 5 6 
#
# 1 92.1991 -2.9616 35.6497 -3.2166 -4.3846 0.6284
# 2 -2.9616 67.7634 33.0408 5.7563 -7.4679 -10.5411
# 3 35.6497 33.0408 185.7931 9.1415 -13.1044 -6.6624
# 4 -3.2166 5.7563 9.1415 42.4152 -2.8135 -6.7824
# 5 -4.3846 -7.4679 -13.1044 -2.8135 42.8176 -9.5450
# 6 0.6284 -10.5411 -6.6624 -6.7824 -9.5450 32.1546
#
#
#
# Elastic Compliance Matrix: (Units=1/GPa)
#
#
# Indices 1 2 3 4 5 6 
#
# 1 0.012007 0.001850 -0.002620 0.001348 0.000925 0.000388
# 2 0.001850 0.017702 -0.003002 -0.000383 0.003707 0.006165
# 3 -0.002620 -0.003002 0.006582 -0.001029 0.001288 0.000596
# 4 0.001348 -0.000383 -0.001029 0.025043 0.002675 0.005711
# 5 0.000925 0.003707 0.001288 0.002675 0.026898 0.010013
# 6 0.000388 0.006165 0.000596 0.005711 0.010013 0.037414
#
#
# Mechanical properties :
#
#
# Convention : Reuss Voigt Hill
#
# Bulk Modulus (GPa) = 34.78583 53.02372 43.90478
# Shear Modulus (GPa) = 35.02117 42.14592 38.58355
#
# Velocity S-wave (km/s) = 3.72524 4.08664 3.91011
# Velocity P-wave (km/s) = 5.68219 6.57864 6.14678
#
# Compressibility (1/GPa) = 0.02874733
#
# Stress axis : x y z
#
# Youngs Moduli (GPa) = 83.28508 56.49172 151.93659
#
# Poissons Ratio (x) = -0.10452 0.39808
# Poissons Ratio (y) = -0.15409 0.45605
# Poissons Ratio (z) = 0.21821 0.16957
#
# Static dielectric constant tensor:
#      x y z
#    x 2.123760 0.056800 0.076950 
#    y 0.056800 2.094220 0.077910 
#    z 0.076950 0.077910 2.017340 
# 
# From -- ./inp_files/46549.got.cif
#   From: 2010.05.17/outbox.cif.g08.bks.cpg/sg2_24_cif.got.tgz:46549.got - 2010.06.03 11:33:40.
