data_PCOD9036459
_publ_section_title
;
Structure prediction by ZEFSAII (Michael W. Deem and Ramdas Pophale) SiO2 
 PCOD9036459
Probable space group: P -1
;
_chemical_formula_sum "Si O2"
_cell_formula_units_Z 14
_cell_length_a 9.347919
_cell_length_b 9.444437
_cell_length_c 12.345085
_cell_angle_alpha 140.203174
_cell_angle_beta 101.179004
_cell_angle_gamma 78.089743
_cell_volume 681.502928
_symmetry_space_group_name_H-M "P -1"
_symmetry_group_IT_number 2
_symmetry_cell_setting 'triclinic'
loop_
_space_group_symop_operation_xyz
x,y,z
-x,-y,-z
loop_
_atom_site_type_symbol
_atom_site_label
_atom_site_fract_x
_atom_site_fract_y
_atom_site_fract_z
Si Si1 0.722154 0.370194 0.887857
Si Si2 0.999861 0.893382 0.256930
Si Si3 0.823585 0.803995 0.388803
Si Si4 0.514423 0.793958 0.101813
Si Si5 0.648286 0.249257 0.572805
Si Si6 0.359002 0.539503 0.740252
Si Si7 0.719241 0.167449 0.305993
O O1 0.608397 0.205859 0.823054
O O2 0.719290 0.360362 0.751312
O O3 0.886204 0.281717 0.889745
O O4 0.647938 0.612631 0.049812
O O5 0.928291 0.790265 0.291805
O O6 0.868020 0.004769 0.231162
O O7 0.092475 0.083362 0.434475
O O8 0.766283 0.577447 0.285397
O O9 0.688949 0.986859 0.444258
O O10 0.582383 0.018592 0.213221
O O11 0.438488 0.692078 0.926290
O O12 0.480172 0.343215 0.605346
O O13 0.718578 0.299743 0.497512
O O14 0.302065 0.680028 0.711394
#
# Coordination Sequence:
#
# PCOD9036459 Si02
#       7
#     2   2   2   2   2   2   2
#     4   9  20  39  62  86 111 152 199 241 281 333
#     4   9  20  37  59  87 114 148 192 246 285 332
#     4   9  19  36  62  85 113 149 198 243 280 333
#     4  10  23  37  60  89 115 152 195 238 285 340
#     4   9  20  35  61  88 108 145 200 244 278 322
#     4  11  22  38  58  86 123 155 187 235 290 350
#     4  11  23  37  59  89 122 150 187 238 296 345
#
# _framework density 20.542829999999999
#
# number of rings (size 3 to 8) (size 9 to 14) (size 15 to 20)
#    0.000    2.286    0.000    2.143   16.000    1.143 
#    0.000    0.714    3.143    0.000    0.000    0.000 
#    0.000    0.000    0.000    0.000    0.000    0.000 
#
# Total GULP energy -78200.480313 kJ/mol
# GULP energy per Si atom -5585.748594 kJ/mol
# Density = 2.049607 g / cm^3
# Si number density = 20.542830 Si / 1000 Ang^3
#
#
#
# Elastic Constant Matrix: (Units=GPa)
#
#
# Indices 1 2 3 4 5 6 
#
# 1 107.8421 50.4741 26.6507 3.8617 -15.5897 -9.8246
# 2 50.4741 119.6150 19.9546 -14.7793 10.0321 5.8458
# 3 26.6507 19.9546 57.4342 -8.5052 1.6476 0.3788
# 4 3.8617 -14.7793 -8.5052 23.0713 0.1894 3.7550
# 5 -15.5897 10.0321 1.6476 0.1894 30.4716 3.5917
# 6 -9.8246 5.8458 0.3788 3.7550 3.5917 18.3887
#
#
#
# Elastic Compliance Matrix: (Units=1/GPa)
#
#
# Indices 1 2 3 4 5 6 
#
# 1 0.020329 -0.010981 -0.008479 -0.016164 0.012768 0.015334
# 2 -0.010981 0.015870 0.002135 0.014841 -0.009624 -0.012107
# 3 -0.008479 0.002135 0.022635 0.012335 -0.005502 -0.007119
# 4 -0.016164 0.014841 0.012335 0.064185 -0.011334 -0.024501
# 5 0.012768 -0.009624 -0.005502 -0.011334 0.042412 0.004025
# 6 0.015334 -0.012107 -0.007119 -0.024501 0.004025 0.070787
#
#
# Mechanical properties :
#
#
# Convention : Reuss Voigt Hill
#
# Bulk Modulus (GPa) = 41.34769 53.22778 47.28773
# Shear Modulus (GPa) = 17.92571 26.90710 22.41641
#
# Velocity S-wave (km/s) = 2.95719 3.62305 3.30692
# Velocity P-wave (km/s) = 5.64191 6.59309 6.13596
#
# Compressibility (1/GPa) = 0.02418515
#
# Stress axis : x y z
#
# Youngs Moduli (GPa) = 49.19027 63.01089 44.17890
#
# Poissons Ratio (x) = 0.69194 0.37459
# Poissons Ratio (y) = 0.54017 -0.09434
# Poissons Ratio (z) = 0.41708 -0.13455
#
# Static dielectric constant tensor:
#      x y z
#    x 1.756950 -0.021720 0.005190 
#    y -0.021720 1.695080 0.001600 
#    z 0.005190 0.001600 1.817790 
# 
# From -- ./inp_files/154035.got.cif
#   From: 2010.05.17/outbox.cif.g08.bks.cpg/sg2_78_cif.got.tgz:154035.got - 2010.06.03 11:33:40.
