data_PCOD9036941
_publ_section_title
;
Structure prediction by ZEFSAII (Michael W. Deem and Ramdas Pophale) SiO2 
 PCOD9036941
Probable space group: P -1
;
_chemical_formula_sum "Si O2"
_cell_formula_units_Z 14
_cell_length_a 8.678132
_cell_length_b 15.039644
_cell_length_c 20.541488
_cell_angle_alpha 149.066661
_cell_angle_beta 146.019287
_cell_angle_gamma 53.009604
_cell_volume 712.011920
_symmetry_space_group_name_H-M "P -1"
_symmetry_group_IT_number 2
_symmetry_cell_setting 'triclinic'
loop_
_space_group_symop_operation_xyz
x,y,z
-x,-y,-z
loop_
_atom_site_type_symbol
_atom_site_label
_atom_site_fract_x
_atom_site_fract_y
_atom_site_fract_z
Si Si1 0.302942 0.086079 0.413200
Si Si2 0.754522 0.302215 0.810043
Si Si3 0.828955 0.521373 0.551212
Si Si4 0.217079 0.811126 0.767673
Si Si5 0.689976 0.372861 0.981794
Si Si6 0.693883 0.026835 0.394810
Si Si7 0.773385 0.405041 0.602638
O O1 0.477911 0.241155 0.625175
O O2 0.546159 0.078209 0.440040
O O3 0.049499 0.132168 0.316990
O O4 0.168490 0.884640 0.276088
O O5 0.684735 0.329530 0.876824
O O6 0.000000 0.500000 0.000000
O O7 0.733103 0.327989 0.355576
O O8 0.902406 0.486880 0.629050
O O9 0.547801 0.583401 0.494742
O O10 0.095057 0.680789 0.706608
O O11 0.500000 0.000000 0.000000
O O12 0.011750 0.479975 0.192276
O O13 0.500000 0.500000 0.000000
O O14 0.534278 0.172484 0.835345
O O15 0.746986 0.193372 0.467920
O O16 0.000000 0.000000 0.500000
#
# Coordination Sequence:
#
# PCOD9036941 Si02
#       7
#     2   2   2   2   2   2   2
#     4  10  23  42  63  98 134 168 221 274 324 398
#     4  10  23  39  66  93 129 172 210 265 338 386
#     4  10  26  44  69  95 127 179 225 275 324 384
#     4  11  25  45  68  96 133 178 228 268 332 387
#     4  11  24  39  64  99 129 170 215 262 337 397
#     4  11  22  40  68  95 137 172 208 275 338 395
#     4  11  23  45  67  95 134 170 223 276 324 392
#
# _framework density 19.662592
#
# number of rings (size 3 to 8) (size 9 to 14) (size 15 to 20)
#    0.000    1.429    2.857    0.857    6.000    3.429 
#    0.000    2.857    0.000    0.000    0.000    0.000 
#    0.000    0.000    0.000    0.000    0.000    0.000 
#
# Total GULP energy -78192.763273 kJ/mol
# GULP energy per Si atom -5585.197377 kJ/mol
# Density = 1.961784 g / cm^3
# Si number density = 19.662592 Si / 1000 Ang^3
#
#
#
# Elastic Constant Matrix: (Units=GPa)
#
#
# Indices 1 2 3 4 5 6 
#
# 1 68.0176 41.3647 37.9920 -2.1454 -9.2197 7.0429
# 2 41.3647 124.0685 54.5210 3.8759 4.2731 2.7130
# 3 37.9920 54.5210 140.1336 23.6394 -6.3949 11.0462
# 4 -2.1454 3.8759 23.6394 31.1169 5.9539 -0.1231
# 5 -9.2197 4.2731 -6.3949 5.9539 23.9285 1.4018
# 6 7.0429 2.7130 11.0462 -0.1231 1.4018 25.7376
#
#
#
# Elastic Compliance Matrix: (Units=1/GPa)
#
#
# Indices 1 2 3 4 5 6 
#
# 1 0.021980 -0.006105 -0.003436 0.003326 0.008067 -0.004320
# 2 -0.006105 0.011855 -0.003794 0.002174 -0.006165 0.002395
# 3 -0.003436 -0.003794 0.011726 -0.009669 0.005129 -0.004018
# 4 0.003326 0.002174 -0.009669 0.041814 -0.012323 0.003882
# 5 0.008067 -0.006165 0.005129 -0.012323 0.050823 -0.006586
# 6 -0.004320 0.002395 -0.004018 0.003882 -0.006586 0.041885
#
#
# Mechanical properties :
#
#
# Convention : Reuss Voigt Hill
#
# Bulk Modulus (GPa) = 52.93904 66.66390 59.80147
# Shear Modulus (GPa) = 23.46871 29.37938 26.42404
#
# Velocity S-wave (km/s) = 3.45856 3.86965 3.66987
# Velocity P-wave (km/s) = 6.55218 7.34460 6.95967
#
# Compressibility (1/GPa) = 0.01888965
#
# Stress axis : x y z
#
# Youngs Moduli (GPa) = 45.49606 84.35374 85.28392
#
# Poissons Ratio (x) = 0.51502 0.29304
# Poissons Ratio (y) = 0.27777 0.32355
# Poissons Ratio (z) = 0.15633 0.32002
#
# Static dielectric constant tensor:
#      x y z
#    x 1.685950 0.021760 0.024690 
#    y 0.021760 1.654910 0.017190 
#    z 0.024690 0.017190 1.689470 
# 
# From -- ./inp_files/271972.got.cif
#   From: 2010.05.17/outbox.cif.g08.bks.cpg/sg2_136_cif.got.tgz:271972.got - 2010.06.03 11:33:40.
