data_PCOD9036452
_publ_section_title
;
Structure prediction by ZEFSAII (Michael W. Deem and Ramdas Pophale) SiO2 
 PCOD9036452
Probable space group: P -1
;
_chemical_formula_sum "Si O2"
_cell_formula_units_Z 16
_cell_length_a 15.096402
_cell_length_b 22.176343
_cell_length_c 12.093600
_cell_angle_alpha 152.368367
_cell_angle_beta 140.629254
_cell_angle_gamma 24.502757
_cell_volume 767.149768
_symmetry_space_group_name_H-M "P -1"
_symmetry_group_IT_number 2
_symmetry_cell_setting 'triclinic'
loop_
_space_group_symop_operation_xyz
x,y,z
-x,-y,-z
loop_
_atom_site_type_symbol
_atom_site_label
_atom_site_fract_x
_atom_site_fract_y
_atom_site_fract_z
Si Si1 0.474629 0.301791 0.668568
Si Si2 0.069853 0.373106 0.086919
Si Si3 0.699056 0.782903 0.285281
Si Si4 0.176590 0.846283 0.595875
Si Si5 0.863747 0.881885 0.455760
Si Si6 0.682628 0.842852 0.826803
Si Si7 0.461219 0.220966 0.101944
Si Si8 0.210883 0.731125 0.201255
O O1 0.346229 0.277985 0.448196
O O2 0.634769 0.256518 0.661390
O O3 0.637490 0.120890 0.620517
O O4 0.326146 0.520643 0.927697
O O5 0.101451 0.306996 0.135657
O O6 0.253476 0.348788 0.189278
O O7 0.837661 0.597675 0.201409
O O8 0.124262 0.215196 0.801033
O O9 0.855118 0.783104 0.383979
O O10 0.500000 0.000000 0.500000
O O11 0.620212 0.749269 0.052192
O O12 0.401724 0.747298 0.692114
O O13 0.196698 0.742425 0.337843
O O14 0.056201 0.848475 0.577563
O O15 0.012708 0.074702 0.761957
O O16 0.500000 0.000000 0.000000
O O17 0.628817 0.985781 0.913865
#
# Coordination Sequence:
#
# PCOD9036452 Si02
#       8
#     2   2   2   2   2   2   2   2
#     4  10  17  34  56  91 129 163 202 255 304 365
#     4  10  21  38  65  88 121 166 204 249 310 366
#     4  11  24  44  62  88 122 164 210 258 313 368
#     4  10  21  36  59  90 128 163 208 248 312 372
#     4  10  20  39  62  86 121 167 207 249 308 376
#     4  10  17  32  63  95 122 153 207 252 306 357
#     4  10  20  39  64  92 122 157 209 253 302 374
#     4   9  20  31  54  88 136 164 195 250 322 363
#
# _framework density 20.856421999999998
#
# number of rings (size 3 to 8) (size 9 to 14) (size 15 to 20)
#    0.000    2.000    3.750    3.000    3.500    2.000 
#    0.000    5.625    0.000    0.000    0.000    0.000 
#    0.000    0.000    0.000    0.000    0.000    0.000 
#
# Total GULP energy -89371.861479 kJ/mol
# GULP energy per Si atom -5585.741342 kJ/mol
# Density = 2.080895 g / cm^3
# Si number density = 20.856422 Si / 1000 Ang^3
#
#
#
# Elastic Constant Matrix: (Units=GPa)
#
#
# Indices 1 2 3 4 5 6 
#
# 1 43.9621 24.2906 1.8690 -5.2546 10.5584 -5.8664
# 2 24.2906 97.0618 10.7991 3.0782 4.2495 5.0891
# 3 1.8690 10.7991 59.7668 6.1334 3.5879 -5.5472
# 4 -5.2546 3.0782 6.1334 25.0125 -11.2598 12.0824
# 5 10.5584 4.2495 3.5879 -11.2598 20.3168 1.5287
# 6 -5.8664 5.0891 -5.5472 12.0824 1.5287 33.4129
#
#
#
# Elastic Compliance Matrix: (Units=1/GPa)
#
#
# Indices 1 2 3 4 5 6 
#
# 1 0.032697 -0.007992 0.003616 -0.008218 -0.021380 0.011508
# 2 -0.007992 0.012680 -0.002629 0.000532 0.002567 -0.004081
# 3 0.003616 -0.002629 0.020572 -0.015682 -0.014465 0.010783
# 4 -0.008218 0.000532 -0.015682 0.086321 0.057626 -0.037978
# 5 -0.021380 0.002567 -0.014465 0.057626 0.096680 -0.031808
# 6 0.011508 -0.004081 0.010783 -0.037978 -0.031808 0.049549
#
#
# Mechanical properties :
#
#
# Convention : Reuss Voigt Hill
#
# Bulk Modulus (GPa) = 19.25257 30.52312 24.88784
# Shear Modulus (GPa) = 15.15976 26.67056 20.91516
#
# Velocity S-wave (km/s) = 2.69896 3.57987 3.17016
# Velocity P-wave (km/s) = 4.35472 5.63506 5.03575
#
# Compressibility (1/GPa) = 0.05194113
#
# Stress axis : x y z
#
# Youngs Moduli (GPa) = 30.58366 78.86499 48.60953
#
# Poissons Ratio (x) = 0.63028 -0.17579
# Poissons Ratio (y) = 0.24442 0.12778
# Poissons Ratio (z) = -0.11060 0.20731
#
# Static dielectric constant tensor:
#      x y z
#    x 1.779510 -0.017260 0.028600 
#    y -0.017260 1.781420 0.005540 
#    z 0.028600 0.005540 1.719350 
# 
# From -- ./inp_files/539417.got.cif
#   From: 2010.05.17/outbox.cif.g08.bks.cpg/sg2_270_cif.got.tgz:539417.got - 2010.06.03 11:33:40.
