data_PCOD9036453
_publ_section_title
;
Structure prediction by ZEFSAII (Michael W. Deem and Ramdas Pophale) SiO2 
 PCOD9036453
Probable space group: P -1
;
_chemical_formula_sum "Si O2"
_cell_formula_units_Z 14
_cell_length_a 6.880018
_cell_length_b 13.149382
_cell_length_c 10.597699
_cell_angle_alpha 131.220851
_cell_angle_beta 118.154046
_cell_angle_gamma 66.221753
_cell_volume 629.640683
_symmetry_space_group_name_H-M "P -1"
_symmetry_group_IT_number 2
_symmetry_cell_setting 'triclinic'
loop_
_space_group_symop_operation_xyz
x,y,z
-x,-y,-z
loop_
_atom_site_type_symbol
_atom_site_label
_atom_site_fract_x
_atom_site_fract_y
_atom_site_fract_z
Si Si1 0.862872 0.558032 0.128686
Si Si2 0.007629 0.119739 0.996610
Si Si3 0.605944 0.341142 0.022481
Si Si4 0.070738 0.711274 0.531645
Si Si5 0.681830 0.798564 0.639724
Si Si6 0.338539 0.956344 0.806179
Si Si7 0.369322 0.505023 0.595136
O O1 0.762058 0.436975 0.074554
O O2 0.023112 0.636811 0.327716
O O3 0.634104 0.658675 0.112979
O O4 0.000000 0.500000 0.000000
O O5 0.120642 0.064383 0.854645
O O6 0.172455 0.210010 0.192765
O O7 0.763972 0.199607 0.970968
O O8 0.000000 0.000000 0.000000
O O9 0.548344 0.408226 0.196089
O O10 0.850252 0.809070 0.586698
O O11 0.261878 0.807437 0.677895
O O12 0.133426 0.590918 0.553730
O O13 0.488151 0.925250 0.702185
O O14 0.612571 0.649579 0.478970
O O15 0.500000 0.000000 0.000000
O O16 0.500000 0.500000 0.500000
#
# Coordination Sequence:
#
# PCOD9036453 Si02
#       7
#     2   2   2   2   2   2   2
#     4  11  26  45  67  98 139 187 231 278 345 411
#     4  11  21  41  64  99 138 173 220 280 341 404
#     4  11  24  44  66  99 142 178 225 287 342 408
#     4  12  21  41  66  96 135 173 224 287 346 397
#     4  11  21  36  62  97 132 167 217 281 343 399
#     4  10  23  37  59  96 131 171 214 271 333 405
#     4  12  21  36  66 103 129 164 224 293 354 394
#
# _framework density 22.234902999999999
#
# number of rings (size 3 to 8) (size 9 to 14) (size 15 to 20)
#    0.000    0.857    5.714    2.143    0.000    0.000 
#    5.143    0.714    0.000    1.714    0.000    0.000 
#    0.000    0.000    0.000    0.000    0.000    0.000 
#
# Total GULP energy -78108.294822 kJ/mol
# GULP energy per Si atom -5579.163916 kJ/mol
# Density = 2.218430 g / cm^3
# Si number density = 22.234903 Si / 1000 Ang^3
#
#
#
# Elastic Constant Matrix: (Units=GPa)
#
#
# Indices 1 2 3 4 5 6 
#
# 1 88.5417 6.5664 10.5157 14.2893 -7.9284 -7.8222
# 2 6.5664 78.3411 9.5338 5.0113 10.3095 -24.2572
# 3 10.5157 9.5338 98.8809 8.5237 11.6479 0.4590
# 4 14.2893 5.0113 8.5237 25.3083 -7.4205 -10.2931
# 5 -7.9284 10.3095 11.6479 -7.4205 42.1926 8.4289
# 6 -7.8222 -24.2572 0.4590 -10.2931 8.4289 29.4770
#
#
#
# Elastic Compliance Matrix: (Units=1/GPa)
#
#
# Indices 1 2 3 4 5 6 
#
# 1 0.012610 -0.000734 -0.000947 -0.006098 0.001710 0.000139
# 2 -0.000734 0.019866 -0.001174 0.002352 -0.008112 0.019313
# 3 -0.000947 -0.001174 0.011155 -0.004846 -0.003401 -0.002111
# 4 -0.006098 0.002352 -0.004846 0.052734 0.005446 0.017250
# 5 0.001710 -0.008112 -0.003401 0.005446 0.030496 -0.012988
# 6 0.000139 0.019313 -0.002111 0.017250 -0.012988 0.059625
#
#
# Mechanical properties :
#
#
# Convention : Reuss Voigt Hill
#
# Bulk Modulus (GPa) = 26.36953 35.44394 30.90674
# Shear Modulus (GPa) = 24.40969 35.33876 29.87423
#
# Velocity S-wave (km/s) = 3.31692 3.99097 3.66946
# Velocity P-wave (km/s) = 5.15311 6.10020 5.64655
#
# Compressibility (1/GPa) = 0.03792255
#
# Stress axis : x y z
#
# Youngs Moduli (GPa) = 79.29903 50.33689 89.64413
#
# Poissons Ratio (x) = 0.03693 0.08487
# Poissons Ratio (y) = 0.05818 0.10526
# Poissons Ratio (z) = 0.07508 0.05911
#
# Static dielectric constant tensor:
#      x y z
#    x 1.937470 -0.046220 0.027830 
#    y -0.046220 1.871930 0.025140 
#    z 0.027830 0.025140 1.828390 
# 
# From -- ./inp_files/367181.got.cif
#   From: 2010.05.17/outbox.cif.g08.bks.cpg/sg2_184_cif.got.tgz:367181.got - 2010.06.03 11:33:40.
