data_PCOD9036418
_publ_section_title
;
Structure prediction by ZEFSAII (Michael W. Deem and Ramdas Pophale) SiO2 
 PCOD9036418
Probable space group: P -1
;
_chemical_formula_sum "Si O2"
_cell_formula_units_Z 16
_cell_length_a 17.864833
_cell_length_b 10.780088
_cell_length_c 8.505769
_cell_angle_alpha 119.867042
_cell_angle_beta 128.398080
_cell_angle_gamma 34.458775
_cell_volume 726.013187
_symmetry_space_group_name_H-M "P -1"
_symmetry_group_IT_number 2
_symmetry_cell_setting 'triclinic'
loop_
_space_group_symop_operation_xyz
x,y,z
-x,-y,-z
loop_
_atom_site_type_symbol
_atom_site_label
_atom_site_fract_x
_atom_site_fract_y
_atom_site_fract_z
Si Si1 0.502688 0.233291 0.112093
Si Si2 0.549772 0.907366 0.751578
Si Si3 0.664732 0.263623 0.527242
Si Si4 0.746968 0.743600 0.617214
Si Si5 0.933710 0.135544 0.746777
Si Si6 0.346931 0.614942 0.928892
Si Si7 0.161062 0.045775 0.141341
Si Si8 0.111777 0.699704 0.540712
O O1 0.450849 0.210540 0.187161
O O2 0.639571 0.179400 0.300851
O O3 0.377985 0.475696 0.028825
O O4 0.543876 0.067135 0.932779
O O5 0.683565 0.755175 0.707052
O O6 0.398830 0.063084 0.554798
O O7 0.500000 0.500000 0.500000
O O8 0.765554 0.284879 0.638261
O O9 0.748629 0.089615 0.668456
O O10 0.848130 0.510166 0.519723
O O11 0.833565 0.792697 0.780776
O O12 0.956898 0.196303 0.653863
O O13 0.015032 0.890959 0.665519
O O14 0.003881 0.146573 0.986254
O O15 0.264563 0.613042 0.693052
O O16 0.500000 0.500000 0.000000
O O17 0.250320 0.858277 0.006695
#
# Coordination Sequence:
#
# PCOD9036418 Si02
#       8
#     2   2   2   2   2   2   2   2
#     4  11  21  39  61 101 139 175 219 281 346 384
#     4  10  23  36  62 101 144 169 221 293 327 396
#     4  12  24  40  72  99 129 170 225 280 334 399
#     4  11  22  40  67  95 134 181 229 271 339 393
#     4  10  25  46  64  95 137 171 227 277 338 399
#     4  11  21  35  64  98 135 175 227 276 336 390
#     4  11  24  41  62 101 135 174 220 277 334 401
#     4  10  23  42  67  88 130 184 221 275 331 403
#
# _framework density 22.038166
#
# number of rings (size 3 to 8) (size 9 to 14) (size 15 to 20)
#    0.000    1.250    3.750    1.875    3.500    2.500 
#    0.000    0.625    0.000    0.000    0.000    0.000 
#    0.000    0.000    0.000    0.000    0.000    0.000 
#
# Total GULP energy -89455.907870 kJ/mol
# GULP energy per Si atom -5590.994242 kJ/mol
# Density = 2.198801 g / cm^3
# Si number density = 22.038166 Si / 1000 Ang^3
#
#
#
# Elastic Constant Matrix: (Units=GPa)
#
#
# Indices 1 2 3 4 5 6 
#
# 1 66.0880 26.9253 30.4254 -4.5321 8.7490 1.1846
# 2 26.9253 78.3019 32.7605 9.3047 19.1996 11.0486
# 3 30.4254 32.7605 134.9907 -1.3924 24.7219 1.4893
# 4 -4.5321 9.3047 -1.3924 38.1438 8.5771 7.6109
# 5 8.7490 19.1996 24.7219 8.5771 39.8351 -3.4955
# 6 1.1846 11.0486 1.4893 7.6109 -3.4955 25.4029
#
#
#
# Elastic Compliance Matrix: (Units=1/GPa)
#
#
# Indices 1 2 3 4 5 6 
#
# 1 0.019062 -0.005820 -0.002792 0.003520 -0.000345 0.000704
# 2 -0.005820 0.018608 -0.001905 -0.002193 -0.006736 -0.007980
# 3 -0.002792 -0.001905 0.009391 0.001687 -0.004725 -0.000748
# 4 0.003520 -0.002193 0.001687 0.031045 -0.008303 -0.009753
# 5 -0.000345 -0.006736 -0.004725 -0.008303 0.034059 0.010397
# 6 0.000704 -0.007980 -0.000748 -0.009753 0.010397 0.047200
#
#
# Mechanical properties :
#
#
# Convention : Reuss Voigt Hill
#
# Bulk Modulus (GPa) = 38.42263 51.06699 44.74481
# Shear Modulus (GPa) = 26.44480 33.29432 29.86956
#
# Velocity S-wave (km/s) = 3.46779 3.89106 3.68551
# Velocity P-wave (km/s) = 5.78849 6.58859 6.20146
#
# Compressibility (1/GPa) = 0.02602633
#
# Stress axis : x y z
#
# Youngs Moduli (GPa) = 52.45966 53.74171 106.48847
#
# Poissons Ratio (x) = 0.31275 0.29736
# Poissons Ratio (y) = 0.30529 0.20287
# Poissons Ratio (z) = 0.14649 0.10239
#
# Static dielectric constant tensor:
#      x y z
#    x 1.837070 -0.011160 -0.014160 
#    y -0.011160 1.814450 -0.011900 
#    z -0.014160 -0.011900 1.829590 
# 
# From -- ./inp_files/346403.got.cif
#   From: 2010.05.17/outbox.cif.g08.bks.cpg/sg2_174_cif.got.tgz:346403.got - 2010.06.03 11:33:40.
