data_PCOD9036927
_publ_section_title
;
Structure prediction by ZEFSAII (Michael W. Deem and Ramdas Pophale) SiO2 
 PCOD9036927
Probable space group: P -1
;
_chemical_formula_sum "Si O2"
_cell_formula_units_Z 16
_cell_length_a 13.646957
_cell_length_b 11.252815
_cell_length_c 14.468155
_cell_angle_alpha 107.419064
_cell_angle_beta 19.641366
_cell_angle_gamma 106.960226
_cell_volume 712.246747
_symmetry_space_group_name_H-M "P -1"
_symmetry_group_IT_number 2
_symmetry_cell_setting 'triclinic'
loop_
_space_group_symop_operation_xyz
x,y,z
-x,-y,-z
loop_
_atom_site_type_symbol
_atom_site_label
_atom_site_fract_x
_atom_site_fract_y
_atom_site_fract_z
Si Si1 0.948776 0.754755 0.195013
Si Si2 0.339658 0.628486 0.690684
Si Si3 0.927234 0.383982 0.262399
Si Si4 0.495572 0.338084 0.870482
Si Si5 0.964394 0.341315 0.716617
Si Si6 0.287387 0.838824 0.496155
Si Si7 0.319560 0.383940 0.241500
Si Si8 0.142266 0.002782 0.975816
O O1 0.610689 0.727307 0.465404
O O2 0.966644 0.760137 0.291341
O O3 0.082000 0.871903 0.048878
O O4 0.161193 0.644128 0.947560
O O5 0.500000 0.500000 0.500000
O O6 0.095515 0.641800 0.831648
O O7 0.876460 0.528974 0.361179
O O8 0.687246 0.287150 0.495017
O O9 0.225117 0.357004 0.045155
O O10 0.357047 0.331504 0.093522
O O11 0.675185 0.219637 0.652019
O O12 0.694314 0.465492 0.719767
O O13 0.071393 0.325349 0.513256
O O14 0.621606 0.360121 0.020393
O O15 0.999385 0.898143 0.805790
O O16 0.529816 0.947187 0.318201
O O17 0.000000 0.000000 0.000000
#
# Coordination Sequence:
#
# PCOD9036927 Si02
#       8
#     2   2   2   2   2   2   2   2
#     4  12  26  45  64  94 134 180 221 260 334 387
#     4  12  25  40  65  96 134 170 212 270 328 401
#     4  11  23  38  65  99 134 163 219 266 337 384
#     4  10  23  40  67 102 135 171 212 279 333 399
#     4  11  23  39  65  93 134 171 207 269 331 407
#     4  12  23  41  67  93 129 169 224 271 324 377
#     4  10  23  39  66 100 138 165 211 270 354 389
#     4  12  26  45  64  92 131 182 225 273 310 379
#
# _framework density 22.464123000000001
#
# number of rings (size 3 to 8) (size 9 to 14) (size 15 to 20)
#    0.000    0.750    3.750    3.750    3.500    1.500 
#    0.000    0.000    0.000    4.500    0.000    0.000 
#    0.000    0.000    0.000    0.000    0.000    0.000 
#
# Total GULP energy -89458.704637 kJ/mol
# GULP energy per Si atom -5591.169040 kJ/mol
# Density = 2.241299 g / cm^3
# Si number density = 22.464123 Si / 1000 Ang^3
#
#
#
# Elastic Constant Matrix: (Units=GPa)
#
#
# Indices 1 2 3 4 5 6 
#
# 1 95.2415 14.7893 18.1950 3.0431 6.7886 -7.0184
# 2 14.7893 73.5731 12.7877 -11.1413 4.2176 -10.7722
# 3 18.1950 12.7877 87.3223 -5.0422 14.3773 -0.3413
# 4 3.0431 -11.1413 -5.0422 41.3278 9.1776 13.1632
# 5 6.7886 4.2176 14.3773 9.1776 38.4056 -6.0035
# 6 -7.0184 -10.7722 -0.3413 13.1632 -6.0035 25.5419
#
#
#
# Elastic Compliance Matrix: (Units=1/GPa)
#
#
# Indices 1 2 3 4 5 6 
#
# 1 0.011599 -0.001805 -0.002373 -0.002999 0.000383 0.004029
# 2 -0.001805 0.015335 -0.001552 0.002898 -0.000809 0.004267
# 3 -0.002373 -0.001552 0.013427 0.004306 -0.006217 -0.004808
# 4 -0.002999 0.002898 0.004306 0.035246 -0.013071 -0.020780
# 5 0.000383 -0.000809 -0.006217 -0.013071 0.033753 0.014351
# 6 0.004029 0.004267 -0.004808 -0.020780 0.014351 0.056076
#
#
# Mechanical properties :
#
#
# Convention : Reuss Voigt Hill
#
# Bulk Modulus (GPa) = 34.60210 38.63122 36.61666
# Shear Modulus (GPa) = 26.80547 35.07940 30.94243
#
# Velocity S-wave (km/s) = 3.45810 3.95596 3.71538
# Velocity P-wave (km/s) = 5.60191 6.17255 5.89414
#
# Compressibility (1/GPa) = 0.02889998
#
# Stress axis : x y z
#
# Youngs Moduli (GPa) = 86.21661 65.21217 74.47627
#
# Poissons Ratio (x) = 0.11772 0.17672
# Poissons Ratio (y) = 0.15563 0.11560
# Poissons Ratio (z) = 0.20458 0.10122
#
# Static dielectric constant tensor:
#      x y z
#    x 1.864040 0.010170 0.002620 
#    y 0.010170 1.885730 0.033780 
#    z 0.002620 0.033780 1.869290 
# 
# From -- ./inp_files/532541.got.cif
#   From: 2010.05.17/outbox.cif.g08.bks.cpg/sg2_267_cif.got.tgz:532541.got - 2010.06.03 11:33:40.
