data_PCOD9036524
_publ_section_title
;
Structure prediction by ZEFSAII (Michael W. Deem and Ramdas Pophale) SiO2 
 PCOD9036524
Probable space group: P -1
;
_chemical_formula_sum "Si O2"
_cell_formula_units_Z 16
_cell_length_a 9.367149
_cell_length_b 12.111300
_cell_length_c 14.384464
_cell_angle_alpha 150.269945
_cell_angle_beta 93.623818
_cell_angle_gamma 98.634010
_cell_volume 735.113677
_symmetry_space_group_name_H-M "P -1"
_symmetry_group_IT_number 2
_symmetry_cell_setting 'triclinic'
loop_
_space_group_symop_operation_xyz
x,y,z
-x,-y,-z
loop_
_atom_site_type_symbol
_atom_site_label
_atom_site_fract_x
_atom_site_fract_y
_atom_site_fract_z
Si Si1 0.294485 0.470131 0.766522
Si Si2 0.490630 0.675284 0.211986
Si Si3 0.951269 0.099629 0.479496
Si Si4 0.444963 0.719937 0.766368
Si Si5 0.638401 0.430066 0.537812
Si Si6 0.208093 0.561682 0.261716
Si Si7 0.979477 0.264833 0.891203
Si Si8 0.376531 0.932799 0.246685
O O1 0.361432 0.297633 0.698006
O O2 0.111334 0.334733 0.636658
O O3 0.381212 0.564566 0.742634
O O4 0.336797 0.705067 0.007339
O O5 0.344411 0.571898 0.203298
O O6 0.458737 0.881470 0.304074
O O7 0.500000 0.500000 0.000000
O O8 0.813620 0.185548 0.551320
O O9 0.921419 0.881504 0.247583
O O10 0.000000 0.000000 0.500000
O O11 0.587833 0.654316 0.691751
O O12 0.326784 0.637751 0.613544
O O13 0.500000 0.000000 0.000000
O O14 0.761928 0.491572 0.670868
O O15 0.492780 0.183611 0.388163
O O16 0.047663 0.367143 0.068698
O O17 0.796228 0.086185 0.750841
O O18 0.000000 0.500000 0.000000
#
# Coordination Sequence:
#
# PCOD9036524 Si02
#       8
#     2   2   2   2   2   2   2   2
#     4  11  22  43  70 105 137 185 232 290 351 417
#     4  10  23  37  68 103 144 175 225 283 353 417
#     4  12  25  40  70 100 146 192 226 277 361 429
#     4  11  23  46  72  99 137 179 244 299 348 402
#     4  11  26  42  72 105 133 185 238 296 352 406
#     4  12  25  44  64 105 145 177 238 285 345 424
#     4  12  23  41  63  95 144 193 224 276 349 430
#     4  11  21  41  68 102 143 180 229 285 354 429
#
# _framework density 21.765339999999998
#
# number of rings (size 3 to 8) (size 9 to 14) (size 15 to 20)
#    0.000    0.750    6.250    0.750    3.500    2.500 
#    0.000    0.625    0.000    7.500    0.000    0.000 
#    0.000    0.000    0.000    0.000    0.000    0.000 
#
# Total GULP energy -89421.071477 kJ/mol
# GULP energy per Si atom -5588.816967 kJ/mol
# Density = 2.171580 g / cm^3
# Si number density = 21.765340 Si / 1000 Ang^3
#
#
#
# Elastic Constant Matrix: (Units=GPa)
#
#
# Indices 1 2 3 4 5 6 
#
# 1 81.0930 11.3269 31.1840 -14.2704 -9.8266 -12.9086
# 2 11.3269 119.5854 36.5008 -34.1889 1.0984 -19.4746
# 3 31.1840 36.5008 129.8262 -23.2586 -15.5378 -15.1624
# 4 -14.2704 -34.1889 -23.2586 40.1376 -1.2603 1.9013
# 5 -9.8266 1.0984 -15.5378 -1.2603 42.7811 -2.5935
# 6 -12.9086 -19.4746 -15.1624 1.9013 -2.5935 29.3851
#
#
#
# Elastic Compliance Matrix: (Units=1/GPa)
#
#
# Indices 1 2 3 4 5 6 
#
# 1 0.015331 0.001863 -0.001990 0.005663 0.003334 0.006870
# 2 0.001863 0.012888 -0.001168 0.010594 0.000477 0.008113
# 3 -0.001990 -0.001168 0.010091 0.004086 0.003577 0.003609
# 4 0.005663 0.010594 0.004086 0.038000 0.004210 0.009530
# 5 0.003334 0.000477 0.003577 0.004210 0.025893 0.005639
# 6 0.006870 0.008113 0.003609 0.009530 0.005639 0.044169
#
#
# Mechanical properties :
#
#
# Convention : Reuss Voigt Hill
#
# Bulk Modulus (GPa) = 27.99728 54.28090 41.13909
# Shear Modulus (GPa) = 31.08101 39.22697 35.15399
#
# Velocity S-wave (km/s) = 3.78299 4.24992 4.02324
# Velocity P-wave (km/s) = 5.65443 7.00540 6.36586
#
# Compressibility (1/GPa) = 0.03571775
#
# Stress axis : x y z
#
# Youngs Moduli (GPa) = 65.22786 77.59148 99.10060
#
# Poissons Ratio (x) = -0.14452 0.19723
# Poissons Ratio (y) = -0.12150 0.11579
# Poissons Ratio (z) = 0.12981 0.09066
#
# Static dielectric constant tensor:
#      x y z
#    x 1.840450 0.019090 -0.040400 
#    y 0.019090 1.780930 0.003970 
#    z -0.040400 0.003970 1.712010 
# 
# From -- ./inp_files/501231.got.cif
#   From: 2010.05.17/outbox.cif.g08.bks.cpg/sg2_251_cif.got.tgz:501231.got - 2010.06.03 11:33:40.
