data_PCOD9036708
_publ_section_title
;
Structure prediction by ZEFSAII (Michael W. Deem and Ramdas Pophale) SiO2 
 PCOD9036708
Probable space group: P -1
;
_chemical_formula_sum "Si O2"
_cell_formula_units_Z 10
_cell_length_a 9.205290
_cell_length_b 15.031856
_cell_length_c 12.333174
_cell_angle_alpha 148.515465
_cell_angle_beta 30.804454
_cell_angle_gamma 139.750919
_cell_volume 453.406792
_symmetry_space_group_name_H-M "P -1"
_symmetry_group_IT_number 2
_symmetry_cell_setting 'triclinic'
loop_
_space_group_symop_operation_xyz
x,y,z
-x,-y,-z
loop_
_atom_site_type_symbol
_atom_site_label
_atom_site_fract_x
_atom_site_fract_y
_atom_site_fract_z
Si Si1 0.027194 0.456976 0.311699
Si Si2 0.657108 0.008681 0.228359
Si Si3 0.278695 0.977190 0.232709
Si Si4 0.568069 0.312403 0.300970
Si Si5 0.418571 0.738986 0.275587
O O1 0.116601 0.621057 0.347748
O O2 0.000000 0.500000 0.500000
O O3 0.741583 0.353590 0.343288
O O4 0.301073 0.357006 0.014698
O O5 0.541312 0.987278 0.159271
O O6 0.590834 0.175816 0.511029
O O7 0.471111 0.867592 0.275596
O O8 0.000000 0.000000 0.000000
O O9 0.331407 0.147505 0.300346
O O10 0.000000 0.000000 0.500000
O O11 0.238553 0.788772 0.008481
O O12 0.500000 0.500000 0.500000
#
# Coordination Sequence:
#
# PCOD9036708 Si02
#       5
#     2   2   2   2   2
#     4  11  23  43  66 100 137 174 224 286 340 405
#     4  11  23  42  69  98 133 181 227 282 341 404
#     4  11  26  47  69  98 143 183 227 284 350 409
#     4  11  27  44  70 101 140 179 232 279 345 414
#     4  10  23  38  69  98 132 171 234 274 338 411
#
# _framework density 22.055250000000001
#
# number of rings (size 3 to 8) (size 9 to 14) (size 15 to 20)
#    0.000    1.200    0.000    4.800    8.400    5.600 
#    0.000    0.000    0.000    0.000    0.000    0.000 
#    0.000    0.000    0.000    0.000    0.000    0.000 
#
# Total GULP energy -55742.036743 kJ/mol
# GULP energy per Si atom -5574.203674 kJ/mol
# Density = 2.200505 g / cm^3
# Si number density = 22.055250 Si / 1000 Ang^3
#
#
#
# Elastic Constant Matrix: (Units=GPa)
#
#
# Indices 1 2 3 4 5 6 
#
# 1 98.9686 14.8341 44.2469 9.5189 15.2458 4.7068
# 2 14.8341 108.1686 28.3085 17.3711 2.8543 -14.1147
# 3 44.2469 28.3085 171.6255 6.9179 24.2720 -2.7011
# 4 9.5189 17.3711 6.9179 38.4176 3.1868 2.3425
# 5 15.2458 2.8543 24.2720 3.1868 29.1237 -3.8469
# 6 4.7068 -14.1147 -2.7011 2.3425 -3.8469 25.5024
#
#
#
# Elastic Compliance Matrix: (Units=1/GPa)
#
#
# Indices 1 2 3 4 5 6 
#
# 1 0.012380 -0.001225 -0.002315 -0.001470 -0.004771 -0.003793
# 2 -0.001225 0.011571 -0.001602 -0.005283 0.002386 0.007306
# 3 -0.002315 -0.001602 0.007352 0.000405 -0.004862 -0.000451
# 4 -0.001470 -0.005283 0.000405 0.029311 -0.003018 -0.005758
# 5 -0.004771 0.002386 -0.004862 -0.003018 0.042080 0.008311
# 6 -0.003793 0.007306 -0.000451 -0.005758 0.008311 0.045690
#
#
# Mechanical properties :
#
#
# Convention : Reuss Voigt Hill
#
# Bulk Modulus (GPa) = 47.57834 61.50462 54.54148
# Shear Modulus (GPa) = 30.17961 38.03360 34.10661
#
# Velocity S-wave (km/s) = 3.70315 4.15718 3.93672
# Velocity P-wave (km/s) = 6.31693 7.14073 6.74143
#
# Compressibility (1/GPa) = 0.02101797
#
# Stress axis : x y z
#
# Youngs Moduli (GPa) = 80.77803 86.42355 136.01715
#
# Poissons Ratio (x) = 0.10585 0.31492
# Poissons Ratio (y) = 0.09893 0.21793
# Poissons Ratio (z) = 0.18702 0.13847
#
# Static dielectric constant tensor:
#      x y z
#    x 1.787630 -0.030910 -0.013210 
#    y -0.030910 2.008630 0.103120 
#    z -0.013210 0.103120 1.835250 
# 
# From -- ./inp_files/24894.got.cif
#   From: 2010.05.17/outbox.cif.g08.bks.cpg/sg2_13_cif.got.tgz:24894.got - 2010.06.03 11:33:40.
