data_PCOD9036382
_publ_section_title
;
Structure prediction by ZEFSAII (Michael W. Deem and Ramdas Pophale) SiO2 
 PCOD9036382
Probable space group: P -1
;
_chemical_formula_sum "Si O2"
_cell_formula_units_Z 14
_cell_length_a 16.140191
_cell_length_b 13.961551
_cell_length_c 13.863257
_cell_angle_alpha 158.592669
_cell_angle_beta 127.369657
_cell_angle_gamma 43.645872
_cell_volume 758.870208
_symmetry_space_group_name_H-M "P -1"
_symmetry_group_IT_number 2
_symmetry_cell_setting 'triclinic'
loop_
_space_group_symop_operation_xyz
x,y,z
-x,-y,-z
loop_
_atom_site_type_symbol
_atom_site_label
_atom_site_fract_x
_atom_site_fract_y
_atom_site_fract_z
Si Si1 0.837607 0.440945 0.340683
Si Si2 0.099406 0.277757 0.970288
Si Si3 0.062543 0.157407 0.499597
Si Si4 0.207087 0.709630 0.628279
Si Si5 0.175007 0.732347 0.360508
Si Si6 0.585817 0.631674 0.701282
Si Si7 0.866849 0.948728 0.764408
O O1 0.777408 0.385521 0.339040
O O2 0.804508 0.787199 0.621807
O O3 0.986271 0.246330 0.285806
O O4 0.816609 0.290329 0.090939
O O5 0.140652 0.486980 0.141809
O O6 0.972753 0.530111 0.173010
O O7 0.188223 0.041173 0.896021
O O8 0.108464 0.037426 0.670618
O O9 0.135200 0.088673 0.386767
O O10 0.926142 0.232899 0.443554
O O11 0.133686 0.870170 0.354357
O O12 0.319710 0.459256 0.406843
O O13 0.321563 0.551247 0.315367
O O14 0.500000 0.500000 0.500000
O O15 0.500000 0.000000 0.000000
#
# Coordination Sequence:
#
# PCOD9036382 Si02
#       7
#     2   2   2   2   2   2   2
#     4   9  19  33  48  75 107 144 170 213 263 312
#     4  11  21  33  49  82 107 143 179 206 258 330
#     4  11  22  34  56  83 112 146 175 214 273 320
#     4  10  23  35  59  78 112 144 181 217 271 319
#     4  11  24  36  55  77 112 146 177 219 266 323
#     4  11  23  39  54  78 106 140 185 223 258 314
#     4   9  20  30  49  76 111 136 175 212 256 324
#
# _framework density 18.448478000000001
#
# number of rings (size 3 to 8) (size 9 to 14) (size 15 to 20)
#    0.000    1.714    2.857    2.571   12.000    0.000 
#    0.000    0.000    0.000    0.000    0.000    6.000 
#    0.000    0.000    0.000    0.000    0.000    0.000 
#
# Total GULP energy -78053.571674 kJ/mol
# GULP energy per Si atom -5575.255120 kJ/mol
# Density = 1.840649 g / cm^3
# Si number density = 18.448478 Si / 1000 Ang^3
#
#
#
# Elastic Constant Matrix: (Units=GPa)
#
#
# Indices 1 2 3 4 5 6 
#
# 1 86.9044 43.7314 43.8544 5.8458 4.0308 23.1036
# 2 43.7314 78.1058 38.8667 4.8363 -4.1219 13.7190
# 3 43.8544 38.8667 125.8077 4.4654 16.1682 10.8684
# 4 5.8458 4.8363 4.4654 21.6692 -2.9795 -4.1112
# 5 4.0308 -4.1219 16.1682 -2.9795 26.4332 0.5375
# 6 23.1036 13.7190 10.8684 -4.1112 0.5375 34.7278
#
#
#
# Elastic Compliance Matrix: (Units=1/GPa)
#
#
# Indices 1 2 3 4 5 6 
#
# 1 0.020160 -0.007745 -0.003243 -0.005294 -0.002693 -0.009922
# 2 -0.007745 0.019897 -0.004144 -0.000876 0.006752 -0.001619
# 3 -0.003243 -0.004144 0.011329 -0.001497 -0.007254 0.000184
# 4 -0.005294 -0.000876 -0.001497 0.051008 0.007127 0.010265
# 5 -0.002693 0.006752 -0.007254 0.007127 0.044503 0.001549
# 6 -0.009922 -0.001619 0.000184 0.010265 0.001549 0.037169
#
#
# Mechanical properties :
#
#
# Convention : Reuss Voigt Hill
#
# Bulk Modulus (GPa) = 47.34713 60.41366 53.88039
# Shear Modulus (GPa) = 22.58648 27.52374 25.05511
#
# Velocity S-wave (km/s) = 3.50280 3.86673 3.68926
# Velocity P-wave (km/s) = 6.48688 7.26318 6.88598
#
# Compressibility (1/GPa) = 0.02112061
#
# Stress axis : x y z
#
# Youngs Moduli (GPa) = 49.60332 50.26001 88.27022
#
# Poissons Ratio (x) = 0.38926 0.28630
# Poissons Ratio (y) = 0.38418 0.36578
# Poissons Ratio (z) = 0.16089 0.20827
#
# Static dielectric constant tensor:
#      x y z
#    x 1.647860 0.000940 0.027990 
#    y 0.000940 1.682330 -0.038800 
#    z 0.027990 -0.038800 1.691930 
# 
# From -- ./inp_files/538782.got.cif
#   From: 2010.05.17/outbox.cif.g08.bks.cpg/sg2_270_cif.got.tgz:538782.got - 2010.06.03 11:33:40.
