data_PCOD9036988
_publ_section_title
;
Structure prediction by ZEFSAII (Michael W. Deem and Ramdas Pophale) SiO2 
 PCOD9036988
Probable space group: P -1
;
_chemical_formula_sum "Si O2"
_cell_formula_units_Z 14
_cell_length_a 9.086700
_cell_length_b 11.931018
_cell_length_c 11.616442
_cell_angle_alpha 73.757767
_cell_angle_beta 140.582728
_cell_angle_gamma 128.005748
_cell_volume 579.736458
_symmetry_space_group_name_H-M "P -1"
_symmetry_group_IT_number 2
_symmetry_cell_setting 'triclinic'
loop_
_space_group_symop_operation_xyz
x,y,z
-x,-y,-z
loop_
_atom_site_type_symbol
_atom_site_label
_atom_site_fract_x
_atom_site_fract_y
_atom_site_fract_z
Si Si1 0.869625 0.559038 0.229576
Si Si2 0.454127 0.053709 0.271519
Si Si3 0.066153 0.891356 0.300499
Si Si4 0.809520 0.654590 0.699457
Si Si5 0.768936 0.018530 0.093422
Si Si6 0.415829 0.489456 0.154265
Si Si7 0.997335 0.360319 0.408288
O O1 0.571491 0.453272 0.163793
O O2 0.991908 0.731697 0.268279
O O3 0.086490 0.526020 0.412125
O O4 0.780281 0.504440 0.059075
O O5 0.684678 0.032430 0.468812
O O6 0.686580 0.232871 0.324501
O O7 0.222487 0.998722 0.251007
O O8 0.279775 0.967975 0.074116
O O9 0.787269 0.885406 0.161832
O O10 0.500000 0.500000 0.500000
O O11 0.797147 0.612407 0.837254
O O12 0.046009 0.687967 0.736344
O O13 0.901381 0.820610 0.713139
O O14 0.500000 0.000000 0.000000
O O15 0.733643 0.627249 0.372978
#
# Coordination Sequence:
#
# PCOD9036988 Si02
#       7
#     2   2   2   2   2   2   2
#     4  11  24  40  70 103 135 183 231 291 348 417
#     4  11  25  44  72 105 143 187 239 294 357 425
#     4  11  27  45  70 107 145 186 237 295 362 421
#     4  10  24  46  70  99 139 188 235 290 353 422
#     4  12  26  46  74 102 145 190 235 291 362 426
#     4  10  23  39  67  97 139 177 235 283 346 410
#     4  11  23  43  68 101 137 184 235 289 352 412
#
# _framework density 24.148903000000001
#
# number of rings (size 3 to 8) (size 9 to 14) (size 15 to 20)
#    0.000    1.143    2.857    1.714    6.000    4.571 
#    0.000    2.857    0.000    0.000    0.000    0.000 
#    0.000    0.000    0.000    0.000    0.000    0.000 
#
# Total GULP energy -77950.997580 kJ/mol
# GULP energy per Si atom -5567.928399 kJ/mol
# Density = 2.409394 g / cm^3
# Si number density = 24.148903 Si / 1000 Ang^3
#
#
#
# Elastic Constant Matrix: (Units=GPa)
#
#
# Indices 1 2 3 4 5 6 
#
# 1 95.4539 53.2118 39.3823 -26.3547 -25.7232 8.6549
# 2 53.2118 122.7665 46.2293 9.1361 -7.0241 -5.4704
# 3 39.3823 46.2293 130.1020 -5.2164 -18.9164 -12.2067
# 4 -26.3547 9.1361 -5.2164 35.9900 9.2982 -3.1459
# 5 -25.7232 -7.0241 -18.9164 9.2982 41.5286 -6.9894
# 6 8.6549 -5.4704 -12.2067 -3.1459 -6.9894 32.1800
#
#
#
# Elastic Compliance Matrix: (Units=1/GPa)
#
#
# Indices 1 2 3 4 5 6 
#
# 1 0.025703 -0.011475 -0.002434 0.018872 0.007586 -0.006294
# 2 -0.011475 0.014858 -0.002360 -0.011589 -0.002565 0.003027
# 3 -0.002434 -0.002360 0.010241 -0.000208 0.003631 0.004906
# 4 0.018872 -0.011589 -0.000208 0.044470 -0.000820 -0.002955
# 5 0.007586 -0.002565 0.003631 -0.000820 0.031122 0.005580
# 6 -0.006294 0.003027 0.004906 -0.002955 0.005580 0.036067
#
#
# Mechanical properties :
#
#
# Convention : Reuss Voigt Hill
#
# Bulk Modulus (GPa) = 54.74779 69.55215 62.14997
# Shear Modulus (GPa) = 24.86492 35.90630 30.38561
#
# Velocity S-wave (km/s) = 3.21230 3.86018 3.55105
# Velocity P-wave (km/s) = 6.03975 6.98082 6.52727
#
# Compressibility (1/GPa) = 0.01826558
#
# Stress axis : x y z
#
# Youngs Moduli (GPa) = 38.90642 67.30184 97.64292
#
# Poissons Ratio (x) = 0.77228 0.23764
# Poissons Ratio (y) = 0.44645 0.23042
# Poissons Ratio (z) = 0.09469 0.15882
#
# Static dielectric constant tensor:
#      x y z
#    x 1.968060 0.041050 0.023120 
#    y 0.041050 1.976290 0.039850 
#    z 0.023120 0.039850 2.001900 
# 
# From -- ./inp_files/387447.got.cif
#   From: 2010.05.17/outbox.cif.g08.bks.cpg/sg2_194_cif.got.tgz:387447.got - 2010.06.03 11:33:40.
