data_PCOD9036019
_publ_section_title
;
Structure prediction by ZEFSAII (Michael W. Deem and Ramdas Pophale) SiO2 
 PCOD9036019
Probable space group: P -1
;
_chemical_formula_sum "Si O2"
_cell_formula_units_Z 15
_cell_length_a 20.537609
_cell_length_b 5.016360
_cell_length_c 5.440602
_cell_angle_alpha 80.851955
_cell_angle_beta 91.710036
_cell_angle_gamma 93.207446
_cell_volume 552.391921
_symmetry_space_group_name_H-M "P -1"
_symmetry_group_IT_number 2
_symmetry_cell_setting 'triclinic'
loop_
_space_group_symop_operation_xyz
x,y,z
-x,-y,-z
loop_
_atom_site_type_symbol
_atom_site_label
_atom_site_fract_x
_atom_site_fract_y
_atom_site_fract_z
Si Si1 0.614186 0.614153 0.164419
Si Si2 0.688894 0.982043 0.499058
Si Si3 0.557641 0.195086 0.593185
Si Si4 0.815895 0.905378 0.297202
Si Si5 0.500000 0.500000 0.000000
Si Si6 0.859948 0.457266 0.744154
Si Si7 0.735358 0.547543 0.947880
Si Si8 0.075756 0.033649 0.057681
O O1 0.646859 0.849151 0.292290
O O2 0.560147 0.426497 0.333151
O O3 0.565856 0.717102 0.941297
O O4 0.673004 0.438260 0.107590
O O5 0.762481 0.078093 0.407563
O O6 0.705396 0.726000 0.706304
O O7 0.636084 0.151288 0.607868
O O8 0.536973 0.296146 0.840627
O O9 0.500000 0.000000 0.500000
O O10 0.839212 0.658636 0.500537
O O11 0.775012 0.759261 0.095397
O O12 0.881558 0.033801 0.167641
O O13 0.790341 0.365133 0.874532
O O14 0.899649 0.197426 0.721522
O O15 0.903137 0.664798 0.892882
O O16 0.000000 0.000000 0.000000
#
# Coordination Sequence:
#
# PCOD9036019 Si02
#       8
#     2   2   2   2   1   2   2   2
#     4  11  24  43  66  97 133 179 239 299 372 451
#     4  10  22  47  69  97 135 184 245 302 370 445
#     4  12  27  44  68  96 136 181 239 303 380 453
#     4   9  22  44  69 105 144 191 250 303 368 441
#     4  12  26  44  64  96 134 176 230 296 370 450
#     4  10  23  44  69 106 149 190 248 304 362 446
#     4   9  21  44  70  97 132 183 242 299 364 434
#     4  11  24  43  73 110 151 196 243 298 368 446
#
# _framework density 27.154636
#
# number of rings (size 3 to 8) (size 9 to 14) (size 15 to 20)
#    0.000    1.600    1.333    1.600    3.733    5.867 
#   24.000    0.000    0.000    0.000    0.000    0.000 
#    0.000    0.000    0.000    0.000    0.000    0.000 
#
# Total GULP energy -83761.553635 kJ/mol
# GULP energy per Si atom -5584.103576 kJ/mol
# Density = 2.709283 g / cm^3
# Si number density = 27.154636 Si / 1000 Ang^3
#
#
#
# Elastic Constant Matrix: (Units=GPa)
#
#
# Indices 1 2 3 4 5 6 
#
# 1 248.8592 53.7902 51.6782 2.6192 -12.6499 -13.5889
# 2 53.7902 100.6268 29.7535 9.9347 -0.8094 -7.3558
# 3 51.6782 29.7535 77.0732 29.1197 -6.1009 6.0989
# 4 2.6192 9.9347 29.1197 40.5532 2.1287 2.1471
# 5 -12.6499 -0.8094 -6.1009 2.1287 29.5079 -6.0160
# 6 -13.5889 -7.3558 6.0989 2.1471 -6.0160 50.9945
#
#
#
# Elastic Compliance Matrix: (Units=1/GPa)
#
#
# Indices 1 2 3 4 5 6 
#
# 1 0.005383 -0.001844 -0.003953 0.002769 0.001589 0.001712
# 2 -0.001844 0.012100 -0.003479 -0.000387 -0.000826 0.001589
# 3 -0.003953 -0.003479 0.023457 -0.015747 0.003527 -0.003282
# 4 0.002769 -0.000387 -0.015747 0.036096 -0.004581 0.000505
# 5 0.001589 -0.000826 0.003527 -0.004581 0.036501 0.004382
# 6 0.001712 0.001589 -0.003282 0.000505 0.004382 0.021184
#
#
# Mechanical properties :
#
#
# Convention : Reuss Voigt Hill
#
# Bulk Modulus (GPa) = 44.66939 77.44476 61.05707
# Shear Modulus (GPa) = 31.10691 43.63359 37.37025
#
# Velocity S-wave (km/s) = 3.38826 4.01291 3.71374
# Velocity P-wave (km/s) = 5.63851 7.07482 6.39711
#
# Compressibility (1/GPa) = 0.02238670
#
# Stress axis : x y z
#
# Youngs Moduli (GPa) = 185.77137 82.64472 42.63120
#
# Poissons Ratio (x) = 0.15240 0.16853
# Poissons Ratio (y) = 0.34256 0.14833
# Poissons Ratio (z) = 0.73439 0.28756
#
# Static dielectric constant tensor:
#      x y z
#    x 1.871880 0.047670 -0.269050 
#    y 0.047670 2.185070 -0.016260 
#    z -0.269050 -0.016260 1.978820 
# 
# From -- ./inp_files/9268.got.cif
#   From: 2010.05.17/outbox.cif.g08.bks.cpg/sg2_5_cif.got.tgz:9268.got - 2010.06.03 11:33:40.
