data_PCOD9036064
_publ_section_title
;
Structure prediction by ZEFSAII (Michael W. Deem and Ramdas Pophale) SiO2 
 PCOD9036064
Probable space group: P -1
;
_chemical_formula_sum "Si O2"
_cell_formula_units_Z 16
_cell_length_a 8.664860
_cell_length_b 10.373116
_cell_length_c 9.875105
_cell_angle_alpha 70.390128
_cell_angle_beta 63.361916
_cell_angle_gamma 75.129558
_cell_volume 741.398134
_symmetry_space_group_name_H-M "P -1"
_symmetry_group_IT_number 2
_symmetry_cell_setting 'triclinic'
loop_
_space_group_symop_operation_xyz
x,y,z
-x,-y,-z
loop_
_atom_site_type_symbol
_atom_site_label
_atom_site_fract_x
_atom_site_fract_y
_atom_site_fract_z
Si Si1 0.670052 0.582294 0.032899
Si Si2 0.530193 0.856675 0.351844
Si Si3 0.890098 0.149919 0.974182
Si Si4 0.383319 0.378288 0.250473
Si Si5 0.847657 0.630159 0.210933
Si Si6 0.626357 0.136354 0.312371
Si Si7 0.686860 0.460859 0.518794
Si Si8 0.369576 0.799255 0.185332
O O1 0.558127 0.455832 0.146768
O O2 0.816671 0.594086 0.080201
O O3 0.527648 0.715612 0.068948
O O4 0.722161 0.580404 0.857410
O O5 0.675105 0.731433 0.295442
O O6 0.392672 0.826855 0.533833
O O7 0.438242 0.903342 0.229268
O O8 0.625200 0.975322 0.341097
O O9 0.768644 0.144553 0.891813
O O10 0.999295 0.277400 0.864482
O O11 0.782297 0.177533 0.146066
O O12 0.000000 0.000000 0.000000
O O13 0.449916 0.218133 0.291444
O O14 0.296133 0.433034 0.402870
O O15 0.836851 0.489511 0.346623
O O16 0.500000 0.500000 0.500000
O O17 0.691537 0.315854 0.646205
#
# Coordination Sequence:
#
# PCOD9036064 Si02
#       8
#     2   2   2   2   2   2   2   2
#     4   9  19  33  61  91 114 148 205 249 288 355
#     4  10  21  38  66  89 111 155 222 239 284 358
#     4  12  26  41  57  86 135 160 191 248 314 355
#     4  10  17  32  60  90 115 142 201 256 289 331
#     4  11  21  39  61  91 120 161 197 244 311 356
#     4  11  21  37  62  90 117 160 196 256 293 354
#     4  11  18  36  68  90 116 154 204 257 286 353
#     4  10  21  39  62  93 114 163 203 245 297 361
#
# _framework density 21.580846000000001
#
# number of rings (size 3 to 8) (size 9 to 14) (size 15 to 20)
#    0.000    1.500    7.500    0.000    0.000    2.000 
#    0.000    2.500    0.000    0.000    0.000    0.000 
#    0.000    0.000    0.000    0.000    0.000    0.000 
#
# Total GULP energy -89258.866163 kJ/mol
# GULP energy per Si atom -5578.679135 kJ/mol
# Density = 2.153173 g / cm^3
# Si number density = 21.580846 Si / 1000 Ang^3
#
#
#
# Elastic Constant Matrix: (Units=GPa)
#
#
# Indices 1 2 3 4 5 6 
#
# 1 53.0396 3.7801 52.4637 14.3089 8.3450 0.9877
# 2 3.7801 45.0374 3.7668 12.6186 5.5738 -3.5564
# 3 52.4637 3.7668 115.9707 19.5930 20.4357 5.2103
# 4 14.3089 12.6186 19.5930 29.0023 8.6299 6.9469
# 5 8.3450 5.5738 20.4357 8.6299 35.2354 -2.3969
# 6 0.9877 -3.5564 5.2103 6.9469 -2.3969 24.7786
#
#
#
# Elastic Compliance Matrix: (Units=1/GPa)
#
#
# Indices 1 2 3 4 5 6 
#
# 1 0.036232 0.001079 -0.015500 -0.009988 0.003028 0.005063
# 2 0.001079 0.026757 0.000894 -0.014281 -0.000997 0.007517
# 3 -0.015500 0.000894 0.017124 -0.001766 -0.006171 -0.002956
# 4 -0.009988 -0.014281 -0.001766 0.053474 -0.008612 -0.017105
# 5 0.003028 -0.000997 -0.006171 -0.008612 0.033967 0.006734
# 6 0.005063 0.007517 -0.002956 -0.017105 0.006734 0.047303
#
#
# Mechanical properties :
#
#
# Convention : Reuss Voigt Hill
#
# Bulk Modulus (GPa) = 18.84701 37.11875 27.98288
# Shear Modulus (GPa) = 19.26055 28.07241 23.66648
#
# Velocity S-wave (km/s) = 2.99069 3.61058 3.31515
# Velocity P-wave (km/s) = 4.54728 5.88378 5.25817
#
# Compressibility (1/GPa) = 0.05305881
#
# Stress axis : x y z
#
# Youngs Moduli (GPa) = 27.59990 37.37364 58.39675
#
# Poissons Ratio (x) = -0.04031 0.90513
# Poissons Ratio (y) = -0.02977 -0.05219
# Poissons Ratio (z) = 0.42779 -0.03340
#
# Static dielectric constant tensor:
#      x y z
#    x 1.789410 0.000170 -0.017820 
#    y 0.000170 1.824420 -0.030820 
#    z -0.017820 -0.030820 1.829490 
# 
# From -- ./inp_files/176094.got.cif
#   From: 2010.05.17/outbox.cif.g08.bks.cpg/sg2_89_cif.got.tgz:176094.got - 2010.06.03 11:33:40.
