data_PCOD9036727
_publ_section_title
;
Structure prediction by ZEFSAII (Michael W. Deem and Ramdas Pophale) SiO2 
 PCOD9036727
Probable space group: P -1
;
_chemical_formula_sum "Si O2"
_cell_formula_units_Z 16
_cell_length_a 17.716851
_cell_length_b 8.126888
_cell_length_c 5.666750
_cell_angle_alpha 120.098752
_cell_angle_beta 100.153434
_cell_angle_gamma 59.426415
_cell_volume 604.352371
_symmetry_space_group_name_H-M "P -1"
_symmetry_group_IT_number 2
_symmetry_cell_setting 'triclinic'
loop_
_space_group_symop_operation_xyz
x,y,z
-x,-y,-z
loop_
_atom_site_type_symbol
_atom_site_label
_atom_site_fract_x
_atom_site_fract_y
_atom_site_fract_z
Si Si1 0.159721 0.317487 0.739621
Si Si2 0.594704 0.825254 0.200585
Si Si3 0.107071 0.931681 0.749437
Si Si4 0.040777 0.182774 0.393810
Si Si5 0.463765 0.466663 0.208404
Si Si6 0.749293 0.475204 0.291784
Si Si7 0.337430 0.909252 0.346561
Si Si8 0.268339 0.171837 0.090319
O O1 0.185501 0.507271 0.855066
O O2 0.070349 0.362578 0.600212
O O3 0.240901 0.094910 0.513396
O O4 0.174947 0.247095 0.970153
O O5 0.650166 0.607981 0.236173
O O6 0.586039 0.025669 0.500805
O O7 0.530790 0.768053 0.977374
O O8 0.663590 0.826721 0.055954
O O9 0.089694 0.029331 0.544778
O O10 0.207736 0.761603 0.746199
O O11 0.071500 0.084197 0.075767
O O12 0.055650 0.790065 0.617714
O O13 0.500000 0.500000 0.500000
O O14 0.365315 0.677461 0.303515
O O15 0.500000 0.500000 0.000000
O O16 0.748534 0.636721 0.605300
O O17 0.321024 0.940548 0.082444
#
# Coordination Sequence:
#
# PCOD9036727 Si02
#       8
#     2   2   2   2   2   2   2   2
#     4   9  20  36  63  90 116 160 208 252 304 361
#     4   9  22  43  65  92 126 165 205 259 310 365
#     4  10  23  39  56  87 126 164 203 251 308 359
#     4  10  23  39  56  87 126 164 203 251 308 359
#     4  12  30  44  64 100 127 160 215 246 310 388
#     4   9  20  36  63  90 116 160 208 252 304 361
#     4   9  22  43  65  92 126 165 205 259 310 365
#     4   8  18  38  65  90 120 156 214 248 316 354
#
# _framework density 26.474625
#
# number of rings (size 3 to 8) (size 9 to 14) (size 15 to 20)
#    0.000    3.000    0.000    0.000   15.750    1.500 
#    0.000    0.625    0.000    0.000    0.000    0.000 
#    0.000    0.000    0.000    0.000    0.000    0.000 
#
# Total GULP energy -89160.240153 kJ/mol
# GULP energy per Si atom -5572.515010 kJ/mol
# Density = 2.641437 g / cm^3
# Si number density = 26.474625 Si / 1000 Ang^3
#
#
#
# Elastic Constant Matrix: (Units=GPa)
#
#
# Indices 1 2 3 4 5 6 
#
# 1 62.2143 -3.1885 40.4144 -2.3797 24.9102 11.8138
# 2 -3.1885 85.4649 22.3316 -18.8015 -4.9213 -11.7288
# 3 40.4144 22.3316 139.1824 -19.7619 34.1104 3.8894
# 4 -2.3797 -18.8015 -19.7619 36.5466 9.5763 1.2115
# 5 24.9102 -4.9213 34.1104 9.5763 53.9946 2.0362
# 6 11.8138 -11.7288 3.8894 1.2115 2.0362 27.2471
#
#
#
# Elastic Compliance Matrix: (Units=1/GPa)
#
#
# Indices 1 2 3 4 5 6 
#
# 1 0.024155 0.000842 -0.004627 0.001935 -0.008151 -0.008927
# 2 0.000842 0.014439 -0.002141 0.005865 0.001021 0.005819
# 3 -0.004627 -0.002141 0.011349 0.006410 -0.006354 -0.000346
# 4 0.001935 0.005865 0.006410 0.036840 -0.010940 -0.000050
# 5 -0.008151 0.001021 -0.006354 -0.010940 0.028205 0.003259
# 6 -0.008927 0.005819 -0.000346 -0.000050 0.003259 0.042885
#
#
# Mechanical properties :
#
#
# Convention : Reuss Voigt Hill
#
# Bulk Modulus (GPa) = 26.25388 45.10851 35.68120
# Shear Modulus (GPa) = 27.40878 38.71125 33.06002
#
# Velocity S-wave (km/s) = 3.22108 3.82802 3.53759
# Velocity P-wave (km/s) = 4.87565 6.05093 5.49480
#
# Compressibility (1/GPa) = 0.03808960
#
# Stress axis : x y z
#
# Youngs Moduli (GPa) = 41.39921 69.25601 88.11371
#
# Poissons Ratio (x) = -0.05828 0.40771
# Poissons Ratio (y) = -0.03484 0.18867
# Poissons Ratio (z) = 0.19156 0.14829
#
# Static dielectric constant tensor:
#      x y z
#    x 2.213100 0.014880 -0.014770 
#    y 0.014880 2.201540 -0.084350 
#    z -0.014770 -0.084350 2.278360 
# 
# From -- ./inp_files/116442.got.cif
#   From: 2010.05.17/outbox.cif.g08.bks.cpg/sg2_59_cif.got.tgz:116442.got - 2010.06.03 11:33:40.
