data_PCOD9036403
_publ_section_title
;
Structure prediction by ZEFSAII (Michael W. Deem and Ramdas Pophale) SiO2 
 PCOD9036403
Probable space group: P -1
;
_chemical_formula_sum "Si O2"
_cell_formula_units_Z 14
_cell_length_a 11.231183
_cell_length_b 9.679090
_cell_length_c 13.107455
_cell_angle_alpha 75.275885
_cell_angle_beta 145.094206
_cell_angle_gamma 93.156442
_cell_volume 757.694018
_symmetry_space_group_name_H-M "P -1"
_symmetry_group_IT_number 2
_symmetry_cell_setting 'triclinic'
loop_
_space_group_symop_operation_xyz
x,y,z
-x,-y,-z
loop_
_atom_site_type_symbol
_atom_site_label
_atom_site_fract_x
_atom_site_fract_y
_atom_site_fract_z
Si Si1 0.695294 0.088293 0.208165
Si Si2 0.119903 0.515616 0.477347
Si Si3 0.626193 0.813148 0.338073
Si Si4 0.692877 0.970352 0.561479
Si Si5 0.248449 0.241359 0.936253
Si Si6 0.842513 0.066327 0.085827
Si Si7 0.641748 0.252484 0.335568
O O1 0.817626 0.073924 0.190705
O O2 0.767397 0.182077 0.332101
O O3 0.691272 0.932552 0.286031
O O4 0.440748 0.180380 0.998289
O O5 0.228697 0.352759 0.542484
O O6 0.294765 0.604100 0.610665
O O7 0.000000 0.500000 0.500000
O O8 0.939926 0.620323 0.258275
O O9 0.648939 0.871156 0.456413
O O10 0.375999 0.826937 0.133912
O O11 0.698456 0.125874 0.484237
O O12 0.500000 0.000000 0.500000
O O13 0.931498 0.903819 0.788134
O O14 0.161836 0.098649 0.921205
O O15 0.391887 0.275847 0.123126
#
# Coordination Sequence:
#
# PCOD9036403 Si02
#       7
#     2   2   2   2   2   2   2
#     4   8  18  36  57  85 120 152 190 237 293 357
#     4  12  22  34  59  93 130 161 179 229 308 369
#     4  10  23  36  57  97 118 144 203 242 294 358
#     4  11  24  41  64  87 108 157 219 252 282 338
#     4   9  19  36  57  86 121 162 185 230 300 360
#     4  11  18  37  63  84 118 153 197 251 293 344
#     4   9  22  38  56  86 124 153 196 237 291 358
#
# _framework density 18.477115999999999
#
# number of rings (size 3 to 8) (size 9 to 14) (size 15 to 20)
#    0.857    1.143    2.857    3.429    2.000    3.429 
#    0.000    0.714    0.000    1.714    0.000    0.000 
#    0.000    0.000    0.000    0.000    0.000    0.000 
#
# Total GULP energy -78082.488444 kJ/mol
# GULP energy per Si atom -5577.320603 kJ/mol
# Density = 1.843506 g / cm^3
# Si number density = 18.477116 Si / 1000 Ang^3
#
#
#
# Elastic Constant Matrix: (Units=GPa)
#
#
# Indices 1 2 3 4 5 6 
#
# 1 48.8351 42.2343 26.5244 7.2591 21.9465 -11.9309
# 2 42.2343 105.0193 32.9040 -17.1101 6.0851 -20.1756
# 3 26.5244 32.9040 116.9341 -12.3590 15.8871 -6.9778
# 4 7.2591 -17.1101 -12.3590 34.4041 2.3688 1.1224
# 5 21.9465 6.0851 15.8871 2.3688 21.0549 -0.7420
# 6 -11.9309 -20.1756 -6.9778 1.1224 -0.7420 9.5153
#
#
#
# Elastic Compliance Matrix: (Units=1/GPa)
#
#
# Indices 1 2 3 4 5 6 
#
# 1 0.135218 -0.037230 -0.003435 -0.042763 -0.119828 0.083786
# 2 -0.037230 0.028906 -0.000781 0.019473 0.029345 0.014028
# 3 -0.003435 -0.000781 0.010732 0.004487 -0.004761 0.001007
# 4 -0.042763 0.019473 0.004487 0.047740 0.029755 -0.012352
# 5 -0.119828 0.029345 -0.004761 0.029755 0.161255 -0.082454
# 6 0.083786 0.014028 0.001007 -0.012352 -0.082454 0.235660
#
#
# Mechanical properties :
#
#
# Convention : Reuss Voigt Hill
#
# Bulk Modulus (GPa) = 10.87387 52.67931 31.77659
# Shear Modulus (GPa) = 6.82076 24.26993 15.54534
#
# Velocity S-wave (km/s) = 1.92340 3.62817 2.90371
# Velocity P-wave (km/s) = 3.29097 6.79146 5.33641
#
# Compressibility (1/GPa) = 0.09196360
#
# Stress axis : x y z
#
# Youngs Moduli (GPa) = 7.39548 34.59471 93.18097
#
# Poissons Ratio (x) = 1.28796 0.32011
# Poissons Ratio (y) = 0.27533 0.07274
# Poissons Ratio (z) = 0.02541 0.02701
#
# Static dielectric constant tensor:
#      x y z
#    x 1.661100 0.007010 0.000670 
#    y 0.007010 1.624730 0.013700 
#    z 0.000670 0.013700 1.731210 
# 
# From -- ./inp_files/515554.got.cif
#   From: 2010.05.17/outbox.cif.g08.bks.cpg/sg2_258_cif.got.tgz:515554.got - 2010.06.03 11:33:40.
