data_PCOD9036162
_publ_section_title
;
Structure prediction by ZEFSAII (Michael W. Deem and Ramdas Pophale) SiO2 
 PCOD9036162
Probable space group: P -1
;
_chemical_formula_sum "Si O2"
_cell_formula_units_Z 13
_cell_length_a 13.507582
_cell_length_b 13.379231
_cell_length_c 14.043700
_cell_angle_alpha 19.927006
_cell_angle_beta 138.694818
_cell_angle_gamma 143.653511
_cell_volume 512.432432
_symmetry_space_group_name_H-M "P -1"
_symmetry_group_IT_number 2
_symmetry_cell_setting 'triclinic'
loop_
_space_group_symop_operation_xyz
x,y,z
-x,-y,-z
loop_
_atom_site_type_symbol
_atom_site_label
_atom_site_fract_x
_atom_site_fract_y
_atom_site_fract_z
Si Si1 0.234610 0.681502 0.239156
Si Si2 0.155442 0.355735 0.287491
Si Si3 0.094909 0.835833 0.448723
Si Si4 0.500000 0.500000 0.500000
Si Si5 0.335444 0.885909 0.417439
Si Si6 0.386904 0.316167 0.897677
Si Si7 0.229501 0.549755 0.954572
O O1 0.153835 0.610378 0.138450
O O2 0.399776 0.629800 0.386813
O O3 0.092687 0.415679 0.439266
O O4 0.290008 0.039819 0.998216
O O5 0.327789 0.341478 0.453192
O O6 0.878625 0.794359 0.868578
O O7 0.000000 0.000000 0.500000
O O8 0.175930 0.755047 0.487785
O O9 0.201733 0.818461 0.633339
O O10 0.823338 0.488214 0.940212
O O11 0.500000 0.000000 0.500000
O O12 0.334118 0.172047 0.095135
O O13 0.350851 0.627284 0.588689
O O14 0.580588 0.397374 0.958998
#
# Coordination Sequence:
#
# PCOD9036162 Si02
#       7
#     2   2   2   1   2   2   2
#     4  10  26  46  72 116 154 201 250 323 386 452
#     4  10  22  47  78 111 151 202 255 308 380 468
#     4  12  26  46  75 111 148 197 256 316 372 460
#     4   8  22  46  74 108 154 190 258 308 378 446
#     4  12  24  46  76 111 145 199 262 312 381 458
#     4  12  26  44  77 110 150 198 248 325 381 448
#     4  12  24  44  78 108 146 198 255 306 379 451
#
# _framework density 25.369198000000001
#
# number of rings (size 3 to 8) (size 9 to 14) (size 15 to 20)
#    0.923    0.000    4.615    1.385    4.308    3.692 
#    2.769    0.000    0.000    0.000    0.000    0.000 
#    0.000    0.000    0.000    0.000    0.000    0.000 
#
# Total GULP energy -72649.052489 kJ/mol
# GULP energy per Si atom -5588.388653 kJ/mol
# Density = 2.531146 g / cm^3
# Si number density = 25.369198 Si / 1000 Ang^3
#
#
#
# Elastic Constant Matrix: (Units=GPa)
#
#
# Indices 1 2 3 4 5 6 
#
# 1 139.0268 36.3918 18.9339 3.3287 17.5361 12.6508
# 2 36.3918 149.5531 28.6029 3.4524 20.9367 2.9580
# 3 18.9339 28.6029 61.8600 -4.5644 5.1846 5.2430
# 4 3.3287 3.4524 -4.5644 41.4661 -12.3662 9.4943
# 5 17.5361 20.9367 5.1846 -12.3662 40.7725 2.7127
# 6 12.6508 2.9580 5.2430 9.4943 2.7127 33.3006
#
#
#
# Elastic Compliance Matrix: (Units=1/GPa)
#
#
# Indices 1 2 3 4 5 6 
#
# 1 0.008339 -0.001238 -0.001625 -0.001104 -0.002929 -0.002249
# 2 -0.001238 0.008242 -0.003382 -0.002486 -0.004111 0.001314
# 3 -0.001625 -0.003382 0.018645 0.003593 0.001364 -0.003153
# 4 -0.001104 -0.002486 0.003593 0.030288 0.011111 -0.009466
# 5 -0.002929 -0.004111 0.001364 0.011111 0.031390 -0.004462
# 6 -0.002249 0.001314 -0.003153 -0.009466 -0.004462 0.034326
#
#
# Mechanical properties :
#
#
# Convention : Reuss Voigt Hill
#
# Bulk Modulus (GPa) = 43.98638 57.58855 50.78747
# Shear Modulus (GPa) = 33.04727 40.87527 36.96127
#
# Velocity S-wave (km/s) = 3.61314 4.01835 3.82112
# Velocity P-wave (km/s) = 5.89767 6.65425 6.28735
#
# Compressibility (1/GPa) = 0.02273431
#
# Stress axis : x y z
#
# Youngs Moduli (GPa) = 119.92069 121.33481 53.63426
#
# Poissons Ratio (x) = 0.15025 0.08716
# Poissons Ratio (y) = 0.14850 0.18140
# Poissons Ratio (z) = 0.19488 0.41036
#
# Static dielectric constant tensor:
#      x y z
#    x 2.000800 -0.014450 0.005320 
#    y -0.014450 1.982150 0.012060 
#    z 0.005320 0.012060 1.957320 
# 
# From -- ./inp_files/569679.got.cif
#   From: 2010.05.17/outbox.cif.g08.bks.cpg/sg2_285_cif.got.tgz:569679.got - 2010.06.03 11:33:40.
