data_PCOD9036286
_publ_section_title
;
Structure prediction by ZEFSAII (Michael W. Deem and Ramdas Pophale) SiO2 
 PCOD9036286
Probable space group: P -1
;
_chemical_formula_sum "Si O2"
_cell_formula_units_Z 14
_cell_length_a 11.160194
_cell_length_b 11.957669
_cell_length_c 20.800412
_cell_angle_alpha 28.886334
_cell_angle_beta 22.975052
_cell_angle_gamma 34.157957
_cell_volume 520.030599
_symmetry_space_group_name_H-M "P -1"
_symmetry_group_IT_number 2
_symmetry_cell_setting 'triclinic'
loop_
_space_group_symop_operation_xyz
x,y,z
-x,-y,-z
loop_
_atom_site_type_symbol
_atom_site_label
_atom_site_fract_x
_atom_site_fract_y
_atom_site_fract_z
Si Si1 0.183460 0.453670 0.638673
Si Si2 0.321548 0.312188 0.130964
Si Si3 0.750164 0.071462 0.149606
Si Si4 0.704538 0.548454 0.719526
Si Si5 0.351735 0.978989 0.514369
Si Si6 0.559431 0.833119 0.202851
Si Si7 0.333269 0.472573 0.815441
O O1 0.976074 0.594408 0.726156
O O2 0.971913 0.424964 0.694132
O O3 0.903668 0.891277 0.021907
O O4 0.439047 0.614865 0.409173
O O5 0.582946 0.514934 0.059181
O O6 0.584905 0.245495 0.089596
O O7 0.322183 0.063417 0.219652
O O8 0.571619 0.062807 0.308721
O O9 0.710402 0.817981 0.267842
O O10 0.587911 0.473026 0.745863
O O11 0.874369 0.783752 0.500403
O O12 0.310002 0.710874 0.664261
O O13 0.500000 0.000000 0.500000
O O14 0.601260 0.749498 0.150526
O O15 0.000000 0.500000 0.000000
#
# Coordination Sequence:
#
# PCOD9036286 Si02
#       7
#     2   2   2   2   2   2   2
#     4  12  27  50  77 122 163 213 268 332 394 483
#     4  12  28  52  81 118 169 212 263 336 398 482
#     4  12  26  51  80 117 166 215 263 331 410 471
#     4  11  25  49  80 113 163 211 264 332 400 468
#     4  10  22  48  78 109 154 211 259 326 394 463
#     4  12  27  48  81 120 158 216 270 326 407 476
#     4  11  26  50  84 119 159 211 272 338 400 481
#
# _framework density 26.921493000000002
#
# number of rings (size 3 to 8) (size 9 to 14) (size 15 to 20)
#    0.000    0.571    4.286    3.000    0.000    4.000 
#    2.571    0.000    0.000    0.000    0.000    0.000 
#    0.000    0.000    0.000    0.000    0.000    0.000 
#
# Total GULP energy -78194.165688 kJ/mol
# GULP energy per Si atom -5585.297549 kJ/mol
# Density = 2.686022 g / cm^3
# Si number density = 26.921493 Si / 1000 Ang^3
#
#
#
# Elastic Constant Matrix: (Units=GPa)
#
#
# Indices 1 2 3 4 5 6 
#
# 1 133.9289 51.8079 57.5809 -7.1286 8.0398 26.7476
# 2 51.8079 106.9842 41.4511 -20.2132 8.4362 12.4447
# 3 57.5809 41.4511 163.8146 -20.0005 11.6284 3.4101
# 4 -7.1286 -20.2132 -20.0005 41.8963 -8.0489 -3.0498
# 5 8.0398 8.4362 11.6284 -8.0489 59.6979 -6.9482
# 6 26.7476 12.4447 3.4101 -3.0498 -6.9482 47.6033
#
#
#
# Elastic Compliance Matrix: (Units=1/GPa)
#
#
# Indices 1 2 3 4 5 6 
#
# 1 0.011370 -0.003987 -0.003037 -0.002084 -0.001292 -0.005451
# 2 -0.003987 0.012770 -0.001198 0.004761 -0.000483 -0.000778
# 3 -0.003037 -0.001198 0.007796 0.002665 -0.000398 0.001574
# 4 -0.002084 0.004761 0.002665 0.027816 0.003068 0.001965
# 5 -0.001292 -0.000483 -0.000398 0.003068 0.017914 0.003692
# 6 -0.005451 -0.000778 0.001574 0.001965 0.003692 0.024825
#
#
# Mechanical properties :
#
#
# Convention : Reuss Voigt Hill
#
# Bulk Modulus (GPa) = 64.54956 78.48972 71.51964
# Shear Modulus (GPa) = 40.29047 46.76535 43.52791
#
# Velocity S-wave (km/s) = 3.87278 4.17238 4.02536
# Velocity P-wave (km/s) = 6.63528 7.24085 6.94467
#
# Compressibility (1/GPa) = 0.01549197
#
# Stress axis : x y z
#
# Youngs Moduli (GPa) = 87.95194 78.30662 128.27195
#
# Poissons Ratio (x) = 0.31222 0.38955
# Poissons Ratio (y) = 0.35067 0.15368
# Poissons Ratio (z) = 0.26710 0.09382
#
# Static dielectric constant tensor:
#      x y z
#    x 1.993630 -0.392500 -0.068720 
#    y -0.392500 1.504410 -0.080300 
#    z -0.068720 -0.080300 2.112410 
# 
# From -- ./inp_files/595035.got.cif
#   From: 2010.05.17/outbox.cif.g08.bks.cpg/sg2_298_cif.got.tgz:595035.got - 2010.06.03 11:33:40.
