data_PCOD9036652
_publ_section_title
;
Structure prediction by ZEFSAII (Michael W. Deem and Ramdas Pophale) SiO2 
 PCOD9036652
Probable space group: P -1
;
_chemical_formula_sum "Si O2"
_cell_formula_units_Z 16
_cell_length_a 12.318437
_cell_length_b 11.441060
_cell_length_c 5.086603
_cell_angle_alpha 72.612613
_cell_angle_beta 89.843876
_cell_angle_gamma 86.594626
_cell_volume 682.835152
_symmetry_space_group_name_H-M "P -1"
_symmetry_group_IT_number 2
_symmetry_cell_setting 'triclinic'
loop_
_space_group_symop_operation_xyz
x,y,z
-x,-y,-z
loop_
_atom_site_type_symbol
_atom_site_label
_atom_site_fract_x
_atom_site_fract_y
_atom_site_fract_z
Si Si1 0.896568 0.264383 0.549298
Si Si2 0.336208 0.411641 0.204540
Si Si3 0.733801 0.139597 0.314455
Si Si4 0.396832 0.068099 0.798545
Si Si5 0.977248 0.643295 0.998059
Si Si6 0.740338 0.710661 0.190248
Si Si7 0.284776 0.666679 0.202611
Si Si8 0.533752 0.283769 0.477576
O O1 0.831773 0.145825 0.519780
O O2 0.789669 0.357976 0.525896
O O3 0.959218 0.303969 0.786299
O O4 0.980989 0.286099 0.303121
O O5 0.268444 0.340425 0.477553
O O6 0.284688 0.548188 0.106776
O O7 0.459699 0.400146 0.313259
O O8 0.341119 0.355542 0.954502
O O9 0.633302 0.232237 0.337956
O O10 0.673913 0.018530 0.321613
O O11 0.769108 0.208399 0.004538
O O12 0.305084 0.147143 0.912978
O O13 0.454712 0.172317 0.567455
O O14 0.500000 0.000000 0.000000
O O15 0.853882 0.675317 0.069585
O O16 0.000000 0.500000 0.000000
O O17 0.405797 0.692057 0.268721
#
# Coordination Sequence:
#
# PCOD9036652 Si02
#       8
#     2   2   2   2   2   2   2   2
#     4  11  24  42  65  99 130 171 227 270 338 396
#     4  11  24  41  62  98 141 169 216 282 336 406
#     4  11  23  41  67  98 131 182 227 274 332 401
#     4  11  22  45  69  97 136 179 231 277 326 398
#     4  12  23  44  71  97 133 175 223 282 336 399
#     4  11  26  44  68 100 130 179 226 276 338 396
#     4  11  22  40  65  99 135 177 219 271 341 406
#     4  10  23  38  65  99 131 178 226 270 338 395
#
# _framework density 23.431716000000002
#
# number of rings (size 3 to 8) (size 9 to 14) (size 15 to 20)
#    0.000    1.000    2.500    4.125    5.250    1.500 
#    0.000    1.250    0.000    0.000    0.000    0.000 
#    0.000    0.000    0.000    0.000    0.000    0.000 
#
# Total GULP energy -89106.458700 kJ/mol
# GULP energy per Si atom -5569.153669 kJ/mol
# Density = 2.337838 g / cm^3
# Si number density = 23.431716 Si / 1000 Ang^3
#
#
#
# Elastic Constant Matrix: (Units=GPa)
#
#
# Indices 1 2 3 4 5 6 
#
# 1 112.5587 25.6167 26.3429 14.2056 -0.6179 -0.3895
# 2 25.6167 86.7633 26.1842 17.7987 5.6607 -0.6249
# 3 26.3429 26.1842 88.6512 16.8732 9.6899 16.0347
# 4 14.2056 17.7987 16.8732 28.7789 7.0519 3.7063
# 5 -0.6179 5.6607 9.6899 7.0519 38.1418 16.8145
# 6 -0.3895 -0.6249 16.0347 3.7063 16.8145 30.7303
#
#
#
# Elastic Compliance Matrix: (Units=1/GPa)
#
#
# Indices 1 2 3 4 5 6 
#
# 1 0.010205 -0.001782 -0.002235 -0.003027 0.001109 0.001018
# 2 -0.001782 0.014382 -0.002969 -0.006288 -0.001822 0.003575
# 3 -0.002235 -0.002969 0.015123 -0.005154 0.001000 -0.007905
# 4 -0.003027 -0.006288 -0.005154 0.044625 -0.006321 0.000600
# 5 0.001109 -0.001822 0.001000 -0.006321 0.036012 -0.019487
# 6 0.001018 0.003575 -0.007905 0.000600 -0.019487 0.047342
#
#
# Mechanical properties :
#
#
# Convention : Reuss Voigt Hill
#
# Bulk Modulus (GPa) = 38.85410 49.36232 44.10821
# Shear Modulus (GPa) = 26.28263 33.51881 29.90072
#
# Velocity S-wave (km/s) = 3.35277 3.78628 3.57610
# Velocity P-wave (km/s) = 5.62191 6.34246 5.99302
#
# Compressibility (1/GPa) = 0.02573731
#
# Stress axis : x y z
#
# Youngs Moduli (GPa) = 97.99485 69.52905 66.12568
#
# Poissons Ratio (x) = 0.12393 0.14779
# Poissons Ratio (y) = 0.17467 0.19632
# Poissons Ratio (z) = 0.21902 0.20642
#
# Static dielectric constant tensor:
#      x y z
#    x 2.008330 0.028740 -0.026710 
#    y 0.028740 1.890040 0.014050 
#    z -0.026710 0.014050 2.103880 
# 
# From -- ./inp_files/69883.got.cif
#   From: 2010.05.17/outbox.cif.g08.bks.cpg/sg2_35_cif.got.tgz:69883.got - 2010.06.03 11:33:40.
