data_PCOD9036656
_publ_section_title
;
Structure prediction by ZEFSAII (Michael W. Deem and Ramdas Pophale) SiO2 
 PCOD9036656
Probable space group: P -1
;
_chemical_formula_sum "Si O2"
_cell_formula_units_Z 14
_cell_length_a 9.007456
_cell_length_b 9.510918
_cell_length_c 11.226659
_cell_angle_alpha 101.932917
_cell_angle_beta 58.499927
_cell_angle_gamma 130.893647
_cell_volume 606.087051
_symmetry_space_group_name_H-M "P -1"
_symmetry_group_IT_number 2
_symmetry_cell_setting 'triclinic'
loop_
_space_group_symop_operation_xyz
x,y,z
-x,-y,-z
loop_
_atom_site_type_symbol
_atom_site_label
_atom_site_fract_x
_atom_site_fract_y
_atom_site_fract_z
Si Si1 0.866960 0.770815 0.838457
Si Si2 0.251357 0.689750 0.966167
Si Si3 0.582760 0.918421 0.312327
Si Si4 0.356826 0.063778 0.349687
Si Si5 0.440219 0.641620 0.117257
Si Si6 0.886690 0.105609 0.808106
Si Si7 0.357192 0.294166 0.575635
O O1 0.754454 0.571908 0.786964
O O2 0.835358 0.909326 0.815353
O O3 0.684280 0.688862 0.009323
O O4 0.139318 0.904152 0.771904
O O5 0.342494 0.648154 0.033675
O O6 0.230640 0.843863 0.047340
O O7 0.425683 0.776446 0.797261
O O8 0.000000 0.500000 0.000000
O O9 0.504838 0.810067 0.200598
O O10 0.522687 0.759676 0.402025
O O11 0.443053 0.989754 0.392192
O O12 0.266248 0.149149 0.477686
O O13 0.179389 0.901153 0.301696
O O14 0.159608 0.258817 0.731887
O O15 0.500000 0.500000 0.500000
#
# Coordination Sequence:
#
# PCOD9036656 Si02
#       7
#     2   2   2   2   2   2   2
#     4  10  23  38  66 101 138 179 225 282 345 403
#     4  12  24  41  73 105 138 176 231 289 342 408
#     4  11  24  44  68  95 141 179 234 277 351 399
#     4  12  23  45  69  97 142 178 228 279 349 409
#     4  11  22  41  66 104 139 181 228 282 341 413
#     4  11  23  45  69  99 134 184 224 284 349 403
#     4  11  27  45  69  99 135 183 232 285 341 411
#
# _framework density 23.098993
#
# number of rings (size 3 to 8) (size 9 to 14) (size 15 to 20)
#    0.000    0.857    2.857    4.286    2.000    5.714 
#    0.000    0.714    0.000    0.000    0.000    0.000 
#    0.000    0.000    0.000    0.000    0.000    0.000 
#
# Total GULP energy -78219.887436 kJ/mol
# GULP energy per Si atom -5587.134817 kJ/mol
# Density = 2.304642 g / cm^3
# Si number density = 23.098993 Si / 1000 Ang^3
#
#
#
# Elastic Constant Matrix: (Units=GPa)
#
#
# Indices 1 2 3 4 5 6 
#
# 1 100.2088 45.5106 11.9431 -6.8655 5.0662 -12.6075
# 2 45.5106 98.5878 13.5464 -14.2912 -4.3391 -14.2085
# 3 11.9431 13.5464 45.9031 2.2855 2.9554 -11.2514
# 4 -6.8655 -14.2912 2.2855 41.3519 -5.7086 8.4620
# 5 5.0662 -4.3391 2.9554 -5.7086 36.8084 2.9615
# 6 -12.6075 -14.2085 -11.2514 8.4620 2.9615 28.9541
#
#
#
# Elastic Compliance Matrix: (Units=1/GPa)
#
#
# Indices 1 2 3 4 5 6 
#
# 1 0.013167 -0.005764 -0.000735 -0.000795 -0.002809 0.003139
# 2 -0.005764 0.014177 -0.002630 0.004138 0.003165 0.001892
# 3 -0.000735 -0.002630 0.025781 -0.005101 -0.003899 0.010297
# 4 -0.000795 0.004138 -0.005101 0.028510 0.006174 -0.009262
# 5 -0.002809 0.003165 -0.003899 0.006174 0.029683 -0.006025
# 6 0.003139 0.001892 0.010297 -0.009262 -0.006025 0.044157
#
#
# Mechanical properties :
#
#
# Convention : Reuss Voigt Hill
#
# Bulk Modulus (GPa) = 28.67986 42.96665 35.82326
# Shear Modulus (GPa) = 26.97512 33.00284 29.98898
#
# Velocity S-wave (km/s) = 3.42102 3.78399 3.60708
# Velocity P-wave (km/s) = 5.29599 6.14271 5.73500
#
# Compressibility (1/GPa) = 0.03486767
#
# Stress axis : x y z
#
# Youngs Moduli (GPa) = 75.94867 70.53621 38.78750
#
# Poissons Ratio (x) = 0.40654 0.02851
# Poissons Ratio (y) = 0.43774 0.10202
# Poissons Ratio (z) = 0.05583 0.18552
#
# Static dielectric constant tensor:
#      x y z
#    x 1.896990 0.010470 0.011550 
#    y 0.010470 1.900380 -0.026250 
#    z 0.011550 -0.026250 1.880640 
# 
# From -- ./inp_files/225784.got.cif
#   From: 2010.05.17/outbox.cif.g08.bks.cpg/sg2_113_cif.got.tgz:225784.got - 2010.06.03 11:33:40.
