data_PCOD9036709
_publ_section_title
;
Structure prediction by ZEFSAII (Michael W. Deem and Ramdas Pophale) SiO2 
 PCOD9036709
Probable space group: P -1
;
_chemical_formula_sum "Si O2"
_cell_formula_units_Z 14
_cell_length_a 17.496083
_cell_length_b 6.613571
_cell_length_c 11.570977
_cell_angle_alpha 97.145085
_cell_angle_beta 155.263140
_cell_angle_gamma 81.372899
_cell_volume 553.696444
_symmetry_space_group_name_H-M "P -1"
_symmetry_group_IT_number 2
_symmetry_cell_setting 'triclinic'
loop_
_space_group_symop_operation_xyz
x,y,z
-x,-y,-z
loop_
_atom_site_type_symbol
_atom_site_label
_atom_site_fract_x
_atom_site_fract_y
_atom_site_fract_z
Si Si1 0.175866 0.010300 0.065774
Si Si2 0.893485 0.348357 0.723403
Si Si3 0.399100 0.312827 0.614897
Si Si4 0.984816 0.370733 0.290271
Si Si5 0.698332 0.586412 0.091858
Si Si6 0.590049 0.068014 0.245908
Si Si7 0.510047 0.739275 0.521744
O O1 0.305956 0.157830 0.185957
O O2 0.325108 0.856766 0.326210
O O3 0.039505 0.171420 0.960184
O O4 0.067922 0.855390 0.830390
O O5 0.762492 0.511626 0.627127
O O6 0.990152 0.493899 0.778766
O O7 0.750864 0.212869 0.453475
O O8 0.339609 0.128523 0.596581
O O9 0.490566 0.232399 0.616428
O O10 0.552187 0.422201 0.904556
O O11 0.171523 0.367457 0.620072
O O12 0.827829 0.488173 0.161981
O O13 0.570812 0.790799 0.899486
O O14 0.500000 0.000000 0.000000
O O15 0.500000 0.500000 0.500000
#
# Coordination Sequence:
#
# PCOD9036709 Si02
#       7
#     2   2   2   2   2   2   2
#     4  11  24  42  71  98 132 177 227 283 339 405
#     4  11  24  40  69  97 142 174 224 284 335 408
#     4  11  24  45  68 101 137 180 229 277 342 407
#     4  11  22  42  64 106 138 180 225 283 338 403
#     4  10  23  38  69  98 141 181 225 280 336 406
#     4  11  23  42  67 102 141 187 222 271 341 412
#     4  11  26  47  71  96 134 180 230 290 342 396
#
# _framework density 25.284611999999999
#
# number of rings (size 3 to 8) (size 9 to 14) (size 15 to 20)
#    0.000    1.143    1.429    4.286    2.000    6.286 
#    0.000    7.143    0.000    0.000    0.000    0.000 
#    0.000    0.000    0.000    0.000    0.000    0.000 
#
# Total GULP energy -78342.755331 kJ/mol
# GULP energy per Si atom -5595.911095 kJ/mol
# Density = 2.522706 g / cm^3
# Si number density = 25.284612 Si / 1000 Ang^3
#
#
#
# Elastic Constant Matrix: (Units=GPa)
#
#
# Indices 1 2 3 4 5 6 
#
# 1 46.1698 35.0054 28.4527 9.7282 -2.9910 2.9565
# 2 35.0054 197.6928 86.9985 9.4715 2.1137 -6.2829
# 3 28.4527 86.9985 122.2681 8.8100 10.4518 -22.8866
# 4 9.7282 9.4715 8.8100 79.2722 -15.7270 4.3501
# 5 -2.9910 2.1137 10.4518 -15.7270 34.1246 -1.7194
# 6 2.9565 -6.2829 -22.8866 4.3501 -1.7194 36.6632
#
#
#
# Elastic Compliance Matrix: (Units=1/GPa)
#
#
# Indices 1 2 3 4 5 6 
#
# 1 0.028269 -0.002440 -0.006209 -0.001440 0.003553 -0.006236
# 2 -0.002440 0.007798 -0.005430 0.000270 0.000998 -0.001842
# 3 -0.006209 -0.005430 0.015868 -0.001962 -0.005496 0.009450
# 4 -0.001440 0.000270 -0.001962 0.014504 0.007019 -0.002454
# 5 0.003553 0.000998 -0.005496 0.007019 0.034332 -0.002769
# 6 -0.006236 -0.001842 0.009450 -0.002454 -0.002769 0.033523
#
#
# Mechanical properties :
#
#
# Convention : Reuss Voigt Hill
#
# Bulk Modulus (GPa) = 42.06121 74.11599 58.08860
# Shear Modulus (GPa) = 29.34634 44.39027 36.86831
#
# Velocity S-wave (km/s) = 3.41051 4.19456 3.82269
# Velocity P-wave (km/s) = 5.67274 7.26880 6.51980
#
# Compressibility (1/GPa) = 0.02377488
#
# Stress axis : x y z
#
# Youngs Moduli (GPa) = 35.37454 128.23832 63.02131
#
# Poissons Ratio (x) = 0.31293 0.39132
# Poissons Ratio (y) = 0.08632 0.34222
# Poissons Ratio (z) = 0.21965 0.69637
#
# Static dielectric constant tensor:
#      x y z
#    x 1.933410 -0.021140 0.007430 
#    y -0.021140 1.976200 -0.025230 
#    z 0.007430 -0.025230 2.057470 
# 
# From -- ./inp_files/105255.got.cif
#   From: 2010.05.17/outbox.cif.g08.bks.cpg/sg2_53_cif.got.tgz:105255.got - 2010.06.03 11:33:40.
