data_PCOD9036044
_publ_section_title
;
Structure prediction by ZEFSAII (Michael W. Deem and Ramdas Pophale) SiO2 
 PCOD9036044
Probable space group: P -1
;
_chemical_formula_sum "Si O2"
_cell_formula_units_Z 16
_cell_length_a 8.342112
_cell_length_b 15.420434
_cell_length_c 6.598247
_cell_angle_alpha 119.739727
_cell_angle_beta 92.219235
_cell_angle_gamma 67.907193
_cell_volume 671.252325
_symmetry_space_group_name_H-M "P -1"
_symmetry_group_IT_number 2
_symmetry_cell_setting 'triclinic'
loop_
_space_group_symop_operation_xyz
x,y,z
-x,-y,-z
loop_
_atom_site_type_symbol
_atom_site_label
_atom_site_fract_x
_atom_site_fract_y
_atom_site_fract_z
Si Si1 0.781816 0.278904 0.882925
Si Si2 0.213755 0.940634 0.923393
Si Si3 0.953768 0.405730 0.794194
Si Si4 0.648345 0.938124 0.600794
Si Si5 0.534666 0.304557 0.260226
Si Si6 0.882138 0.884005 0.180319
Si Si7 0.235892 0.246182 0.305072
Si Si8 0.401513 0.575895 0.268278
O O1 0.628660 0.326746 0.095038
O O2 0.682160 0.301246 0.692512
O O3 0.906569 0.343102 0.909958
O O4 0.910502 0.157740 0.815927
O O5 0.302593 0.983480 0.156763
O O6 0.226153 0.994804 0.771488
O O7 0.312744 0.810903 0.790384
O O8 0.000000 0.000000 0.000000
O O9 0.099402 0.332626 0.554240
O O10 0.000000 0.500000 0.000000
O O11 0.766385 0.449148 0.717577
O O12 0.809309 0.873774 0.383797
O O13 0.633126 0.849743 0.652105
O O14 0.500000 0.000000 0.500000
O O15 0.356249 0.286769 0.220528
O O16 0.491832 0.407244 0.524694
O O17 0.858811 0.807601 0.913010
O O18 0.500000 0.500000 0.000000
#
# Coordination Sequence:
#
# PCOD9036044 Si02
#       8
#     2   2   2   2   2   2   2   2
#     4  10  24  42  70  96 130 177 225 273 345 413
#     4  11  25  39  68 102 146 189 226 290 341 405
#     4  10  22  47  70  97 130 176 229 285 354 407
#     4  11  23  42  66  97 141 185 240 277 338 414
#     4  12  24  44  66 105 140 174 230 279 347 405
#     4  11  22  44  68  96 139 185 238 271 340 418
#     4  11  24  42  69  99 140 181 226 296 337 400
#     4  10  24  45  71  96 139 173 221 295 345 401
#
# _framework density 23.836043
#
# number of rings (size 3 to 8) (size 9 to 14) (size 15 to 20)
#    0.750    0.500    2.500    3.000    3.500    6.000 
#    2.250    1.250    0.000    0.000    0.000    0.000 
#    0.000    0.000    0.000    0.000    0.000    0.000 
#
# Total GULP energy -89197.458040 kJ/mol
# GULP energy per Si atom -5574.841128 kJ/mol
# Density = 2.378179 g / cm^3
# Si number density = 23.836043 Si / 1000 Ang^3
#
#
#
# Elastic Constant Matrix: (Units=GPa)
#
#
# Indices 1 2 3 4 5 6 
#
# 1 76.0543 13.1137 16.6904 2.1576 -26.6585 0.0490
# 2 13.1137 90.0005 27.9454 -10.4816 1.7101 8.2936
# 3 16.6904 27.9454 99.3444 5.3479 -13.6542 13.9969
# 4 2.1576 -10.4816 5.3479 33.3517 -1.3536 -3.3502
# 5 -26.6585 1.7101 -13.6542 -1.3536 38.5372 -11.9121
# 6 0.0490 8.2936 13.9969 -3.3502 -11.9121 34.8483
#
#
#
# Elastic Compliance Matrix: (Units=1/GPa)
#
#
# Indices 1 2 3 4 5 6 
#
# 1 0.019252 -0.003454 -0.001031 -0.000929 0.015005 0.006249
# 2 -0.003454 0.013711 -0.003802 0.004629 -0.005121 -0.003037
# 3 -0.001031 -0.003802 0.012340 -0.003348 0.002638 -0.003471
# 4 -0.000929 0.004629 -0.003348 0.032384 0.000158 0.003412
# 5 0.015005 -0.005121 0.002638 0.000158 0.041979 0.014503
# 6 0.006249 -0.003037 -0.003471 0.003412 0.014503 0.036089
#
#
# Mechanical properties :
#
#
# Convention : Reuss Voigt Hill
#
# Bulk Modulus (GPa) = 34.80702 42.32200 38.56451
# Shear Modulus (GPa) = 27.48666 35.19075 31.33870
#
# Velocity S-wave (km/s) = 3.39950 3.84652 3.62990
# Velocity P-wave (km/s) = 5.48116 6.12549 5.81226
#
# Compressibility (1/GPa) = 0.02872984
#
# Stress axis : x y z
#
# Youngs Moduli (GPa) = 51.94237 72.93369 81.03486
#
# Poissons Ratio (x) = 0.25193 0.08354
# Poissons Ratio (y) = 0.17942 0.30808
# Poissons Ratio (z) = 0.05355 0.27728
#
# Static dielectric constant tensor:
#      x y z
#    x 3.585240 0.456950 -0.415820 
#    y 0.456950 2.168340 -0.106600 
#    z -0.415820 -0.106600 1.915370 
# 
# From -- ./inp_files/49325.got.cif
#   From: 2010.05.17/outbox.cif.g08.bks.cpg/sg2_25_cif.got.tgz:49325.got - 2010.06.03 11:33:40.
