data_PCOD9036207
_publ_section_title
;
Structure prediction by ZEFSAII (Michael W. Deem and Ramdas Pophale) SiO2 
 PCOD9036207
Probable space group: P -1
;
_chemical_formula_sum "Si O2"
_cell_formula_units_Z 13
_cell_length_a 7.197547
_cell_length_b 14.308140
_cell_length_c 19.353825
_cell_angle_alpha 159.764047
_cell_angle_beta 117.995216
_cell_angle_gamma 70.664820
_cell_volume 568.387538
_symmetry_space_group_name_H-M "P -1"
_symmetry_group_IT_number 2
_symmetry_cell_setting 'triclinic'
loop_
_space_group_symop_operation_xyz
x,y,z
-x,-y,-z
loop_
_atom_site_type_symbol
_atom_site_label
_atom_site_fract_x
_atom_site_fract_y
_atom_site_fract_z
Si Si1 0.643604 0.852727 0.338276
Si Si2 0.917126 0.197311 0.418636
Si Si3 0.893479 0.891639 0.748428
Si Si4 0.155290 0.261932 0.163398
Si Si5 0.849636 0.183974 0.728152
Si Si6 0.500000 0.500000 0.500000
Si Si7 0.527607 0.184641 0.868406
O O1 0.402480 0.865015 0.326434
O O2 0.631460 0.869943 0.265435
O O3 0.831328 0.103978 0.587945
O O4 0.630391 0.530893 0.134523
O O5 0.931847 0.474344 0.657625
O O6 0.022534 0.252496 0.399474
O O7 0.648528 0.998297 0.230663
O O8 0.053447 0.028550 0.363813
O O9 0.747393 0.669017 0.625753
O O10 0.724266 0.054555 0.806788
O O11 0.109168 0.136916 0.991463
O O12 0.400842 0.375397 0.318262
O O13 0.000000 0.000000 0.000000
O O14 0.000000 0.500000 0.000000
#
# Coordination Sequence:
#
# PCOD9036207 Si02
#       7
#     2   2   2   2   2   1   2
#     4  10  23  41  66  95 148 185 227 286 330 402
#     4  12  24  43  72 102 137 184 231 281 348 409
#     4  11  24  46  69 101 139 175 231 287 344 414
#     4  10  24  46  71  99 134 176 228 287 350 412
#     4  11  22  41  64 102 139 185 236 273 343 409
#     4  10  22  48  70  94 132 170 224 286 344 414
#     4  11  22  44  67 102 140 188 233 281 339 407
#
# _framework density 22.871718000000001
#
# number of rings (size 3 to 8) (size 9 to 14) (size 15 to 20)
#    0.000    1.231    4.615    0.923    0.000    4.308 
#    5.538    2.308    0.000    0.000    0.000    0.000 
#    0.000    0.000    0.000    0.000    0.000    0.000 
#
# Total GULP energy -72396.162138 kJ/mol
# GULP energy per Si atom -5568.935549 kJ/mol
# Density = 2.281966 g / cm^3
# Si number density = 22.871718 Si / 1000 Ang^3
#
#
#
# Elastic Constant Matrix: (Units=GPa)
#
#
# Indices 1 2 3 4 5 6 
#
# 1 66.6467 -1.6763 13.7815 -4.8116 5.7454 11.1701
# 2 -1.6763 33.6781 27.4890 -14.8180 6.2602 -4.7229
# 3 13.7815 27.4890 134.0579 -26.9672 4.9393 -3.3521
# 4 -4.8116 -14.8180 -26.9672 52.7115 -6.6681 -6.9302
# 5 5.7454 6.2602 4.9393 -6.6681 24.7012 -1.1346
# 6 11.1701 -4.7229 -3.3521 -6.9302 -1.1346 38.6103
#
#
#
# Elastic Compliance Matrix: (Units=1/GPa)
#
#
# Indices 1 2 3 4 5 6 
#
# 1 0.016726 0.002800 -0.002259 -0.000030 -0.004378 -0.004827
# 2 0.002800 0.040834 -0.006653 0.008047 -0.007275 0.004838
# 3 -0.002259 -0.006653 0.009688 0.003201 0.001198 0.001291
# 4 -0.000030 0.008047 0.003201 0.024140 0.004107 0.005725
# 5 -0.004378 -0.007275 0.001198 0.004107 0.044331 0.002521
# 6 -0.004827 0.004838 0.001291 0.005725 0.002521 0.029102
#
#
# Mechanical properties :
#
#
# Convention : Reuss Voigt Hill
#
# Bulk Modulus (GPa) = 18.17390 34.84121 26.50756
# Shear Modulus (GPa) = 25.59016 36.19051 30.89033
#
# Velocity S-wave (km/s) = 3.34856 3.98216 3.67903
# Velocity P-wave (km/s) = 4.78683 6.03406 5.44626
#
# Compressibility (1/GPa) = 0.05502395
#
# Stress axis : x y z
#
# Youngs Moduli (GPa) = 59.78608 24.48928 103.21975
#
# Poissons Ratio (x) = -0.06858 0.23319
# Poissons Ratio (y) = -0.16741 0.68676
# Poissons Ratio (z) = 0.13507 0.16294
#
# Static dielectric constant tensor:
#      x y z
#    x 1.860740 0.011490 -0.028560 
#    y 0.011490 1.911880 0.012530 
#    z -0.028560 0.012530 1.879130 
# 
# From -- ./inp_files/590158.got.cif
#   From: 2010.05.17/outbox.cif.g08.bks.cpg/sg2_296_cif.got.tgz:590158.got - 2010.06.03 11:33:40.
