data_PCOD9036179
_publ_section_title
;
Structure prediction by ZEFSAII (Michael W. Deem and Ramdas Pophale) SiO2 
 PCOD9036179
Probable space group: P -1
;
_chemical_formula_sum "Si O2"
_cell_formula_units_Z 16
_cell_length_a 17.307604
_cell_length_b 8.098865
_cell_length_c 7.304814
_cell_angle_alpha 78.063166
_cell_angle_beta 44.347537
_cell_angle_gamma 98.200802
_cell_volume 633.919428
_symmetry_space_group_name_H-M "P -1"
_symmetry_group_IT_number 2
_symmetry_cell_setting 'triclinic'
loop_
_space_group_symop_operation_xyz
x,y,z
-x,-y,-z
loop_
_atom_site_type_symbol
_atom_site_label
_atom_site_fract_x
_atom_site_fract_y
_atom_site_fract_z
Si Si1 0.726101 0.349468 0.156927
Si Si2 0.412983 0.306848 0.105140
Si Si3 0.819927 0.937612 0.874061
Si Si4 0.893313 0.236393 0.393520
Si Si5 0.215001 0.983479 0.717872
Si Si6 0.155848 0.453430 0.749960
Si Si7 0.469394 0.282427 0.635178
Si Si8 0.176627 0.336223 0.352806
O O1 0.743504 0.489725 0.271591
O O2 0.584009 0.258412 0.361012
O O3 0.767948 0.192570 0.187415
O O4 0.806848 0.478906 0.827162
O O5 0.343924 0.149508 0.406339
O O6 0.310288 0.348043 0.164451
O O7 0.500000 0.500000 0.000000
O O8 0.473965 0.242611 0.853729
O O9 0.872481 0.825630 0.679792
O O10 0.862649 0.136819 0.660877
O O11 0.852898 0.951063 0.027725
O O12 0.670911 0.842012 0.153385
O O13 0.817003 0.351657 0.441641
O O14 0.856331 0.077918 0.336981
O O15 0.032342 0.378578 0.094085
O O16 0.129644 0.323842 0.643175
O O17 0.500000 0.500000 0.500000
#
# Coordination Sequence:
#
# PCOD9036179 Si02
#       8
#     2   2   2   2   2   2   2   2
#     4  11  24  42  67 101 128 172 225 264 323 392
#     4  11  22  39  64  90 133 180 209 261 327 380
#     4  11  23  40  66  93 137 171 212 265 328 389
#     4  10  22  48  65  96 130 175 214 279 331 378
#     4  11  24  42  65  97 132 171 221 264 324 391
#     4  10  24  43  72  91 132 170 225 274 325 384
#     4  11  20  40  63  92 135 169 209 261 324 387
#     4  11  23  41  66  98 128 169 219 266 323 385
#
# _framework density 25.239801
#
# number of rings (size 3 to 8) (size 9 to 14) (size 15 to 20)
#    0.000    1.250    5.000    2.250    1.750    2.500 
#    2.250    5.000    0.000    0.000    0.000    0.000 
#    0.000    0.000    0.000    0.000    0.000    0.000 
#
# Total GULP energy -89429.775057 kJ/mol
# GULP energy per Si atom -5589.360941 kJ/mol
# Density = 2.518235 g / cm^3
# Si number density = 25.239801 Si / 1000 Ang^3
#
#
#
# Elastic Constant Matrix: (Units=GPa)
#
#
# Indices 1 2 3 4 5 6 
#
# 1 73.9020 16.1499 23.7133 -0.3213 24.3475 1.0333
# 2 16.1499 75.5102 8.9935 -7.9530 22.0830 10.1029
# 3 23.7133 8.9935 98.1998 -17.9170 37.3572 -3.9596
# 4 -0.3213 -7.9530 -17.9170 39.6648 2.1694 18.2614
# 5 24.3475 22.0830 37.3572 2.1694 53.9321 0.2235
# 6 1.0333 10.1029 -3.9596 18.2614 0.2235 40.7448
#
#
#
# Elastic Compliance Matrix: (Units=1/GPa)
#
#
# Indices 1 2 3 4 5 6 
#
# 1 0.016268 -0.001883 -0.001954 -0.001003 -0.005180 0.000342
# 2 -0.001883 0.018161 0.003912 0.009794 -0.009655 -0.008412
# 3 -0.001954 0.003912 0.017103 0.011127 -0.012997 -0.004174
# 4 -0.001003 0.009794 0.011127 0.042176 -0.012878 -0.020154
# 5 -0.005180 -0.009655 -0.012997 -0.012878 0.034326 0.006846
# 6 0.000342 -0.008412 -0.004174 -0.020154 0.006846 0.035210
#
#
# Mechanical properties :
#
#
# Convention : Reuss Voigt Hill
#
# Bulk Modulus (GPa) = 19.34947 38.36948 28.85947
# Shear Modulus (GPa) = 27.72855 40.11870 33.92363
#
# Velocity S-wave (km/s) = 3.31812 3.99118 3.67011
# Velocity P-wave (km/s) = 4.72893 6.03940 5.42389
#
# Compressibility (1/GPa) = 0.05168101
#
# Stress axis : x y z
#
# Youngs Moduli (GPa) = 61.47208 55.06439 58.46956
#
# Poissons Ratio (x) = 0.10368 0.11427
# Poissons Ratio (y) = 0.11575 -0.22874
# Poissons Ratio (z) = 0.12013 -0.21542
#
# Static dielectric constant tensor:
#      x y z
#    x 1.981980 0.054590 0.002360 
#    y 0.054590 2.138860 0.067980 
#    z 0.002360 0.067980 2.013750 
# 
# From -- ./inp_files/342664.got.cif
#   From: 2010.05.17/outbox.cif.g08.bks.cpg/sg2_172_cif.got.tgz:342664.got - 2010.06.03 11:33:40.
