data_PCOD9036704
_publ_section_title
;
Structure prediction by ZEFSAII (Michael W. Deem and Ramdas Pophale) SiO2 
 PCOD9036704
Probable space group: P -1
;
_chemical_formula_sum "Si O2"
_cell_formula_units_Z 14
_cell_length_a 9.058504
_cell_length_b 11.465785
_cell_length_c 9.829852
_cell_angle_alpha 69.483261
_cell_angle_beta 45.971715
_cell_angle_gamma 91.462123
_cell_volume 630.218435
_symmetry_space_group_name_H-M "P -1"
_symmetry_group_IT_number 2
_symmetry_cell_setting 'triclinic'
loop_
_space_group_symop_operation_xyz
x,y,z
-x,-y,-z
loop_
_atom_site_type_symbol
_atom_site_label
_atom_site_fract_x
_atom_site_fract_y
_atom_site_fract_z
Si Si1 0.190751 0.068644 0.681826
Si Si2 0.718383 0.352464 0.619714
Si Si3 0.865235 0.209246 0.816531
Si Si4 0.291644 0.083648 0.929312
Si Si5 0.963939 0.374149 0.174622
Si Si6 0.364122 0.763713 0.774908
Si Si7 0.545418 0.503109 0.129767
O O1 0.269394 0.066326 0.786966
O O2 0.402891 0.105001 0.434277
O O3 0.096080 0.188238 0.686774
O O4 0.961231 0.937737 0.855632
O O5 0.848935 0.306579 0.670047
O O6 0.492201 0.220392 0.785301
O O7 0.861948 0.394328 0.374150
O O8 0.639113 0.465106 0.682596
O O9 0.789888 0.248163 0.991925
O O10 0.691805 0.052500 0.968010
O O11 0.780791 0.249025 0.262675
O O12 0.000000 0.500000 0.000000
O O13 0.209392 0.379750 0.043151
O O14 0.435965 0.636609 0.785386
O O15 0.500000 0.500000 0.000000
#
# Coordination Sequence:
#
# PCOD9036704 Si02
#       7
#     2   2   2   2   2   2   2
#     4   9  21  41  66  97 133 167 218 265 324 387
#     4  12  23  45  68  94 141 171 209 287 318 387
#     4  10  23  38  69  95 136 169 215 265 327 386
#     4   9  21  43  64 101 126 177 218 255 337 382
#     4  10  26  43  66  98 128 177 225 258 330 394
#     4  11  22  44  64  98 129 173 220 266 322 391
#     4  11  26  43  65  99 130 166 227 270 329 385
#
# _framework density 22.21452
#
# number of rings (size 3 to 8) (size 9 to 14) (size 15 to 20)
#    0.857    0.857    2.857    0.429    4.000    5.714 
#    2.571    0.714    0.000    0.000    0.000    0.000 
#    0.000    0.000    0.000    0.000    0.000    0.000 
#
# Total GULP energy -78179.336661 kJ/mol
# GULP energy per Si atom -5584.238333 kJ/mol
# Density = 2.216396 g / cm^3
# Si number density = 22.214520 Si / 1000 Ang^3
#
#
#
# Elastic Constant Matrix: (Units=GPa)
#
#
# Indices 1 2 3 4 5 6 
#
# 1 111.6396 22.5660 57.7123 8.0133 7.5847 -12.6999
# 2 22.5660 73.7884 24.0863 8.0339 3.6212 -22.9212
# 3 57.7123 24.0863 134.6774 25.4430 -2.4024 -0.3344
# 4 8.0133 8.0339 25.4430 32.9227 12.1905 -7.3429
# 5 7.5847 3.6212 -2.4024 12.1905 33.1621 -3.1233
# 6 -12.6999 -22.9212 -0.3344 -7.3429 -3.1233 33.0418
#
#
#
# Elastic Compliance Matrix: (Units=1/GPa)
#
#
# Indices 1 2 3 4 5 6 
#
# 1 0.012953 -0.000555 -0.006434 0.004831 -0.004658 0.005162
# 2 -0.000555 0.018776 -0.003435 0.001689 -0.001568 0.013004
# 3 -0.006434 -0.003435 0.013081 -0.011573 0.006419 -0.006689
# 4 0.004831 0.001689 -0.011573 0.047124 -0.018354 0.011649
# 5 -0.004658 -0.001568 0.006419 -0.018354 0.038295 -0.003272
# 6 0.005162 0.013004 -0.006689 0.011649 -0.003272 0.043481
#
#
# Mechanical properties :
#
#
# Convention : Reuss Voigt Hill
#
# Bulk Modulus (GPa) = 41.73394 58.75942 50.24668
# Shear Modulus (GPa) = 24.68590 34.20804 29.44697
#
# Velocity S-wave (km/s) = 3.33716 3.92841 3.64479
# Velocity P-wave (km/s) = 5.80314 6.86184 6.35458
#
# Compressibility (1/GPa) = 0.02396131
#
# Stress axis : x y z
#
# Youngs Moduli (GPa) = 77.20464 53.26024 76.44699
#
# Poissons Ratio (x) = 0.02955 0.49187
# Poissons Ratio (y) = 0.04284 0.26259
# Poissons Ratio (z) = 0.49675 0.18294
#
# Static dielectric constant tensor:
#      x y z
#    x 1.808130 0.003280 -0.038950 
#    y 0.003280 1.883260 -0.061180 
#    z -0.038950 -0.061180 1.815410 
# 
# From -- ./inp_files/168334.got.cif
#   From: 2010.05.17/outbox.cif.g08.bks.cpg/sg2_85_cif.got.tgz:168334.got - 2010.06.03 11:33:40.
