data_PCOD9036961
_publ_section_title
;
Structure prediction by ZEFSAII (Michael W. Deem and Ramdas Pophale) SiO2 
 PCOD9036961
Probable space group: P -1
;
_chemical_formula_sum "Si O2"
_cell_formula_units_Z 12
_cell_length_a 8.720533
_cell_length_b 7.481716
_cell_length_c 8.759342
_cell_angle_alpha 54.104987
_cell_angle_beta 86.982006
_cell_angle_gamma 102.918094
_cell_volume 438.864682
_symmetry_space_group_name_H-M "P -1"
_symmetry_group_IT_number 2
_symmetry_cell_setting 'triclinic'
loop_
_space_group_symop_operation_xyz
x,y,z
-x,-y,-z
loop_
_atom_site_type_symbol
_atom_site_label
_atom_site_fract_x
_atom_site_fract_y
_atom_site_fract_z
Si Si1 0.321563 0.392120 0.422561
Si Si2 0.433787 0.020118 0.723954
Si Si3 0.778485 0.416350 0.197852
Si Si4 0.118685 0.080185 0.810277
Si Si5 0.555535 0.688196 0.043117
Si Si6 0.929294 0.705092 0.761383
O O1 0.194220 0.336257 0.596983
O O2 0.421937 0.627234 0.215272
O O3 0.206359 0.256347 0.359131
O O4 0.455846 0.271571 0.525930
O O5 0.358079 0.830131 0.690953
O O6 0.280706 0.001664 0.853039
O O7 0.566426 0.931202 0.843900
O O8 0.708944 0.626588 0.132201
O O9 0.931865 0.374281 0.291150
O O10 0.841286 0.492818 0.983984
O O11 0.015089 0.920613 0.757379
O O12 0.000000 0.000000 0.000000
O O13 0.500000 0.500000 0.000000
#
# Coordination Sequence:
#
# PCOD9036961 Si02
#       6
#     2   2   2   2   2   2
#     4  10  19  32  57  81 104 133 176 219 255 309
#     4   8  18  31  52  77 108 129 175 212 252 312
#     4   9  18  29  54  79 111 130 165 223 272 291
#     4   9  20  35  51  76 109 141 172 212 259 308
#     4  10  17  33  50  84 110 134 164 220 271 304
#     4  10  17  34  53  83 105 128 177 224 253 306
#
# _framework density 27.343278000000002
#
# number of rings (size 3 to 8) (size 9 to 14) (size 15 to 20)
#    1.000    1.667    3.333    0.500    0.000    2.667 
#    0.000    0.833    0.000    2.000    0.000    0.000 
#    0.000    0.000    0.000    0.000    0.000    0.000 
#
# Total GULP energy -66906.966280 kJ/mol
# GULP energy per Si atom -5575.580523 kJ/mol
# Density = 2.728104 g / cm^3
# Si number density = 27.343278 Si / 1000 Ang^3
#
#
#
# Elastic Constant Matrix: (Units=GPa)
#
#
# Indices 1 2 3 4 5 6 
#
# 1 104.3891 24.6528 40.2889 11.0011 2.7306 -11.8278
# 2 24.6528 82.1254 20.0949 -1.7892 -1.0211 -22.1874
# 3 40.2889 20.0949 117.7969 -2.0742 -4.0667 1.8629
# 4 11.0011 -1.7892 -2.0742 49.9262 -0.8427 -3.7273
# 5 2.7306 -1.0211 -4.0667 -0.8427 63.6555 -0.5547
# 6 -11.8278 -22.1874 1.8629 -3.7273 -0.5547 36.1664
#
#
#
# Elastic Compliance Matrix: (Units=1/GPa)
#
#
# Indices 1 2 3 4 5 6 
#
# 1 0.012194 -0.002055 -0.003938 -0.002741 -0.000821 0.002635
# 2 -0.002055 0.015876 -0.002114 0.001637 0.000311 0.009350
# 3 -0.003938 -0.002114 0.010289 0.001009 0.000780 -0.002999
# 4 -0.002741 0.001637 0.001009 0.020908 0.000504 0.002218
# 5 -0.000821 0.000311 0.000780 0.000504 0.015808 0.000177
# 6 0.002635 0.009350 -0.002999 0.002218 0.000177 0.034634
#
#
# Mechanical properties :
#
#
# Convention : Reuss Voigt Hill
#
# Bulk Modulus (GPa) = 45.15700 52.70939 48.93319
# Shear Modulus (GPa) = 37.50835 44.56796 41.03816
#
# Velocity S-wave (km/s) = 3.70774 4.04163 3.87828
# Velocity P-wave (km/s) = 5.90597 6.41081 6.16356
#
# Compressibility (1/GPa) = 0.02214496
#
# Stress axis : x y z
#
# Youngs Moduli (GPa) = 82.00960 62.98771 97.19258
#
# Poissons Ratio (x) = 0.12943 0.38277
# Poissons Ratio (y) = 0.16851 0.20545
# Poissons Ratio (z) = 0.32297 0.13315
#
# Static dielectric constant tensor:
#      x y z
#    x 2.154770 0.051430 -0.010740 
#    y 0.051430 2.297840 0.051660 
#    z -0.010740 0.051660 2.097020 
# 
# From -- ./inp_files/156649.got.cif
#   From: 2010.05.17/outbox.cif.g08.bks.cpg/sg2_79_cif.got.tgz:156649.got - 2010.06.03 11:33:40.
