data_PCOD9036182
_publ_section_title
;
Structure prediction by ZEFSAII (Michael W. Deem and Ramdas Pophale) SiO2 
 PCOD9036182
Probable space group: P -1
;
_chemical_formula_sum "Si O2"
_cell_formula_units_Z 13
_cell_length_a 9.069385
_cell_length_b 9.830054
_cell_length_c 11.003992
_cell_angle_alpha 122.166723
_cell_angle_beta 139.718110
_cell_angle_gamma 80.924000
_cell_volume 478.440499
_symmetry_space_group_name_H-M "P -1"
_symmetry_group_IT_number 2
_symmetry_cell_setting 'triclinic'
loop_
_space_group_symop_operation_xyz
x,y,z
-x,-y,-z
loop_
_atom_site_type_symbol
_atom_site_label
_atom_site_fract_x
_atom_site_fract_y
_atom_site_fract_z
Si Si1 0.500000 0.000000 0.000000
Si Si2 0.257572 0.826683 0.318864
Si Si3 0.214738 0.568784 0.955892
Si Si4 0.985711 0.034698 0.150905
Si Si5 0.755662 0.550242 0.490668
Si Si6 0.423758 0.783941 0.669733
Si Si7 0.570694 0.694111 0.033126
O O1 0.726742 0.192362 0.300040
O O2 0.382516 0.121275 0.907988
O O3 0.331221 0.790713 0.481801
O O4 0.500000 0.000000 0.500000
O O5 0.199617 0.657922 0.114932
O O6 0.046409 0.896846 0.200751
O O7 0.479900 0.691684 0.112371
O O8 0.994641 0.564988 0.727882
O O9 0.218730 0.377987 0.881374
O O10 0.183832 0.242797 0.387229
O O11 0.682371 0.976379 0.956087
O O12 0.000000 0.000000 0.000000
O O13 0.534744 0.390687 0.358786
O O14 0.672282 0.463224 0.265200
#
# Coordination Sequence:
#
# PCOD9036182 Si02
#       7
#     1   2   2   2   2   2   2
#     4  10  22  48  66  96 142 174 226 286 334 406
#     4  12  23  43  69 102 139 179 229 286 344 406
#     4  11  23  42  65 101 136 178 236 278 339 412
#     4  12  24  46  71 103 139 182 229 285 342 413
#     4  11  24  45  69 100 136 183 230 280 347 406
#     4  11  27  46  70 103 140 181 229 289 344 409
#     4  10  23  42  70  97 135 186 229 283 338 409
#
# _framework density 27.171612
#
# number of rings (size 3 to 8) (size 9 to 14) (size 15 to 20)
#    0.000    0.923    3.077    3.231    0.000    6.154 
#    2.769    3.846    0.000    0.000    0.000    0.000 
#    0.000    0.000    0.000    0.000    0.000    0.000 
#
# Total GULP energy -72555.615235 kJ/mol
# GULP energy per Si atom -5581.201172 kJ/mol
# Density = 2.710977 g / cm^3
# Si number density = 27.171612 Si / 1000 Ang^3
#
#
#
# Elastic Constant Matrix: (Units=GPa)
#
#
# Indices 1 2 3 4 5 6 
#
# 1 80.2422 57.7682 46.2808 -2.6376 -10.2262 3.1819
# 2 57.7682 200.4241 22.7414 -3.5550 -14.5526 3.6960
# 3 46.2808 22.7414 122.7003 -4.1910 -25.3511 -4.8340
# 4 -2.6376 -3.5550 -4.1910 58.4061 5.7152 -4.5137
# 5 -10.2262 -14.5526 -25.3511 5.7152 47.9243 -5.7727
# 6 3.1819 3.6960 -4.8340 -4.5137 -5.7727 50.3914
#
#
#
# Elastic Compliance Matrix: (Units=1/GPa)
#
#
# Indices 1 2 3 4 5 6 
#
# 1 0.019989 -0.005027 -0.006904 0.000082 -0.001125 -0.001677
# 2 -0.005027 0.006427 0.001005 0.000107 0.001411 0.000114
# 3 -0.006904 0.001005 0.011749 0.000240 0.005273 0.002115
# 4 0.000082 0.000107 0.000240 0.017425 -0.001736 0.001372
# 5 -0.001125 0.001411 0.005273 -0.001736 0.024426 0.003116
# 6 -0.001677 0.000114 0.002115 0.001372 0.003116 0.020625
#
#
# Mechanical properties :
#
#
# Convention : Reuss Voigt Hill
#
# Bulk Modulus (GPa) = 61.30380 72.99417 67.14898
# Shear Modulus (GPa) = 39.08376 49.78279 44.43328
#
# Velocity S-wave (km/s) = 3.79674 4.28502 4.04825
# Velocity P-wave (km/s) = 6.46769 7.16968 6.82771
#
# Compressibility (1/GPa) = 0.01631220
#
# Stress axis : x y z
#
# Youngs Moduli (GPa) = 50.02698 155.60001 85.11666
#
# Poissons Ratio (x) = 0.78227 0.58761
# Poissons Ratio (y) = 0.25151 -0.08553
# Poissons Ratio (z) = 0.34536 -0.15636
#
# Static dielectric constant tensor:
#      x y z
#    x 3.286160 -0.122660 -0.197090 
#    y -0.122660 2.117690 0.061460 
#    z -0.197090 0.061460 2.317800 
# 
# From -- ./inp_files/413779.got.cif
#   From: 2010.05.17/outbox.cif.g08.bks.cpg/sg2_207_cif.got.tgz:413779.got - 2010.06.03 11:33:40.
