data_PCOD9036327
_publ_section_title
;
Structure prediction by ZEFSAII (Michael W. Deem and Ramdas Pophale) SiO2 
 PCOD9036327
Probable space group: P -1
;
_chemical_formula_sum "Si O2"
_cell_formula_units_Z 14
_cell_length_a 12.826127
_cell_length_b 8.148374
_cell_length_c 12.297771
_cell_angle_alpha 69.531325
_cell_angle_beta 144.026451
_cell_angle_gamma 133.570766
_cell_volume 477.146228
_symmetry_space_group_name_H-M "P -1"
_symmetry_group_IT_number 2
_symmetry_cell_setting 'triclinic'
loop_
_space_group_symop_operation_xyz
x,y,z
-x,-y,-z
loop_
_atom_site_type_symbol
_atom_site_label
_atom_site_fract_x
_atom_site_fract_y
_atom_site_fract_z
Si Si1 0.711817 0.460748 0.735675
Si Si2 0.889055 0.236088 0.509051
Si Si3 0.821183 0.320692 0.663608
Si Si4 0.615831 0.583328 0.345267
Si Si5 0.346492 0.851068 0.051843
Si Si6 0.181669 0.992992 0.096769
Si Si7 0.800140 0.896311 0.226350
O O1 0.685424 0.376768 0.608632
O O2 0.504211 0.419660 0.643855
O O3 0.738539 0.308243 0.869801
O O4 0.973857 0.770537 0.884141
O O5 0.595675 0.684435 0.194851
O O6 0.000000 0.500000 0.500000
O O7 0.077893 0.203282 0.690074
O O8 0.653629 0.027661 0.273905
O O9 0.758697 0.191832 0.524653
O O10 0.127228 0.602873 0.848046
O O11 0.787493 0.136652 0.760082
O O12 0.455385 0.292968 0.241179
O O13 0.931663 0.813264 0.571303
O O14 0.338033 0.053660 0.973893
O O15 0.000000 0.000000 0.000000
#
# Coordination Sequence:
#
# PCOD9036327 Si02
#       7
#     2   2   2   2   2   2   2
#     4  10  22  49  83 122 170 215 275 351 421 488
#     4  12  31  55  84 125 168 223 283 335 420 510
#     4  11  27  50  83 124 166 221 271 351 428 479
#     4  10  23  49  81 127 168 220 285 343 408 505
#     4  11  26  55  83 120 170 216 280 348 410 497
#     4   9  20  43  83 123 165 217 283 337 419 497
#     4  11  27  52  84 122 170 225 279 344 418 486
#
# _framework density 29.341108999999999
#
# number of rings (size 3 to 8) (size 9 to 14) (size 15 to 20)
#    0.000    1.429    1.429    1.714    4.000   11.429 
#    5.143    3.571    0.000    0.000    0.000    0.000 
#    0.000    0.000    0.000    0.000    0.000    0.000 
#
# Total GULP energy -78261.574384 kJ/mol
# GULP energy per Si atom -5590.112456 kJ/mol
# Density = 2.927433 g / cm^3
# Si number density = 29.341109 Si / 1000 Ang^3
#
#
#
# Elastic Constant Matrix: (Units=GPa)
#
#
# Indices 1 2 3 4 5 6 
#
# 1 164.4563 66.4963 52.3037 -6.0989 12.4915 -10.1055
# 2 66.4963 231.7708 72.3073 -1.7732 3.8272 -6.7029
# 3 52.3037 72.3073 106.9860 -4.4780 2.5610 -29.7813
# 4 -6.0989 -1.7732 -4.4780 73.6101 -12.8815 13.3329
# 5 12.4915 3.8272 2.5610 -12.8815 44.2407 -6.0951
# 6 -10.1055 -6.7029 -29.7813 13.3329 -6.0951 61.8282
#
#
#
# Elastic Compliance Matrix: (Units=1/GPa)
#
#
# Indices 1 2 3 4 5 6 
#
# 1 0.007656 -0.001242 -0.003006 0.000190 -0.001902 -0.000560
# 2 -0.001242 0.005780 -0.003675 0.000040 -0.000113 -0.001367
# 3 -0.003006 -0.003675 0.015087 -0.000422 0.001076 0.006575
# 4 0.000190 0.000040 -0.000422 0.014791 0.003864 -0.002977
# 5 -0.001902 -0.000113 0.001076 0.003864 0.024458 0.001773
# 6 -0.000560 -0.001367 0.006575 -0.002977 0.001773 0.019918
#
#
# Mechanical properties :
#
#
# Convention : Reuss Voigt Hill
#
# Bulk Modulus (GPa) = 78.88276 98.38087 88.63181
# Shear Modulus (GPa) = 46.39844 56.74284 51.57064
#
# Velocity S-wave (km/s) = 3.98093 4.40239 4.19695
# Velocity P-wave (km/s) = 6.93350 7.71001 7.33204
#
# Compressibility (1/GPa) = 0.01267704
#
# Stress axis : x y z
#
# Youngs Moduli (GPa) = 130.61753 173.00176 66.28144
#
# Poissons Ratio (x) = 0.21490 0.19922
# Poissons Ratio (y) = 0.16225 0.24361
# Poissons Ratio (z) = 0.39259 0.63585
#
# Static dielectric constant tensor:
#      x y z
#    x 1.959180 0.621430 0.210760 
#    y 0.621430 1.163470 -0.340170 
#    z 0.210760 -0.340170 2.348480 
# 
# From -- ./inp_files/192783.got.cif
#   From: 2010.05.17/outbox.cif.g08.bks.cpg/sg2_97_cif.got.tgz:192783.got - 2010.06.03 11:33:40.
