data_PCOD9036989
_publ_section_title
;
Structure prediction by ZEFSAII (Michael W. Deem and Ramdas Pophale) SiO2 
 PCOD9036989
Probable space group: P -1
;
_chemical_formula_sum "Si O2"
_cell_formula_units_Z 16
_cell_length_a 9.552940
_cell_length_b 17.064123
_cell_length_c 7.612568
_cell_angle_alpha 75.281483
_cell_angle_beta 79.437034
_cell_angle_gamma 131.680462
_cell_volume 782.590122
_symmetry_space_group_name_H-M "P -1"
_symmetry_group_IT_number 2
_symmetry_cell_setting 'triclinic'
loop_
_space_group_symop_operation_xyz
x,y,z
-x,-y,-z
loop_
_atom_site_type_symbol
_atom_site_label
_atom_site_fract_x
_atom_site_fract_y
_atom_site_fract_z
Si Si1 0.291905 0.908143 0.226646
Si Si2 0.123111 0.353040 0.671894
Si Si3 0.352049 0.312005 0.210285
Si Si4 0.518441 0.099085 0.503071
Si Si5 0.320060 0.678951 0.815768
Si Si6 0.896788 0.046157 0.484874
Si Si7 0.513559 0.470143 0.747461
Si Si8 0.998598 0.525490 0.280233
O O1 0.352121 0.859011 0.371522
O O2 0.235900 0.968115 0.312810
O O3 0.072430 0.788092 0.250640
O O4 0.500000 0.000000 0.000000
O O5 0.317526 0.389768 0.702061
O O6 0.251847 0.449697 0.426157
O O7 0.039538 0.394273 0.773045
O O8 0.454751 0.271370 0.266981
O O9 0.445530 0.421683 0.251712
O O10 0.096674 0.192835 0.333410
O O11 0.437578 0.377319 0.966472
O O12 0.643981 0.210524 0.277749
O O13 0.500000 0.000000 0.500000
O O14 0.272391 0.024918 0.597261
O O15 0.187406 0.596310 0.721077
O O16 0.206555 0.602373 0.064818
O O17 0.000000 0.000000 0.500000
O O18 0.000000 0.500000 0.500000
#
# Coordination Sequence:
#
# PCOD9036989 Si02
#       8
#     2   2   2   2   2   2   2   2
#     4  11  26  43  67 100 140 180 232 291 347 421
#     4  11  22  41  63  96 135 172 218 275 351 414
#     4  11  21  41  67  96 127 171 228 278 341 408
#     4  10  24  43  66  94 131 185 232 281 346 413
#     4  11  23  43  65  99 137 176 231 286 348 418
#     4  11  23  44  70  93 131 178 235 283 340 414
#     4  10  23  39  67  98 129 171 220 279 343 416
#     4  11  24  39  66  99 136 178 219 286 350 416
#
# _framework density 20.444929999999999
#
# number of rings (size 3 to 8) (size 9 to 14) (size 15 to 20)
#    0.000    1.250    3.750    1.500    5.250    2.000 
#    0.000    0.625    0.000    0.000    0.000    0.000 
#    0.000    0.000    0.000    0.000    0.000    0.000 
#
# Total GULP energy -89131.220904 kJ/mol
# GULP energy per Si atom -5570.701307 kJ/mol
# Density = 2.039840 g / cm^3
# Si number density = 20.444930 Si / 1000 Ang^3
#
#
#
# Elastic Constant Matrix: (Units=GPa)
#
#
# Indices 1 2 3 4 5 6 
#
# 1 101.1275 28.2799 27.1238 2.9814 -3.9557 0.4083
# 2 28.2799 102.5621 39.3442 -10.9419 1.2935 14.2733
# 3 27.1238 39.3442 102.2332 6.1487 -1.3126 15.6954
# 4 2.9814 -10.9419 6.1487 11.5159 -0.9705 -6.5016
# 5 -3.9557 1.2935 -1.3126 -0.9705 31.9259 -7.6654
# 6 0.4083 14.2733 15.6954 -6.5016 -7.6654 35.8735
#
#
#
# Elastic Compliance Matrix: (Units=1/GPa)
#
#
# Indices 1 2 3 4 5 6 
#
# 1 0.011422 -0.003110 -0.001815 -0.003917 0.001722 0.001560
# 2 -0.003110 0.014832 -0.005942 0.017910 -0.000728 -0.000175
# 3 -0.001815 -0.005942 0.014748 -0.017493 -0.001737 -0.007609
# 4 -0.003917 0.017910 -0.017493 0.129458 0.008196 0.025786
# 5 0.001722 -0.000728 -0.001737 0.008196 0.034096 0.009801
# 6 0.001560 -0.000175 -0.007609 0.025786 0.009801 0.038025
#
#
# Mechanical properties :
#
#
# Convention : Reuss Voigt Hill
#
# Bulk Modulus (GPa) = 51.90356 55.04653 53.47504
# Shear Modulus (GPa) = 18.46813 29.94136 24.20475
#
# Velocity S-wave (km/s) = 3.00877 3.83101 3.44452
# Velocity P-wave (km/s) = 6.12474 6.82288 6.48321
#
# Compressibility (1/GPa) = 0.01926650
#
# Stress axis : x y z
#
# Youngs Moduli (GPa) = 87.55417 67.42386 67.80517
#
# Poissons Ratio (x) = 0.20966 0.12309
# Poissons Ratio (y) = 0.27225 0.40293
# Poissons Ratio (z) = 0.15894 0.40066
#
# Static dielectric constant tensor:
#      x y z
#    x 1.832520 0.009610 -0.026330 
#    y 0.009610 1.757440 0.044070 
#    z -0.026330 0.044070 1.775120 
# 
# From -- ./inp_files/217303.got.cif
#   From: 2010.05.17/outbox.cif.g08.bks.cpg/sg2_109_cif.got.tgz:217303.got - 2010.06.03 11:33:40.
