data_PCOD9036742
_publ_section_title
;
Structure prediction by ZEFSAII (Michael W. Deem and Ramdas Pophale) SiO2 
 PCOD9036742
Probable space group: P -1
;
_chemical_formula_sum "Si O2"
_cell_formula_units_Z 16
_cell_length_a 5.155742
_cell_length_b 27.363421
_cell_length_c 11.901920
_cell_angle_alpha 151.581392
_cell_angle_beta 108.088448
_cell_angle_gamma 59.155779
_cell_volume 644.285058
_symmetry_space_group_name_H-M "P -1"
_symmetry_group_IT_number 2
_symmetry_cell_setting 'triclinic'
loop_
_space_group_symop_operation_xyz
x,y,z
-x,-y,-z
loop_
_atom_site_type_symbol
_atom_site_label
_atom_site_fract_x
_atom_site_fract_y
_atom_site_fract_z
Si Si1 0.892231 0.785635 0.403711
Si Si2 0.440745 0.445139 0.992220
Si Si3 0.645667 0.781191 0.822434
Si Si4 0.883234 0.687800 0.430073
Si Si5 0.166160 0.518386 0.453400
Si Si6 0.616522 0.736374 0.092139
Si Si7 0.815934 0.914847 0.447126
Si Si8 0.092277 0.876085 0.119110
O O1 0.922822 0.770784 0.511548
O O2 0.829442 0.787098 0.167778
O O3 0.848146 0.898321 0.555048
O O4 0.205704 0.663674 0.149226
O O5 0.218454 0.570267 0.283834
O O6 0.500000 0.500000 0.000000
O O7 0.256930 0.378848 0.795935
O O8 0.651009 0.764252 0.654921
O O9 0.323554 0.823695 0.934971
O O10 0.916729 0.648269 0.633479
O O11 0.787899 0.864650 0.038702
O O12 0.500000 0.500000 0.500000
O O13 0.000000 0.500000 0.500000
O O14 0.244041 0.404075 0.158183
O O15 0.588765 0.781545 0.307180
O O16 0.303912 0.794273 0.088268
O O17 0.500000 0.000000 0.500000
O O18 0.990400 0.988761 0.599229
#
# Coordination Sequence:
#
# PCOD9036742 Si02
#       8
#     2   2   2   2   2   2   2   2
#     4   9  20  41  67  94 128 168 232 279 335 387
#     4   9  20  38  61  89 132 172 227 269 326 401
#     4  12  26  41  70  92 146 179 219 278 341 422
#     4  10  23  39  59  99 129 182 220 276 338 403
#     4  12  23  41  61  98 137 171 218 268 343 415
#     4   9  20  41  67  95 132 166 228 275 341 385
#     4   8  19  43  71  94 131 170 233 289 326 396
#     4  11  23  48  64 102 130 184 226 274 344 398
#
# _framework density 24.833729999999999
#
# number of rings (size 3 to 8) (size 9 to 14) (size 15 to 20)
#    0.750    1.250    2.500    0.000    8.750    1.000 
#    4.500    8.125    0.000    0.000    0.000    0.000 
#    0.000    0.000    0.000    0.000    0.000    0.000 
#
# Total GULP energy -89178.865593 kJ/mol
# GULP energy per Si atom -5573.679100 kJ/mol
# Density = 2.477721 g / cm^3
# Si number density = 24.833730 Si / 1000 Ang^3
#
#
#
# Elastic Constant Matrix: (Units=GPa)
#
#
# Indices 1 2 3 4 5 6 
#
# 1 86.7433 35.2530 24.2416 11.2980 -6.6752 14.1770
# 2 35.2530 147.7883 30.8951 24.5872 -14.4417 20.0493
# 3 24.2416 30.8951 82.2773 20.6148 4.2175 3.1837
# 4 11.2980 24.5872 20.6148 41.9343 11.1119 -2.7975
# 5 -6.6752 -14.4417 4.2175 11.1119 51.2950 7.8552
# 6 14.1770 20.0493 3.1837 -2.7975 7.8552 38.3125
#
#
#
# Elastic Compliance Matrix: (Units=1/GPa)
#
#
# Indices 1 2 3 4 5 6 
#
# 1 0.014363 -0.001315 -0.002993 -0.002813 0.003155 -0.005230
# 2 -0.001315 0.009781 -0.001746 -0.006243 0.004992 -0.005966
# 3 -0.002993 -0.001746 0.015035 -0.005235 -0.001077 0.000610
# 4 -0.002813 -0.006243 -0.005235 0.034264 -0.010557 0.009409
# 5 0.003155 0.004992 -0.001077 -0.010557 0.025160 -0.009620
# 6 -0.005230 -0.005966 0.000610 0.009409 -0.009620 0.033768
#
#
# Mechanical properties :
#
#
# Convention : Reuss Voigt Hill
#
# Bulk Modulus (GPa) = 36.93942 55.28759 46.11350
# Shear Modulus (GPa) = 32.57319 41.40299 36.98809
#
# Velocity S-wave (km/s) = 3.62560 4.08758 3.86350
# Velocity P-wave (km/s) = 5.69505 6.67751 6.20575
#
# Compressibility (1/GPa) = 0.02707135
#
# Stress axis : x y z
#
# Youngs Moduli (GPa) = 69.62391 102.23908 66.51299
#
# Poissons Ratio (x) = 0.13440 0.19906
# Poissons Ratio (y) = 0.09153 0.11615
# Poissons Ratio (z) = 0.20837 0.17853
#
# Static dielectric constant tensor:
#      x y z
#    x 1.898090 0.036930 0.409230 
#    y 0.036930 1.973950 -0.111240 
#    z 0.409230 -0.111240 1.157030 
# 
# From -- ./inp_files/371362.got.cif
#   From: 2010.05.17/outbox.cif.g08.bks.cpg/sg2_186_cif.got.tgz:371362.got - 2010.06.03 11:33:40.
