data_PCOD9036626
_publ_section_title
;
Structure prediction by ZEFSAII (Michael W. Deem and Ramdas Pophale) SiO2 
 PCOD9036626
Probable space group: P -1
;
_chemical_formula_sum "Si O2"
_cell_formula_units_Z 10
_cell_length_a 6.766492
_cell_length_b 14.847338
_cell_length_c 18.318730
_cell_angle_alpha 159.156305
_cell_angle_beta 143.478293
_cell_angle_gamma 38.123243
_cell_volume 384.153743
_symmetry_space_group_name_H-M "P -1"
_symmetry_group_IT_number 2
_symmetry_cell_setting 'triclinic'
loop_
_space_group_symop_operation_xyz
x,y,z
-x,-y,-z
loop_
_atom_site_type_symbol
_atom_site_label
_atom_site_fract_x
_atom_site_fract_y
_atom_site_fract_z
Si Si1 0.253819 0.310434 0.726647
Si Si2 0.470448 0.784831 0.106015
Si Si3 0.949005 0.202438 0.205649
Si Si4 0.745372 0.327868 0.385688
Si Si5 0.020299 0.090408 0.748063
O O1 0.295466 0.266541 0.791919
O O2 0.636954 0.223411 0.744927
O O3 0.005965 0.135049 0.488735
O O4 0.195325 0.599768 0.898345
O O5 0.715304 0.739954 0.074555
O O6 0.267263 0.069547 0.248932
O O7 0.982618 0.481003 0.396943
O O8 0.658971 0.260758 0.225625
O O9 0.000000 0.000000 0.000000
O O10 0.500000 0.500000 0.500000
O O11 0.857821 0.060705 0.257501
#
# Coordination Sequence:
#
# PCOD9036626 Si02
#       5
#     2   2   2   2   2
#     4  10  23  38  64  93 131 166 216 265 329 388
#     4  11  21  41  62  94 130 167 218 268 321 394
#     4  11  24  42  66  95 132 174 218 273 329 387
#     4  11  23  43  66  94 131 172 218 272 328 389
#     4  11  21  41  64  93 128 171 213 269 328 383
#
# _framework density 26.031245999999999
#
# number of rings (size 3 to 8) (size 9 to 14) (size 15 to 20)
#    0.000    1.200    4.000    2.400    0.000    0.800 
#    0.000    0.000    0.000    0.000    0.000    0.000 
#    0.000    0.000    0.000    0.000    0.000    0.000 
#
# Total GULP energy -55833.935101 kJ/mol
# GULP energy per Si atom -5583.393510 kJ/mol
# Density = 2.597200 g / cm^3
# Si number density = 26.031246 Si / 1000 Ang^3
#
#
#
# Elastic Constant Matrix: (Units=GPa)
#
#
# Indices 1 2 3 4 5 6 
#
# 1 143.1748 44.0732 37.5424 0.7984 -16.0601 31.4182
# 2 44.0732 75.9937 32.3817 11.0182 4.6202 31.9360
# 3 37.5424 32.3817 124.8848 -1.9233 -20.4581 21.1598
# 4 0.7984 11.0182 -1.9233 38.9002 11.0435 -9.7058
# 5 -16.0601 4.6202 -20.4581 11.0435 45.6587 3.7875
# 6 31.4182 31.9360 21.1598 -9.7058 3.7875 54.2480
#
#
#
# Elastic Compliance Matrix: (Units=1/GPa)
#
#
# Indices 1 2 3 4 5 6 
#
# 1 0.009576 -0.003897 -0.000631 -0.001144 0.004046 -0.003493
# 2 -0.003897 0.023084 -0.003353 -0.008887 -0.002108 -0.011467
# 3 -0.000631 -0.003353 0.010229 -0.000466 0.004986 -0.002082
# 4 -0.001144 -0.008887 -0.000466 0.033965 -0.008987 0.012781
# 5 0.004046 -0.002108 0.004986 -0.008987 0.028497 -0.006645
# 6 -0.003493 -0.011467 -0.002082 0.012781 -0.006645 0.030770
#
#
# Mechanical properties :
#
#
# Convention : Reuss Voigt Hill
#
# Bulk Modulus (GPa) = 36.86513 63.56088 50.21301
# Shear Modulus (GPa) = 31.07009 43.09845 37.08427
#
# Velocity S-wave (km/s) = 3.45855 4.07337 3.77849
# Velocity P-wave (km/s) = 5.49012 6.82593 6.19414
#
# Compressibility (1/GPa) = 0.02712590
#
# Stress axis : x y z
#
# Youngs Moduli (GPa) = 104.42311 43.32057 97.76183
#
# Poissons Ratio (x) = 0.16883 0.06171
# Poissons Ratio (y) = 0.40695 0.32782
# Poissons Ratio (z) = 0.06592 0.14526
#
# Static dielectric constant tensor:
#      x y z
#    x 2.096220 -0.038150 -0.092410 
#    y -0.038150 2.106330 0.049270 
#    z -0.092410 0.049270 2.165880 
# 
# From -- ./inp_files/20023.got.cif
#   From: 2010.05.17/outbox.cif.g08.bks.cpg/sg2_11_cif.got.tgz:20023.got - 2010.06.03 11:33:40.
