data_PCOD9036564
_publ_section_title
;
Structure prediction by ZEFSAII (Michael W. Deem and Ramdas Pophale) SiO2 
 PCOD9036564
Probable space group: P -1
;
_chemical_formula_sum "Si O2"
_cell_formula_units_Z 14
_cell_length_a 13.752446
_cell_length_b 9.798399
_cell_length_c 11.297789
_cell_angle_alpha 152.922753
_cell_angle_beta 114.388050
_cell_angle_gamma 56.486657
_cell_volume 565.220526
_symmetry_space_group_name_H-M "P -1"
_symmetry_group_IT_number 2
_symmetry_cell_setting 'triclinic'
loop_
_space_group_symop_operation_xyz
x,y,z
-x,-y,-z
loop_
_atom_site_type_symbol
_atom_site_label
_atom_site_fract_x
_atom_site_fract_y
_atom_site_fract_z
Si Si1 0.650711 0.322511 0.137821
Si Si2 0.290645 0.155725 0.768572
Si Si3 0.388839 0.690742 0.249535
Si Si4 0.151774 0.441732 0.139389
Si Si5 0.257416 0.426312 0.414903
Si Si6 0.816568 0.940896 0.740737
Si Si7 0.948868 0.255087 0.915486
O O1 0.527279 0.587267 0.225558
O O2 0.674934 0.423010 0.355525
O O3 0.761622 0.237874 0.040510
O O4 0.651677 0.960084 0.866068
O O5 0.351782 0.820955 0.465722
O O6 0.363853 0.373758 0.965307
O O7 0.258356 0.178016 0.908321
O O8 0.159381 0.386123 0.825322
O O9 0.297295 0.976198 0.337971
O O10 0.195495 0.577419 0.376998
O O11 0.073735 0.723629 0.221681
O O12 0.072804 0.261983 0.006865
O O13 0.162673 0.380576 0.420120
O O14 0.917433 0.983670 0.751967
#
# Coordination Sequence:
#
# PCOD9036564 Si02
#       7
#     2   2   2   2   2   2   2
#     4  10  23  39  60  89 124 165 190 250 294 361
#     4   9  21  36  63  90 115 154 203 251 280 363
#     4  11  20  38  64  87 120 157 208 237 300 341
#     4   9  19  42  64  88 123 158 196 254 296 358
#     4  10  23  38  61  88 131 150 201 241 306 347
#     4   9  22  37  63  90 122 152 205 248 289 361
#     4   8  18  41  67  87 117 158 205 240 308 344
#
# _framework density 24.769093999999999
#
# number of rings (size 3 to 8) (size 9 to 14) (size 15 to 20)
#    1.714    0.857    0.000    1.286    4.000    2.286 
#    0.000   14.286    0.000    0.000    0.000    0.000 
#    0.000    0.000    0.000    0.000    0.000    0.000 
#
# Total GULP energy -78148.717870 kJ/mol
# GULP energy per Si atom -5582.051276 kJ/mol
# Density = 2.471272 g / cm^3
# Si number density = 24.769094 Si / 1000 Ang^3
#
#
#
# Elastic Constant Matrix: (Units=GPa)
#
#
# Indices 1 2 3 4 5 6 
#
# 1 56.4045 14.4237 17.7624 -6.1498 -10.5784 1.5539
# 2 14.4237 70.1530 45.9230 -22.5624 -14.1882 -7.0786
# 3 17.7624 45.9230 134.9905 -31.7198 5.4456 -11.0799
# 4 -6.1498 -22.5624 -31.7198 39.8774 -1.3425 -3.0196
# 5 -10.5784 -14.1882 5.4456 -1.3425 12.0713 1.1441
# 6 1.5539 -7.0786 -11.0799 -3.0196 1.1441 19.3504
#
#
#
# Elastic Compliance Matrix: (Units=1/GPa)
#
#
# Indices 1 2 3 4 5 6 
#
# 1 0.024710 0.006091 -0.006340 0.002940 0.032459 -0.004847
# 2 0.006091 0.037360 -0.011787 0.014992 0.055715 0.005474
# 3 -0.006340 -0.011787 0.014738 0.003704 -0.026288 0.006769
# 4 0.002940 0.014992 0.003704 0.038606 0.021672 0.012113
# 5 0.032459 0.055715 -0.026288 0.021672 0.191536 -0.005220
# 6 -0.004847 0.005474 0.006769 0.012113 -0.005220 0.060145
#
#
# Mechanical properties :
#
#
# Convention : Reuss Voigt Hill
#
# Bulk Modulus (GPa) = 18.96194 46.41846 32.69020
# Shear Modulus (GPa) = 12.23256 26.48907 19.36081
#
# Velocity S-wave (km/s) = 2.22472 3.27378 2.79884
# Velocity P-wave (km/s) = 3.77773 5.75077 4.86531
#
# Compressibility (1/GPa) = 0.05273723
#
# Stress axis : x y z
#
# Youngs Moduli (GPa) = 40.46995 26.76638 67.84984
#
# Poissons Ratio (x) = -0.16303 0.43017
# Poissons Ratio (y) = -0.24650 0.79972
# Poissons Ratio (z) = 0.25658 0.31549
#
# Static dielectric constant tensor:
#      x y z
#    x 1.968840 0.050310 0.001420 
#    y 0.050310 1.996030 0.049060 
#    z 0.001420 0.049060 1.984730 
# 
# From -- ./inp_files/78617.got.cif
#   From: 2010.05.17/outbox.cif.g08.bks.cpg/sg2_40_cif.got.tgz:78617.got - 2010.06.03 11:33:40.
