data_PCOD9036176
_publ_section_title
;
Structure prediction by ZEFSAII (Michael W. Deem and Ramdas Pophale) SiO2 
 PCOD9036176
Probable space group: P -1
;
_chemical_formula_sum "Si O2"
_cell_formula_units_Z 10
_cell_length_a 7.063784
_cell_length_b 11.200202
_cell_length_c 8.491112
_cell_angle_alpha 135.923396
_cell_angle_beta 49.979285
_cell_angle_gamma 127.248114
_cell_volume 344.679251
_symmetry_space_group_name_H-M "P -1"
_symmetry_group_IT_number 2
_symmetry_cell_setting 'triclinic'
loop_
_space_group_symop_operation_xyz
x,y,z
-x,-y,-z
loop_
_atom_site_type_symbol
_atom_site_label
_atom_site_fract_x
_atom_site_fract_y
_atom_site_fract_z
Si Si1 0.385718 0.374677 0.046892
Si Si2 0.224491 0.986174 0.748826
Si Si3 0.382143 0.694939 0.810079
Si Si4 0.712833 0.967062 0.679922
Si Si5 0.050508 0.582510 0.404559
O O1 0.521535 0.353078 0.119773
O O2 0.329350 0.549965 0.143969
O O3 0.111188 0.406801 0.322306
O O4 0.285619 0.183925 0.831939
O O5 0.127769 0.797751 0.536341
O O6 0.484399 0.975504 0.689268
O O7 0.000000 0.000000 0.000000
O O8 0.826872 0.469115 0.305003
O O9 0.606554 0.777738 0.643729
O O10 0.273128 0.866121 0.054289
O O11 0.000000 0.000000 0.500000
#
# Coordination Sequence:
#
# PCOD9036176 Si02
#       5
#     2   2   2   2   2
#     4  11  27  51  76 117 165 218 283 340 410 506
#     4  11  23  50  82 116 167 219 272 354 416 496
#     4  10  24  50  81 118 172 220 276 353 422 493
#     4  10  22  47  83 126 165 221 285 344 425 508
#     4  12  24  49  82 119 162 219 279 346 428 497
#
# _framework density 29.012481000000001
#
# number of rings (size 3 to 8) (size 9 to 14) (size 15 to 20)
#    0.000    1.200    4.000    0.000    0.000    4.000 
#    7.200    3.000    0.000    4.800    0.000    0.000 
#    0.000    0.000    0.000    0.000    0.000    0.000 
#
# Total GULP energy -56057.139124 kJ/mol
# GULP energy per Si atom -5605.713912 kJ/mol
# Density = 2.894645 g / cm^3
# Si number density = 29.012481 Si / 1000 Ang^3
#
#
#
# Elastic Constant Matrix: (Units=GPa)
#
#
# Indices 1 2 3 4 5 6 
#
# 1 179.0968 80.4299 60.8941 48.4190 -23.0285 34.0740
# 2 80.4299 281.0004 106.2024 30.8064 -17.2089 31.9031
# 3 60.8941 106.2024 247.3263 24.2546 -26.8210 40.3343
# 4 48.4190 30.8064 24.2546 81.8750 30.6827 6.6571
# 5 -23.0285 -17.2089 -26.8210 30.6827 44.2728 6.3934
# 6 34.0740 31.9031 40.3343 6.6571 6.3934 59.9875
#
#
#
# Elastic Compliance Matrix: (Units=1/GPa)
#
#
# Indices 1 2 3 4 5 6 
#
# 1 0.013541 -0.000784 0.002096 -0.014977 0.019705 -0.009122
# 2 -0.000784 0.004683 -0.001263 -0.001532 0.001886 -0.001227
# 3 0.002096 -0.001263 0.006489 -0.005730 0.009257 -0.005232
# 4 -0.014977 -0.001532 -0.005730 0.037049 -0.039449 0.013267
# 5 0.019705 0.001886 0.009257 -0.039449 0.069617 -0.021462
# 6 -0.009122 -0.001227 -0.005232 0.013267 -0.021462 0.026838
#
#
# Mechanical properties :
#
#
# Convention : Reuss Voigt Hill
#
# Bulk Modulus (GPa) = 40.30425 133.60848 86.95636
# Shear Modulus (GPa) = 30.05004 67.88688 48.96846
#
# Velocity S-wave (km/s) = 3.22182 4.84252 4.11279
# Velocity P-wave (km/s) = 5.26900 8.79879 7.25193
#
# Compressibility (1/GPa) = 0.02481128
#
# Stress axis : x y z
#
# Youngs Moduli (GPa) = 73.84887 213.53129 154.11571
#
# Poissons Ratio (x) = 0.16731 -0.32300
# Poissons Ratio (y) = 0.05786 0.19467
# Poissons Ratio (z) = -0.15478 0.26972
#
# Static dielectric constant tensor:
#      x y z
#    x 2.116120 -0.069930 -0.032480 
#    y -0.069930 2.290970 -0.184950 
#    z -0.032480 -0.184950 2.415330 
# 
# From -- ./inp_files/167493.got.cif
#   From: 2010.05.17/outbox.cif.g08.bks.cpg/sg2_84_cif.got.tgz:167493.got - 2010.06.03 11:33:40.
