data_PCOD9036365
_publ_section_title
;
Structure prediction by ZEFSAII (Michael W. Deem and Ramdas Pophale) SiO2 
 PCOD9036365
Probable space group: P -1
;
_chemical_formula_sum "Si O2"
_cell_formula_units_Z 16
_cell_length_a 12.453075
_cell_length_b 11.915034
_cell_length_c 13.214016
_cell_angle_alpha 68.083005
_cell_angle_beta 69.257314
_cell_angle_gamma 128.674089
_cell_volume 830.760061
_symmetry_space_group_name_H-M "P -1"
_symmetry_group_IT_number 2
_symmetry_cell_setting 'triclinic'
loop_
_space_group_symop_operation_xyz
x,y,z
-x,-y,-z
loop_
_atom_site_type_symbol
_atom_site_label
_atom_site_fract_x
_atom_site_fract_y
_atom_site_fract_z
Si Si1 0.485668 0.962295 0.897933
Si Si2 0.150258 0.181431 0.484346
Si Si3 0.527477 0.440371 0.910147
Si Si4 0.997679 0.200566 0.271162
Si Si5 0.376342 0.958857 0.464312
Si Si6 0.820718 0.396918 0.514641
Si Si7 0.866270 0.105476 0.733110
Si Si8 0.177790 0.575630 0.971808
O O1 0.578675 0.165967 0.737585
O O2 0.666512 0.017889 0.795877
O O3 0.243684 0.695348 0.018798
O O4 0.500000 0.000000 0.000000
O O5 0.402931 0.434562 0.262294
O O6 0.021345 0.180958 0.570989
O O7 0.108172 0.031541 0.626052
O O8 0.000000 0.000000 0.500000
O O9 0.764431 0.584727 0.812561
O O10 0.500000 0.500000 0.000000
O O11 0.294826 0.145451 0.077579
O O12 0.795762 0.095003 0.423953
O O13 0.075274 0.347827 0.097884
O O14 0.228945 0.730009 0.522692
O O15 0.500000 0.000000 0.500000
O O16 0.582852 0.204203 0.244941
O O17 0.000000 0.500000 0.500000
O O18 0.939608 0.632458 0.365071
O O19 0.000000 0.500000 0.000000
#
# Coordination Sequence:
#
# PCOD9036365 Si02
#       8
#     2   2   2   2   2   2   2   2
#     4  10  23  36  58  90 127 164 198 252 321 376
#     4  10  23  34  57  85 125 165 205 255 322 356
#     4  11  22  35  56  90 123 166 211 254 314 373
#     4  11  23  36  61  85 130 159 210 254 314 360
#     4  11  24  42  62  90 127 170 209 252 312 380
#     4   9  23  35  58  88 129 158 202 256 324 359
#     4  11  21  36  56  88 127 158 203 260 311 379
#     4  11  23  38  61  92 121 158 212 253 303 375
#
# _framework density 19.259474000000001
#
# number of rings (size 3 to 8) (size 9 to 14) (size 15 to 20)
#    0.000    1.500    5.000    0.000   17.500    0.000 
#    0.000    0.000    0.000    0.750    0.000    2.625 
#    0.000    0.000    0.000    0.000    0.000    0.000 
#
# Total GULP energy -89090.644893 kJ/mol
# GULP energy per Si atom -5568.165306 kJ/mol
# Density = 1.921564 g / cm^3
# Si number density = 19.259474 Si / 1000 Ang^3
#
#
#
# Elastic Constant Matrix: (Units=GPa)
#
#
# Indices 1 2 3 4 5 6 
#
# 1 77.0708 40.8256 32.5691 6.2849 -2.2416 -6.7897
# 2 40.8256 81.3069 35.5071 -0.6758 -4.2631 -7.3737
# 3 32.5691 35.5071 152.1456 -11.4893 15.3744 -22.7455
# 4 6.2849 -0.6758 -11.4893 30.6744 -12.0408 4.7262
# 5 -2.2416 -4.2631 15.3744 -12.0408 38.7444 0.5698
# 6 -6.7897 -7.3737 -22.7455 4.7262 0.5698 24.1405
#
#
#
# Elastic Compliance Matrix: (Units=1/GPa)
#
#
# Indices 1 2 3 4 5 6 
#
# 1 0.018968 -0.008506 -0.002146 -0.005429 -0.000700 0.001794
# 2 -0.008506 0.017848 -0.002455 0.002444 0.003202 0.000192
# 3 -0.002146 -0.002455 0.009138 0.001247 -0.003737 0.007101
# 4 -0.005429 0.002444 0.001247 0.040160 0.012055 -0.007752
# 5 -0.000700 0.003202 -0.003737 0.012055 0.031437 -0.005842
# 6 0.001794 0.000192 0.007101 -0.007752 -0.005842 0.050334
#
#
# Mechanical properties :
#
#
# Convention : Reuss Voigt Hill
#
# Bulk Modulus (GPa) = 50.65815 58.70297 54.68056
# Shear Modulus (GPa) = 24.91528 32.15329 28.53428
#
# Velocity S-wave (km/s) = 3.60066 4.09036 3.85329
# Velocity P-wave (km/s) = 6.60654 7.27009 6.94624
#
# Compressibility (1/GPa) = 0.01974016
#
# Stress axis : x y z
#
# Youngs Moduli (GPa) = 52.71940 56.02928 109.42844
#
# Poissons Ratio (x) = 0.47660 0.23487
# Poissons Ratio (y) = 0.44844 0.26861
# Poissons Ratio (z) = 0.11315 0.13753
#
# Static dielectric constant tensor:
#      x y z
#    x 1.708310 -0.031150 0.037140 
#    y -0.031150 1.673630 -0.019430 
#    z 0.037140 -0.019430 1.823090 
# 
# From -- ./inp_files/518843.got.cif
#   From: 2010.05.17/outbox.cif.g08.bks.cpg/sg2_260_cif.got.tgz:518843.got - 2010.06.03 11:33:40.
