data_PCOD9036870
_publ_section_title
;
Structure prediction by ZEFSAII (Michael W. Deem and Ramdas Pophale) SiO2 
 PCOD9036870
Probable space group: P -1
;
_chemical_formula_sum "Si O2"
_cell_formula_units_Z 16
_cell_length_a 18.832671
_cell_length_b 9.026485
_cell_length_c 11.928736
_cell_angle_alpha 44.013239
_cell_angle_beta 152.108829
_cell_angle_gamma 134.409158
_cell_volume 646.144616
_symmetry_space_group_name_H-M "P -1"
_symmetry_group_IT_number 2
_symmetry_cell_setting 'triclinic'
loop_
_space_group_symop_operation_xyz
x,y,z
-x,-y,-z
loop_
_atom_site_type_symbol
_atom_site_label
_atom_site_fract_x
_atom_site_fract_y
_atom_site_fract_z
Si Si1 0.498173 0.874824 0.214462
Si Si2 0.143983 0.688193 0.749033
Si Si3 0.083712 0.341274 0.358374
Si Si4 0.616863 0.636492 0.999032
Si Si5 0.115437 0.779289 0.068796
Si Si6 0.088228 0.259418 0.776557
Si Si7 0.425375 0.898026 0.336472
Si Si8 0.584674 0.699757 0.219112
O O1 0.518319 0.831066 0.397826
O O2 0.606700 0.771455 0.339483
O O3 0.320984 0.771277 0.986242
O O4 0.511447 0.128847 0.061912
O O5 0.110694 0.430569 0.815349
O O6 0.037771 0.753029 0.664794
O O7 0.080084 0.778023 0.496236
O O8 0.095293 0.602120 0.234051
O O9 0.254659 0.291269 0.626289
O O10 0.017182 0.266995 0.183934
O O11 0.521254 0.540137 0.806615
O O12 0.626030 0.886527 0.901709
O O13 0.500000 0.500000 0.000000
O O14 0.791675 0.625108 0.216465
O O15 0.267968 0.740053 0.236559
O O16 0.132266 0.029109 0.992388
O O17 0.500000 0.000000 0.500000
#
# Coordination Sequence:
#
# PCOD9036870 Si02
#       8
#     2   2   2   2   2   2   2   2
#     4  11  23  42  66  98 137 168 216 279 323 388
#     4  11  22  41  68  97 126 173 219 265 323 381
#     4  11  23  41  68  96 126 173 219 263 324 391
#     4  11  20  38  62  94 132 168 212 268 320 387
#     4  10  23  43  62  92 132 167 214 269 321 390
#     4  10  23  39  64  98 132 168 215 271 321 385
#     4  11  23  41  65  94 127 175 217 263 330 390
#     4  11  23  40  66 102 133 169 217 269 332 388
#
# _framework density 24.762259
#
# number of rings (size 3 to 8) (size 9 to 14) (size 15 to 20)
#    0.000    1.250    3.750    2.250    1.750    1.500 
#    0.000    7.500    0.000    0.000    0.000    0.000 
#    0.000    0.000    0.000    0.000    0.000    0.000 
#
# Total GULP energy -89374.173088 kJ/mol
# GULP energy per Si atom -5585.885818 kJ/mol
# Density = 2.470590 g / cm^3
# Si number density = 24.762259 Si / 1000 Ang^3
#
#
#
# Elastic Constant Matrix: (Units=GPa)
#
#
# Indices 1 2 3 4 5 6 
#
# 1 112.5052 8.5922 7.0065 4.7503 6.2838 -14.0215
# 2 8.5922 82.7811 6.0762 -5.0303 7.0925 -8.7498
# 3 7.0065 6.0762 68.3185 14.4835 4.6129 -1.5035
# 4 4.7503 -5.0303 14.4835 31.8650 -3.2122 11.7150
# 5 6.2838 7.0925 4.6129 -3.2122 33.0808 0.2250
# 6 -14.0215 -8.7498 -1.5035 11.7150 0.2250 30.9294
#
#
#
# Elastic Compliance Matrix: (Units=1/GPa)
#
#
# Indices 1 2 3 4 5 6 
#
# 1 0.009949 -0.000471 0.000159 -0.004036 -0.002243 0.005930
# 2 -0.000471 0.012801 -0.001145 0.001315 -0.002387 0.002872
# 3 0.000159 -0.001145 0.017134 -0.009914 -0.003166 0.004360
# 4 -0.004036 0.001315 -0.009914 0.044220 0.006289 -0.018734
# 5 -0.002243 -0.002387 -0.003166 0.006289 0.032250 -0.004463
# 6 0.005930 0.002872 0.004360 -0.018734 -0.004463 0.043173
#
#
# Mechanical properties :
#
#
# Convention : Reuss Voigt Hill
#
# Bulk Modulus (GPa) = 27.04711 34.10607 30.57659
# Shear Modulus (GPa) = 28.61022 35.30370 31.95696
#
# Velocity S-wave (km/s) = 3.40280 3.77995 3.59632
# Velocity P-wave (km/s) = 5.13665 5.73184 5.44239
#
# Compressibility (1/GPa) = 0.03697253
#
# Stress axis : x y z
#
# Youngs Moduli (GPa) = 100.50958 78.11960 58.36204
#
# Poissons Ratio (x) = 0.03676 -0.00929
# Poissons Ratio (y) = 0.04730 0.06680
# Poissons Ratio (z) = -0.01600 0.08941
#
# Static dielectric constant tensor:
#      x y z
#    x 2.035890 -0.022520 -0.071840 
#    y -0.022520 2.011050 -0.001410 
#    z -0.071840 -0.001410 2.052030 
# 
# From -- ./inp_files/261942.got.cif
#   From: 2010.05.17/outbox.cif.g08.bks.cpg/sg2_131_cif.got.tgz:261942.got - 2010.06.03 11:33:40.
