data_PCOD9036990
_publ_section_title
;
Structure prediction by ZEFSAII (Michael W. Deem and Ramdas Pophale) SiO2 
 PCOD9036990
Probable space group: P -1
;
_chemical_formula_sum "Si O2"
_cell_formula_units_Z 14
_cell_length_a 11.362444
_cell_length_b 9.034316
_cell_length_c 9.438361
_cell_angle_alpha 113.528712
_cell_angle_beta 120.934044
_cell_angle_gamma 106.476896
_cell_volume 596.879461
_symmetry_space_group_name_H-M "P -1"
_symmetry_group_IT_number 2
_symmetry_cell_setting 'triclinic'
loop_
_space_group_symop_operation_xyz
x,y,z
-x,-y,-z
loop_
_atom_site_type_symbol
_atom_site_label
_atom_site_fract_x
_atom_site_fract_y
_atom_site_fract_z
Si Si1 0.119013 0.371219 0.289909
Si Si2 0.791656 0.008264 0.420396
Si Si3 0.765669 0.038856 0.085896
Si Si4 0.626633 0.593241 0.747955
Si Si5 0.401144 0.763952 0.063243
Si Si6 0.030026 0.437299 0.845520
Si Si7 0.346942 0.412408 0.708417
O O1 0.203126 0.371309 0.194595
O O2 0.084275 0.536345 0.323924
O O3 0.238309 0.407247 0.509042
O O4 0.930216 0.160580 0.127926
O O5 0.769235 0.802106 0.361629
O O6 0.821237 0.064525 0.294011
O O7 0.945448 0.200133 0.681829
O O8 0.597286 0.937986 0.308525
O O9 0.656443 0.121497 0.020370
O O10 0.663039 0.802945 0.892848
O O11 0.500000 0.500000 0.500000
O O12 0.513607 0.444637 0.752384
O O13 0.410980 0.608613 0.916189
O O14 0.232895 0.608414 0.998531
O O15 0.000000 0.500000 0.000000
#
# Coordination Sequence:
#
# PCOD9036990 Si02
#       7
#     2   2   2   2   2   2   2
#     4  10  24  45  69  95 143 178 229 280 342 410
#     4  12  26  43  74 103 138 184 228 286 346 402
#     4  11  23  43  72 102 132 186 229 278 348 401
#     4  10  23  39  67  98 138 178 224 275 337 406
#     4  11  25  45  72 102 141 175 236 283 342 412
#     4  11  28  47  69 103 139 183 228 289 344 407
#     4  11  24  44  68 107 136 179 232 281 344 409
#
# _framework density 23.455321999999999
#
# number of rings (size 3 to 8) (size 9 to 14) (size 15 to 20)
#    0.000    1.143    1.429    3.000    6.000   10.857 
#    0.000    0.000    0.000    0.000    0.000    0.000 
#    0.000    0.000    0.000    0.000    0.000    0.000 
#
# Total GULP energy -78312.380755 kJ/mol
# GULP energy per Si atom -5593.741483 kJ/mol
# Density = 2.340194 g / cm^3
# Si number density = 23.455322 Si / 1000 Ang^3
#
#
#
# Elastic Constant Matrix: (Units=GPa)
#
#
# Indices 1 2 3 4 5 6 
#
# 1 132.1037 22.2987 12.8025 -2.6988 8.8228 28.9350
# 2 22.2987 54.9776 -0.5355 7.1754 7.7401 3.1340
# 3 12.8025 -0.5355 76.1420 5.3789 -3.8387 -2.7078
# 4 -2.6988 7.1754 5.3789 39.5659 -6.1797 8.5424
# 5 8.8228 7.7401 -3.8387 -6.1797 36.1465 -1.5221
# 6 28.9350 3.1340 -2.7078 8.5424 -1.5221 42.1762
#
#
#
# Elastic Compliance Matrix: (Units=1/GPa)
#
#
# Indices 1 2 3 4 5 6 
#
# 1 0.010308 -0.003935 -0.002338 0.003113 -0.001710 -0.007622
# 2 -0.003935 0.020967 0.001048 -0.005337 -0.004240 0.002136
# 3 -0.002338 0.001048 0.013904 -0.002656 0.001495 0.003011
# 4 0.003113 -0.005337 -0.002656 0.029214 0.004773 -0.007654
# 5 -0.001710 -0.004240 0.001495 0.004773 0.030037 0.001702
# 6 -0.007622 0.002136 0.003011 -0.007654 0.001702 0.030585
#
#
# Mechanical properties :
#
#
# Convention : Reuss Voigt Hill
#
# Bulk Modulus (GPa) = 28.79347 36.92830 32.86088
# Shear Modulus (GPa) = 31.83904 38.82157 35.33030
#
# Velocity S-wave (km/s) = 3.68833 4.07274 3.88529
# Velocity P-wave (km/s) = 5.51733 6.15586 5.84532
#
# Compressibility (1/GPa) = 0.03473010
#
# Stress axis : x y z
#
# Youngs Moduli (GPa) = 97.01453 47.69394 71.92198
#
# Poissons Ratio (x) = 0.18765 0.16815
# Poissons Ratio (y) = 0.38171 -0.07539
# Poissons Ratio (z) = 0.22682 -0.04999
#
# Static dielectric constant tensor:
#      x y z
#    x 1.958710 -0.002020 0.058290 
#    y -0.002020 1.913920 -0.040760 
#    z 0.058290 -0.040760 1.855700 
# 
# From -- ./inp_files/175058.got.cif
#   From: 2010.05.17/outbox.cif.g08.bks.cpg/sg2_88_cif.got.tgz:175058.got - 2010.06.03 11:33:40.
