data_PCOD9036914
_publ_section_title
;
Structure prediction by ZEFSAII (Michael W. Deem and Ramdas Pophale) SiO2 
 PCOD9036914
Probable space group: P -1
;
_chemical_formula_sum "Si O2"
_cell_formula_units_Z 16
_cell_length_a 14.449490
_cell_length_b 9.414269
_cell_length_c 11.618454
_cell_angle_alpha 72.577010
_cell_angle_beta 151.421350
_cell_angle_gamma 97.651053
_cell_volume 691.569285
_symmetry_space_group_name_H-M "P -1"
_symmetry_group_IT_number 2
_symmetry_cell_setting 'triclinic'
loop_
_space_group_symop_operation_xyz
x,y,z
-x,-y,-z
loop_
_atom_site_type_symbol
_atom_site_label
_atom_site_fract_x
_atom_site_fract_y
_atom_site_fract_z
Si Si1 0.970088 0.147046 0.846625
Si Si2 0.718095 0.148656 0.188739
Si Si3 0.524934 0.358388 0.324259
Si Si4 0.782929 0.479357 0.239764
Si Si5 0.952741 0.020280 0.252952
Si Si6 0.763647 0.658958 0.792486
Si Si7 0.031956 0.324200 0.203020
Si Si8 0.326927 0.384892 0.671583
O O1 0.731624 0.228827 0.551866
O O2 0.068633 0.093429 0.843344
O O3 0.078957 0.266963 0.988818
O O4 0.000000 0.000000 0.000000
O O5 0.788281 0.307339 0.243027
O O6 0.804924 0.053175 0.192101
O O7 0.479551 0.217504 0.903884
O O8 0.821965 0.043686 0.433486
O O9 0.436331 0.314253 0.357266
O O10 0.587542 0.519635 0.354157
O O11 0.346408 0.397660 0.024169
O O12 0.683513 0.514574 0.249125
O O13 0.000000 0.500000 0.500000
O O14 0.937386 0.184605 0.140364
O O15 0.775224 0.718067 0.661462
O O16 0.862448 0.474466 0.939791
O O17 0.115026 0.366713 0.404046
#
# Coordination Sequence:
#
# PCOD9036914 Si02
#       8
#     2   2   2   2   2   2   2   2
#     4  12  25  47  70  94 142 185 220 286 337 396
#     4  10  23  39  65  97 136 175 217 276 346 401
#     4  11  24  42  71 101 133 177 233 275 330 410
#     4  11  22  40  72 105 134 176 226 277 337 409
#     4  11  23  43  63  96 140 173 217 277 345 397
#     4  11  25  46  69  99 130 181 235 274 333 398
#     4  11  23  43  68  96 135 175 226 282 331 397
#     4  11  21  41  68 101 133 172 226 281 333 401
#
# _framework density 23.135788999999999
#
# number of rings (size 3 to 8) (size 9 to 14) (size 15 to 20)
#    0.000    1.000    2.500    6.000    1.750    2.500 
#    2.250    0.000    0.000    0.000    0.000    0.000 
#    0.000    0.000    0.000    0.000    0.000    0.000 
#
# Total GULP energy -89453.649874 kJ/mol
# GULP energy per Si atom -5590.853117 kJ/mol
# Density = 2.308313 g / cm^3
# Si number density = 23.135789 Si / 1000 Ang^3
#
#
#
# Elastic Constant Matrix: (Units=GPa)
#
#
# Indices 1 2 3 4 5 6 
#
# 1 87.2213 13.1434 -13.7066 7.1401 -4.1920 -23.6133
# 2 13.1434 55.4171 11.2155 -4.1278 -4.0024 -11.3407
# 3 -13.7066 11.2155 58.9182 -6.1953 2.5043 -10.2818
# 4 7.1401 -4.1278 -6.1953 36.8237 -0.5037 -4.9526
# 5 -4.1920 -4.0024 2.5043 -0.5037 27.5767 4.4699
# 6 -23.6133 -11.3407 -10.2818 -4.9526 4.4699 33.4698
#
#
#
# Elastic Compliance Matrix: (Units=1/GPa)
#
#
# Indices 1 2 3 4 5 6 
#
# 1 0.016312 -0.002698 0.006447 -0.000701 -0.000543 0.012543
# 2 -0.002698 0.020632 -0.003648 0.002802 0.002307 0.004073
# 3 0.006447 -0.003648 0.021555 0.003385 -0.003206 0.010863
# 4 -0.000701 0.002802 0.003385 0.028955 -0.000424 0.005835
# 5 -0.000543 0.002307 -0.003206 -0.000424 0.037720 -0.005687
# 6 0.012543 0.004073 0.010863 0.005835 -0.005687 0.045067
#
#
# Mechanical properties :
#
#
# Convention : Reuss Voigt Hill
#
# Bulk Modulus (GPa) = 17.03574 24.76236 20.89905
# Shear Modulus (GPa) = 26.37060 32.30100 29.33580
#
# Velocity S-wave (km/s) = 3.37978 3.74056 3.56474
# Velocity P-wave (km/s) = 4.75499 5.42052 5.09862
#
# Compressibility (1/GPa) = 0.05870013
#
# Stress axis : x y z
#
# Youngs Moduli (GPa) = 61.30527 48.46853 46.39386
#
# Poissons Ratio (x) = 0.13077 -0.29908
# Poissons Ratio (y) = 0.16540 0.16923
# Poissons Ratio (z) = -0.39521 0.17680
#
# Static dielectric constant tensor:
#      x y z
#    x 1.944920 -0.002140 -0.003920 
#    y -0.002140 1.837500 -0.018100 
#    z -0.003920 -0.018100 1.867040 
# 
# From -- ./inp_files/447273.got.cif
#   From: 2010.05.17/outbox.cif.g08.bks.cpg/sg2_224_cif.got.tgz:447273.got - 2010.06.03 11:33:40.
