data_PCOD9036311
_publ_section_title
;
Structure prediction by ZEFSAII (Michael W. Deem and Ramdas Pophale) SiO2 
 PCOD9036311
Probable space group: P -1
;
_chemical_formula_sum "Si O2"
_cell_formula_units_Z 16
_cell_length_a 7.921116
_cell_length_b 12.463993
_cell_length_c 14.657908
_cell_angle_alpha 150.462041
_cell_angle_beta 110.010234
_cell_angle_gamma 79.361515
_cell_volume 650.090354
_symmetry_space_group_name_H-M "P -1"
_symmetry_group_IT_number 2
_symmetry_cell_setting 'triclinic'
loop_
_space_group_symop_operation_xyz
x,y,z
-x,-y,-z
loop_
_atom_site_type_symbol
_atom_site_label
_atom_site_fract_x
_atom_site_fract_y
_atom_site_fract_z
Si Si1 0.073955 0.101108 0.305131
Si Si2 0.487780 0.659305 0.034198
Si Si3 0.120283 0.630976 0.885066
Si Si4 0.339819 0.966353 0.369114
Si Si5 0.495748 0.249905 0.277641
Si Si6 0.821058 0.180149 0.157924
Si Si7 0.905695 0.209940 0.646642
Si Si8 0.721687 0.058829 0.325934
O O1 0.260651 0.155523 0.442096
O O2 0.075300 0.850336 0.086183
O O3 0.994126 0.194398 0.268959
O O4 0.919823 0.132608 0.371310
O O5 0.413313 0.847092 0.212094
O O6 0.679020 0.788139 0.122613
O O7 0.500000 0.500000 0.000000
O O8 0.326313 0.587180 0.880542
O O9 0.087785 0.677049 0.807039
O O10 0.032178 0.434803 0.795122
O O11 0.500000 0.000000 0.500000
O O12 0.171489 0.806417 0.277453
O O13 0.500000 0.500000 0.500000
O O14 0.655113 0.265369 0.240856
O O15 0.570164 0.125283 0.283369
O O16 0.299434 0.077402 0.082610
O O17 0.740628 0.162257 0.506242
O O18 0.000000 0.000000 0.500000
#
# Coordination Sequence:
#
# PCOD9036311 Si02
#       8
#     2   2   2   2   2   2   2   2
#     4  10  24  42  75  96 140 185 233 296 362 428
#     4  11  24  41  68  98 138 184 234 289 357 433
#     4  11  25  44  68 106 139 190 237 293 368 425
#     4  11  24  44  67 100 134 188 234 293 358 424
#     4  10  23  45  75 108 146 190 237 296 358 430
#     4  10  22  49  72 107 148 188 242 299 359 434
#     4  12  25  45  68  99 145 183 239 299 358 428
#     4  11  22  45  67 104 139 181 237 294 354 428
#
# _framework density 24.611962999999999
#
# number of rings (size 3 to 8) (size 9 to 14) (size 15 to 20)
#    0.000    1.250    3.750    1.125    3.500    1.000 
#    6.750    1.250    0.000    0.000    0.000    0.000 
#    0.000    0.000    0.000    0.000    0.000    0.000 
#
# Total GULP energy -89090.080791 kJ/mol
# GULP energy per Si atom -5568.130049 kJ/mol
# Density = 2.455594 g / cm^3
# Si number density = 24.611963 Si / 1000 Ang^3
#
#
#
# Elastic Constant Matrix: (Units=GPa)
#
#
# Indices 1 2 3 4 5 6 
#
# 1 50.8973 25.6857 21.2891 -4.7236 -1.7710 1.3676
# 2 25.6857 153.1721 24.4959 -21.9672 0.8095 -16.5409
# 3 21.2891 24.4959 80.0855 4.0722 -16.9800 3.2989
# 4 -4.7236 -21.9672 4.0722 37.9601 -1.1420 6.2060
# 5 -1.7710 0.8095 -16.9800 -1.1420 21.5179 -12.7964
# 6 1.3676 -16.5409 3.2989 6.2060 -12.7964 51.7726
#
#
#
# Elastic Compliance Matrix: (Units=1/GPa)
#
#
# Indices 1 2 3 4 5 6 
#
# 1 0.023919 -0.002911 -0.006399 0.002256 -0.004336 -0.002496
# 2 -0.002911 0.008216 -0.002213 0.004257 -0.000800 0.002135
# 3 -0.006399 -0.002213 0.018187 -0.003986 0.015207 0.002539
# 4 0.002256 0.004257 -0.003986 0.029880 -0.003212 -0.002821
# 5 -0.004336 -0.000800 0.015207 -0.003212 0.067460 0.015949
# 6 -0.002496 0.002135 0.002539 -0.002821 0.015949 0.024182
#
#
# Mechanical properties :
#
#
# Convention : Reuss Voigt Hill
#
# Bulk Modulus (GPa) = 36.66335 47.45514 42.05924
# Shear Modulus (GPa) = 24.51213 36.42907 30.47060
#
# Velocity S-wave (km/s) = 3.15928 3.85143 3.52240
# Velocity P-wave (km/s) = 5.31385 6.25309 5.80251
#
# Compressibility (1/GPa) = 0.02727519
#
# Stress axis : x y z
#
# Youngs Moduli (GPa) = 41.80859 121.71570 54.98434
#
# Poissons Ratio (x) = 0.35427 0.35186
# Poissons Ratio (y) = 0.12169 0.12169
# Poissons Ratio (z) = 0.26755 0.26938
#
# Static dielectric constant tensor:
#      x y z
#    x 1.865440 -0.066610 0.007800 
#    y -0.066610 1.893390 -0.086570 
#    z 0.007800 -0.086570 2.001440 
# 
# From -- ./inp_files/501282.got.cif
#   From: 2010.05.17/outbox.cif.g08.bks.cpg/sg2_251_cif.got.tgz:501282.got - 2010.06.03 11:33:40.
