data_PCOD9036700
_publ_section_title
;
Structure prediction by ZEFSAII (Michael W. Deem and Ramdas Pophale) SiO2 
 PCOD9036700
Probable space group: P -1
;
_chemical_formula_sum "Si O2"
_cell_formula_units_Z 14
_cell_length_a 8.684479
_cell_length_b 15.631213
_cell_length_c 9.269269
_cell_angle_alpha 126.411158
_cell_angle_beta 68.623045
_cell_angle_gamma 142.670633
_cell_volume 598.985395
_symmetry_space_group_name_H-M "P -1"
_symmetry_group_IT_number 2
_symmetry_cell_setting 'triclinic'
loop_
_space_group_symop_operation_xyz
x,y,z
-x,-y,-z
loop_
_atom_site_type_symbol
_atom_site_label
_atom_site_fract_x
_atom_site_fract_y
_atom_site_fract_z
Si Si1 0.400329 0.625242 0.100463
Si Si2 0.783293 0.949690 0.121819
Si Si3 0.656476 0.249324 0.280375
Si Si4 0.810061 0.096053 0.996477
Si Si5 0.180050 0.282765 0.822499
Si Si6 0.805821 0.114617 0.526218
Si Si7 0.970046 0.408527 0.631610
O O1 0.537284 0.755134 0.051708
O O2 0.602625 0.701051 0.240123
O O3 0.170644 0.583743 0.199167
O O4 0.300487 0.458400 0.929082
O O5 0.741195 0.032684 0.120571
O O6 0.857623 0.035335 0.335739
O O7 0.000000 0.000000 0.000000
O O8 0.749452 0.190769 0.100828
O O9 0.789796 0.314548 0.455862
O O10 0.758471 0.405058 0.323157
O O11 0.352921 0.073860 0.204939
O O12 0.095192 0.231103 0.968040
O O13 0.924048 0.151766 0.680232
O O14 0.972725 0.293593 0.581698
O O15 0.500000 0.000000 0.500000
#
# Coordination Sequence:
#
# PCOD9036700 Si02
#       7
#     2   2   2   2   2   2   2
#     4  11  25  45  70 100 140 187 229 283 349 420
#     4  12  26  45  68  99 143 182 234 283 351 412
#     4  10  23  38  68  99 137 176 223 291 346 401
#     4  11  22  42  67  99 131 180 227 282 341 410
#     4  11  26  46  71  99 140 182 232 282 351 418
#     4  12  26  44  71 105 137 178 239 293 337 415
#     4  11  22  42  67 103 139 177 234 290 345 406
#
# _framework density 23.372855000000001
#
# number of rings (size 3 to 8) (size 9 to 14) (size 15 to 20)
#    0.000    0.857    5.714    0.857    4.000    2.286 
#    0.000    0.714    0.000    0.000    0.000    0.000 
#    0.000    0.000    0.000    0.000    0.000    0.000 
#
# Total GULP energy -78123.550173 kJ/mol
# GULP energy per Si atom -5580.253584 kJ/mol
# Density = 2.331966 g / cm^3
# Si number density = 23.372855 Si / 1000 Ang^3
#
#
#
# Elastic Constant Matrix: (Units=GPa)
#
#
# Indices 1 2 3 4 5 6 
#
# 1 29.2897 -5.2935 19.2133 -0.4006 -1.3571 4.2620
# 2 -5.2935 160.3015 37.1046 10.1355 -5.1786 -24.4233
# 3 19.2133 37.1046 79.0325 3.7034 7.9573 -4.4036
# 4 -0.4006 10.1355 3.7034 29.6981 -3.1731 -6.4769
# 5 -1.3571 -5.1786 7.9573 -3.1731 38.5761 -1.7426
# 6 4.2620 -24.4233 -4.4036 -6.4769 -1.7426 33.1646
#
#
#
# Elastic Compliance Matrix: (Units=1/GPa)
#
#
# Indices 1 2 3 4 5 6 
#
# 1 0.044554 0.004079 -0.013479 0.000488 0.004747 -0.004167
# 2 0.004079 0.008386 -0.004856 -0.000859 0.002425 0.004967
# 3 -0.013479 -0.004856 0.018796 -0.001390 -0.005113 0.000112
# 4 0.000488 -0.000859 -0.001390 0.035887 0.003426 0.006308
# 5 0.004747 0.002425 -0.005113 0.003426 0.027870 0.002630
# 6 -0.004167 0.004967 0.000112 0.006308 0.002630 0.035731
#
#
# Mechanical properties :
#
#
# Convention : Reuss Voigt Hill
#
# Bulk Modulus (GPa) = 23.13569 41.18583 32.16076
# Shear Modulus (GPa) = 23.34866 34.79437 29.07152
#
# Velocity S-wave (km/s) = 3.16407 3.86251 3.53060
# Velocity P-wave (km/s) = 4.82374 6.12792 5.51452
#
# Compressibility (1/GPa) = 0.04322327
#
# Stress axis : x y z
#
# Youngs Moduli (GPa) = 22.44473 119.24218 53.20315
#
# Poissons Ratio (x) = -0.48638 0.71714
# Poissons Ratio (y) = -0.09155 0.25835
# Poissons Ratio (z) = 0.30254 0.57904
#
# Static dielectric constant tensor:
#      x y z
#    x 2.018580 0.036570 0.093740 
#    y 0.036570 1.862470 0.028510 
#    z 0.093740 0.028510 1.917000 
# 
# From -- ./inp_files/177580.got.cif
#   From: 2010.05.17/outbox.cif.g08.bks.cpg/sg2_89_cif.got.tgz:177580.got - 2010.06.03 11:33:40.
