data_PCOD9036034
_publ_section_title
;
Structure prediction by ZEFSAII (Michael W. Deem and Ramdas Pophale) SiO2 
 PCOD9036034
Probable space group: P -1
;
_chemical_formula_sum "Si O2"
_cell_formula_units_Z 15
_cell_length_a 5.538130
_cell_length_b 7.149212
_cell_length_c 17.015584
_cell_angle_alpha 109.859757
_cell_angle_beta 80.299029
_cell_angle_gamma 70.324530
_cell_volume 565.383502
_symmetry_space_group_name_H-M "P -1"
_symmetry_group_IT_number 2
_symmetry_cell_setting 'triclinic'
loop_
_space_group_symop_operation_xyz
x,y,z
-x,-y,-z
loop_
_atom_site_type_symbol
_atom_site_label
_atom_site_fract_x
_atom_site_fract_y
_atom_site_fract_z
Si Si1 0.082045 0.603928 0.906136
Si Si2 0.975198 0.481712 0.735596
Si Si3 0.500000 0.000000 0.000000
Si Si4 0.416400 0.779762 0.805010
Si Si5 0.457684 0.818698 0.106555
Si Si6 0.892569 0.221516 0.486104
Si Si7 0.980395 0.092395 0.280411
Si Si8 0.342664 0.255970 0.556220
O O1 0.224762 0.721044 0.861985
O O2 0.298314 0.411396 0.919369
O O3 0.997399 0.470157 0.825201
O O4 0.797345 0.790270 0.974148
O O5 0.666261 0.548037 0.739736
O O6 0.007498 0.689600 0.725233
O O7 0.216838 0.286044 0.653841
O O8 0.654509 0.156454 0.971407
O O9 0.280108 0.904273 0.750555
O O10 0.502959 0.946238 0.874083
O O11 0.243013 0.892164 0.200908
O O12 0.948942 0.138186 0.380990
O O13 0.570176 0.344229 0.540036
O O14 0.083114 0.333224 0.524346
O O15 0.000000 0.000000 0.500000
O O16 0.500000 0.000000 0.500000
#
# Coordination Sequence:
#
# PCOD9036034 Si02
#       8
#     2   2   1   2   2   2   2   2
#     4  11  25  44  76 103 144 191 233 303 368 446
#     4  10  23  44  68  99 140 185 243 298 369 432
#     4  12  22  54  62 116 148 168 250 306 354 446
#     4  10  22  47  70 103 140 192 237 302 360 453
#     4  11  25  44  76 103 144 191 233 303 368 446
#     4  10  24  40  63  99 138 188 242 311 354 434
#     4  10  23  44  68  99 140 185 243 298 369 432
#     4  10  24  40  63  99 138 188 242 311 354 434
#
# _framework density 26.530667000000001
#
# number of rings (size 3 to 8) (size 9 to 14) (size 15 to 20)
#    0.000    1.600    4.000    0.400   11.200    4.800 
#    0.000    1.333    0.000    0.000    0.000    0.000 
#    0.000    0.000    0.000    0.000    0.000    0.000 
#
# Total GULP energy -83600.040750 kJ/mol
# GULP energy per Si atom -5573.336050 kJ/mol
# Density = 2.647028 g / cm^3
# Si number density = 26.530667 Si / 1000 Ang^3
#
#
#
# Elastic Constant Matrix: (Units=GPa)
#
#
# Indices 1 2 3 4 5 6 
#
# 1 109.2287 -8.1015 14.5842 -0.3097 -15.3932 -21.5540
# 2 -8.1015 70.8804 17.8734 -10.6113 7.5728 -17.7275
# 3 14.5842 17.8734 155.0463 7.0390 -13.7087 -32.5790
# 4 -0.3097 -10.6113 7.0390 56.8923 -21.6555 -1.7717
# 5 -15.3932 7.5728 -13.7087 -21.6555 36.9737 2.3778
# 6 -21.5540 -17.7275 -32.5790 -1.7717 2.3778 29.8251
#
#
#
# Elastic Compliance Matrix: (Units=1/GPa)
#
#
# Indices 1 2 3 4 5 6 
#
# 1 0.012701 0.004183 0.001429 0.003407 0.006124 0.012940
# 2 0.004183 0.018857 0.000317 0.003651 -0.000820 0.014860
# 3 0.001429 0.000317 0.008778 0.000633 0.003476 0.010570
# 4 0.003407 0.003651 0.000633 0.023911 0.014550 0.005584
# 5 0.006124 -0.000820 0.003476 0.014550 0.039223 0.005472
# 6 0.012940 0.014860 0.010570 0.005584 0.005472 0.063155
#
#
# Mechanical properties :
#
#
# Convention : Reuss Voigt Hill
#
# Bulk Modulus (GPa) = 19.15895 42.65195 30.90545
# Shear Modulus (GPa) = 29.04197 45.45818 37.25008
#
# Velocity S-wave (km/s) = 3.31215 4.14384 3.75112
# Velocity P-wave (km/s) = 4.67592 6.24552 5.51683
#
# Compressibility (1/GPa) = 0.05219493
#
# Stress axis : x y z
#
# Youngs Moduli (GPa) = 78.73577 53.02961 113.91547
#
# Poissons Ratio (x) = -0.22185 -0.16277
# Poissons Ratio (y) = -0.32939 -0.03609
# Poissons Ratio (z) = -0.11250 -0.01680
#
# Static dielectric constant tensor:
#      x y z
#    x 2.723840 -0.190460 0.948520 
#    y -0.190460 2.146630 -0.471420 
#    z 0.948520 -0.471420 4.211540 
# 
# From -- ./inp_files/547270.got.cif
#   From: 2010.05.17/outbox.cif.g08.bks.cpg/sg2_274_cif.got.tgz:547270.got - 2010.06.03 11:33:40.
