data_PCOD9036208
_publ_section_title
;
Structure prediction by ZEFSAII (Michael W. Deem and Ramdas Pophale) SiO2 
 PCOD9036208
Probable space group: P -1
;
_chemical_formula_sum "Si O2"
_cell_formula_units_Z 15
_cell_length_a 17.243533
_cell_length_b 6.941051
_cell_length_c 9.227756
_cell_angle_alpha 77.051719
_cell_angle_beta 47.900034
_cell_angle_gamma 55.598458
_cell_volume 654.203267
_symmetry_space_group_name_H-M "P -1"
_symmetry_group_IT_number 2
_symmetry_cell_setting 'triclinic'
loop_
_space_group_symop_operation_xyz
x,y,z
-x,-y,-z
loop_
_atom_site_type_symbol
_atom_site_label
_atom_site_fract_x
_atom_site_fract_y
_atom_site_fract_z
Si Si1 0.886816 0.889888 0.019526
Si Si2 0.000000 0.500000 0.500000
Si Si3 0.482712 0.193350 0.601779
Si Si4 0.559765 0.046866 0.049838
Si Si5 0.116483 0.444011 0.679490
Si Si6 0.807192 0.011935 0.773780
Si Si7 0.311763 0.539852 0.332290
Si Si8 0.699590 0.272008 0.379898
O O1 0.868456 0.722167 0.177584
O O2 0.831500 0.120125 0.152161
O O3 0.029504 0.714872 0.809706
O O4 0.808847 0.982972 0.950672
O O5 0.049050 0.424704 0.624772
O O6 0.065248 0.213606 0.420286
O O7 0.612103 0.174469 0.474234
O O8 0.381867 0.457169 0.622502
O O9 0.500000 0.000000 0.500000
O O10 0.429775 0.135709 0.814881
O O11 0.461544 0.330025 0.165408
O O12 0.696596 0.988129 0.858764
O O13 0.500000 0.000000 0.000000
O O14 0.247415 0.399807 0.471681
O O15 0.761248 0.280279 0.741014
O O16 0.287864 0.710550 0.468306
#
# Coordination Sequence:
#
# PCOD9036208 Si02
#       8
#     2   1   2   2   2   2   2   2
#     4  10  23  43  68 100 134 176 235 283 332 415
#     4  10  22  48  70  94 132 186 222 280 346 414
#     4  11  23  43  65  98 136 184 227 275 346 400
#     4  12  25  41  66  98 139 184 225 282 343 406
#     4  10  23  45  71  98 136 181 226 285 347 402
#     4  11  25  42  68  98 136 178 229 284 338 410
#     4  12  25  43  67 102 140 180 228 284 345 411
#     4  11  24  40  69  99 136 179 229 281 337 413
#
# _framework density 22.928654000000002
#
# number of rings (size 3 to 8) (size 9 to 14) (size 15 to 20)
#    0.000    1.067    1.333    4.400    5.600    2.667 
#    2.400    0.000    0.000    0.000    0.000    0.000 
#    0.000    0.000    0.000    0.000    0.000    0.000 
#
# Total GULP energy -83571.430278 kJ/mol
# GULP energy per Si atom -5571.428685 kJ/mol
# Density = 2.287647 g / cm^3
# Si number density = 22.928654 Si / 1000 Ang^3
#
#
#
# Elastic Constant Matrix: (Units=GPa)
#
#
# Indices 1 2 3 4 5 6 
#
# 1 62.1588 15.7823 15.6823 -10.2934 32.4623 -1.2424
# 2 15.7823 97.8110 21.3712 -6.2926 6.9459 -12.5535
# 3 15.6823 21.3712 50.5511 -6.5283 23.5122 0.3638
# 4 -10.2934 -6.2926 -6.5283 49.9697 -1.7701 9.8364
# 5 32.4623 6.9459 23.5122 -1.7701 37.0658 4.5314
# 6 -1.2424 -12.5535 0.3638 9.8364 4.5314 35.7128
#
#
#
# Elastic Compliance Matrix: (Units=1/GPa)
#
#
# Indices 1 2 3 4 5 6 
#
# 1 0.033789 -0.004052 0.007628 0.005790 -0.033683 0.002352
# 2 -0.004052 0.012366 -0.006278 -0.000691 0.004709 0.003863
# 3 0.007628 -0.006278 0.032723 0.004156 -0.026050 -0.000114
# 4 0.005790 -0.000691 0.004156 0.022548 -0.005822 -0.005556
# 5 -0.033683 0.004709 -0.026050 -0.005822 0.072682 -0.006870
# 6 0.002352 0.003863 -0.000114 -0.005556 -0.006870 0.031844
#
#
# Mechanical properties :
#
#
# Convention : Reuss Voigt Hill
#
# Bulk Modulus (GPa) = 13.61025 35.13250 24.37138
# Shear Modulus (GPa) = 21.20007 35.06201 28.13104
#
# Velocity S-wave (km/s) = 3.04404 3.91471 3.50651
# Velocity P-wave (km/s) = 4.27828 5.98240 5.20062
#
# Compressibility (1/GPa) = 0.07347401
#
# Stress axis : x y z
#
# Youngs Moduli (GPa) = 29.59552 80.86480 30.55939
#
# Poissons Ratio (x) = 0.32770 -0.23312
# Poissons Ratio (y) = 0.11993 0.19186
# Poissons Ratio (z) = -0.22577 0.50768
#
# Static dielectric constant tensor:
#      x y z
#    x 1.839100 -0.005410 -0.044090 
#    y -0.005410 1.875770 0.039280 
#    z -0.044090 0.039280 1.842720 
# 
# From -- ./inp_files/323513.got.cif
#   From: 2010.05.17/outbox.cif.g08.bks.cpg/sg2_162_cif.got.tgz:323513.got - 2010.06.03 11:33:40.
