data_PCOD9036319
_publ_section_title
;
Structure prediction by ZEFSAII (Michael W. Deem and Ramdas Pophale) SiO2 
 PCOD9036319
Probable space group: P -1
;
_chemical_formula_sum "Si O2"
_cell_formula_units_Z 14
_cell_length_a 19.444023
_cell_length_b 11.953020
_cell_length_c 5.057698
_cell_angle_alpha 106.634402
_cell_angle_beta 110.751638
_cell_angle_gamma 29.415791
_cell_volume 539.236270
_symmetry_space_group_name_H-M "P -1"
_symmetry_group_IT_number 2
_symmetry_cell_setting 'triclinic'
loop_
_space_group_symop_operation_xyz
x,y,z
-x,-y,-z
loop_
_atom_site_type_symbol
_atom_site_label
_atom_site_fract_x
_atom_site_fract_y
_atom_site_fract_z
Si Si1 0.806588 0.117318 0.526365
Si Si2 0.452305 0.937695 0.781138
Si Si3 0.597643 0.339796 0.775266
Si Si4 0.702293 0.017677 0.037591
Si Si5 0.884773 0.328143 0.147173
Si Si6 0.132232 0.383624 0.730936
Si Si7 0.718492 0.479700 0.514786
O O1 0.500000 0.500000 0.500000
O O2 0.766929 0.044518 0.295031
O O3 0.728970 0.325764 0.400065
O O4 0.974578 0.903781 0.658986
O O5 0.571430 0.734781 0.598412
O O6 0.283829 0.180432 0.638044
O O7 0.760902 0.481792 0.300685
O O8 0.500000 0.000000 0.000000
O O9 0.433538 0.857968 0.917135
O O10 0.740606 0.211176 0.795608
O O11 0.653609 0.133056 0.768984
O O12 0.820404 0.755492 0.042120
O O13 0.500000 0.500000 0.000000
O O14 0.910695 0.425478 0.160571
O O15 0.834167 0.339862 0.814537
O O16 0.000000 0.500000 0.500000
#
# Coordination Sequence:
#
# PCOD9036319 Si02
#       7
#     2   2   2   2   2   2   2
#     4  12  27  47  79 113 162 205 269 326 407 475
#     4  10  22  49  75 117 159 211 266 334 399 474
#     4  12  26  46  72 111 156 201 257 325 396 470
#     4  10  24  47  75 118 151 208 259 333 394 474
#     4  12  27  51  76 114 159 217 262 325 400 483
#     4  10  22  50  79 114 159 211 269 327 397 477
#     4  12  28  46  77 112 162 210 266 325 400 478
#
# _framework density 25.962644000000001
#
# number of rings (size 3 to 8) (size 9 to 14) (size 15 to 20)
#    0.857    0.000    4.286    1.714    4.000    1.714 
#    5.143    1.429    0.000    0.000    0.000    0.000 
#    0.000    0.000    0.000    0.000    0.000    0.000 
#
# Total GULP energy -78311.045458 kJ/mol
# GULP energy per Si atom -5593.646104 kJ/mol
# Density = 2.590355 g / cm^3
# Si number density = 25.962644 Si / 1000 Ang^3
#
#
#
# Elastic Constant Matrix: (Units=GPa)
#
#
# Indices 1 2 3 4 5 6 
#
# 1 113.6404 20.1833 54.0537 8.7943 -9.4102 17.2604
# 2 20.1833 98.2079 45.9023 -10.0700 4.7252 18.7128
# 3 54.0537 45.9023 143.4863 3.7555 11.1812 2.8095
# 4 8.7943 -10.0700 3.7555 44.3734 3.2173 7.4413
# 5 -9.4102 4.7252 11.1812 3.2173 58.5638 -7.2927
# 6 17.2604 18.7128 2.8095 7.4413 -7.2927 52.4625
#
#
#
# Elastic Compliance Matrix: (Units=1/GPa)
#
#
# Indices 1 2 3 4 5 6 
#
# 1 0.011737 -0.000008 -0.004508 -0.001613 0.002457 -0.003047
# 2 -0.000008 0.013766 -0.004316 0.004499 -0.001218 -0.005484
# 3 -0.004508 -0.004316 0.010186 -0.001205 -0.001959 0.002376
# 4 -0.001613 0.004499 -0.001205 0.024969 -0.002372 -0.004881
# 5 0.002457 -0.001218 -0.001959 -0.002372 0.018400 0.002625
# 6 -0.003047 -0.005484 0.002376 -0.004881 0.002625 0.022950
#
#
# Mechanical properties :
#
#
# Convention : Reuss Voigt Hill
#
# Bulk Modulus (GPa) = 55.48248 66.17926 60.83087
# Shear Modulus (GPa) = 39.78320 46.75962 43.27141
#
# Velocity S-wave (km/s) = 3.91874 4.24846 4.08693
# Velocity P-wave (km/s) = 6.47239 7.04354 6.76400
#
# Compressibility (1/GPa) = 0.01802371
#
# Stress axis : x y z
#
# Youngs Moduli (GPa) = 85.20373 72.64021 98.17202
#
# Poissons Ratio (x) = 0.00058 0.44260
# Poissons Ratio (y) = 0.00068 0.42376
# Poissons Ratio (z) = 0.38413 0.31355
#
# Static dielectric constant tensor:
#      x y z
#    x 2.028300 0.003110 0.055670 
#    y 0.003110 2.184100 0.066930 
#    z 0.055670 0.066930 2.146470 
# 
# From -- ./inp_files/276608.got.cif
#   From: 2010.05.17/outbox.cif.g08.bks.cpg/sg2_139_cif.got.tgz:276608.got - 2010.06.03 11:33:40.
