data_PCOD9036740
_publ_section_title
;
Structure prediction by ZEFSAII (Michael W. Deem and Ramdas Pophale) SiO2 
 PCOD9036740
Probable space group: P -1
;
_chemical_formula_sum "Si O2"
_cell_formula_units_Z 14
_cell_length_a 20.563981
_cell_length_b 4.893780
_cell_length_c 5.054188
_cell_angle_alpha 93.008245
_cell_angle_beta 74.423438
_cell_angle_gamma 100.148677
_cell_volume 482.277481
_symmetry_space_group_name_H-M "P -1"
_symmetry_group_IT_number 2
_symmetry_cell_setting 'triclinic'
loop_
_space_group_symop_operation_xyz
x,y,z
-x,-y,-z
loop_
_atom_site_type_symbol
_atom_site_label
_atom_site_fract_x
_atom_site_fract_y
_atom_site_fract_z
Si Si1 0.441541 0.684785 0.794279
Si Si2 0.727975 0.178691 0.515526
Si Si3 0.822920 0.937430 0.751195
Si Si4 0.070362 0.790123 0.674969
Si Si5 0.705365 0.562687 0.065096
Si Si6 0.085184 0.344708 0.039528
Si Si7 0.418341 0.059021 0.339055
O O1 0.522718 0.668208 0.714329
O O2 0.430731 0.873338 0.565873
O O3 0.376932 0.436033 0.850396
O O4 0.430108 0.874338 0.065254
O O5 0.720661 0.386157 0.780759
O O6 0.789778 0.019071 0.517387
O O7 0.661602 0.934493 0.573068
O O8 0.725584 0.383585 0.280615
O O9 0.753519 0.862974 0.999254
O O10 0.893809 0.158386 0.647326
O O11 0.858174 0.684760 0.804815
O O12 0.102655 0.590949 0.825343
O O13 0.078807 0.081358 0.834381
O O14 0.989450 0.675879 0.749968
#
# Coordination Sequence:
#
# PCOD9036740 Si02
#       7
#     2   2   2   2   2   2   2
#     4   8  14  29  53  79 113 161 213 267 323 384
#     4  10  23  39  59  91 129 170 220 273 334 402
#     4  12  25  36  65  90 134 170 218 274 339 406
#     4  10  24  45  69  98 132 174 226 278 334 404
#     4  10  23  39  59  91 129 170 220 273 334 402
#     4  10  24  45  69  98 132 174 226 278 334 404
#     4   8  14  29  53  79 113 161 213 267 323 384
#
# _framework density 29.028932999999999
#
# number of rings (size 3 to 8) (size 9 to 14) (size 15 to 20)
#    0.000    2.286    0.000    1.286    8.000    0.000 
#    0.000    5.000    0.000    0.000    0.000   20.000 
#    0.000    0.000    0.000    0.000    0.000    0.000 
#
# Total GULP energy -78365.692200 kJ/mol
# GULP energy per Si atom -5597.549443 kJ/mol
# Density = 2.896286 g / cm^3
# Si number density = 29.028933 Si / 1000 Ang^3
#
#
#
# Elastic Constant Matrix: (Units=GPa)
#
#
# Indices 1 2 3 4 5 6 
#
# 1 194.9388 14.0137 76.2606 -37.0398 -23.3039 12.0834
# 2 14.0137 103.2744 57.8344 -10.6829 5.0713 -5.9765
# 3 76.2606 57.8344 211.6714 -22.0561 -7.9995 13.2443
# 4 -37.0398 -10.6829 -22.0561 58.4059 23.8675 4.1849
# 5 -23.3039 5.0713 -7.9995 23.8675 58.8165 -17.3971
# 6 12.0834 -5.9765 13.2443 4.1849 -17.3971 35.9848
#
#
#
# Elastic Compliance Matrix: (Units=1/GPa)
#
#
# Indices 1 2 3 4 5 6 
#
# 1 0.006725 0.000498 -0.002076 0.003507 0.000441 -0.001606
# 2 0.000498 0.011908 -0.003466 0.001525 -0.001236 0.002311
# 3 -0.002076 -0.003466 0.006690 0.001180 -0.000964 -0.002944
# 4 0.003507 0.001525 0.001180 0.025710 -0.012020 -0.010160
# 5 0.000441 -0.001236 -0.000964 -0.012020 0.026189 0.014060
# 6 -0.001606 0.002311 -0.002944 -0.010160 0.014060 0.037775
#
#
# Mechanical properties :
#
#
# Convention : Reuss Voigt Hill
#
# Bulk Modulus (GPa) = 65.63476 89.56689 77.60082
# Shear Modulus (GPa) = 38.41348 54.75982 46.58665
#
# Velocity S-wave (km/s) = 3.64164 4.34797 4.01039
# Velocity P-wave (km/s) = 6.35148 7.49185 6.94511
#
# Compressibility (1/GPa) = 0.01523583
#
# Stress axis : x y z
#
# Youngs Moduli (GPa) = 148.70229 83.97527 149.47434
#
# Poissons Ratio (x) = -0.04186 0.31038
# Poissons Ratio (y) = -0.07412 0.51803
# Poissons Ratio (z) = 0.30878 0.29103
#
# Static dielectric constant tensor:
#      x y z
#    x 2.256770 0.075590 -0.079190 
#    y 0.075590 2.291700 0.123980 
#    z -0.079190 0.123980 2.247830 
# 
# From -- ./inp_files/10439.got.cif
#   From: 2010.05.17/outbox.cif.g08.bks.cpg/sg2_6_cif.got.tgz:10439.got - 2010.06.03 11:33:40.
