data_PCOD9036648
_publ_section_title
;
Structure prediction by ZEFSAII (Michael W. Deem and Ramdas Pophale) SiO2 
 PCOD9036648
Probable space group: P -1
;
_chemical_formula_sum "Si O2"
_cell_formula_units_Z 16
_cell_length_a 16.486131
_cell_length_b 8.228366
_cell_length_c 8.993203
_cell_angle_alpha 77.507981
_cell_angle_beta 118.380191
_cell_angle_gamma 140.563974
_cell_volume 656.512531
_symmetry_space_group_name_H-M "P -1"
_symmetry_group_IT_number 2
_symmetry_cell_setting 'triclinic'
loop_
_space_group_symop_operation_xyz
x,y,z
-x,-y,-z
loop_
_atom_site_type_symbol
_atom_site_label
_atom_site_fract_x
_atom_site_fract_y
_atom_site_fract_z
Si Si1 0.501231 0.306744 0.726490
Si Si2 0.478383 0.659314 0.584640
Si Si3 0.824480 0.159247 0.851287
Si Si4 0.773720 0.232029 0.253425
Si Si5 0.198380 0.233564 0.944607
Si Si6 0.978425 0.240844 0.440675
Si Si7 0.199965 0.307132 0.576854
Si Si8 0.110669 0.443034 0.963773
O O1 0.446378 0.416708 0.620522
O O2 0.561673 0.331016 0.615682
O O3 0.369506 0.012232 0.732199
O O4 0.629639 0.508018 0.916387
O O5 0.365572 0.576075 0.621293
O O6 0.653157 0.925132 0.703820
O O7 0.947276 0.284548 0.809359
O O8 0.860662 0.393404 0.903351
O O9 0.840801 0.012910 0.996372
O O10 0.899802 0.493290 0.410118
O O11 0.755485 0.317001 0.076818
O O12 0.855133 0.182323 0.275404
O O13 0.186666 0.264011 0.753238
O O14 0.117287 0.254802 0.976678
O O15 0.088592 0.290536 0.425169
O O16 0.876769 0.967909 0.496723
#
# Coordination Sequence:
#
# PCOD9036648 Si02
#       8
#     2   2   2   2   2   2   2   2
#     4  10  24  42  68  99 133 180 221 274 342 395
#     4  10  23  44  66  97 136 177 223 277 335 400
#     4  10  25  43  69  98 138 179 221 279 334 399
#     4  11  22  41  68  95 131 178 218 277 328 400
#     4  11  24  45  72 100 134 179 223 278 335 400
#     4  10  23  38  65  99 129 168 223 274 326 397
#     4  11  22  43  67 101 127 176 223 274 330 400
#     4  11  24  45  67 103 136 176 226 277 336 401
#
# _framework density 24.371202
#
# number of rings (size 3 to 8) (size 9 to 14) (size 15 to 20)
#    0.000    1.500    2.500    1.125    5.250    3.500 
#    9.000    1.250    0.000    0.000    0.000    0.000 
#    0.000    0.000    0.000    0.000    0.000    0.000 
#
# Total GULP energy -89167.429476 kJ/mol
# GULP energy per Si atom -5572.964342 kJ/mol
# Density = 2.431573 g / cm^3
# Si number density = 24.371202 Si / 1000 Ang^3
#
#
#
# Elastic Constant Matrix: (Units=GPa)
#
#
# Indices 1 2 3 4 5 6 
#
# 1 81.3046 40.1653 17.0016 3.7238 -7.0451 3.3875
# 2 40.1653 123.8122 36.2866 2.8542 -17.7490 23.0593
# 3 17.0016 36.2866 67.8257 0.6346 -9.4520 3.8809
# 4 3.7238 2.8542 0.6346 36.1259 -3.8684 1.2662
# 5 -7.0451 -17.7490 -9.4520 -3.8684 20.6138 6.1043
# 6 3.3875 23.0593 3.8809 1.2662 6.1043 37.7415
#
#
#
# Elastic Compliance Matrix: (Units=1/GPa)
#
#
# Indices 1 2 3 4 5 6 
#
# 1 0.014901 -0.004835 -0.001307 -0.001245 -0.000457 0.001867
# 2 -0.004835 0.014437 -0.004290 0.001060 0.011945 -0.009913
# 3 -0.001307 -0.004290 0.017924 0.000594 0.004129 0.000207
# 4 -0.001245 0.001060 0.000594 0.028549 0.006908 -0.002672
# 5 -0.000457 0.011945 0.004129 0.006908 0.067401 -0.018815
# 6 0.001867 -0.009913 0.000207 -0.002672 -0.018815 0.035497
#
#
# Mechanical properties :
#
#
# Convention : Reuss Voigt Hill
#
# Bulk Modulus (GPa) = 37.88171 51.09441 44.48806
# Shear Modulus (GPa) = 23.99554 30.86218 27.42886
#
# Velocity S-wave (km/s) = 3.14122 3.56243 3.35843
# Velocity P-wave (km/s) = 5.36038 6.15888 5.77345
#
# Compressibility (1/GPa) = 0.02639797
#
# Stress axis : x y z
#
# Youngs Moduli (GPa) = 67.10882 69.26743 55.79058
#
# Poissons Ratio (x) = 0.33493 0.07292
# Poissons Ratio (y) = 0.32450 0.23932
# Poissons Ratio (z) = 0.08772 0.29713
#
# Static dielectric constant tensor:
#      x y z
#    x 2.056370 -0.110180 -0.026230 
#    y -0.110180 1.993500 -0.026990 
#    z -0.026230 -0.026990 1.980070 
# 
# From -- ./inp_files/298584.got.cif
#   From: 2010.05.17/outbox.cif.g08.bks.cpg/sg2_150_cif.got.tgz:298584.got - 2010.06.03 11:33:40.
