data_PCOD9036601
_publ_section_title
;
Structure prediction by ZEFSAII (Michael W. Deem and Ramdas Pophale) SiO2 
 PCOD9036601
Probable space group: P -1
;
_chemical_formula_sum "Si O2"
_cell_formula_units_Z 16
_cell_length_a 16.862275
_cell_length_b 9.493997
_cell_length_c 9.846827
_cell_angle_alpha 135.901559
_cell_angle_beta 115.252872
_cell_angle_gamma 40.415653
_cell_volume 685.526517
_symmetry_space_group_name_H-M "P -1"
_symmetry_group_IT_number 2
_symmetry_cell_setting 'triclinic'
loop_
_space_group_symop_operation_xyz
x,y,z
-x,-y,-z
loop_
_atom_site_type_symbol
_atom_site_label
_atom_site_fract_x
_atom_site_fract_y
_atom_site_fract_z
Si Si1 0.017956 0.264942 0.435360
Si Si2 0.288210 0.705199 0.589869
Si Si3 0.366659 0.331464 0.911792
Si Si4 0.540124 0.395505 0.161623
Si Si5 0.004473 0.311883 0.767219
Si Si6 0.593453 0.045373 0.727800
Si Si7 0.218597 0.558882 0.694317
Si Si8 0.790393 0.375257 0.771715
O O1 0.967781 0.399493 0.643887
O O2 0.927510 0.251131 0.289403
O O3 0.000000 0.500000 0.500000
O O4 0.151233 0.923076 0.317831
O O5 0.402823 0.656947 0.685878
O O6 0.254928 0.660556 0.678903
O O7 0.302334 0.524594 0.352082
O O8 0.154644 0.022365 0.670027
O O9 0.421649 0.439986 0.100560
O O10 0.288369 0.358140 0.993315
O O11 0.493936 0.051540 0.728701
O O12 0.266781 0.535084 0.860584
O O13 0.491666 0.674630 0.240149
O O14 0.634813 0.119012 0.935072
O O15 0.913069 0.287271 0.740418
O O16 0.000000 0.500000 0.000000
O O17 0.296223 0.234334 0.471924
#
# Coordination Sequence:
#
# PCOD9036601 Si02
#       8
#     2   2   2   2   2   2   2   2
#     4  11  26  42  68 103 128 178 225 275 332 398
#     4  11  21  42  69  90 131 188 210 271 345 393
#     4  10  23  38  62  97 130 171 222 276 317 393
#     4   9  20  37  63  96 127 173 226 264 334 379
#     4  11  25  45  68  97 136 177 223 273 340 405
#     4   9  20  37  60  98 129 166 226 273 313 394
#     4  12  21  39  70  93 135 177 222 272 335 390
#     4  11  24  47  63  99 143 168 223 277 335 409
#
# _framework density 23.339724
#
# number of rings (size 3 to 8) (size 9 to 14) (size 15 to 20)
#    0.750    0.750    3.750    1.125    5.250    2.000 
#    0.000    0.625    0.000    0.000    0.000    0.000 
#    0.000    0.000    0.000    0.000    0.000    0.000 
#
# Total GULP energy -89176.534879 kJ/mol
# GULP energy per Si atom -5573.533430 kJ/mol
# Density = 2.328660 g / cm^3
# Si number density = 23.339724 Si / 1000 Ang^3
#
#
#
# Elastic Constant Matrix: (Units=GPa)
#
#
# Indices 1 2 3 4 5 6 
#
# 1 54.5708 24.2137 25.5517 -16.3071 -5.7005 -2.3112
# 2 24.2137 73.5033 30.8679 -30.9554 12.4399 -5.1674
# 3 25.5517 30.8679 88.3644 -37.5340 11.4984 -7.3261
# 4 -16.3071 -30.9554 -37.5340 46.1171 -10.3778 8.7167
# 5 -5.7005 12.4399 11.4984 -10.3778 34.1332 -11.3894
# 6 -2.3112 -5.1674 -7.3261 8.7167 -11.3894 30.6344
#
#
#
# Elastic Compliance Matrix: (Units=1/GPa)
#
#
# Indices 1 2 3 4 5 6 
#
# 1 0.025592 -0.006951 -0.005273 0.001841 0.010047 0.002709
# 2 -0.006951 0.021446 -0.000299 0.010704 -0.006427 -0.002414
# 3 -0.005273 -0.000299 0.018629 0.012461 -0.003544 -0.000857
# 4 0.001841 0.010704 0.012461 0.041401 0.002864 -0.005791
# 5 0.010047 -0.006427 -0.003544 0.002864 0.039635 0.012747
# 6 0.002709 -0.002414 -0.000857 -0.005791 0.012747 0.038622
#
#
# Mechanical properties :
#
#
# Convention : Reuss Voigt Hill
#
# Bulk Modulus (GPa) = 24.61688 41.96723 33.29205
# Shear Modulus (GPa) = 22.33009 31.23061 26.78035
#
# Velocity S-wave (km/s) = 3.09648 3.66196 3.39103
# Velocity P-wave (km/s) = 4.83263 5.99166 5.44308
#
# Compressibility (1/GPa) = 0.04062253
#
# Stress axis : x y z
#
# Youngs Moduli (GPa) = 39.07400 46.62824 53.67932
#
# Poissons Ratio (x) = 0.32411 0.28305
# Poissons Ratio (y) = 0.27160 0.01603
# Poissons Ratio (z) = 0.20604 0.01393
#
# Static dielectric constant tensor:
#      x y z
#    x 1.953440 0.001370 0.022730 
#    y 0.001370 1.899780 0.040100 
#    z 0.022730 0.040100 1.992970 
# 
# From -- ./inp_files/328108.got.cif
#   From: 2010.05.17/outbox.cif.g08.bks.cpg/sg2_165_cif.got.tgz:328108.got - 2010.06.03 11:33:40.
