data_PCOD9036963
_publ_section_title
;
Structure prediction by ZEFSAII (Michael W. Deem and Ramdas Pophale) SiO2 
 PCOD9036963
Probable space group: P -1
;
_chemical_formula_sum "Si O2"
_cell_formula_units_Z 14
_cell_length_a 17.056593
_cell_length_b 27.273536
_cell_length_c 5.219855
_cell_angle_alpha 125.774715
_cell_angle_beta 49.410625
_cell_angle_gamma 162.925326
_cell_volume 533.775269
_symmetry_space_group_name_H-M "P -1"
_symmetry_group_IT_number 2
_symmetry_cell_setting 'triclinic'
loop_
_space_group_symop_operation_xyz
x,y,z
-x,-y,-z
loop_
_atom_site_type_symbol
_atom_site_label
_atom_site_fract_x
_atom_site_fract_y
_atom_site_fract_z
Si Si1 0.075652 0.429622 0.204392
Si Si2 0.584295 0.155381 0.748798
Si Si3 0.700144 0.777777 0.511064
Si Si4 0.600992 0.287607 0.379699
Si Si5 0.920854 0.779854 0.884726
Si Si6 0.018369 0.930569 0.800858
Si Si7 0.096951 0.369174 0.472164
O O1 0.192503 0.559918 0.414138
O O2 0.730714 0.238231 0.407588
O O3 0.195128 0.451146 0.242671
O O4 0.171238 0.453443 0.808504
O O5 0.745544 0.187693 0.638459
O O6 0.240283 0.964935 0.894717
O O7 0.706002 0.283250 0.013010
O O8 0.494736 0.717763 0.656408
O O9 0.788571 0.829510 0.776598
O O10 0.681992 0.694182 0.252425
O O11 0.960812 0.925274 0.191317
O O12 0.325592 0.114519 0.597328
O O13 0.965132 0.830414 0.658074
O O14 0.848339 0.670675 0.722395
#
# Coordination Sequence:
#
# PCOD9036963 Si02
#       7
#     2   2   2   2   2   2   2
#     4  10  27  41  63  96 130 180 202 258 316 387
#     4  10  24  41  68  97 125 174 206 272 313 371
#     4  10  24  39  67 102 120 166 207 274 324 362
#     4  12  22  45  65  97 137 160 217 256 329 387
#     4  10  23  42  69  94 127 162 223 265 318 361
#     4  10  23  39  66  99 123 164 206 273 319 365
#     4  10  25  44  63  94 129 171 220 253 314 378
#
# _framework density 26.228265
#
# number of rings (size 3 to 8) (size 9 to 14) (size 15 to 20)
#    1.714    0.000    1.429    1.714    4.000    4.571 
#    0.000    1.429    0.000    0.000    0.000    0.000 
#    0.000    0.000    0.000    0.000    0.000    0.000 
#
# Total GULP energy -78225.532508 kJ/mol
# GULP energy per Si atom -5587.538036 kJ/mol
# Density = 2.616857 g / cm^3
# Si number density = 26.228265 Si / 1000 Ang^3
#
#
#
# Elastic Constant Matrix: (Units=GPa)
#
#
# Indices 1 2 3 4 5 6 
#
# 1 171.9408 26.0897 56.3079 10.9745 -8.1004 -25.4617
# 2 26.0897 88.0912 25.8950 11.3727 -2.6207 -19.2467
# 3 56.3079 25.8950 128.2513 -3.5638 0.3050 -21.4196
# 4 10.9745 11.3727 -3.5638 36.1252 -2.9286 -7.0727
# 5 -8.1004 -2.6207 0.3050 -2.9286 52.8376 6.3638
# 6 -25.4617 -19.2467 -21.4196 -7.0727 6.3638 49.8230
#
#
#
# Elastic Compliance Matrix: (Units=1/GPa)
#
#
# Indices 1 2 3 4 5 6 
#
# 1 0.007265 -0.000655 -0.002793 -0.001842 0.000767 0.001899
# 2 -0.000655 0.013324 -0.001916 -0.003504 -0.000044 0.003497
# 3 -0.002793 -0.001916 0.009927 0.002881 -0.000734 0.002603
# 4 -0.001842 -0.003504 0.002881 0.030310 0.000829 0.003141
# 5 0.000767 -0.000044 -0.000734 0.000829 0.019368 -0.002297
# 6 0.001899 0.003497 0.002603 0.003141 -0.002297 0.024251
#
#
# Mechanical properties :
#
#
# Convention : Reuss Voigt Hill
#
# Bulk Modulus (GPa) = 50.53584 67.20761 58.87173
# Shear Modulus (GPa) = 41.06114 46.42320 43.74217
#
# Velocity S-wave (km/s) = 3.96097 4.21166 4.08824
# Velocity P-wave (km/s) = 6.34260 7.02357 6.69175
#
# Compressibility (1/GPa) = 0.01978793
#
# Stress axis : x y z
#
# Youngs Moduli (GPa) = 137.64518 75.05206 100.73634
#
# Poissons Ratio (x) = 0.04915 0.28138
# Poissons Ratio (y) = 0.09015 0.19300
# Poissons Ratio (z) = 0.38447 0.14379
#
# Static dielectric constant tensor:
#      x y z
#    x 2.022040 0.043920 -0.006760 
#    y 0.043920 2.257320 0.052540 
#    z -0.006760 0.052540 2.033360 
# 
# From -- ./inp_files/113270.got.cif
#   From: 2010.05.17/outbox.cif.g08.bks.cpg/sg2_57_cif.got.tgz:113270.got - 2010.06.03 11:33:40.
