data_PCOD9036497
_publ_section_title
;
Structure prediction by ZEFSAII (Michael W. Deem and Ramdas Pophale) SiO2 
 PCOD9036497
Probable space group: P -1
;
_chemical_formula_sum "Si O2"
_cell_formula_units_Z 16
_cell_length_a 9.212603
_cell_length_b 10.829144
_cell_length_c 10.650998
_cell_angle_alpha 105.172499
_cell_angle_beta 40.673200
_cell_angle_gamma 116.303855
_cell_volume 615.781303
_symmetry_space_group_name_H-M "P -1"
_symmetry_group_IT_number 2
_symmetry_cell_setting 'triclinic'
loop_
_space_group_symop_operation_xyz
x,y,z
-x,-y,-z
loop_
_atom_site_type_symbol
_atom_site_label
_atom_site_fract_x
_atom_site_fract_y
_atom_site_fract_z
Si Si1 0.926816 0.547230 0.428069
Si Si2 0.795717 0.556369 0.123889
Si Si3 0.465768 0.312400 0.543069
Si Si4 0.023306 0.079695 0.875767
Si Si5 0.530550 0.123121 0.223964
Si Si6 0.734224 0.077172 0.454883
Si Si7 0.891140 0.647132 0.823716
Si Si8 0.655178 0.699676 0.756473
O O1 0.685861 0.428460 0.499044
O O2 0.880948 0.685558 0.525998
O O3 0.000000 0.500000 0.500000
O O4 0.121114 0.511480 0.210792
O O5 0.726753 0.611457 0.314992
O O6 0.564475 0.431172 0.190225
O O7 0.873115 0.667717 0.988589
O O8 0.000000 0.500000 0.000000
O O9 0.297795 0.191601 0.712073
O O10 0.530226 0.238210 0.362091
O O11 0.048262 0.976156 0.724428
O O12 0.000000 0.000000 0.000000
O O13 0.862518 0.234324 0.362682
O O14 0.371587 0.974594 0.351719
O O15 0.405653 0.168363 0.202250
O O16 0.794596 0.123257 0.020974
O O17 0.500000 0.000000 0.500000
O O18 0.696821 0.667225 0.864309
#
# Coordination Sequence:
#
# PCOD9036497 Si02
#       8
#     2   2   2   2   2   2   2   2
#     4   9  21  39  63  92 129 175 220 268 333 404
#     4  11  24  38  69 104 133 175 228 280 335 400
#     4  10  23  37  64  98 132 169 220 277 341 386
#     4  11  21  37  62  99 130 171 223 281 335 393
#     4  11  24  41  67  98 139 173 227 278 337 406
#     4  11  23  40  69 101 132 176 227 284 335 401
#     4  11  23  44  68  95 140 178 225 277 345 402
#     4  10  24  44  64  97 139 183 217 277 341 414
#
# _framework density 25.983250999999999
#
# number of rings (size 3 to 8) (size 9 to 14) (size 15 to 20)
#    0.000    1.500    1.250    3.375    7.000    1.500 
#    0.000    0.625    0.000    0.000    0.000    0.000 
#    0.000    0.000    0.000    0.000    0.000    0.000 
#
# Total GULP energy -89167.596520 kJ/mol
# GULP energy per Si atom -5572.974783 kJ/mol
# Density = 2.592411 g / cm^3
# Si number density = 25.983251 Si / 1000 Ang^3
#
#
#
# Elastic Constant Matrix: (Units=GPa)
#
#
# Indices 1 2 3 4 5 6 
#
# 1 132.0193 38.5899 41.3135 -7.4809 -7.4584 -36.3102
# 2 38.5899 73.8606 37.3418 3.5285 -9.1679 -35.9579
# 3 41.3135 37.3418 127.4804 5.2133 -3.4009 -22.2104
# 4 -7.4809 3.5285 5.2133 70.4998 -10.7415 -10.3467
# 5 -7.4584 -9.1679 -3.4009 -10.7415 33.8524 1.3040
# 6 -36.3102 -35.9579 -22.2104 -10.3467 1.3040 49.8888
#
#
#
# Elastic Compliance Matrix: (Units=1/GPa)
#
#
# Indices 1 2 3 4 5 6 
#
# 1 0.010616 -0.001230 -0.002003 0.002646 0.002396 0.006434
# 2 -0.001230 0.024138 -0.003984 0.002063 0.005943 0.015001
# 3 -0.002003 -0.003984 0.009640 -0.000881 -0.000824 -0.000199
# 4 0.002646 0.002063 -0.000881 0.016252 0.005970 0.006235
# 5 0.002396 0.005943 -0.000824 0.005970 0.033257 0.006029
# 6 0.006434 0.015001 -0.000199 0.006235 0.006029 0.036586
#
#
# Mechanical properties :
#
#
# Convention : Reuss Voigt Hill
#
# Bulk Modulus (GPa) = 33.37941 63.09454 48.23697
# Shear Modulus (GPa) = 32.27661 45.25586 38.76624
#
# Velocity S-wave (km/s) = 3.52832 4.17793 3.86679
# Velocity P-wave (km/s) = 5.42892 6.89993 6.20815
#
# Compressibility (1/GPa) = 0.02995859
#
# Stress axis : x y z
#
# Youngs Moduli (GPa) = 94.19675 41.42788 103.73491
#
# Poissons Ratio (x) = 0.05098 0.20781
# Poissons Ratio (y) = 0.11591 0.41329
# Poissons Ratio (z) = 0.18870 0.16505
#
# Static dielectric constant tensor:
#      x y z
#    x 2.574800 0.321010 -0.094760 
#    y 0.321010 2.627050 0.060400 
#    z -0.094760 0.060400 2.190700 
# 
# From -- ./inp_files/326064.got.cif
#   From: 2010.05.17/outbox.cif.g08.bks.cpg/sg2_164_cif.got.tgz:326064.got - 2010.06.03 11:33:40.
