data_PCOD9036901
_publ_section_title
;
Structure prediction by ZEFSAII (Michael W. Deem and Ramdas Pophale) SiO2 
 PCOD9036901
Probable space group: P -1
;
_chemical_formula_sum "Si O2"
_cell_formula_units_Z 13
_cell_length_a 20.363764
_cell_length_b 7.778907
_cell_length_c 12.143586
_cell_angle_alpha 30.470774
_cell_angle_beta 149.057319
_cell_angle_gamma 133.500152
_cell_volume 491.931955
_symmetry_space_group_name_H-M "P -1"
_symmetry_group_IT_number 2
_symmetry_cell_setting 'triclinic'
loop_
_space_group_symop_operation_xyz
x,y,z
-x,-y,-z
loop_
_atom_site_type_symbol
_atom_site_label
_atom_site_fract_x
_atom_site_fract_y
_atom_site_fract_z
Si Si1 0.555546 0.180831 0.095199
Si Si2 0.167746 0.039418 0.431010
Si Si3 0.502439 0.635549 0.553552
Si Si4 0.128014 0.092460 0.584618
Si Si5 0.000000 0.000000 0.000000
Si Si6 0.664139 0.728895 0.094609
Si Si7 0.219273 0.388439 0.007825
O O1 0.521707 0.345459 0.835208
O O2 0.616566 0.432664 0.125002
O O3 0.688386 0.894452 0.428530
O O4 0.421411 0.181067 0.966721
O O5 0.120975 0.221590 0.378359
O O6 0.068793 0.107055 0.152743
O O7 0.187479 0.627796 0.720668
O O8 0.500000 0.500000 0.500000
O O9 0.630899 0.806584 0.661718
O O10 0.375258 0.928668 0.224542
O O11 0.217372 0.708607 0.914436
O O12 0.000000 0.000000 0.500000
O O13 0.186823 0.341454 0.613576
O O14 0.111032 0.167538 0.995725
#
# Coordination Sequence:
#
# PCOD9036901 Si02
#       7
#     2   2   2   2   1   2   2
#     4  10  23  39  65  95 121 159 209 252 314 348
#     4   9  22  41  62  91 120 167 202 251 310 359
#     4  11  20  41  65  92 124 158 208 253 307 364
#     4  10  23  43  62  86 131 164 200 250 313 360
#     4  12  20  36  66  88 122 158 214 244 290 384
#     4  11  22  40  64  93 125 161 202 261 295 369
#     4   9  22  38  60  93 118 165 198 251 307 353
#
# _framework density 26.426417000000001
#
# number of rings (size 3 to 8) (size 9 to 14) (size 15 to 20)
#    0.923    0.923    1.538    1.846    2.154    4.923 
#    0.000    3.846    0.000    0.000    0.000    0.000 
#    0.000    0.000    0.000    0.000    0.000    0.000 
#
# Total GULP energy -72432.504455 kJ/mol
# GULP energy per Si atom -5571.731112 kJ/mol
# Density = 2.636627 g / cm^3
# Si number density = 26.426417 Si / 1000 Ang^3
#
#
#
# Elastic Constant Matrix: (Units=GPa)
#
#
# Indices 1 2 3 4 5 6 
#
# 1 122.0286 14.9747 25.6815 17.7601 -9.0031 8.8446
# 2 14.9747 70.5805 17.6354 32.6391 -1.5220 16.7025
# 3 25.6815 17.6354 100.2224 34.5819 -21.3221 -1.2820
# 4 17.7601 32.6391 34.5819 58.5315 6.6585 0.8298
# 5 -9.0031 -1.5220 -21.3221 6.6585 30.3889 9.4105
# 6 8.8446 16.7025 -1.2820 0.8298 9.4105 49.1663
#
#
#
# Elastic Compliance Matrix: (Units=1/GPa)
#
#
# Indices 1 2 3 4 5 6 
#
# 1 0.009169 0.000196 -0.000639 -0.002895 0.003650 -0.002382
# 2 0.000196 0.023111 0.003404 -0.015965 0.010028 -0.009447
# 3 -0.000639 0.003404 0.017959 -0.014175 0.016787 -0.003547
# 4 -0.002895 -0.015965 -0.014175 0.037696 -0.022739 0.009291
# 5 0.003650 0.010028 0.016787 -0.022739 0.055547 -0.013873
# 6 -0.002382 -0.009447 -0.003547 0.009291 -0.013873 0.026383
#
#
# Mechanical properties :
#
#
# Convention : Reuss Voigt Hill
#
# Bulk Modulus (GPa) = 17.80591 45.49054 31.64822
# Shear Modulus (GPa) = 27.37289 43.25332 35.31311
#
# Velocity S-wave (km/s) = 3.22190 4.05006 3.65948
# Velocity P-wave (km/s) = 4.53800 6.25476 5.46422
#
# Compressibility (1/GPa) = 0.05616112
#
# Stress axis : x y z
#
# Youngs Moduli (GPa) = 109.06874 43.26999 55.68113
#
# Poissons Ratio (x) = -0.00846 0.03557
# Poissons Ratio (y) = -0.02133 -0.18957
# Poissons Ratio (z) = 0.06968 -0.14731
#
# Static dielectric constant tensor:
#      x y z
#    x 2.010440 -0.000680 -0.028270 
#    y -0.000680 2.280330 -0.155030 
#    z -0.028270 -0.155030 2.127150 
# 
# From -- ./inp_files/421989.got.cif
#   From: 2010.05.17/outbox.cif.g08.bks.cpg/sg2_211_cif.got.tgz:421989.got - 2010.06.03 11:33:40.
