data_PCOD9036035
_publ_section_title
;
Structure prediction by ZEFSAII (Michael W. Deem and Ramdas Pophale) SiO2 
 PCOD9036035
Probable space group: P -1
;
_chemical_formula_sum "Si O2"
_cell_formula_units_Z 14
_cell_length_a 12.576621
_cell_length_b 4.966991
_cell_length_c 21.583912
_cell_angle_alpha 68.547217
_cell_angle_beta 151.246095
_cell_angle_gamma 120.010017
_cell_volume 553.016033
_symmetry_space_group_name_H-M "P -1"
_symmetry_group_IT_number 2
_symmetry_cell_setting 'triclinic'
loop_
_space_group_symop_operation_xyz
x,y,z
-x,-y,-z
loop_
_atom_site_type_symbol
_atom_site_label
_atom_site_fract_x
_atom_site_fract_y
_atom_site_fract_z
Si Si1 0.485920 0.595179 0.555155
Si Si2 0.170948 0.841618 0.632600
Si Si3 0.775906 0.780563 0.254183
Si Si4 0.677761 0.573505 0.024354
Si Si5 0.619418 0.234953 0.749774
Si Si6 0.945797 0.915850 0.906264
Si Si7 0.083059 0.797748 0.295602
O O1 0.500000 0.500000 0.500000
O O2 0.455693 0.333090 0.611271
O O3 0.264495 0.693828 0.434867
O O4 0.740202 0.881985 0.673449
O O5 0.181200 0.936163 0.701602
O O6 0.437112 0.016560 0.725200
O O7 0.138412 0.475203 0.646729
O O8 0.000000 0.000000 0.500000
O O9 0.924111 0.874329 0.258860
O O10 0.496673 0.634552 0.101101
O O11 0.910537 0.550632 0.178504
O O12 0.500000 0.500000 0.000000
O O13 0.821986 0.909030 0.034123
O O14 0.816025 0.546157 0.856124
O O15 0.746604 0.064316 0.786864
O O16 0.000000 0.000000 0.000000
#
# Coordination Sequence:
#
# PCOD9036035 Si02
#       7
#     2   2   2   2   2   2   2
#     4  11  24  41  71 100 140 177 242 284 359 408
#     4  12  26  47  70 105 140 186 234 288 352 421
#     4  11  26  46  71 101 142 182 235 281 356 416
#     4  10  22  47  70 103 143 186 235 289 354 419
#     4  12  26  44  73 102 140 181 236 291 350 415
#     4  12  25  46  72 103 142 186 237 287 356 421
#     4  10  23  45  68 102 136 187 228 297 345 424
#
# _framework density 25.315722000000001
#
# number of rings (size 3 to 8) (size 9 to 14) (size 15 to 20)
#    0.000    0.857    1.429    5.143    6.000    1.143 
#    2.571    2.857    0.000    0.000    0.000    0.000 
#    0.000    0.000    0.000    0.000    0.000    0.000 
#
# Total GULP energy -78258.974173 kJ/mol
# GULP energy per Si atom -5589.926727 kJ/mol
# Density = 2.525810 g / cm^3
# Si number density = 25.315722 Si / 1000 Ang^3
#
#
#
# Elastic Constant Matrix: (Units=GPa)
#
#
# Indices 1 2 3 4 5 6 
#
# 1 122.7971 43.8438 25.5388 16.5488 6.3625 9.2179
# 2 43.8438 85.3991 2.2398 8.2469 16.4518 3.3819
# 3 25.5388 2.2398 81.6568 20.4051 3.1355 4.8778
# 4 16.5488 8.2469 20.4051 34.5469 12.0781 -2.6733
# 5 6.3625 16.4518 3.1355 12.0781 42.0448 6.4253
# 6 9.2179 3.3819 4.8778 -2.6733 6.4253 48.1391
#
#
#
# Elastic Compliance Matrix: (Units=1/GPa)
#
#
# Indices 1 2 3 4 5 6 
#
# 1 0.011170 -0.005646 -0.002449 -0.003398 0.001975 -0.001946
# 2 -0.005646 0.015594 0.001502 0.000047 -0.005459 0.000565
# 3 -0.002449 0.001502 0.015236 -0.008844 0.001473 -0.001868
# 4 -0.003398 0.000047 -0.008844 0.040098 -0.011167 0.005261
# 5 0.001975 -0.005459 0.001473 -0.011167 0.029437 -0.004693
# 6 -0.001946 0.000565 -0.001868 0.005261 -0.004693 0.022214
#
#
# Mechanical properties :
#
#
# Convention : Reuss Voigt Hill
#
# Bulk Modulus (GPa) = 34.70494 48.12196 41.41345
# Shear Modulus (GPa) = 31.94079 39.49486 35.71783
#
# Velocity S-wave (km/s) = 3.55589 3.95409 3.76026
# Velocity P-wave (km/s) = 5.53152 6.31636 5.93692
#
# Compressibility (1/GPa) = 0.02881434
#
# Stress axis : x y z
#
# Youngs Moduli (GPa) = 89.52234 64.12839 65.63272
#
# Poissons Ratio (x) = 0.36206 0.16076
# Poissons Ratio (y) = 0.50544 -0.09859
# Poissons Ratio (z) = 0.21927 -0.09633
#
# Static dielectric constant tensor:
#      x y z
#    x 1.934390 0.003470 0.025280 
#    y 0.003470 1.985390 -0.039100 
#    z 0.025280 -0.039100 2.122080 
# 
# From -- ./inp_files/68343.got.cif
#   From: 2010.05.17/outbox.cif.g08.bks.cpg/sg2_35_cif.got.tgz:68343.got - 2010.06.03 11:33:40.
