data_PCOD9036108
_publ_section_title
;
Structure prediction by ZEFSAII (Michael W. Deem and Ramdas Pophale) SiO2 
 PCOD9036108
Probable space group: P -1
;
_chemical_formula_sum "Si O2"
_cell_formula_units_Z 13
_cell_length_a 10.300159
_cell_length_b 12.872969
_cell_length_c 8.937793
_cell_angle_alpha 91.822990
_cell_angle_beta 116.613824
_cell_angle_gamma 39.948851
_cell_volume 571.374612
_symmetry_space_group_name_H-M "P -1"
_symmetry_group_IT_number 2
_symmetry_cell_setting 'triclinic'
loop_
_space_group_symop_operation_xyz
x,y,z
-x,-y,-z
loop_
_atom_site_type_symbol
_atom_site_label
_atom_site_fract_x
_atom_site_fract_y
_atom_site_fract_z
Si Si1 0.700966 0.174634 0.918160
Si Si2 0.378567 0.244469 0.267341
Si Si3 0.750247 0.728081 0.340518
Si Si4 0.602297 0.437132 0.716706
Si Si5 0.500000 0.000000 0.500000
Si Si6 0.727489 0.183733 0.277692
Si Si7 0.948984 0.683220 0.121724
O O1 0.515644 0.183914 0.815181
O O2 0.556459 0.353497 0.760875
O O3 0.745568 0.181182 0.111776
O O4 0.000000 0.000000 0.000000
O O5 0.549115 0.092113 0.479575
O O6 0.546185 0.193332 0.220483
O O7 0.174561 0.455335 0.228323
O O8 0.222942 0.241506 0.112089
O O9 0.809121 0.754178 0.214588
O O10 0.000000 0.500000 0.500000
O O11 0.697976 0.838217 0.455738
O O12 0.500000 0.500000 0.500000
O O13 0.434317 0.621501 0.732166
O O14 0.906955 0.295795 0.845198
O O15 0.000000 0.000000 0.500000
#
# Coordination Sequence:
#
# PCOD9036108 Si02
#       7
#     2   2   2   2   1   2   2
#     4  12  28  48  72 108 154 197 248 309 377 448
#     4  10  23  44  70 106 135 187 247 304 359 437
#     4  12  26  49  76 109 150 192 248 309 372 442
#     4  11  25  45  74 108 145 198 244 303 380 447
#     4  12  28  40  76 110 140 186 250 298 370 436
#     4  11  25  46  73 103 150 194 250 307 370 451
#     4  10  22  47  73  97 145 187 240 304 367 431
#
# _framework density 22.752147999999998
#
# number of rings (size 3 to 8) (size 9 to 14) (size 15 to 20)
#    0.000    0.923    3.077    2.308    6.462    4.308 
#    0.000    0.000    0.000    0.000    0.000    0.000 
#    0.000    0.000    0.000    0.000    0.000    0.000 
#
# Total GULP energy -72412.543182 kJ/mol
# GULP energy per Si atom -5570.195629 kJ/mol
# Density = 2.270036 g / cm^3
# Si number density = 22.752148 Si / 1000 Ang^3
#
#
#
# Elastic Constant Matrix: (Units=GPa)
#
#
# Indices 1 2 3 4 5 6 
#
# 1 71.7608 20.3482 -10.6842 6.4394 -5.3217 -25.5507
# 2 20.3482 99.4087 21.0010 14.2985 -7.2124 -31.0989
# 3 -10.6842 21.0010 42.4252 12.8675 3.2513 -18.1657
# 4 6.4394 14.2985 12.8675 42.1506 -5.8313 -17.1204
# 5 -5.3217 -7.2124 3.2513 -5.8313 50.8721 4.8735
# 6 -25.5507 -31.0989 -18.1657 -17.1204 4.8735 37.0202
#
#
#
# Elastic Compliance Matrix: (Units=1/GPa)
#
#
# Indices 1 2 3 4 5 6 
#
# 1 0.026523 -0.001087 0.018514 0.001643 -0.000996 0.027369
# 2 -0.001087 0.013949 -0.003410 0.000438 0.001238 0.009334
# 3 0.018514 -0.003410 0.044504 -0.003402 -0.004732 0.030802
# 4 0.001643 0.000438 -0.003402 0.030189 0.002623 0.013448
# 5 -0.000996 0.001238 -0.004732 0.002623 0.020665 -0.003477
# 6 0.027369 0.009334 0.030802 0.013448 -0.003477 0.075534
#
#
# Mechanical properties :
#
#
# Convention : Reuss Voigt Hill
#
# Bulk Modulus (GPa) = 8.84859 30.54718 19.69789
# Shear Modulus (GPa) = 22.62442 38.20390 30.41416
#
# Velocity S-wave (km/s) = 3.15681 4.10217 3.66014
# Velocity P-wave (km/s) = 4.14546 5.99102 5.15156
#
# Compressibility (1/GPa) = 0.11301238
#
# Stress axis : x y z
#
# Youngs Moduli (GPa) = 37.70248 71.68839 22.46969
#
# Poissons Ratio (x) = 0.07793 -0.41601
# Poissons Ratio (y) = 0.04099 0.07662
# Poissons Ratio (z) = -0.69804 0.24444
#
# Static dielectric constant tensor:
#      x y z
#    x 1.823190 -0.022960 -0.050680 
#    y -0.022960 1.871150 -0.074660 
#    z -0.050680 -0.074660 1.897590 
# 
# From -- ./inp_files/151335.got.cif
#   From: 2010.05.17/outbox.cif.g08.bks.cpg/sg2_76_cif.got.tgz:151335.got - 2010.06.03 11:33:40.
