data_PCOD9036041
_publ_section_title
;
Structure prediction by ZEFSAII (Michael W. Deem and Ramdas Pophale) SiO2 
 PCOD9036041
Probable space group: P -1
;
_chemical_formula_sum "Si O2"
_cell_formula_units_Z 16
_cell_length_a 14.315243
_cell_length_b 15.014308
_cell_length_c 11.530470
_cell_angle_alpha 39.530368
_cell_angle_beta 151.354403
_cell_angle_gamma 122.270382
_cell_volume 668.043394
_symmetry_space_group_name_H-M "P -1"
_symmetry_group_IT_number 2
_symmetry_cell_setting 'triclinic'
loop_
_space_group_symop_operation_xyz
x,y,z
-x,-y,-z
loop_
_atom_site_type_symbol
_atom_site_label
_atom_site_fract_x
_atom_site_fract_y
_atom_site_fract_z
Si Si1 0.133590 0.700417 0.675565
Si Si2 0.172017 0.844156 0.787436
Si Si3 0.520100 0.860533 0.450236
Si Si4 0.936239 0.682848 0.249899
Si Si5 0.154888 0.766410 0.208757
Si Si6 0.214958 0.568085 0.263455
Si Si7 0.718933 0.619080 0.701390
Si Si8 0.318113 0.925483 0.660537
O O1 0.041406 0.801416 0.589836
O O2 0.957245 0.721874 0.366123
O O3 0.287910 0.779118 0.722403
O O4 0.255905 0.523344 0.039727
O O5 0.344014 0.882400 0.867677
O O6 0.254169 0.703172 0.107722
O O7 0.000000 0.000000 0.500000
O O8 0.314777 0.843370 0.290679
O O9 0.590898 0.773181 0.489020
O O10 0.503535 0.032609 0.241052
O O11 0.711465 0.775129 0.840859
O O12 0.113541 0.717553 0.339051
O O13 0.000000 0.500000 0.500000
O O14 0.250650 0.604806 0.398364
O O15 0.913870 0.909838 0.765591
O O16 0.329053 0.425861 0.436723
O O17 0.961408 0.604165 0.959440
#
# Coordination Sequence:
#
# PCOD9036041 Si02
#       8
#     2   2   2   2   2   2   2   2
#     4   9  19  35  63  82 114 155 193 239 292 333
#     4   9  15  31  63  82 108 153 189 234 288 340
#     4  11  22  37  59  86 119 153 194 238 292 345
#     4  11  21  41  61  85 117 154 195 240 287 344
#     4  11  22  36  59  88 117 157 190 236 295 348
#     4  10  17  32  60  88 114 150 200 237 292 344
#     4  10  18  34  61  89 111 155 195 244 290 340
#     4   9  20  39  57  82 117 150 189 238 287 345
#
# _framework density 23.950538999999999
#
# number of rings (size 3 to 8) (size 9 to 14) (size 15 to 20)
#    0.750    1.250    5.000    0.000    0.000    3.000 
#    0.000    3.125    2.750    0.000    0.000    0.000 
#    0.000    0.000    0.000    0.000    0.000    0.000 
#
# Total GULP energy -89170.696720 kJ/mol
# GULP energy per Si atom -5573.168545 kJ/mol
# Density = 2.389603 g / cm^3
# Si number density = 23.950539 Si / 1000 Ang^3
#
#
#
# Elastic Constant Matrix: (Units=GPa)
#
#
# Indices 1 2 3 4 5 6 
#
# 1 75.5428 14.3493 37.3349 9.6856 -2.3309 6.4858
# 2 14.3493 98.6387 20.3005 10.3443 -1.1415 17.5106
# 3 37.3349 20.3005 54.3010 -0.7355 -5.5368 -0.5853
# 4 9.6856 10.3443 -0.7355 37.7834 2.2437 -11.3762
# 5 -2.3309 -1.1415 -5.5368 2.2437 29.9879 12.7017
# 6 6.4858 17.5106 -0.5853 -11.3762 12.7017 59.6296
#
#
#
# Elastic Compliance Matrix: (Units=1/GPa)
#
#
# Indices 1 2 3 4 5 6 
#
# 1 0.022345 0.001812 -0.016044 -0.008138 0.001573 -0.005008
# 2 0.001812 0.012734 -0.005907 -0.005899 0.002358 -0.005622
# 3 -0.016044 -0.005907 0.031995 0.007717 0.001789 0.004885
# 4 -0.008138 -0.005899 0.007717 0.033867 -0.006423 0.010522
# 5 0.001573 0.002358 0.001789 -0.006423 0.038742 -0.010324
# 6 -0.005008 -0.005622 0.004885 0.010522 -0.010324 0.023220
#
#
# Mechanical properties :
#
#
# Convention : Reuss Voigt Hill
#
# Bulk Modulus (GPa) = 37.31932 41.38356 39.35144
# Shear Modulus (GPa) = 23.57230 35.91336 29.74283
#
# Velocity S-wave (km/s) = 3.14061 3.87651 3.52780
# Velocity P-wave (km/s) = 5.36348 6.11169 5.74977
#
# Compressibility (1/GPa) = 0.02679577
#
# Stress axis : x y z
#
# Youngs Moduli (GPa) = 44.75350 78.53050 31.25490
#
# Poissons Ratio (x) = -0.14230 0.50146
# Poissons Ratio (y) = -0.08110 0.18461
# Poissons Ratio (z) = 0.71804 0.46385
#
# Static dielectric constant tensor:
#      x y z
#    x 1.944390 0.028130 0.027860 
#    y 0.028130 1.933990 0.048220 
#    z 0.027860 0.048220 2.053480 
# 
# From -- ./inp_files/455513.got.cif
#   From: 2010.05.17/outbox.cif.g08.bks.cpg/sg2_228_cif.got.tgz:455513.got - 2010.06.03 11:33:40.
