data_PCOD9036770
_publ_section_title
;
Structure prediction by ZEFSAII (Michael W. Deem and Ramdas Pophale) SiO2 
 PCOD9036770
Probable space group: P -1
;
_chemical_formula_sum "Si O2"
_cell_formula_units_Z 14
_cell_length_a 11.180185
_cell_length_b 13.482434
_cell_length_c 8.305678
_cell_angle_alpha 80.791879
_cell_angle_beta 94.666480
_cell_angle_gamma 147.055042
_cell_volume 668.811214
_symmetry_space_group_name_H-M "P -1"
_symmetry_group_IT_number 2
_symmetry_cell_setting 'triclinic'
loop_
_space_group_symop_operation_xyz
x,y,z
-x,-y,-z
loop_
_atom_site_type_symbol
_atom_site_label
_atom_site_fract_x
_atom_site_fract_y
_atom_site_fract_z
Si Si1 0.526060 0.243912 0.753158
Si Si2 0.676347 0.209532 0.506086
Si Si3 0.043561 0.759372 0.377384
Si Si4 0.364674 0.610361 0.727450
Si Si5 0.902101 0.544126 0.941868
Si Si6 0.209257 0.077817 0.475711
Si Si7 0.297770 0.935045 0.016653
O O1 0.611923 0.208640 0.671273
O O2 0.750126 0.448454 0.793431
O O3 0.364633 0.184287 0.624378
O O4 0.386730 0.104721 0.924493
O O5 0.903632 0.309874 0.514782
O O6 0.667667 0.297690 0.363961
O O7 0.500000 0.000000 0.500000
O O8 0.789445 0.573433 0.344815
O O9 0.120053 0.905167 0.458253
O O10 0.191879 0.864479 0.201669
O O11 0.621207 0.768243 0.685810
O O12 0.261455 0.540195 0.909676
O O13 0.109723 0.763592 0.918979
O O14 0.000000 0.500000 0.000000
O O15 0.000000 0.000000 0.500000
O O16 0.500000 0.000000 0.000000
#
# Coordination Sequence:
#
# PCOD9036770 Si02
#       7
#     2   2   2   2   2   2   2
#     4  11  22  37  60  92 123 162 201 249 314 365
#     4  11  20  35  57  92 128 163 193 247 315 384
#     4  11  21  40  61  89 125 166 198 256 315 365
#     4  10  23  39  61  89 125 161 204 252 314 372
#     4  11  22  35  60  94 130 160 187 242 313 387
#     4  11  26  45  64  85 119 170 226 262 290 343
#     4  11  21  35  61  92 131 159 191 237 314 390
#
# _framework density 20.932665
#
# number of rings (size 3 to 8) (size 9 to 14) (size 15 to 20)
#    0.000    1.143    5.714    2.143    2.000    4.000 
#    0.000    2.857    0.000    3.429    0.000    0.000 
#    0.000    0.000    0.000    0.000    0.000    0.000 
#
# Total GULP energy -78201.413370 kJ/mol
# GULP energy per Si atom -5585.815241 kJ/mol
# Density = 2.088502 g / cm^3
# Si number density = 20.932665 Si / 1000 Ang^3
#
#
#
# Elastic Constant Matrix: (Units=GPa)
#
#
# Indices 1 2 3 4 5 6 
#
# 1 89.3067 37.2728 21.7471 9.6779 -11.0657 34.2620
# 2 37.2728 143.5653 38.3126 23.4188 -9.4984 20.7298
# 3 21.7471 38.3126 63.1855 11.4040 -4.6531 10.6410
# 4 9.6779 23.4188 11.4040 48.1696 4.8631 -3.1141
# 5 -11.0657 -9.4984 -4.6531 4.8631 14.2228 -4.4868
# 6 34.2620 20.7298 10.6410 -3.1141 -4.4868 28.4810
#
#
#
# Elastic Compliance Matrix: (Units=1/GPa)
#
#
# Indices 1 2 3 4 5 6 
#
# 1 0.024691 0.000157 -0.001530 -0.007764 0.012602 -0.028109
# 2 0.000157 0.009912 -0.003842 -0.004847 0.005358 -0.005653
# 3 -0.001530 -0.003842 0.019889 -0.003002 0.002938 -0.002659
# 4 -0.007764 -0.004847 -0.003002 0.027865 -0.015167 0.014647
# 5 0.012602 0.005358 0.002938 -0.015167 0.087296 -0.008063
# 6 -0.028109 -0.005653 -0.002659 0.014647 -0.008063 0.074365
#
#
# Mechanical properties :
#
#
# Convention : Reuss Voigt Hill
#
# Bulk Modulus (GPa) = 22.69613 54.52472 38.61042
# Shear Modulus (GPa) = 18.57794 31.42299 25.00047
#
# Velocity S-wave (km/s) = 2.98234 3.87867 3.45965
# Velocity P-wave (km/s) = 4.76709 6.79433 5.86890
#
# Compressibility (1/GPa) = 0.04406037
#
# Stress axis : x y z
#
# Youngs Moduli (GPa) = 40.50017 100.89203 50.27961
#
# Poissons Ratio (x) = -0.01584 0.07693
# Poissons Ratio (y) = -0.00636 0.19320
# Poissons Ratio (z) = 0.06197 0.38768
#
# Static dielectric constant tensor:
#      x y z
#    x 1.720120 0.014930 0.004710 
#    y 0.014930 1.844250 0.003990 
#    z 0.004710 0.003990 1.831580 
# 
# From -- ./inp_files/267641.got.cif
#   From: 2010.05.17/outbox.cif.g08.bks.cpg/sg2_134_cif.got.tgz:267641.got - 2010.06.03 11:33:40.
