data_PCOD9036506
_publ_section_title
;
Structure prediction by ZEFSAII (Michael W. Deem and Ramdas Pophale) SiO2 
 PCOD9036506
Probable space group: P -1
;
_chemical_formula_sum "Si O2"
_cell_formula_units_Z 14
_cell_length_a 5.190844
_cell_length_b 12.348693
_cell_length_c 9.704860
_cell_angle_alpha 67.958663
_cell_angle_beta 105.872494
_cell_angle_gamma 99.856038
_cell_volume 552.990943
_symmetry_space_group_name_H-M "P -1"
_symmetry_group_IT_number 2
_symmetry_cell_setting 'triclinic'
loop_
_space_group_symop_operation_xyz
x,y,z
-x,-y,-z
loop_
_atom_site_type_symbol
_atom_site_label
_atom_site_fract_x
_atom_site_fract_y
_atom_site_fract_z
Si Si1 0.477216 0.828388 0.471269
Si Si2 0.585255 0.540585 0.337963
Si Si3 0.081526 0.235661 0.241991
Si Si4 0.876752 0.315189 0.740154
Si Si5 0.796681 0.888949 0.053657
Si Si6 0.319936 0.977859 0.771894
Si Si7 0.383150 0.675696 0.760361
O O1 0.756695 0.776264 0.583443
O O2 0.309106 0.757514 0.363634
O O3 0.960210 0.777309 0.110268
O O4 0.540910 0.961186 0.370495
O O5 0.500000 0.500000 0.500000
O O6 0.336232 0.618919 0.232031
O O7 0.598468 0.432801 0.286414
O O8 0.882981 0.606148 0.338844
O O9 0.324392 0.287913 0.156815
O O10 0.945329 0.108296 0.244786
O O11 0.862125 0.330005 0.170693
O O12 0.678391 0.207478 0.393502
O O13 0.732115 0.909007 0.195900
O O14 0.529750 0.905272 0.920915
O O15 0.000000 0.000000 0.000000
#
# Coordination Sequence:
#
# PCOD9036506 Si02
#       7
#     2   2   2   2   2   2   2
#     4  10  23  37  65  99 135 165 216 262 332 394
#     4  12  24  39  67  96 132 175 208 274 333 377
#     4  10  24  40  64  97 135 173 209 267 330 388
#     4  12  25  40  65  97 136 164 217 270 325 384
#     4  11  26  42  68  95 129 175 222 268 317 390
#     4  11  24  44  65  94 135 173 219 266 328 388
#     4  10  24  39  62 100 133 166 218 255 336 393
#
# _framework density 25.316872
#
# number of rings (size 3 to 8) (size 9 to 14) (size 15 to 20)
#    0.857    0.286    2.857    2.571   10.000    0.571 
#    0.000    0.000    0.000    5.143    0.000    0.000 
#    0.000    0.000    0.000    0.000    0.000    0.000 
#
# Total GULP energy -78237.850897 kJ/mol
# GULP energy per Si atom -5588.417921 kJ/mol
# Density = 2.525925 g / cm^3
# Si number density = 25.316872 Si / 1000 Ang^3
#
#
#
# Elastic Constant Matrix: (Units=GPa)
#
#
# Indices 1 2 3 4 5 6 
#
# 1 162.6328 60.3983 48.1346 18.5399 41.2564 10.7158
# 2 60.3983 123.3995 28.6517 11.0170 23.2589 2.2748
# 3 48.1346 28.6517 56.8741 5.0724 26.9714 -2.6565
# 4 18.5399 11.0170 5.0724 29.6611 2.5819 7.9314
# 5 41.2564 23.2589 26.9714 2.5819 38.2262 4.1357
# 6 10.7158 2.2748 -2.6565 7.9314 4.1357 61.5766
#
#
#
# Elastic Compliance Matrix: (Units=1/GPa)
#
#
# Indices 1 2 3 4 5 6 
#
# 1 0.010514 -0.002571 -0.004246 -0.004076 -0.006408 -0.000962
# 2 -0.002571 0.010350 -0.001844 -0.001834 -0.002137 0.000365
# 3 -0.004246 -0.001844 0.029751 -0.001277 -0.015558 0.003300
# 4 -0.004076 -0.001834 -0.001277 0.037977 0.004333 -0.004461
# 5 -0.006408 -0.002137 -0.015558 0.004333 0.045395 -0.003084
# 6 -0.000962 0.000365 0.003300 -0.004461 -0.003084 0.017318
#
#
# Mechanical properties :
#
#
# Convention : Reuss Voigt Hill
#
# Bulk Modulus (GPa) = 30.03565 68.58619 49.31092
# Shear Modulus (GPa) = 27.82049 39.60758 33.71404
#
# Velocity S-wave (km/s) = 3.31855 3.95963 3.65318
# Velocity P-wave (km/s) = 5.15493 6.93216 6.10853
#
# Compressibility (1/GPa) = 0.03329377
#
# Stress axis : x y z
#
# Youngs Moduli (GPa) = 95.11371 96.61764 33.61219
#
# Poissons Ratio (x) = 0.24838 0.14271
# Poissons Ratio (y) = 0.24452 0.06198
# Poissons Ratio (z) = 0.40382 0.17817
#
# Static dielectric constant tensor:
#      x y z
#    x 2.111010 -0.036950 -0.075380 
#    y -0.036950 2.012100 -0.021350 
#    z -0.075380 -0.021350 2.064240 
# 
# From -- ./inp_files/364388.got.cif
#   From: 2010.05.17/outbox.cif.g08.bks.cpg/sg2_183_cif.got.tgz:364388.got - 2010.06.03 11:33:40.
