data_PCOD9036456
_publ_section_title
;
Structure prediction by ZEFSAII (Michael W. Deem and Ramdas Pophale) SiO2 
 PCOD9036456
Probable space group: P -1
;
_chemical_formula_sum "Si O2"
_cell_formula_units_Z 16
_cell_length_a 17.596601
_cell_length_b 7.076243
_cell_length_c 20.811145
_cell_angle_alpha 69.700392
_cell_angle_beta 17.467342
_cell_angle_gamma 66.425376
_cell_volume 707.258740
_symmetry_space_group_name_H-M "P -1"
_symmetry_group_IT_number 2
_symmetry_cell_setting 'triclinic'
loop_
_space_group_symop_operation_xyz
x,y,z
-x,-y,-z
loop_
_atom_site_type_symbol
_atom_site_label
_atom_site_fract_x
_atom_site_fract_y
_atom_site_fract_z
Si Si1 0.050365 0.104533 0.048125
Si Si2 0.839096 0.318828 0.513999
Si Si3 0.719058 0.684320 0.062455
Si Si4 0.422136 0.729956 0.504927
Si Si5 0.254805 0.594901 0.280628
Si Si6 0.037445 0.881569 0.691109
Si Si7 0.987527 0.727338 0.068130
Si Si8 0.192763 0.651839 0.177228
O O1 0.812446 0.119912 0.285952
O O2 0.280285 0.150650 0.900465
O O3 0.109137 0.888487 0.989447
O O4 0.930843 0.281926 0.070827
O O5 0.804171 0.267007 0.623411
O O6 0.944474 0.140474 0.397723
O O7 0.015049 0.484515 0.342893
O O8 0.537692 0.397254 0.727323
O O9 0.805725 0.784540 0.916841
O O10 0.945596 0.488964 0.924408
O O11 0.500000 0.500000 0.500000
O O12 0.299020 0.746304 0.530958
O O13 0.678556 0.812259 0.297864
O O14 0.266890 0.682170 0.188720
O O15 0.000000 0.500000 0.500000
O O16 0.542593 0.431320 0.068524
O O17 0.972861 0.121495 0.735900
#
# Coordination Sequence:
#
# PCOD9036456 Si02
#       8
#     2   2   2   2   2   2   2   2
#     4  10  23  37  60  87 115 171 229 278 328 387
#     4  11  24  41  68 101 136 176 219 271 337 391
#     4  11  24  39  60  92 137 173 219 281 330 384
#     4  11  22  41  62  86 133 176 223 275 327 376
#     4   9  21  46  75 102 134 173 209 271 338 403
#     4  11  25  41  65 101 134 177 226 277 331 396
#     4  11  22  40  62  87 123 174 231 278 330 380
#     4  10  23  46  72 101 138 171 218 268 333 412
#
# _framework density 22.622554999999998
#
# number of rings (size 3 to 8) (size 9 to 14) (size 15 to 20)
#    0.000    1.500    2.500    2.250    1.750    9.500 
#    0.000    8.750    0.000    0.000    0.000    0.000 
#    0.000    0.000    0.000    0.000    0.000    0.000 
#
# Total GULP energy -89184.062691 kJ/mol
# GULP energy per Si atom -5574.003918 kJ/mol
# Density = 2.257107 g / cm^3
# Si number density = 22.622555 Si / 1000 Ang^3
#
#
#
# Elastic Constant Matrix: (Units=GPa)
#
#
# Indices 1 2 3 4 5 6 
#
# 1 97.5432 10.2299 28.0713 9.7555 10.1649 18.8588
# 2 10.2299 52.1858 10.7005 1.1239 -3.3516 -0.0621
# 3 28.0713 10.7005 123.9450 -2.9573 0.7388 8.9907
# 4 9.7555 1.1239 -2.9573 16.7905 3.4761 -1.9712
# 5 10.1649 -3.3516 0.7388 3.4761 46.4324 1.1880
# 6 18.8588 -0.0621 8.9907 -1.9712 1.1880 21.5127
#
#
#
# Elastic Compliance Matrix: (Units=1/GPa)
#
#
# Indices 1 2 3 4 5 6 
#
# 1 0.014938 -0.002371 -0.002470 -0.009983 -0.002326 -0.012856
# 2 -0.002371 0.020049 -0.001400 -0.000310 0.001946 0.002586
# 3 -0.002470 -0.001400 0.008912 0.002923 0.000112 -0.001302
# 4 -0.009983 -0.000310 0.002923 0.068226 -0.003348 0.013966
# 5 -0.002326 0.001946 0.000112 -0.003348 0.022424 0.000452
# 6 -0.012856 0.002586 -0.001302 0.013966 0.000452 0.059560
#
#
# Mechanical properties :
#
#
# Convention : Reuss Voigt Hill
#
# Bulk Modulus (GPa) = 31.83222 41.29748 36.56485
# Shear Modulus (GPa) = 23.03471 31.92528 27.47999
#
# Velocity S-wave (km/s) = 3.19442 3.76069 3.48906
# Velocity P-wave (km/s) = 5.26377 6.09522 5.69469
#
# Compressibility (1/GPa) = 0.03141471
#
# Stress axis : x y z
#
# Youngs Moduli (GPa) = 66.94459 49.87778 112.20918
#
# Poissons Ratio (x) = 0.11828 0.27718
# Poissons Ratio (y) = 0.15875 0.15714
# Poissons Ratio (z) = 0.16537 0.06985
#
# Static dielectric constant tensor:
#      x y z
#    x 1.926180 -0.004300 0.005730 
#    y -0.004300 1.814980 -0.011210 
#    z 0.005730 -0.011210 1.879430 
# 
# From -- ./inp_files/599105.got.cif
#   From: 2010.05.17/outbox.cif.g08.bks.cpg/sg2_300_cif.got.tgz:599105.got - 2010.06.03 11:33:40.
