data_PCOD9036283
_publ_section_title
;
Structure prediction by ZEFSAII (Michael W. Deem and Ramdas Pophale) SiO2 
 PCOD9036283
Probable space group: P -1
;
_chemical_formula_sum "Si O2"
_cell_formula_units_Z 16
_cell_length_a 15.715540
_cell_length_b 9.269143
_cell_length_c 8.793894
_cell_angle_alpha 129.727719
_cell_angle_beta 62.021246
_cell_angle_gamma 142.294115
_cell_volume 600.742199
_symmetry_space_group_name_H-M "P -1"
_symmetry_group_IT_number 2
_symmetry_cell_setting 'triclinic'
loop_
_space_group_symop_operation_xyz
x,y,z
-x,-y,-z
loop_
_atom_site_type_symbol
_atom_site_label
_atom_site_fract_x
_atom_site_fract_y
_atom_site_fract_z
Si Si1 0.613855 0.188490 0.166373
Si Si2 0.713231 0.772909 0.270496
Si Si3 0.224679 0.210128 0.107039
Si Si4 0.244511 0.724809 0.152881
Si Si5 0.988310 0.852248 0.559376
Si Si6 0.046607 0.587759 0.844158
Si Si7 0.440540 0.056892 0.466414
Si Si8 0.592076 0.766399 0.841573
O O1 0.571800 0.272643 0.386016
O O2 0.565639 0.476288 0.250266
O O3 0.608298 0.965010 0.079161
O O4 0.500000 0.000000 0.000000
O O5 0.657606 0.908075 0.383013
O O6 0.856417 0.964185 0.375925
O O7 0.749315 0.395866 0.085388
O O8 0.741775 0.714143 0.045703
O O9 0.360258 0.354610 0.194134
O O10 0.116883 0.200602 0.268059
O O11 0.151745 0.904251 0.965247
O O12 0.090277 0.531883 0.207395
O O13 0.305849 0.012739 0.229997
O O14 0.339979 0.801909 0.263156
O O15 0.920040 0.562134 0.361545
O O16 0.000000 0.000000 0.500000
O O17 0.000000 0.500000 0.000000
O O18 0.500000 0.000000 0.500000
#
# Coordination Sequence:
#
# PCOD9036283 Si02
#       8
#     2   2   2   2   2   2   2   2
#     4   8  18  38  64  99 142 185 245 295 364 450
#     4  12  28  50  74 112 165 194 250 331 383 461
#     4  12  27  51  79 111 160 205 255 316 391 457
#     4   9  20  43  70 105 148 190 260 309 372 455
#     4  12  27  52  79 117 150 210 267 304 394 464
#     4  12  22  49  80 107 154 203 257 324 368 465
#     4  11  22  42  68 109 153 190 247 306 388 452
#     4  10  22  48  78 105 151 197 253 317 386 452
#
# _framework density 26.633721999999999
#
# number of rings (size 3 to 8) (size 9 to 14) (size 15 to 20)
#    0.750    0.500    3.750    1.500    0.000    3.000 
#   11.250    0.000    0.000    0.000    0.000    0.000 
#    0.000    0.000    0.000    0.000    0.000    0.000 
#
# Total GULP energy -89420.830466 kJ/mol
# GULP energy per Si atom -5588.801904 kJ/mol
# Density = 2.657310 g / cm^3
# Si number density = 26.633722 Si / 1000 Ang^3
#
#
#
# Elastic Constant Matrix: (Units=GPa)
#
#
# Indices 1 2 3 4 5 6 
#
# 1 190.6628 19.1800 69.5639 -21.9383 3.4867 1.9109
# 2 19.1800 59.9983 40.4899 -4.5451 2.4337 -2.8988
# 3 69.5639 40.4899 193.6106 -7.9290 -28.2640 -2.2701
# 4 -21.9383 -4.5451 -7.9290 45.3064 3.0125 2.0396
# 5 3.4867 2.4337 -28.2640 3.0125 51.5592 -8.3652
# 6 1.9109 -2.8988 -2.2701 2.0396 -8.3652 32.8530
#
#
#
# Elastic Compliance Matrix: (Units=1/GPa)
#
#
# Indices 1 2 3 4 5 6 
#
# 1 0.006583 -0.000129 -0.002559 0.002934 -0.002228 -0.001320
# 2 -0.000129 0.020077 -0.004596 0.001355 -0.003457 0.000497
# 3 -0.002559 -0.004596 0.007755 -0.000743 0.004941 0.001584
# 4 0.002934 0.001355 -0.000743 0.023758 -0.002413 -0.002192
# 5 -0.002228 -0.003457 0.004941 -0.002413 0.023584 0.006321
# 6 -0.001320 0.000497 0.001584 -0.002192 0.006321 0.032414
#
#
# Mechanical properties :
#
#
# Convention : Reuss Voigt Hill
#
# Bulk Modulus (GPa) = 50.38267 78.08215 64.23241
# Shear Modulus (GPa) = 36.94025 46.94626 41.94325
#
# Velocity S-wave (km/s) = 3.72825 4.20296 3.97270
# Velocity P-wave (km/s) = 6.12299 7.27557 6.72402
#
# Compressibility (1/GPa) = 0.01984809
#
# Stress axis : x y z
#
# Youngs Moduli (GPa) = 151.90585 49.80932 128.94896
#
# Poissons Ratio (x) = 0.00641 0.32996
# Poissons Ratio (y) = 0.01956 0.59261
# Poissons Ratio (z) = 0.38870 0.22891
#
# Static dielectric constant tensor:
#      x y z
#    x 2.358760 -0.001150 -0.053490 
#    y -0.001150 2.185970 -0.003150 
#    z -0.053490 -0.003150 2.150310 
# 
# From -- ./inp_files/293423.got.cif
#   From: 2010.05.17/outbox.cif.g08.bks.cpg/sg2_147_cif.got.tgz:293423.got - 2010.06.03 11:33:40.
