data_PCOD9036721
_publ_section_title
;
Structure prediction by ZEFSAII (Michael W. Deem and Ramdas Pophale) SiO2 
 PCOD9036721
Probable space group: P -1
;
_chemical_formula_sum "Si O2"
_cell_formula_units_Z 15
_cell_length_a 24.389464
_cell_length_b 14.339022
_cell_length_c 26.530240
_cell_angle_alpha 22.091041
_cell_angle_beta 168.662474
_cell_angle_gamma 158.032856
_cell_volume 663.188354
_symmetry_space_group_name_H-M "P -1"
_symmetry_group_IT_number 2
_symmetry_cell_setting 'triclinic'
loop_
_space_group_symop_operation_xyz
x,y,z
-x,-y,-z
loop_
_atom_site_type_symbol
_atom_site_label
_atom_site_fract_x
_atom_site_fract_y
_atom_site_fract_z
Si Si1 0.199385 0.760413 0.929694
Si Si2 0.969180 0.555848 0.282828
Si Si3 0.767291 0.732132 0.419659
Si Si4 0.000000 0.500000 0.500000
Si Si5 0.714221 0.373890 0.650702
Si Si6 0.545547 0.211134 0.318262
Si Si7 0.798803 0.105459 0.429645
Si Si8 0.320573 0.666430 0.196364
O O1 0.021757 0.465270 0.909601
O O2 0.458186 0.797455 0.105605
O O3 0.326236 0.795762 0.082074
O O4 0.984406 0.945253 0.645308
O O5 0.789195 0.345651 0.265431
O O6 0.138959 0.419537 0.465627
O O7 0.220556 0.746003 0.446988
O O8 0.732151 0.672540 0.983199
O O9 0.752184 0.553957 0.544968
O O10 0.000000 0.000000 0.500000
O O11 0.269593 0.646300 0.633522
O O12 0.052613 0.761829 0.452516
O O13 0.506523 0.461994 0.459124
O O14 0.589878 0.085118 0.667634
O O15 0.492435 0.904791 0.265243
O O16 0.000000 0.500000 0.000000
#
# Coordination Sequence:
#
# PCOD9036721 Si02
#       8
#     2   2   2   1   2   2   2   2
#     4  10  23  43  68 100 140 174 238 300 355 431
#     4  11  27  46  72 103 143 187 244 293 355 427
#     4  11  25  44  75 101 134 187 235 302 361 419
#     4  10  26  44  74  96 148 192 234 288 360 422
#     4  10  25  43  66 106 139 187 236 291 360 426
#     4  11  28  47  70 107 146 191 240 292 352 440
#     4  10  24  44  66 106 134 185 241 293 359 431
#     4  10  23  38  70  99 141 182 236 299 359 425
#
# _framework density 22.618009000000001
#
# number of rings (size 3 to 8) (size 9 to 14) (size 15 to 20)
#    0.000    1.600    0.000    2.400   16.800    5.333 
#    0.000    0.000    0.000    0.000    0.000    0.000 
#    0.000    0.000    0.000    0.000    0.000    0.000 
#
# Total GULP energy -83509.077815 kJ/mol
# GULP energy per Si atom -5567.271854 kJ/mol
# Density = 2.256653 g / cm^3
# Si number density = 22.618009 Si / 1000 Ang^3
#
#
#
# Elastic Constant Matrix: (Units=GPa)
#
#
# Indices 1 2 3 4 5 6 
#
# 1 49.4484 30.0149 21.0922 7.7824 17.4574 -14.7737
# 2 30.0149 210.6480 52.8641 32.0851 15.4842 -22.2404
# 3 21.0922 52.8641 72.2704 32.1257 17.7872 5.4671
# 4 7.7824 32.0851 32.1257 28.0449 9.0087 2.6120
# 5 17.4574 15.4842 17.7872 9.0087 38.3780 -3.7932
# 6 -14.7737 -22.2404 5.4671 2.6120 -3.7932 27.5654
#
#
#
# Elastic Compliance Matrix: (Units=1/GPa)
#
#
# Indices 1 2 3 4 5 6 
#
# 1 0.032637 -0.000144 -0.010438 0.004372 -0.009221 0.017763
# 2 -0.000144 0.007106 -0.003818 -0.004600 0.000734 0.006951
# 3 -0.010438 -0.003818 0.035332 -0.030607 -0.004223 -0.013363
# 4 0.004372 -0.004600 -0.030607 0.076404 -0.004189 -0.003114
# 5 -0.009221 0.000734 -0.004223 -0.004189 0.033037 0.001431
# 6 0.017763 0.006951 -0.013363 -0.003114 0.001431 0.054548
#
#
# Mechanical properties :
#
#
# Convention : Reuss Voigt Hill
#
# Bulk Modulus (GPa) = 21.60920 60.03436 40.82178
# Shear Modulus (GPa) = 17.64991 34.02402 25.83697
#
# Velocity S-wave (km/s) = 2.79650 3.88272 3.38349
# Velocity P-wave (km/s) = 4.47235 6.83382 5.77508
#
# Compressibility (1/GPa) = 0.04627659
#
# Stress axis : x y z
#
# Youngs Moduli (GPa) = 30.64028 140.71721 28.30305
#
# Poissons Ratio (x) = 0.02021 0.29542
# Poissons Ratio (y) = 0.00440 0.10806
# Poissons Ratio (z) = 0.31981 0.53727
#
# Static dielectric constant tensor:
#      x y z
#    x 1.692940 -0.176960 -0.150660 
#    y -0.176960 1.577820 -0.107230 
#    z -0.150660 -0.107230 1.838160 
# 
# From -- ./inp_files/70631.got.cif
#   From: 2010.05.17/outbox.cif.g08.bks.cpg/sg2_36_cif.got.tgz:70631.got - 2010.06.03 11:33:40.
