data_PCOD9036330
_publ_section_title
;
Structure prediction by ZEFSAII (Michael W. Deem and Ramdas Pophale) SiO2 
 PCOD9036330
Probable space group: P -1
;
_chemical_formula_sum "Si O2"
_cell_formula_units_Z 13
_cell_length_a 12.156155
_cell_length_b 15.886221
_cell_length_c 7.827688
_cell_angle_alpha 57.618871
_cell_angle_beta 112.401206
_cell_angle_gamma 155.170997
_cell_volume 512.039361
_symmetry_space_group_name_H-M "P -1"
_symmetry_group_IT_number 2
_symmetry_cell_setting 'triclinic'
loop_
_space_group_symop_operation_xyz
x,y,z
-x,-y,-z
loop_
_atom_site_type_symbol
_atom_site_label
_atom_site_fract_x
_atom_site_fract_y
_atom_site_fract_z
Si Si1 0.737102 0.867440 0.430179
Si Si2 0.716931 0.239984 0.952746
Si Si3 0.976014 0.719479 0.861097
Si Si4 0.418855 0.351051 0.747559
Si Si5 0.835536 0.665833 0.225875
Si Si6 0.000000 0.500000 0.500000
Si Si7 0.326731 0.934157 0.333162
O O1 0.709151 0.829464 0.251643
O O2 0.449241 0.610785 0.614912
O O3 0.000000 0.000000 0.500000
O O4 0.798040 0.028171 0.336796
O O5 0.934457 0.325785 0.063749
O O6 0.545095 0.154645 0.101161
O O7 0.858905 0.414094 0.705261
O O8 0.500000 0.000000 0.000000
O O9 0.693028 0.524533 0.811978
O O10 0.931231 0.709549 0.045605
O O11 0.500000 0.500000 0.500000
O O12 0.234406 0.270807 0.861066
O O13 0.073603 0.818547 0.339142
O O14 0.835029 0.273828 0.636273
O O15 0.500000 0.000000 0.500000
#
# Coordination Sequence:
#
# PCOD9036330 Si02
#       7
#     2   2   2   2   2   1   2
#     4  11  25  44  70  98 137 189 223 286 357 407
#     4  10  23  44  72 102 138 186 233 289 352 415
#     4  12  23  46  70  98 141 180 231 295 341 423
#     4  10  23  44  67 103 134 178 235 283 346 425
#     4  11  24  45  68 104 139 180 233 290 345 418
#     4  10  22  50  68  94 138 184 238 286 346 408
#     4  11  26  44  70 107 143 184 231 292 350 429
#
# _framework density 25.388674000000002
#
# number of rings (size 3 to 8) (size 9 to 14) (size 15 to 20)
#    0.000    1.231    6.154    0.462    8.615    1.231 
#    2.769    0.000    0.000    0.000    0.000    0.000 
#    0.000    0.000    0.000    0.000    0.000    0.000 
#
# Total GULP energy -72459.799736 kJ/mol
# GULP energy per Si atom -5573.830749 kJ/mol
# Density = 2.533089 g / cm^3
# Si number density = 25.388674 Si / 1000 Ang^3
#
#
#
# Elastic Constant Matrix: (Units=GPa)
#
#
# Indices 1 2 3 4 5 6 
#
# 1 48.5116 44.7966 6.7126 -9.3982 4.6236 13.5629
# 2 44.7966 161.5459 46.9737 15.7834 14.2625 29.4472
# 3 6.7126 46.9737 147.4334 -31.3935 -12.0780 15.9769
# 4 -9.3982 15.7834 -31.3935 49.2238 4.7488 6.2729
# 5 4.6236 14.2625 -12.0780 4.7488 30.0530 -2.5157
# 6 13.5629 29.4472 15.9769 6.2729 -2.5157 51.3072
#
#
#
# Elastic Compliance Matrix: (Units=1/GPa)
#
#
# Indices 1 2 3 4 5 6 
#
# 1 0.035611 -0.011981 0.006137 0.015392 -0.000289 -0.006344
# 2 -0.011981 0.012866 -0.005828 -0.009433 -0.005241 -0.001506
# 3 0.006137 -0.005828 0.011176 0.010089 0.004487 -0.002771
# 4 0.015392 -0.009433 0.010089 0.033423 0.000391 -0.005864
# 5 -0.000289 -0.005241 0.004487 0.000391 0.037840 0.003495
# 6 -0.006344 -0.001506 -0.002771 -0.005864 0.003495 0.023783
#
#
# Mechanical properties :
#
#
# Convention : Reuss Voigt Hill
#
# Bulk Modulus (GPa) = 27.54157 61.60629 44.57393
# Shear Modulus (GPa) = 26.29529 43.38400 34.83965
#
# Velocity S-wave (km/s) = 3.22174 4.13824 3.70841
# Velocity P-wave (km/s) = 4.97101 6.86668 5.99426
#
# Compressibility (1/GPa) = 0.03630876
#
# Stress axis : x y z
#
# Youngs Moduli (GPa) = 28.08087 77.72300 89.47374
#
# Poissons Ratio (x) = 0.93123 -0.54912
# Poissons Ratio (y) = 0.33645 0.52150
# Poissons Ratio (z) = -0.17234 0.45301
#
# Static dielectric constant tensor:
#      x y z
#    x 2.128640 -0.016420 -0.082330 
#    y -0.016420 2.148070 0.049750 
#    z -0.082330 0.049750 2.052350 
# 
# From -- ./inp_files/318550.got.cif
#   From: 2010.05.17/outbox.cif.g08.bks.cpg/sg2_160_cif.got.tgz:318550.got - 2010.06.03 11:33:40.
