data_PCOD9036504
_publ_section_title
;
Structure prediction by ZEFSAII (Michael W. Deem and Ramdas Pophale) SiO2 
 PCOD9036504
Probable space group: P -1
;
_chemical_formula_sum "Si O2"
_cell_formula_units_Z 14
_cell_length_a 10.146446
_cell_length_b 12.396408
_cell_length_c 9.042319
_cell_angle_alpha 105.290841
_cell_angle_beta 120.181899
_cell_angle_gamma 44.756015
_cell_volume 684.048430
_symmetry_space_group_name_H-M "P -1"
_symmetry_group_IT_number 2
_symmetry_cell_setting 'triclinic'
loop_
_space_group_symop_operation_xyz
x,y,z
-x,-y,-z
loop_
_atom_site_type_symbol
_atom_site_label
_atom_site_fract_x
_atom_site_fract_y
_atom_site_fract_z
Si Si1 0.237642 0.283514 0.027141
Si Si2 0.356853 0.850291 0.915972
Si Si3 0.436100 0.629955 0.122601
Si Si4 0.118099 0.604920 0.581429
Si Si5 0.050908 0.789913 0.172045
Si Si6 0.034419 0.451319 0.250754
Si Si7 0.151282 0.817567 0.548595
O O1 0.468878 0.150478 0.041845
O O2 0.231404 0.320390 0.209763
O O3 0.078212 0.260451 0.911630
O O4 0.146325 0.431885 0.930060
O O5 0.334857 0.772652 0.740181
O O6 0.419494 0.752465 0.063678
O O7 0.131999 0.023598 0.875503
O O8 0.629013 0.535424 0.312130
O O9 0.214282 0.714341 0.103401
O O10 0.500000 0.500000 0.000000
O O11 0.051655 0.553520 0.396743
O O12 0.053925 0.763772 0.565689
O O13 0.022481 0.614582 0.687388
O O14 0.185060 0.746651 0.381029
O O15 0.000000 0.000000 0.500000
#
# Coordination Sequence:
#
# PCOD9036504 Si02
#       7
#     2   2   2   2   2   2   2
#     4  11  22  41  65  94 128 172 223 257 326 382
#     4  11  24  43  65  94 134 170 219 262 327 390
#     4  12  24  39  67  98 124 168 218 271 322 380
#     4  11  21  41  64  95 136 164 217 270 327 377
#     4  11  25  43  65  93 134 173 212 269 325 385
#     4  10  23  37  65  98 129 170 213 279 316 381
#     4  10  23  41  65  92 132 172 212 262 325 385
#
# _framework density 20.466387999999998
#
# number of rings (size 3 to 8) (size 9 to 14) (size 15 to 20)
#    0.000    1.143    4.286    1.714    4.000    0.571 
#    0.000    0.000    0.000    2.571    0.000    0.000 
#    0.000    0.000    0.000    0.000    0.000    0.000 
#
# Total GULP energy -78135.144540 kJ/mol
# GULP energy per Si atom -5581.081753 kJ/mol
# Density = 2.041981 g / cm^3
# Si number density = 20.466388 Si / 1000 Ang^3
#
#
#
# Elastic Constant Matrix: (Units=GPa)
#
#
# Indices 1 2 3 4 5 6 
#
# 1 160.4468 58.0469 40.3007 10.2956 -23.1253 -3.9994
# 2 58.0469 73.9792 23.6819 -0.4189 -20.2825 6.2879
# 3 40.3007 23.6819 74.7114 11.4830 -15.5502 3.5491
# 4 10.2956 -0.4189 11.4830 27.6159 1.5505 -4.3511
# 5 -23.1253 -20.2825 -15.5502 1.5505 27.3892 1.3958
# 6 -3.9994 6.2879 3.5491 -4.3511 1.3958 47.3200
#
#
#
# Elastic Compliance Matrix: (Units=1/GPa)
#
#
# Indices 1 2 3 4 5 6 
#
# 1 0.009653 -0.006359 -0.002428 -0.002562 0.002129 0.001544
# 2 -0.006359 0.022116 -0.001665 0.002289 0.010110 -0.003439
# 3 -0.002428 -0.001665 0.018020 -0.007385 0.007481 -0.002235
# 4 -0.002562 0.002289 -0.007385 0.041314 -0.007206 0.004045
# 5 0.002129 0.010110 0.007481 -0.007206 0.050648 -0.003881
# 6 0.001544 -0.003439 -0.002235 0.004045 -0.003881 0.022374
#
#
# Mechanical properties :
#
#
# Convention : Reuss Voigt Hill
#
# Bulk Modulus (GPa) = 34.61732 61.46627 48.04180
# Shear Modulus (GPa) = 25.68632 32.93888 29.31260
#
# Velocity S-wave (km/s) = 3.54651 4.01610 3.78859
# Velocity P-wave (km/s) = 5.80700 7.18355 6.53164
#
# Compressibility (1/GPa) = 0.02888727
#
# Stress axis : x y z
#
# Youngs Moduli (GPa) = 103.59888 45.21513 55.49299
#
# Poissons Ratio (x) = 0.28751 0.13472
# Poissons Ratio (y) = 0.65876 0.09238
# Poissons Ratio (z) = 0.25151 0.07527
#
# Static dielectric constant tensor:
#      x y z
#    x 1.742620 -0.003650 0.014550 
#    y -0.003650 1.751950 -0.001550 
#    z 0.014550 -0.001550 1.762210 
# 
# From -- ./inp_files/154658.got.cif
#   From: 2010.05.17/outbox.cif.g08.bks.cpg/sg2_78_cif.got.tgz:154658.got - 2010.06.03 11:33:40.
