data_PCOD9036664
_publ_section_title
;
Structure prediction by ZEFSAII (Michael W. Deem and Ramdas Pophale) SiO2 
 PCOD9036664
Probable space group: P -1
;
_chemical_formula_sum "Si O2"
_cell_formula_units_Z 16
_cell_length_a 12.761105
_cell_length_b 9.123677
_cell_length_c 12.047197
_cell_angle_alpha 122.701825
_cell_angle_beta 47.608109
_cell_angle_gamma 132.340601
_cell_volume 756.102053
_symmetry_space_group_name_H-M "P -1"
_symmetry_group_IT_number 2
_symmetry_cell_setting 'triclinic'
loop_
_space_group_symop_operation_xyz
x,y,z
-x,-y,-z
loop_
_atom_site_type_symbol
_atom_site_label
_atom_site_fract_x
_atom_site_fract_y
_atom_site_fract_z
Si Si1 0.811527 0.441903 0.380138
Si Si2 0.658833 0.526006 0.123884
Si Si3 0.000975 0.319627 0.856512
Si Si4 0.889763 0.925099 0.171348
Si Si5 0.898122 0.612826 0.781288
Si Si6 0.618197 0.425760 0.721871
Si Si7 0.650127 0.137185 0.026543
Si Si8 0.320420 0.994919 0.805184
O O1 0.706325 0.472867 0.559997
O O2 0.860627 0.583419 0.295595
O O3 0.980914 0.475494 0.326752
O O4 0.719325 0.209867 0.311609
O O5 0.709284 0.726884 0.241578
O O6 0.495618 0.472145 0.151196
O O7 0.643235 0.341916 0.129359
O O8 0.807187 0.591185 0.955817
O O9 0.016616 0.175972 0.875524
O O10 0.825425 0.201487 0.874071
O O11 0.000000 0.500000 0.000000
O O12 0.832417 0.970398 0.108163
O O13 0.984375 0.153467 0.240136
O O14 0.754975 0.502978 0.750065
O O15 0.489838 0.189289 0.729891
O O16 0.657216 0.039013 0.096423
O O17 0.500000 0.000000 0.000000
#
# Coordination Sequence:
#
# PCOD9036664 Si02
#       8
#     2   2   2   2   2   2   2   2
#     4  11  22  44  66  94 129 175 217 260 319 389
#     4  11  22  41  61  96 128 168 219 257 324 381
#     4  12  22  42  70  94 127 168 223 263 315 384
#     4  10  23  38  66  98 118 170 220 267 310 370
#     4  11  22  40  65  94 131 169 221 267 311 377
#     4  11  25  40  63  97 137 169 208 269 329 376
#     4  12  25  40  66 100 130 165 213 273 324 373
#     4  10  23  42  65  93 131 169 218 259 318 391
#
# _framework density 21.161163999999999
#
# number of rings (size 3 to 8) (size 9 to 14) (size 15 to 20)
#    0.000    1.000    3.750    2.250    7.000    0.000 
#    0.000    8.750    0.000    0.000    0.000    0.000 
#    0.000    0.000    0.000    0.000    0.000    0.000 
#
# Total GULP energy -89132.009651 kJ/mol
# GULP energy per Si atom -5570.750603 kJ/mol
# Density = 2.111300 g / cm^3
# Si number density = 21.161164 Si / 1000 Ang^3
#
#
#
# Elastic Constant Matrix: (Units=GPa)
#
#
# Indices 1 2 3 4 5 6 
#
# 1 165.1957 72.4800 15.4129 -14.5763 2.6225 12.7122
# 2 72.4800 100.4827 31.2288 -27.6699 4.5319 -1.4788
# 3 15.4129 31.2288 62.9757 -25.8208 8.6451 -10.1137
# 4 -14.5763 -27.6699 -25.8208 21.4511 -4.3751 -0.0824
# 5 2.6225 4.5319 8.6451 -4.3751 19.6842 -4.8665
# 6 12.7122 -1.4788 -10.1137 -0.0824 -4.8665 43.4150
#
#
#
# Elastic Compliance Matrix: (Units=1/GPa)
#
#
# Indices 1 2 3 4 5 6 
#
# 1 0.009449 -0.007956 -0.000855 -0.005090 -0.001014 -0.003360
# 2 -0.007956 0.022211 0.001937 0.025958 0.001802 0.003788
# 3 -0.000855 0.001937 0.034396 0.042531 -0.004017 0.007959
# 4 -0.005090 0.025958 0.042531 0.129548 0.008140 0.013441
# 5 -0.001014 0.001802 -0.004017 0.008140 0.055495 0.005658
# 6 -0.003360 0.003788 0.007959 0.013441 0.005658 0.026660
#
#
# Mechanical properties :
#
#
# Convention : Reuss Voigt Hill
#
# Bulk Modulus (GPa) = 19.11714 62.98862 41.05288
# Shear Modulus (GPa) = 16.18421 30.87889 23.53155
#
# Velocity S-wave (km/s) = 2.76852 3.82412 3.33831
# Velocity P-wave (km/s) = 4.39013 7.02348 5.85673
#
# Compressibility (1/GPa) = 0.05230908
#
# Stress axis : x y z
#
# Youngs Moduli (GPa) = 105.82835 45.02307 29.07322
#
# Poissons Ratio (x) = 0.35818 0.02486
# Poissons Ratio (y) = 0.84192 -0.05631
# Poissons Ratio (z) = 0.09048 -0.08721
#
# Static dielectric constant tensor:
#      x y z
#    x 1.794480 0.016050 -0.021340 
#    y 0.016050 1.800320 -0.000760 
#    z -0.021340 -0.000760 1.835410 
# 
# From -- ./inp_files/419591.got.cif
#   From: 2010.05.17/outbox.cif.g08.bks.cpg/sg2_210_cif.got.tgz:419591.got - 2010.06.03 11:33:40.
