data_PCOD9036482
_publ_section_title
;
Structure prediction by ZEFSAII (Michael W. Deem and Ramdas Pophale) SiO2 
 PCOD9036482
Probable space group: P -1
;
_chemical_formula_sum "Si O2"
_cell_formula_units_Z 15
_cell_length_a 22.703470
_cell_length_b 8.398456
_cell_length_c 6.975936
_cell_angle_alpha 54.357303
_cell_angle_beta 136.900584
_cell_angle_gamma 124.811598
_cell_volume 712.811264
_symmetry_space_group_name_H-M "P -1"
_symmetry_group_IT_number 2
_symmetry_cell_setting 'triclinic'
loop_
_space_group_symop_operation_xyz
x,y,z
-x,-y,-z
loop_
_atom_site_type_symbol
_atom_site_label
_atom_site_fract_x
_atom_site_fract_y
_atom_site_fract_z
Si Si1 0.500000 0.000000 0.000000
Si Si2 0.953002 0.565189 0.159037
Si Si3 0.854921 0.811846 0.300811
Si Si4 0.565694 0.367546 0.179501
Si Si5 0.709622 0.761442 0.294732
Si Si6 0.629279 0.143848 0.839170
Si Si7 0.770140 0.571222 0.915382
Si Si8 0.950816 0.226551 0.091324
O O1 0.528360 0.225531 0.012987
O O2 0.436426 0.907142 0.101300
O O3 0.926898 0.400365 0.040845
O O4 0.000000 0.500000 0.500000
O O5 0.863079 0.604710 0.997503
O O6 0.028210 0.736250 0.108742
O O7 0.804287 0.823574 0.368776
O O8 0.952832 0.781595 0.590092
O O9 0.875043 0.024133 0.088846
O O10 0.795991 0.644472 0.139488
O O11 0.655902 0.544533 0.232243
O O12 0.583326 0.219412 0.493572
O O13 0.500000 0.500000 0.000000
O O14 0.717994 0.709201 0.575950
O O15 0.662370 0.941348 0.022528
O O16 0.713729 0.337723 0.942429
#
# Coordination Sequence:
#
# PCOD9036482 Si02
#       8
#     1   2   2   2   2   2   2   2
#     4  12  24  46  76 106 138 180 224 276 350 410
#     4  11  21  41  64  88 131 175 227 278 332 402
#     4  11  22  41  62  94 134 171 227 279 338 401
#     4  11  25  48  75 103 140 175 226 281 336 418
#     4  11  24  46  66  99 143 177 218 288 337 402
#     4  11  26  46  71 103 137 177 228 278 345 407
#     4  11  24  42  65  99 132 181 228 276 341 409
#     4  10  23  37  63  95 125 176 224 282 340 388
#
# _framework density 21.043437999999998
#
# number of rings (size 3 to 8) (size 9 to 14) (size 15 to 20)
#    0.000    1.067    4.000    2.000    0.000    4.267 
#    0.000    0.000    0.000    0.000    0.000    0.000 
#    0.000    0.000    0.000    0.000    0.000    0.000 
#
# Total GULP energy -83501.151441 kJ/mol
# GULP energy per Si atom -5566.743429 kJ/mol
# Density = 2.099554 g / cm^3
# Si number density = 21.043438 Si / 1000 Ang^3
#
#
#
# Elastic Constant Matrix: (Units=GPa)
#
#
# Indices 1 2 3 4 5 6 
#
# 1 85.3605 22.2429 19.1575 -8.7748 -18.0495 1.0022
# 2 22.2429 108.9875 37.0700 -8.4745 -10.0369 1.5010
# 3 19.1575 37.0700 71.9883 -14.4538 -2.4427 -6.5415
# 4 -8.7748 -8.4745 -14.4538 34.5446 1.1686 -7.2971
# 5 -18.0495 -10.0369 -2.4427 1.1686 26.6523 -9.0258
# 6 1.0022 1.5010 -6.5415 -7.2971 -9.0258 41.8971
#
#
#
# Elastic Compliance Matrix: (Units=1/GPa)
#
#
# Indices 1 2 3 4 5 6 
#
# 1 0.014892 -0.001151 -0.002338 0.002591 0.009974 0.001920
# 2 -0.001151 0.011596 -0.005637 -0.000042 0.002849 -0.000662
# 3 -0.002338 -0.005637 0.019181 0.006984 -0.000799 0.004297
# 4 0.002591 -0.000042 0.006984 0.034028 0.003498 0.007710
# 5 0.009974 0.002849 -0.000799 0.003498 0.048725 0.010641
# 6 0.001920 -0.000662 0.004297 0.007710 0.010641 0.028152
#
#
# Mechanical properties :
#
#
# Convention : Reuss Voigt Hill
#
# Bulk Modulus (GPa) = 36.47064 47.03078 41.75071
# Shear Modulus (GPa) = 27.17924 33.14320 30.16122
#
# Velocity S-wave (km/s) = 3.59775 3.97292 3.78998
# Velocity P-wave (km/s) = 5.88449 6.59116 6.24782
#
# Compressibility (1/GPa) = 0.02741931
#
# Stress axis : x y z
#
# Youngs Moduli (GPa) = 67.14850 86.23941 52.13379
#
# Poissons Ratio (x) = 0.09924 0.12186
# Poissons Ratio (y) = 0.07727 0.29387
# Poissons Ratio (z) = 0.15696 0.48612
#
# Static dielectric constant tensor:
#      x y z
#    x 1.727600 0.038080 0.023460 
#    y 0.038080 1.786310 -0.020720 
#    z 0.023460 -0.020720 1.797660 
# 
# From -- ./inp_files/116773.got.cif
#   From: 2010.05.17/outbox.cif.g08.bks.cpg/sg2_59_cif.got.tgz:116773.got - 2010.06.03 11:33:40.
