data_PCOD9036613
_publ_section_title
;
Structure prediction by ZEFSAII (Michael W. Deem and Ramdas Pophale) SiO2 
 PCOD9036613
Probable space group: P -1
;
_chemical_formula_sum "Si O2"
_cell_formula_units_Z 16
_cell_length_a 19.407413
_cell_length_b 12.184415
_cell_length_c 19.210310
_cell_angle_alpha 22.199903
_cell_angle_beta 21.736840
_cell_angle_gamma 32.163796
_cell_volume 632.683351
_symmetry_space_group_name_H-M "P -1"
_symmetry_group_IT_number 2
_symmetry_cell_setting 'triclinic'
loop_
_space_group_symop_operation_xyz
x,y,z
-x,-y,-z
loop_
_atom_site_type_symbol
_atom_site_label
_atom_site_fract_x
_atom_site_fract_y
_atom_site_fract_z
Si Si1 0.699292 0.078032 0.921267
Si Si2 0.272539 0.769059 0.042645
Si Si3 0.172230 0.231972 0.222313
Si Si4 0.888800 0.717456 0.594751
Si Si5 0.553545 0.005524 0.529320
Si Si6 0.886620 0.680538 0.189292
Si Si7 0.821200 0.679220 0.404701
Si Si8 0.493607 0.359647 0.743185
O O1 0.926003 0.058510 0.721065
O O2 0.689718 0.371307 0.711230
O O3 0.638886 0.160707 0.006189
O O4 0.591258 0.796289 0.154761
O O5 0.416430 0.795484 0.828110
O O6 0.146521 0.047482 0.988915
O O7 0.199714 0.422378 0.310487
O O8 0.210155 0.213165 0.280905
O O9 0.076683 0.526113 0.114867
O O10 0.360881 0.196350 0.023734
O O11 0.000000 0.000000 0.500000
O O12 0.981083 0.423557 0.702703
O O13 0.553018 0.311288 0.388855
O O14 0.500000 0.000000 0.500000
O O15 0.752503 0.884886 0.406111
O O16 0.832617 0.796584 0.248005
O O17 0.718081 0.420294 0.488249
#
# Coordination Sequence:
#
# PCOD9036613 Si02
#       8
#     2   2   2   2   2   2   2   2
#     4  10  23  41  60  88 126 167 200 250 322 362
#     4  11  22  39  65  84 124 166 204 250 312 373
#     4  11  21  38  63  97 118 162 209 249 318 361
#     4   9  21  38  61  87 123 155 208 254 302 367
#     4  11  21  38  61  96 117 158 210 255 308 364
#     4  10  23  38  63  96 120 161 208 252 314 363
#     4   9  20  39  57  92 121 150 207 252 310 355
#     4  11  22  40  65  89 136 154 203 270 300 367
#
# _framework density 25.289111999999999
#
# number of rings (size 3 to 8) (size 9 to 14) (size 15 to 20)
#    0.750    1.000    3.750    1.125    1.750    5.500 
#    0.000    0.625    5.500    0.000    0.000    0.000 
#    0.000    0.000    0.000    0.000    0.000    0.000 
#
# Total GULP energy -89162.249285 kJ/mol
# GULP energy per Si atom -5572.640580 kJ/mol
# Density = 2.523155 g / cm^3
# Si number density = 25.289112 Si / 1000 Ang^3
#
#
#
# Elastic Constant Matrix: (Units=GPa)
#
#
# Indices 1 2 3 4 5 6 
#
# 1 94.2059 37.3968 27.3901 0.4766 0.1268 32.2122
# 2 37.3968 114.6061 19.9209 4.6591 -21.0365 18.0439
# 3 27.3901 19.9209 91.7699 -9.1624 -23.8515 11.1871
# 4 0.4766 4.6591 -9.1624 54.1791 11.3171 -8.0228
# 5 0.1268 -21.0365 -23.8515 11.3171 32.5290 -10.3219
# 6 32.2122 18.0439 11.1871 -8.0228 -10.3219 45.1263
#
#
#
# Elastic Compliance Matrix: (Units=1/GPa)
#
#
# Indices 1 2 3 4 5 6 
#
# 1 0.018747 -0.005268 -0.006009 -0.000112 -0.011816 -0.012509
# 2 -0.005268 0.012091 0.001166 -0.002784 0.009784 0.000379
# 3 -0.006009 0.001166 0.015472 0.000305 0.012971 0.003009
# 4 -0.000112 -0.002784 0.000305 0.020840 -0.007867 0.003023
# 5 -0.011816 0.009784 0.012971 -0.007867 0.053194 0.012075
# 6 -0.012509 0.000379 0.003009 0.003023 0.012075 0.033491
#
#
# Mechanical properties :
#
#
# Convention : Reuss Voigt Hill
#
# Bulk Modulus (GPa) = 38.33072 52.22196 45.27634
# Shear Modulus (GPa) = 27.35936 40.75848 34.05892
#
# Velocity S-wave (km/s) = 3.29274 4.01895 3.67383
# Velocity P-wave (km/s) = 5.44482 6.49852 5.99487
#
# Compressibility (1/GPa) = 0.02608873
#
# Stress axis : x y z
#
# Youngs Moduli (GPa) = 53.34232 82.70636 64.63257
#
# Poissons Ratio (x) = 0.43567 0.38839
# Poissons Ratio (y) = 0.28099 -0.07538
# Poissons Ratio (z) = 0.32054 -0.09645
#
# Static dielectric constant tensor:
#      x y z
#    x 2.214380 -0.030560 -0.147890 
#    y -0.030560 2.024760 -0.028250 
#    z -0.147890 -0.028250 2.166510 
# 
# From -- ./inp_files/602018.got.cif
#   From: 2010.05.17/outbox.cif.g08.bks.cpg/sg2_302_cif.got.tgz:602018.got - 2010.06.03 11:33:40.
