data_PCOD9036272
_publ_section_title
;
Structure prediction by ZEFSAII (Michael W. Deem and Ramdas Pophale) SiO2 
 PCOD9036272
Probable space group: P -1
;
_chemical_formula_sum "Si O2"
_cell_formula_units_Z 12
_cell_length_a 13.819339
_cell_length_b 6.793667
_cell_length_c 10.380988
_cell_angle_alpha 133.458245
_cell_angle_beta 45.117392
_cell_angle_gamma 107.383246
_cell_volume 467.106226
_symmetry_space_group_name_H-M "P -1"
_symmetry_group_IT_number 2
_symmetry_cell_setting 'triclinic'
loop_
_space_group_symop_operation_xyz
x,y,z
-x,-y,-z
loop_
_atom_site_type_symbol
_atom_site_label
_atom_site_fract_x
_atom_site_fract_y
_atom_site_fract_z
Si Si1 0.202021 0.993208 0.044523
Si Si2 0.358125 0.769865 0.299279
Si Si3 0.967368 0.706188 0.881460
Si Si4 0.853267 0.935085 0.584152
Si Si5 0.437009 0.758056 0.495988
Si Si6 0.268426 0.393371 0.757618
O O1 0.222559 0.054616 0.201184
O O2 0.083578 0.266201 0.207465
O O3 0.336208 0.886315 0.769955
O O4 0.000000 0.000000 0.000000
O O5 0.353572 0.693885 0.421880
O O6 0.235305 0.824897 0.329969
O O7 0.347246 0.110941 0.467067
O O8 0.500000 0.500000 0.000000
O O9 0.094615 0.402046 0.656851
O O10 0.157810 0.706027 0.956018
O O11 0.828412 0.707981 0.097274
O O12 0.000000 0.000000 0.500000
O O13 0.595100 0.523831 0.279193
O O14 0.500000 0.000000 0.500000
#
# Coordination Sequence:
#
# PCOD9036272 Si02
#       6
#     2   2   2   2   2   2
#     4  12  24  47  81 113 156 209 260 325 402 467
#     4  11  25  47  75 112 156 205 262 329 385 467
#     4  12  27  49  79 114 160 209 266 324 398 475
#     4  12  28  49  79 122 162 205 266 330 393 480
#     4  10  22  48  76 109 152 205 261 322 392 465
#     4  11  24  48  80 114 155 208 266 327 396 474
#
# _framework density 25.690087999999999
#
# number of rings (size 3 to 8) (size 9 to 14) (size 15 to 20)
#    0.000    0.667    5.000    3.000    2.333    1.333 
#    6.000    4.167    0.000    0.000    0.000    0.000 
#    0.000    0.000    0.000    0.000    0.000    0.000 
#
# Total GULP energy -66894.489988 kJ/mol
# GULP energy per Si atom -5574.540832 kJ/mol
# Density = 2.563162 g / cm^3
# Si number density = 25.690088 Si / 1000 Ang^3
#
#
#
# Elastic Constant Matrix: (Units=GPa)
#
#
# Indices 1 2 3 4 5 6 
#
# 1 149.2716 27.3880 53.8973 -7.3670 -10.8190 -30.7929
# 2 27.3880 123.0522 42.6149 2.4809 -13.3029 -10.9469
# 3 53.8973 42.6149 172.4181 3.9783 4.8756 -8.8209
# 4 -7.3670 2.4809 3.9783 62.5069 -10.2810 -2.6188
# 5 -10.8190 -13.3029 4.8756 -10.2810 29.7780 16.2086
# 6 -30.7929 -10.9469 -8.8209 -2.6188 16.2086 31.7796
#
#
#
# Elastic Compliance Matrix: (Units=1/GPa)
#
#
# Indices 1 2 3 4 5 6 
#
# 1 0.009524 -0.000612 -0.002390 0.001555 -0.000695 0.008836
# 2 -0.000612 0.009546 -0.002332 0.000468 0.004776 -0.000350
# 3 -0.002390 -0.002332 0.007310 -0.001278 -0.004011 0.000851
# 4 0.001555 0.000468 -0.001278 0.017451 0.007629 -0.001140
# 5 -0.000695 0.004776 -0.004011 0.007629 0.053280 -0.026688
# 6 0.008836 -0.000350 0.000851 -0.001140 -0.026688 0.053662
#
#
# Mechanical properties :
#
#
# Convention : Reuss Voigt Hill
#
# Bulk Modulus (GPa) = 63.64778 76.94914 70.29846
# Shear Modulus (GPa) = 29.99795 46.20233 38.10014
#
# Velocity S-wave (km/s) = 3.42085 4.24541 3.85524
# Velocity P-wave (km/s) = 6.35861 7.35182 6.87318
#
# Compressibility (1/GPa) = 0.01571147
#
# Stress axis : x y z
#
# Youngs Moduli (GPa) = 105.00193 104.75342 136.80539
#
# Poissons Ratio (x) = 0.06416 0.32694
# Poissons Ratio (y) = 0.06431 0.31899
# Poissons Ratio (z) = 0.25094 0.24426
#
# Static dielectric constant tensor:
#      x y z
#    x 2.411480 -0.120650 -0.020880 
#    y -0.120650 2.071570 0.009050 
#    z -0.020880 0.009050 2.066430 
# 
# From -- ./inp_files/245731.got.cif
#   From: 2010.05.17/outbox.cif.g08.bks.cpg/sg2_123_cif.got.tgz:245731.got - 2010.06.03 11:33:40.
