data_PCOD9036811
_publ_section_title
;
Structure prediction by ZEFSAII (Michael W. Deem and Ramdas Pophale) SiO2 
 PCOD9036811
Probable space group: P -1
;
_chemical_formula_sum "Si O2"
_cell_formula_units_Z 14
_cell_length_a 9.080232
_cell_length_b 28.807947
_cell_length_c 5.148526
_cell_angle_alpha 58.229419
_cell_angle_beta 69.498291
_cell_angle_gamma 29.274092
_cell_volume 540.274060
_symmetry_space_group_name_H-M "P -1"
_symmetry_group_IT_number 2
_symmetry_cell_setting 'triclinic'
loop_
_space_group_symop_operation_xyz
x,y,z
-x,-y,-z
loop_
_atom_site_type_symbol
_atom_site_label
_atom_site_fract_x
_atom_site_fract_y
_atom_site_fract_z
Si Si1 0.165993 0.569361 0.479232
Si Si2 0.183652 0.110139 0.509205
Si Si3 0.884741 0.768037 0.100627
Si Si4 0.797818 0.150312 0.250269
Si Si5 0.746262 0.057056 0.773046
Si Si6 0.730561 0.270613 0.681173
Si Si7 0.158414 0.497466 0.207041
O O1 0.500000 0.500000 0.500000
O O2 0.174543 0.542058 0.267195
O O3 0.924348 0.692147 0.274825
O O4 0.091460 0.545950 0.821254
O O5 0.939133 0.143622 0.417278
O O6 0.067729 0.142281 0.779404
O O7 0.500000 0.000000 0.500000
O O8 0.130365 0.191009 0.267679
O O9 0.552344 0.881077 0.102478
O O10 0.171374 0.710137 0.246875
O O11 0.615919 0.151606 0.449476
O O12 0.076588 0.035096 0.265058
O O13 0.583132 0.259462 0.921340
O O14 0.000000 0.000000 0.000000
O O15 0.493197 0.367053 0.340093
O O16 0.000000 0.500000 0.500000
#
# Coordination Sequence:
#
# PCOD9036811 Si02
#       7
#     2   2   2   2   2   2   2
#     4  12  26  51  76 113 150 197 255 321 371 453
#     4  11  22  41  67  99 138 179 235 291 363 437
#     4  11  25  40  72  98 135 185 239 292 369 431
#     4  10  23  39  62  94 137 173 229 284 353 430
#     4  11  23  42  63  99 137 183 229 291 354 438
#     4  11  24  43  69  98 138 186 236 297 372 437
#     4  12  29  49  78 109 155 196 256 317 384 445
#
# _framework density 25.912775
#
# number of rings (size 3 to 8) (size 9 to 14) (size 15 to 20)
#    0.000    0.857    1.429    5.143    6.000    5.714 
#    0.000    0.000    0.000    0.000    0.000    0.000 
#    0.000    0.000    0.000    0.000    0.000    0.000 
#
# Total GULP energy -78049.807847 kJ/mol
# GULP energy per Si atom -5574.986275 kJ/mol
# Density = 2.585380 g / cm^3
# Si number density = 25.912775 Si / 1000 Ang^3
#
#
#
# Elastic Constant Matrix: (Units=GPa)
#
#
# Indices 1 2 3 4 5 6 
#
# 1 73.3577 10.3382 32.0666 -3.9482 -15.6722 24.0573
# 2 10.3382 95.9384 6.0111 7.1137 -8.8404 10.1996
# 3 32.0666 6.0111 117.2672 -16.3469 -36.2784 14.3852
# 4 -3.9482 7.1137 -16.3469 36.9541 9.5795 -9.0210
# 5 -15.6722 -8.8404 -36.2784 9.5795 45.5245 3.4565
# 6 24.0573 10.1996 14.3852 -9.0210 3.4565 40.6986
#
#
#
# Elastic Compliance Matrix: (Units=1/GPa)
#
#
# Indices 1 2 3 4 5 6 
#
# 1 0.019950 0.000217 -0.002380 -0.003740 0.006742 -0.012407
# 2 0.000217 0.011500 0.000547 -0.004051 0.003933 -0.004436
# 3 -0.002380 0.000547 0.012743 0.001993 0.009294 -0.003582
# 4 -0.003740 -0.004051 0.001993 0.033031 -0.008236 0.010542
# 5 0.006742 0.003933 0.009294 -0.008236 0.035183 -0.013070
# 6 -0.012407 -0.004436 -0.003582 0.010542 -0.013070 0.037729
#
#
# Mechanical properties :
#
#
# Convention : Reuss Voigt Hill
#
# Bulk Modulus (GPa) = 24.41287 42.59944 33.50615
# Shear Modulus (GPa) = 29.93634 40.51193 35.22414
#
# Velocity S-wave (km/s) = 3.40262 3.95827 3.69092
# Velocity P-wave (km/s) = 4.98786 6.11276 5.57873
#
# Compressibility (1/GPa) = 0.04096200
#
# Stress axis : x y z
#
# Youngs Moduli (GPa) = 50.12639 86.95598 78.47533
#
# Poissons Ratio (x) = -0.01887 0.18675
# Poissons Ratio (y) = -0.01088 -0.04296
# Poissons Ratio (z) = 0.11929 -0.04761
#
# Static dielectric constant tensor:
#      x y z
#    x 1.990680 -0.067530 -0.014180 
#    y -0.067530 2.122480 0.040560 
#    z -0.014180 0.040560 2.142410 
# 
# From -- ./inp_files/46370.got.cif
#   From: 2010.05.17/outbox.cif.g08.bks.cpg/sg2_24_cif.got.tgz:46370.got - 2010.06.03 11:33:40.
