data_PCOD9036850
_publ_section_title
;
Structure prediction by ZEFSAII (Michael W. Deem and Ramdas Pophale) SiO2 
 PCOD9036850
Probable space group: P -1
;
_chemical_formula_sum "Si O2"
_cell_formula_units_Z 16
_cell_length_a 11.490393
_cell_length_b 17.199142
_cell_length_c 8.174014
_cell_angle_alpha 77.052124
_cell_angle_beta 128.721001
_cell_angle_gamma 62.835489
_cell_volume 761.284766
_symmetry_space_group_name_H-M "P -1"
_symmetry_group_IT_number 2
_symmetry_cell_setting 'triclinic'
loop_
_space_group_symop_operation_xyz
x,y,z
-x,-y,-z
loop_
_atom_site_type_symbol
_atom_site_label
_atom_site_fract_x
_atom_site_fract_y
_atom_site_fract_z
Si Si1 0.336033 0.837336 0.721356
Si Si2 0.667524 0.932870 0.883719
Si Si3 0.872113 0.937423 0.361685
Si Si4 0.723947 0.708635 0.574595
Si Si5 0.980784 0.671055 0.119818
Si Si6 0.216878 0.434441 0.602099
Si Si7 0.110731 0.193943 0.310448
Si Si8 0.261545 0.928763 0.259598
O O1 0.374211 0.855398 0.565811
O O2 0.080531 0.898965 0.473730
O O3 0.307504 0.923984 0.778745
O O4 0.541419 0.691632 0.031619
O O5 0.379771 0.054147 0.559468
O O6 0.758842 0.968244 0.835523
O O7 0.741427 0.930870 0.129994
O O8 0.792666 0.798230 0.006863
O O9 0.989668 0.834562 0.656480
O O10 0.781565 0.616478 0.541165
O O11 0.820060 0.752100 0.563124
O O12 0.442276 0.826909 0.320594
O O13 0.853543 0.660501 0.889773
O O14 0.173714 0.543853 0.457261
O O15 0.051321 0.709125 0.029874
O O16 0.000000 0.500000 0.500000
O O17 0.000000 0.000000 0.000000
#
# Coordination Sequence:
#
# PCOD9036850 Si02
#       8
#     2   2   2   2   2   2   2   2
#     4  11  25  40  63  99 128 176 205 267 324 380
#     4  11  21  38  64 100 124 165 218 267 324 372
#     4  11  23  40  65  97 135 157 217 270 332 369
#     4   9  23  42  63  98 120 170 215 262 316 374
#     4  10  23  39  64  89 127 170 213 259 313 378
#     4  12  26  43  65  93 132 171 218 259 315 388
#     4   9  21  37  67  91 128 164 205 281 312 374
#     4  11  21  41  68  96 130 165 209 270 326 379
#
# _framework density 21.017102000000001
#
# number of rings (size 3 to 8) (size 9 to 14) (size 15 to 20)
#    0.750    0.750    1.250    4.125    7.000    0.000 
#    0.000    1.250    0.000    0.000    0.000    0.000 
#    0.000    0.000    0.000    0.000    0.000    0.000 
#
# Total GULP energy -89242.679946 kJ/mol
# GULP energy per Si atom -5577.667497 kJ/mol
# Density = 2.096927 g / cm^3
# Si number density = 21.017102 Si / 1000 Ang^3
#
#
#
# Elastic Constant Matrix: (Units=GPa)
#
#
# Indices 1 2 3 4 5 6 
#
# 1 97.7546 18.1651 22.3949 -8.0449 -22.1580 -7.8317
# 2 18.1651 111.8543 34.3875 -9.0425 -7.1368 -6.9935
# 3 22.3949 34.3875 92.6026 -11.1779 -35.8546 -1.2629
# 4 -8.0449 -9.0425 -11.1779 30.3297 5.8095 -6.4013
# 5 -22.1580 -7.1368 -35.8546 5.8095 44.4998 -3.4012
# 6 -7.8317 -6.9935 -1.2629 -6.4013 -3.4012 19.8960
#
#
#
# Elastic Compliance Matrix: (Units=1/GPa)
#
#
# Indices 1 2 3 4 5 6 
#
# 1 0.012638 -0.001045 0.000340 0.003364 0.006482 0.006819
# 2 -0.001045 0.010694 -0.004255 0.002520 -0.002296 0.003496
# 3 0.000340 -0.004255 0.018153 0.003547 0.013903 0.003308
# 4 0.003364 0.002520 0.003547 0.038921 0.001012 0.015131
# 5 0.006482 -0.002296 0.013903 0.001012 0.037112 0.009297
# 6 0.006819 0.003496 0.003308 0.015131 0.009297 0.060842
#
#
# Mechanical properties :
#
#
# Convention : Reuss Voigt Hill
#
# Bulk Modulus (GPa) = 31.68062 50.23408 40.95735
# Shear Modulus (GPa) = 25.15050 34.09603 29.62326
#
# Velocity S-wave (km/s) = 3.46304 4.03215 3.75838
# Velocity P-wave (km/s) = 5.57644 6.75507 6.19386
#
# Compressibility (1/GPa) = 0.03156504
#
# Stress axis : x y z
#
# Youngs Moduli (GPa) = 79.12435 93.51010 55.08668
#
# Poissons Ratio (x) = 0.09774 -0.01875
# Poissons Ratio (y) = 0.08270 0.23442
# Poissons Ratio (z) = -0.02693 0.39793
#
# Static dielectric constant tensor:
#      x y z
#    x 1.764000 -0.015060 -0.040310 
#    y -0.015060 1.782290 0.030060 
#    z -0.040310 0.030060 1.784630 
# 
# From -- ./inp_files/279422.got.cif
#   From: 2010.05.17/outbox.cif.g08.bks.cpg/sg2_140_cif.got.tgz:279422.got - 2010.06.03 11:33:40.
