data_PCOD9036261
_publ_section_title
;
Structure prediction by ZEFSAII (Michael W. Deem and Ramdas Pophale) SiO2 
 PCOD9036261
Probable space group: P -1
;
_chemical_formula_sum "Si O2"
_cell_formula_units_Z 15
_cell_length_a 12.061955
_cell_length_b 12.332632
_cell_length_c 9.171263
_cell_angle_alpha 38.076173
_cell_angle_beta 106.414958
_cell_angle_gamma 85.425123
_cell_volume 693.802567
_symmetry_space_group_name_H-M "P -1"
_symmetry_group_IT_number 2
_symmetry_cell_setting 'triclinic'
loop_
_space_group_symop_operation_xyz
x,y,z
-x,-y,-z
loop_
_atom_site_type_symbol
_atom_site_label
_atom_site_fract_x
_atom_site_fract_y
_atom_site_fract_z
Si Si1 0.343556 0.642242 0.321102
Si Si2 0.851089 0.933265 0.153719
Si Si3 0.253137 0.626283 0.997370
Si Si4 0.903312 0.567567 0.752435
Si Si5 0.500000 0.500000 0.000000
Si Si6 0.874321 0.753375 0.041585
Si Si7 0.291164 0.468934 0.756076
Si Si8 0.105700 0.887138 0.414540
O O1 0.500000 0.500000 0.500000
O O2 0.300320 0.512222 0.543446
O O3 0.277546 0.707291 0.069674
O O4 0.289995 0.860635 0.148664
O O5 0.853289 0.791395 0.434823
O O6 0.958364 0.998356 0.172700
O O7 0.898515 0.794080 0.173915
O O8 0.380265 0.543886 0.026360
O O9 0.125610 0.798043 0.678083
O O10 0.219860 0.455963 0.216852
O O11 0.000000 0.500000 0.000000
O O12 0.994168 0.410995 0.823604
O O13 0.429232 0.417514 0.940454
O O14 0.829540 0.970808 0.719555
O O15 0.765426 0.681607 0.077078
O O16 0.184363 0.687372 0.554904
#
# Coordination Sequence:
#
# PCOD9036261 Si02
#       8
#     2   2   2   2   1   2   2   2
#     4  12  26  47  73 100 147 199 254 297 360 432
#     4  12  25  45  72 114 152 192 242 303 379 443
#     4  11  24  44  72 101 147 196 241 311 360 434
#     4  12  24  43  71 114 152 177 245 308 373 439
#     4  10  22  48  74  92 142 204 244 290 366 426
#     4  12  25  42  76 112 153 190 235 307 378 452
#     4  11  23  48  72 106 145 193 247 303 366 441
#     4  11  24  44  73 111 146 194 240 296 384 442
#
# _framework density 21.619983000000001
#
# number of rings (size 3 to 8) (size 9 to 14) (size 15 to 20)
#    0.000    0.533    5.333    3.200    3.733    1.067 
#    0.000    8.000    0.000    0.000    0.000    0.000 
#    0.000    0.000    0.000    0.000    0.000    0.000 
#
# Total GULP energy -83543.232843 kJ/mol
# GULP energy per Si atom -5569.548856 kJ/mol
# Density = 2.157078 g / cm^3
# Si number density = 21.619983 Si / 1000 Ang^3
#
#
#
# Elastic Constant Matrix: (Units=GPa)
#
#
# Indices 1 2 3 4 5 6 
#
# 1 146.5712 54.1211 41.4531 -7.4889 -11.1679 -0.1412
# 2 54.1211 97.3879 32.4809 6.0257 -0.2057 -11.3949
# 3 41.4531 32.4809 81.8191 -0.9761 -26.7424 9.6904
# 4 -7.4889 6.0257 -0.9761 34.1532 1.8887 -6.4826
# 5 -11.1679 -0.2057 -26.7424 1.8887 39.8236 -0.5787
# 6 -0.1412 -11.3949 9.6904 -6.4826 -0.5787 27.9776
#
#
#
# Elastic Compliance Matrix: (Units=1/GPa)
#
#
# Indices 1 2 3 4 5 6 
#
# 1 0.009457 -0.004546 -0.002706 0.002719 0.000679 -0.000223
# 2 -0.004546 0.016242 -0.007024 -0.002153 -0.005683 0.008409
# 3 -0.002706 -0.007024 0.022210 -0.001513 0.014037 -0.010627
# 4 0.002719 -0.002153 -0.001513 0.031624 -0.001663 0.006954
# 5 0.000679 -0.005683 0.014037 -0.001663 0.034677 -0.006841
# 6 -0.000223 0.008409 -0.010627 0.006954 -0.006841 0.044317
#
#
# Mechanical properties :
#
#
# Convention : Reuss Voigt Hill
#
# Bulk Modulus (GPa) = 51.65904 64.65425 58.15664
# Shear Modulus (GPa) = 25.83564 33.57242 29.70403
#
# Velocity S-wave (km/s) = 3.46061 3.94489 3.71066
# Velocity P-wave (km/s) = 6.31773 7.12175 6.73175
#
# Compressibility (1/GPa) = 0.01935770
#
# Stress axis : x y z
#
# Youngs Moduli (GPa) = 105.74348 61.56829 45.02527
#
# Poissons Ratio (x) = 0.27988 0.12183
# Poissons Ratio (y) = 0.48069 0.31625
# Poissons Ratio (z) = 0.28612 0.43245
#
# Static dielectric constant tensor:
#      x y z
#    x 1.845720 -0.002300 0.036830 
#    y -0.002300 1.836730 0.005670 
#    z 0.036830 0.005670 1.824230 
# 
# From -- ./inp_files/255997.got.cif
#   From: 2010.05.17/outbox.cif.g08.bks.cpg/sg2_128_cif.got.tgz:255997.got - 2010.06.03 11:33:40.
