data_PCOD9036465
_publ_section_title
;
Structure prediction by ZEFSAII (Michael W. Deem and Ramdas Pophale) SiO2 
 PCOD9036465
Probable space group: P -1
;
_chemical_formula_sum "Si O2"
_cell_formula_units_Z 16
_cell_length_a 12.281139
_cell_length_b 9.352146
_cell_length_c 15.712300
_cell_angle_alpha 82.589295
_cell_angle_beta 25.018801
_cell_angle_gamma 75.495720
_cell_volume 717.419930
_symmetry_space_group_name_H-M "P -1"
_symmetry_group_IT_number 2
_symmetry_cell_setting 'triclinic'
loop_
_space_group_symop_operation_xyz
x,y,z
-x,-y,-z
loop_
_atom_site_type_symbol
_atom_site_label
_atom_site_fract_x
_atom_site_fract_y
_atom_site_fract_z
Si Si1 0.885348 0.961260 0.769881
Si Si2 0.103130 0.202935 0.402894
Si Si3 0.221136 0.478460 0.666711
Si Si4 0.317072 0.719612 0.171478
Si Si5 0.085355 0.218432 0.069962
Si Si6 0.522202 0.155148 0.434314
Si Si7 0.099184 0.473392 0.274687
Si Si8 0.567654 0.979644 0.659736
O O1 0.828994 0.861858 0.892839
O O2 0.863236 0.889370 0.700538
O O3 0.190425 0.969024 0.556214
O O4 0.697574 0.135879 0.887088
O O5 0.105792 0.368392 0.359527
O O6 0.316551 0.112966 0.329089
O O7 0.810427 0.222385 0.651398
O O8 0.500000 0.500000 0.500000
O O9 0.991657 0.599609 0.876427
O O10 0.284860 0.297047 0.632138
O O11 0.138553 0.523273 0.623144
O O12 0.116631 0.635041 0.279895
O O13 0.616470 0.603684 0.969714
O O14 0.807425 0.183153 0.247344
O O15 0.316873 0.128740 0.847736
O O16 0.500833 0.132967 0.350134
O O17 0.500000 0.000000 0.500000
#
# Coordination Sequence:
#
# PCOD9036465 Si02
#       8
#     2   2   2   2   2   2   2   2
#     4  11  22  39  63  95 130 166 205 258 320 376
#     4  11  23  38  65  95 131 162 206 257 323 376
#     4  10  23  41  66  93 127 174 210 267 322 369
#     4  10  23  37  60  96 127 169 208 251 322 381
#     4  11  23  41  69  92 128 169 215 261 321 372
#     4  11  23  45  69  89 127 172 217 266 319 369
#     4  11  22  40  63  89 134 164 208 264 316 382
#     4  11  23  40  69  96 127 167 219 258 311 392
#
# _framework density 22.302140999999999
#
# number of rings (size 3 to 8) (size 9 to 14) (size 15 to 20)
#    0.000    1.250    2.500    4.500    3.500    1.000 
#    0.000    0.625    8.250    0.000    0.000    0.000 
#    0.000    0.000    0.000    0.000    0.000    0.000 
#
# Total GULP energy -89439.571575 kJ/mol
# GULP energy per Si atom -5589.973223 kJ/mol
# Density = 2.225138 g / cm^3
# Si number density = 22.302141 Si / 1000 Ang^3
#
#
#
# Elastic Constant Matrix: (Units=GPa)
#
#
# Indices 1 2 3 4 5 6 
#
# 1 105.2733 17.0595 16.8279 8.8101 2.7722 13.6156
# 2 17.0595 121.3035 28.0235 36.8157 6.3503 10.3879
# 3 16.8279 28.0235 82.4956 22.4317 -4.5381 -0.0571
# 4 8.8101 36.8157 22.4317 38.1259 -0.5977 2.9651
# 5 2.7722 6.3503 -4.5381 -0.5977 18.8720 6.1226
# 6 13.6156 10.3879 -0.0571 2.9651 6.1226 27.5231
#
#
#
# Elastic Compliance Matrix: (Units=1/GPa)
#
#
# Indices 1 2 3 4 5 6 
#
# 1 0.010563 -0.000459 -0.001877 -0.000513 -0.000261 -0.004942
# 2 -0.000459 0.012338 -0.001358 -0.010887 -0.003986 -0.002373
# 3 -0.001877 -0.001358 0.015130 -0.007210 0.003678 0.001431
# 4 -0.000513 -0.010887 -0.007210 0.041228 0.003601 -0.000895
# 5 -0.000261 -0.003986 0.003678 0.003601 0.059235 -0.011924
# 6 -0.004942 -0.002373 0.001431 -0.000895 -0.011924 0.042426
#
#
# Mechanical properties :
#
#
# Convention : Reuss Voigt Hill
#
# Bulk Modulus (GPa) = 32.63512 48.09936 40.36724
# Shear Modulus (GPa) = 25.18599 33.38162 29.28381
#
# Velocity S-wave (km/s) = 3.36416 3.87303 3.62753
# Velocity P-wave (km/s) = 5.45482 6.45093 5.97367
#
# Compressibility (1/GPa) = 0.03064184
#
# Stress axis : x y z
#
# Youngs Moduli (GPa) = 94.67399 81.04907 66.09382
#
# Poissons Ratio (x) = 0.03723 0.12406
# Poissons Ratio (y) = 0.04349 0.08977
# Poissons Ratio (z) = 0.17770 0.11008
#
# Static dielectric constant tensor:
#      x y z
#    x 1.848660 0.006510 -0.019890 
#    y 0.006510 1.850330 0.026160 
#    z -0.019890 0.026160 1.834290 
# 
# From -- ./inp_files/515606.got.cif
#   From: 2010.05.17/outbox.cif.g08.bks.cpg/sg2_258_cif.got.tgz:515606.got - 2010.06.03 11:33:40.
