data_PCOD9036243
_publ_section_title
;
Structure prediction by ZEFSAII (Michael W. Deem and Ramdas Pophale) SiO2 
 PCOD9036243
Probable space group: P -1
;
_chemical_formula_sum "Si O2"
_cell_formula_units_Z 16
_cell_length_a 5.383934
_cell_length_b 8.644139
_cell_length_c 14.202287
_cell_angle_alpha 81.565468
_cell_angle_beta 87.530096
_cell_angle_gamma 86.871965
_cell_volume 652.431751
_symmetry_space_group_name_H-M "P -1"
_symmetry_group_IT_number 2
_symmetry_cell_setting 'triclinic'
loop_
_space_group_symop_operation_xyz
x,y,z
-x,-y,-z
loop_
_atom_site_type_symbol
_atom_site_label
_atom_site_fract_x
_atom_site_fract_y
_atom_site_fract_z
Si Si1 0.794946 0.702691 0.307283
Si Si2 0.790661 0.034860 0.578600
Si Si3 0.744571 0.549559 0.049179
Si Si4 0.310694 0.504201 0.322539
Si Si5 0.404919 0.708308 0.799860
Si Si6 0.328085 0.122657 0.048952
Si Si7 0.032917 0.983548 0.776671
Si Si8 0.397800 0.250104 0.494087
O O1 0.538905 0.618961 0.300573
O O2 0.781150 0.757040 0.412189
O O3 0.043537 0.590712 0.303763
O O4 0.815338 0.860013 0.232720
O O5 0.621365 0.888931 0.569345
O O6 0.847154 0.022427 0.689191
O O7 0.663958 0.203565 0.539867
O O8 0.000000 0.000000 0.500000
O O9 0.735683 0.444061 0.150853
O O10 0.500000 0.500000 0.000000
O O11 0.744699 0.736098 0.033638
O O12 0.000000 0.500000 0.000000
O O13 0.370323 0.365553 0.258652
O O14 0.343899 0.413670 0.429184
O O15 0.511712 0.797655 0.879434
O O16 0.206242 0.835982 0.751176
O O17 0.101687 0.055571 0.119348
O O18 0.500000 0.000000 0.000000
#
# Coordination Sequence:
#
# PCOD9036243 Si02
#       8
#     2   2   2   2   2   2   2   2
#     4  12  29  46  72 111 155 201 254 319 371 446
#     4  11  23  42  77 111 151 202 256 314 373 454
#     4  10  22  48  73 108 142 190 240 300 375 450
#     4  12  29  48  76 110 153 207 255 310 382 450
#     4  11  27  48  78 108 150 197 253 313 379 468
#     4  11  27  49  81 111 150 196 252 319 387 458
#     4  12  26  47  76 110 155 197 256 313 386 451
#     4  11  25  46  72 108 155 206 259 311 374 443
#
# _framework density 24.523637999999998
#
# number of rings (size 3 to 8) (size 9 to 14) (size 15 to 20)
#    0.000    0.750    2.500    3.000   12.250    0.500 
#    2.250    0.000    0.000    0.000    0.000    0.000 
#    0.000    0.000    0.000    0.000    0.000    0.000 
#
# Total GULP energy -89520.007910 kJ/mol
# GULP energy per Si atom -5595.000494 kJ/mol
# Density = 2.446782 g / cm^3
# Si number density = 24.523638 Si / 1000 Ang^3
#
#
#
# Elastic Constant Matrix: (Units=GPa)
#
#
# Indices 1 2 3 4 5 6 
#
# 1 110.3344 42.3638 26.6491 -4.3713 -16.2928 -22.8340
# 2 42.3638 146.5072 61.3707 -12.8962 -17.6491 -31.9724
# 3 26.6491 61.3707 90.8481 -7.3289 -24.1760 -3.2475
# 4 -4.3713 -12.8962 -7.3289 65.9856 3.8050 -1.1643
# 5 -16.2928 -17.6491 -24.1760 3.8050 44.1262 7.4231
# 6 -22.8340 -31.9724 -3.2475 -1.1643 7.4231 58.5461
#
#
#
# Elastic Compliance Matrix: (Units=1/GPa)
#
#
# Indices 1 2 3 4 5 6 
#
# 1 0.010987 -0.001644 -0.001433 0.000181 0.002085 0.003047
# 2 -0.001644 0.011535 -0.007266 0.001492 -0.001014 0.005413
# 3 -0.001433 -0.007266 0.018101 0.000000 0.007229 -0.004440
# 4 0.000181 0.001492 0.000000 0.015533 -0.000896 0.001308
# 5 0.002085 -0.001014 0.007229 -0.000896 0.027544 -0.002849
# 6 0.003047 0.005413 -0.004440 0.001308 -0.002849 0.021366
#
#
# Mechanical properties :
#
#
# Convention : Reuss Voigt Hill
#
# Bulk Modulus (GPa) = 50.16173 67.60631 58.88402
# Shear Modulus (GPa) = 37.76452 48.21864 42.99158
#
# Velocity S-wave (km/s) = 3.92844 4.43901 4.19151
# Velocity P-wave (km/s) = 6.40904 7.34171 6.89117
#
# Compressibility (1/GPa) = 0.01993552
#
# Stress axis : x y z
#
# Youngs Moduli (GPa) = 91.02015 86.68977 55.24471
#
# Poissons Ratio (x) = 0.14255 0.07919
# Poissons Ratio (y) = 0.14967 0.40141
# Poissons Ratio (z) = 0.13048 0.62989
#
# Static dielectric constant tensor:
#      x y z
#    x 2.016960 0.035790 0.077830 
#    y 0.035790 2.001910 -0.030600 
#    z 0.077830 -0.030600 2.043670 
# 
# From -- ./inp_files/480279.got.cif
#   From: 2010.05.17/outbox.cif.g08.bks.cpg/sg2_241_cif.got.tgz:480279.got - 2010.06.03 11:33:40.
