data_PCOD9036266
_publ_section_title
;
Structure prediction by ZEFSAII (Michael W. Deem and Ramdas Pophale) SiO2 
 PCOD9036266
Probable space group: P -1
;
_chemical_formula_sum "Si O2"
_cell_formula_units_Z 14
_cell_length_a 12.896482
_cell_length_b 15.955721
_cell_length_c 10.253149
_cell_angle_alpha 35.919323
_cell_angle_beta 128.826981
_cell_angle_gamma 153.902899
_cell_volume 501.648216
_symmetry_space_group_name_H-M "P -1"
_symmetry_group_IT_number 2
_symmetry_cell_setting 'triclinic'
loop_
_space_group_symop_operation_xyz
x,y,z
-x,-y,-z
loop_
_atom_site_type_symbol
_atom_site_label
_atom_site_fract_x
_atom_site_fract_y
_atom_site_fract_z
Si Si1 0.615185 0.526910 0.254455
Si Si2 0.897190 0.955658 0.707278
Si Si3 0.500000 0.500000 0.500000
Si Si4 0.465319 0.663901 0.100905
Si Si5 0.733021 0.333895 0.524330
Si Si6 0.052016 0.475156 0.934064
Si Si7 0.655846 0.991049 0.595576
Si Si8 0.500000 0.000000 0.000000
O O1 0.328597 0.265888 0.298285
O O2 0.578979 0.601308 0.256562
O O3 0.728153 0.473902 0.432339
O O4 0.799499 0.769500 0.987468
O O5 0.867685 0.087948 0.571787
O O6 0.185091 0.193097 0.596745
O O7 0.471617 0.660182 0.263862
O O8 0.188759 0.449474 0.098587
O O9 0.635996 0.914132 0.824204
O O10 0.538569 0.055248 0.799738
O O11 0.000000 0.500000 0.500000
O O12 0.592700 0.263013 0.372201
O O13 0.252723 0.764984 0.656841
O O14 0.801289 0.238571 0.950444
O O15 0.000000 0.500000 0.000000
#
# Coordination Sequence:
#
# PCOD9036266 Si02
#       8
#     2   2   1   2   2   2   2   1
#     4   9  22  47  72  96 151 195 246 309 381 461
#     4   9  21  44  69 104 139 193 241 309 380 454
#     4  12  26  40  66 108 148 188 258 308 380 460
#     4  11  26  46  73 110 146 204 250 314 396 458
#     4  11  24  47  76 114 149 202 264 317 386 473
#     4  12  25  49  75 110 158 195 253 329 375 464
#     4  10  22  48  75  99 154 201 245 321 393 447
#     4  12  28  46  80 118 146 206 266 310 402 460
#
# _framework density 27.908000999999999
#
# number of rings (size 3 to 8) (size 9 to 14) (size 15 to 20)
#    0.000    1.429    1.429    3.000    2.000    7.429 
#   10.286    0.000    0.000    0.000    0.000    0.000 
#    0.000    0.000    0.000    0.000    0.000    0.000 
#
# Total GULP energy -78020.272851 kJ/mol
# GULP energy per Si atom -5572.876632 kJ/mol
# Density = 2.784448 g / cm^3
# Si number density = 27.908001 Si / 1000 Ang^3
#
#
#
# Elastic Constant Matrix: (Units=GPa)
#
#
# Indices 1 2 3 4 5 6 
#
# 1 112.6542 33.3496 39.8903 4.5760 -7.8434 15.9054
# 2 33.3496 203.0624 62.2532 7.8557 10.8398 26.2423
# 3 39.8903 62.2532 181.6610 19.4597 -14.4027 16.4162
# 4 4.5760 7.8557 19.4597 47.2878 12.0383 -4.7630
# 5 -7.8434 10.8398 -14.4027 12.0383 51.1409 8.7155
# 6 15.9054 26.2423 16.4162 -4.7630 8.7155 45.9946
#
#
#
# Elastic Compliance Matrix: (Units=1/GPa)
#
#
# Indices 1 2 3 4 5 6 
#
# 1 0.010268 -0.000947 -0.001359 -0.001141 0.002182 -0.003057
# 2 -0.000947 0.005985 -0.001770 0.000001 -0.001544 -0.002163
# 3 -0.001359 -0.001770 0.007268 -0.003657 0.003440 -0.002145
# 4 -0.001141 0.000001 -0.003657 0.025442 -0.008197 0.005887
# 5 0.002182 -0.001544 0.003440 -0.008197 0.024229 -0.006542
# 6 -0.003057 -0.002163 -0.002145 0.005887 -0.006542 0.026648
#
#
# Mechanical properties :
#
#
# Convention : Reuss Voigt Hill
#
# Bulk Modulus (GPa) = 65.06522 85.37375 75.21949
# Shear Modulus (GPa) = 44.20311 53.01027 48.60669
#
# Velocity S-wave (km/s) = 3.98412 4.36301 4.17787
# Velocity P-wave (km/s) = 6.67301 7.48590 7.09112
#
# Compressibility (1/GPa) = 0.01536919
#
# Stress axis : x y z
#
# Youngs Moduli (GPa) = 97.38867 167.09474 137.58951
#
# Poissons Ratio (x) = 0.15826 0.18694
# Poissons Ratio (y) = 0.09224 0.24353
# Poissons Ratio (z) = 0.13232 0.29575
#
# Static dielectric constant tensor:
#      x y z
#    x 2.276360 -0.077700 -0.000510 
#    y -0.077700 2.055750 -0.001910 
#    z -0.000510 -0.001910 2.411250 
# 
# From -- ./inp_files/457648.got.cif
#   From: 2010.05.17/outbox.cif.g08.bks.cpg/sg2_229_cif.got.tgz:457648.got - 2010.06.03 11:33:40.
