data_PCOD9036451
_publ_section_title
;
Structure prediction by ZEFSAII (Michael W. Deem and Ramdas Pophale) SiO2 
 PCOD9036451
Probable space group: P -1
;
_chemical_formula_sum "Si O2"
_cell_formula_units_Z 14
_cell_length_a 10.225479
_cell_length_b 18.473990
_cell_length_c 10.460564
_cell_angle_alpha 142.026985
_cell_angle_beta 61.809034
_cell_angle_gamma 143.546430
_cell_volume 647.966099
_symmetry_space_group_name_H-M "P -1"
_symmetry_group_IT_number 2
_symmetry_cell_setting 'triclinic'
loop_
_space_group_symop_operation_xyz
x,y,z
-x,-y,-z
loop_
_atom_site_type_symbol
_atom_site_label
_atom_site_fract_x
_atom_site_fract_y
_atom_site_fract_z
Si Si1 0.558463 0.223380 0.079863
Si Si2 0.557661 0.570039 0.898284
Si Si3 0.305383 0.183372 0.375246
Si Si4 0.107624 0.318869 0.902583
Si Si5 0.402137 0.023999 0.279073
Si Si6 0.932493 0.466320 0.636562
Si Si7 0.165620 0.082512 0.913038
O O1 0.439572 0.234112 0.253354
O O2 0.379046 0.124049 0.903551
O O3 0.842932 0.439205 0.249217
O O4 0.560610 0.088381 0.934500
O O5 0.467126 0.381408 0.647868
O O6 0.306213 0.477363 0.924252
O O7 0.691286 0.711286 0.912893
O O8 0.747604 0.690607 0.097573
O O9 0.295039 0.051320 0.266372
O O10 0.038947 0.069767 0.312301
O O11 0.086068 0.410017 0.141803
O O12 0.825707 0.119166 0.714498
O O13 0.676041 0.243929 0.480470
O O14 0.000000 0.500000 0.500000
O O15 0.000000 0.000000 0.000000
#
# Coordination Sequence:
#
# PCOD9036451 Si02
#       7
#     2   2   2   2   2   2   2
#     4  10  23  37  59  94 123 163 202 262 314 361
#     4  11  22  40  62  90 130 160 210 253 315 371
#     4  11  21  37  64  93 120 165 202 263 309 364
#     4  10  23  37  61  97 121 163 204 267 303 365
#     4  11  21  37  61  90 124 155 210 252 311 362
#     4  11  21  36  63  92 123 160 208 256 311 358
#     4  10  24  41  62  90 130 165 207 257 312 371
#
# _framework density 21.606069000000002
#
# number of rings (size 3 to 8) (size 9 to 14) (size 15 to 20)
#    0.000    1.429    4.286    0.429    2.000    7.429 
#    0.000    2.857    0.000    5.143    0.000    0.000 
#    0.000    0.000    0.000    0.000    0.000    0.000 
#
# Total GULP energy -77938.184375 kJ/mol
# GULP energy per Si atom -5567.013170 kJ/mol
# Density = 2.155689 g / cm^3
# Si number density = 21.606069 Si / 1000 Ang^3
#
#
#
# Elastic Constant Matrix: (Units=GPa)
#
#
# Indices 1 2 3 4 5 6 
#
# 1 92.5689 42.0711 47.9043 13.8337 28.9871 27.3940
# 2 42.0711 115.2396 34.7347 35.7652 4.0964 20.3930
# 3 47.9043 34.7347 53.2895 35.8558 10.4355 7.1101
# 4 13.8337 35.7652 35.8558 35.4749 21.9732 14.2515
# 5 28.9871 4.0964 10.4355 21.9732 33.4676 14.8460
# 6 27.3940 20.3930 7.1101 14.2515 14.8460 31.7409
#
#
#
# Elastic Compliance Matrix: (Units=1/GPa)
#
#
# Indices 1 2 3 4 5 6 
#
# 1 -0.002665 0.005331 0.019408 -0.036247 0.018435 0.002179
# 2 0.005331 0.011066 -0.015138 0.007149 -0.001049 -0.011039
# 3 0.019408 -0.015138 -0.010194 0.044110 -0.037665 -0.006929
# 4 -0.036247 0.007149 0.044110 -0.037310 0.033279 0.017995
# 5 0.018435 -0.001049 -0.037665 0.033279 0.017136 -0.029756
# 6 0.002179 -0.011039 -0.006929 0.017995 -0.029756 0.044107
#
#
# Mechanical properties :
#
#
# Convention : Reuss Voigt Hill
#
# Bulk Modulus (GPa) = 57.43362 56.72426 57.07894
# Shear Modulus (GPa) = 572.10387 29.22921 300.66654
#
# Velocity S-wave (km/s) = 16.28998 3.68207 11.80934
# Velocity P-wave (km/s) = 19.50532 6.66241 14.57473
#
# Compressibility (1/GPa) = 0.01741141
#
# Stress axis : x y z
#
# Youngs Moduli (GPa) = -375.25281 90.36794 -98.10015
#
# Poissons Ratio (x) = -0.48179 1.90395
# Poissons Ratio (y) = 2.00062 -1.48500
# Poissons Ratio (z) = 7.28301 1.36796
#
# Static dielectric constant tensor:
#      x y z
#    x 1.835790 0.010630 0.049600 
#    y 0.010630 1.847640 0.025070 
#    z 0.049600 0.025070 1.810250 
# 
# From -- ./inp_files/428422.got.cif
#   From: 2010.05.17/outbox.cif.g08.bks.cpg/sg2_215_cif.got.tgz:428422.got - 2010.06.03 11:33:40.
