data_PCOD9036995
_publ_section_title
;
Structure prediction by ZEFSAII (Michael W. Deem and Ramdas Pophale) SiO2 
 PCOD9036995
Probable space group: P -1
;
_chemical_formula_sum "Si O2"
_cell_formula_units_Z 14
_cell_length_a 17.518271
_cell_length_b 11.957618
_cell_length_c 17.958766
_cell_angle_alpha 151.989597
_cell_angle_beta 18.384981
_cell_angle_gamma 143.646879
_cell_volume 543.715210
_symmetry_space_group_name_H-M "P -1"
_symmetry_group_IT_number 2
_symmetry_cell_setting 'triclinic'
loop_
_space_group_symop_operation_xyz
x,y,z
-x,-y,-z
loop_
_atom_site_type_symbol
_atom_site_label
_atom_site_fract_x
_atom_site_fract_y
_atom_site_fract_z
Si Si1 0.518430 0.776472 0.161515
Si Si2 0.865444 0.252527 0.179073
Si Si3 0.718395 0.702301 0.293326
Si Si4 0.358767 0.897794 0.136649
Si Si5 0.932700 0.201572 0.788484
Si Si6 0.212781 0.231851 0.237138
Si Si7 0.075265 0.291231 0.160214
O O1 0.303387 0.020005 0.494641
O O2 0.500000 0.500000 0.000000
O O3 0.711611 0.838742 0.958193
O O4 0.627266 0.768889 0.140283
O O5 0.567851 0.294138 0.466288
O O6 0.939860 0.370611 0.255288
O O7 0.037473 0.332732 0.005268
O O8 0.982581 0.964575 0.913519
O O9 0.802597 0.434664 0.095066
O O10 0.186042 0.773843 0.171335
O O11 0.541799 0.727241 0.922873
O O12 0.218602 0.114764 0.448161
O O13 0.500000 0.000000 0.000000
O O14 0.875618 0.970492 0.750371
O O15 0.016859 0.483661 0.568086
#
# Coordination Sequence:
#
# PCOD9036995 Si02
#       7
#     2   2   2   2   2   2   2
#     4  11  26  45  69  96 139 193 237 279 339 418
#     4  10  24  44  72 105 135 176 231 298 352 402
#     4  11  25  45  72 103 141 180 229 292 349 414
#     4   9  21  40  65 100 133 175 225 281 348 413
#     4  10  23  39  68 101 133 176 226 288 352 405
#     4  11  23  40  65  97 137 177 228 280 341 421
#     4  10  23  43  70 100 135 180 236 289 349 407
#
# _framework density 25.748774999999998
#
# number of rings (size 3 to 8) (size 9 to 14) (size 15 to 20)
#    0.000    1.714    0.000    2.143   12.000    8.000 
#    0.000    0.714    0.000    0.000    0.000    0.000 
#    0.000    0.000    0.000    0.000    0.000    0.000 
#
# Total GULP energy -78010.960375 kJ/mol
# GULP energy per Si atom -5572.211455 kJ/mol
# Density = 2.569017 g / cm^3
# Si number density = 25.748775 Si / 1000 Ang^3
#
#
#
# Elastic Constant Matrix: (Units=GPa)
#
#
# Indices 1 2 3 4 5 6 
#
# 1 102.2833 5.4672 15.0684 -11.2898 -16.7039 10.5457
# 2 5.4672 84.0430 40.5055 7.4945 4.5875 -2.5751
# 3 15.0684 40.5055 154.2195 26.8733 6.0526 -5.0628
# 4 -11.2898 7.4945 26.8733 53.0890 8.2592 4.2460
# 5 -16.7039 4.5875 6.0526 8.2592 33.1582 -2.7588
# 6 10.5457 -2.5751 -5.0628 4.2460 -2.7588 30.0795
#
#
#
# Elastic Compliance Matrix: (Units=1/GPa)
#
#
# Indices 1 2 3 4 5 6 
#
# 1 0.011729 -0.000547 -0.001887 0.003073 0.005194 -0.004434
# 2 -0.000547 0.013706 -0.003444 -0.000135 -0.001454 0.000671
# 3 -0.001887 -0.003444 0.008418 -0.004243 -0.000762 0.002313
# 4 0.003073 -0.000135 -0.004243 0.022668 -0.003750 -0.005347
# 5 0.005194 -0.001454 -0.000762 -0.003750 0.034182 0.001591
# 6 -0.004434 0.000671 0.002313 -0.005347 0.001591 0.036147
#
#
# Mechanical properties :
#
#
# Convention : Reuss Voigt Hill
#
# Bulk Modulus (GPa) = 45.25439 51.40310 48.32875
# Shear Modulus (GPa) = 34.25342 41.89899 38.07620
#
# Velocity S-wave (km/s) = 3.65128 4.03826 3.84963
# Velocity P-wave (km/s) = 5.94889 6.46143 6.21045
#
# Compressibility (1/GPa) = 0.02209730
#
# Stress axis : x y z
#
# Youngs Moduli (GPa) = 85.26116 72.96089 118.78832
#
# Poissons Ratio (x) = 0.03990 0.22419
# Poissons Ratio (y) = 0.04662 0.40908
# Poissons Ratio (z) = 0.16091 0.25126
#
# Static dielectric constant tensor:
#      x y z
#    x 2.132590 0.093800 -0.006170 
#    y 0.093800 2.065520 -0.014460 
#    z -0.006170 -0.014460 2.072340 
# 
# From -- ./inp_files/97460.got.cif
#   From: 2010.05.17/outbox.cif.g08.bks.cpg/sg2_49_cif.got.tgz:97460.got - 2010.06.03 11:33:40.
