data_PCOD9036014
_publ_section_title
;
Structure prediction by ZEFSAII (Michael W. Deem and Ramdas Pophale) SiO2 
 PCOD9036014
Probable space group: P -1
;
_chemical_formula_sum "Si O2"
_cell_formula_units_Z 16
_cell_length_a 8.318956
_cell_length_b 9.182247
_cell_length_c 17.750593
_cell_angle_alpha 49.343052
_cell_angle_beta 139.487220
_cell_angle_gamma 110.109227
_cell_volume 635.845809
_symmetry_space_group_name_H-M "P -1"
_symmetry_group_IT_number 2
_symmetry_cell_setting 'triclinic'
loop_
_space_group_symop_operation_xyz
x,y,z
-x,-y,-z
loop_
_atom_site_type_symbol
_atom_site_label
_atom_site_fract_x
_atom_site_fract_y
_atom_site_fract_z
Si Si1 0.732898 0.901850 0.805951
Si Si2 0.293563 0.720066 0.693713
Si Si3 0.141315 0.699363 0.315182
Si Si4 0.691813 0.305570 0.926270
Si Si5 0.978442 0.375860 0.872363
Si Si6 0.155844 0.355336 0.537765
Si Si7 0.655024 0.929730 0.169708
Si Si8 0.752649 0.308874 0.144916
O O1 0.483445 0.853452 0.701241
O O2 0.797385 0.811154 0.945245
O O3 0.719780 0.130853 0.708896
O O4 0.009991 0.764587 0.916690
O O5 0.490316 0.490250 0.834303
O O6 0.186231 0.774817 0.720874
O O7 0.054884 0.722568 0.555271
O O8 0.040809 0.654406 0.212887
O O9 0.903565 0.803778 0.251945
O O10 0.270418 0.489208 0.476723
O O11 0.588466 0.115313 0.941454
O O12 0.723025 0.381753 0.826483
O O13 0.034854 0.584666 0.837147
O O14 0.338253 0.169282 0.711475
O O15 0.000000 0.500000 0.500000
O O16 0.683229 0.148069 0.121373
O O17 0.500000 0.500000 0.000000
#
# Coordination Sequence:
#
# PCOD9036014 Si02
#       8
#     2   2   2   2   2   2   2   2
#     4  10  25  35  68 105 137 161 218 274 345 387
#     4  12  22  44  69  92 139 177 218 277 332 382
#     4  11  22  44  70  94 134 186 218 264 335 394
#     4  10  23  41  67  95 143 167 218 272 342 386
#     4  10  23  41  62 102 143 163 215 278 336 402
#     4  10  22  47  69  90 128 182 239 263 311 398
#     4  11  26  44  69  96 132 182 230 268 318 400
#     4  12  25  40  69 104 133 171 222 276 341 399
#
# _framework density 25.163333000000002
#
# number of rings (size 3 to 8) (size 9 to 14) (size 15 to 20)
#    0.750    0.500    5.000    0.750    7.000    1.000 
#    0.000    4.375    0.000    0.000    0.000    0.000 
#    0.000    0.000    0.000    0.000    0.000    0.000 
#
# Total GULP energy -89507.128918 kJ/mol
# GULP energy per Si atom -5594.195557 kJ/mol
# Density = 2.510606 g / cm^3
# Si number density = 25.163333 Si / 1000 Ang^3
#
#
#
# Elastic Constant Matrix: (Units=GPa)
#
#
# Indices 1 2 3 4 5 6 
#
# 1 100.5960 70.6955 30.8030 -8.0545 -32.4416 9.4755
# 2 70.6955 220.4186 53.7879 7.4396 -27.5753 18.6259
# 3 30.8030 53.7879 79.0344 -9.9391 -21.6514 -2.8695
# 4 -8.0545 7.4396 -9.9391 47.5113 -1.4574 -8.7013
# 5 -32.4416 -27.5753 -21.6514 -1.4574 39.4645 -6.2657
# 6 9.4755 18.6259 -2.8695 -8.7013 -6.2657 61.2678
#
#
#
# Elastic Compliance Matrix: (Units=1/GPa)
#
#
# Indices 1 2 3 4 5 6 
#
# 1 0.016678 -0.004078 -0.000245 0.003805 0.010915 0.000306
# 2 -0.004078 0.006948 -0.003903 -0.003034 -0.001101 -0.002208
# 3 -0.000245 -0.003903 0.018380 0.005327 0.007932 0.003653
# 4 0.003805 -0.003034 0.005327 0.024296 0.005559 0.004602
# 5 0.010915 -0.001101 0.007932 0.005559 0.038697 0.003765
# 6 0.000306 -0.002208 0.003653 0.004602 0.003765 0.018155
#
#
# Mechanical properties :
#
#
# Convention : Reuss Voigt Hill
#
# Bulk Modulus (GPa) = 39.13205 78.95797 59.04501
# Shear Modulus (GPa) = 33.75565 45.96622 39.86094
#
# Velocity S-wave (km/s) = 3.66657 4.27864 3.98438
# Velocity P-wave (km/s) = 5.78878 7.47365 6.68451
#
# Compressibility (1/GPa) = 0.02555450
#
# Stress axis : x y z
#
# Youngs Moduli (GPa) = 59.96082 143.91780 54.40790
#
# Poissons Ratio (x) = 0.58691 0.01332
# Poissons Ratio (y) = 0.24453 0.21234
# Poissons Ratio (z) = 0.01467 0.56168
#
# Static dielectric constant tensor:
#      x y z
#    x 2.054430 0.007550 -0.047500 
#    y 0.007550 1.955670 0.007910 
#    z -0.047500 0.007910 2.042400 
# 
# From -- ./inp_files/556008.got.cif
#   From: 2010.05.17/outbox.cif.g08.bks.cpg/sg2_279_cif.got.tgz:556008.got - 2010.06.03 11:33:40.
