data_PCOD9036872
_publ_section_title
;
Structure prediction by ZEFSAII (Michael W. Deem and Ramdas Pophale) SiO2 
 PCOD9036872
Probable space group: P -1
;
_chemical_formula_sum "Si O2"
_cell_formula_units_Z 16
_cell_length_a 9.210492
_cell_length_b 12.110396
_cell_length_c 11.274997
_cell_angle_alpha 31.303947
_cell_angle_beta 113.546382
_cell_angle_gamma 103.659920
_cell_volume 584.249924
_symmetry_space_group_name_H-M "P -1"
_symmetry_group_IT_number 2
_symmetry_cell_setting 'triclinic'
loop_
_space_group_symop_operation_xyz
x,y,z
-x,-y,-z
loop_
_atom_site_type_symbol
_atom_site_label
_atom_site_fract_x
_atom_site_fract_y
_atom_site_fract_z
Si Si1 0.774714 0.702351 0.340987
Si Si2 0.741150 0.341122 0.223030
Si Si3 0.926760 0.903085 0.382751
Si Si4 0.767677 0.746931 0.023226
Si Si5 0.813227 0.617448 0.803060
Si Si6 0.508128 0.164273 0.477430
Si Si7 0.125443 0.793068 0.085200
Si Si8 0.467269 0.731021 0.344605
O O1 0.917828 0.821542 0.317600
O O2 0.836531 0.461335 0.634081
O O3 0.611550 0.820934 0.248125
O O4 0.745163 0.683098 0.210487
O O5 0.593271 0.274457 0.301942
O O6 0.895526 0.139447 0.467593
O O7 0.788456 0.536126 0.138712
O O8 0.725616 0.433385 0.000374
O O9 0.840432 0.745234 0.574305
O O10 0.853018 0.154119 0.096330
O O11 0.614385 0.929085 0.763073
O O12 0.929756 0.845388 0.987803
O O13 0.679521 0.821371 0.628181
O O14 0.000000 0.500000 0.000000
O O15 0.504004 0.290661 0.486113
O O16 0.279985 0.850719 0.152561
O O17 0.500000 0.500000 0.500000
#
# Coordination Sequence:
#
# PCOD9036872 Si02
#       8
#     2   2   2   2   2   2   2   2
#     4  11  23  41  63  96 139 176 217 272 330 396
#     4  11  24  46  68  96 133 175 229 280 329 387
#     4  11  22  42  69  93 133 177 223 273 329 395
#     4  12  26  40  69 103 138 177 218 273 332 402
#     4  10  25  47  73  95 127 180 227 281 335 385
#     4  12  24  45  71 100 132 176 224 275 338 395
#     4  11  23  40  63 101 138 176 219 259 334 404
#     4  10  23  39  64  98 135 176 215 263 330 399
#
# _framework density 27.385542000000001
#
# number of rings (size 3 to 8) (size 9 to 14) (size 15 to 20)
#    0.000    1.000    3.750    3.000    3.500    2.500 
#    0.000    1.875    0.000    0.000    0.000    0.000 
#    0.000    0.000    0.000    0.000    0.000    0.000 
#
# Total GULP energy -89260.466371 kJ/mol
# GULP energy per Si atom -5578.779148 kJ/mol
# Density = 2.732321 g / cm^3
# Si number density = 27.385542 Si / 1000 Ang^3
#
#
#
# Elastic Constant Matrix: (Units=GPa)
#
#
# Indices 1 2 3 4 5 6 
#
# 1 155.5867 38.9588 68.8449 15.4918 4.9737 5.7061
# 2 38.9588 112.1635 27.5139 18.2434 -16.6010 -12.1997
# 3 68.8449 27.5139 217.8970 35.2074 -0.6475 -14.1377
# 4 15.4918 18.2434 35.2074 18.8170 -3.6730 -5.9770
# 5 4.9737 -16.6010 -0.6475 -3.6730 60.8483 9.8080
# 6 5.7061 -12.1997 -14.1377 -5.9770 9.8080 41.3355
#
#
#
# Elastic Compliance Matrix: (Units=1/GPa)
#
#
# Indices 1 2 3 4 5 6 
#
# 1 0.008333 -0.002596 -0.002305 -0.001065 -0.001058 -0.002608
# 2 -0.002596 0.011810 0.001135 -0.010268 0.002479 0.002160
# 3 -0.002305 0.001135 0.007276 -0.012440 -0.000407 0.001440
# 4 -0.001065 -0.010268 -0.012440 0.089285 0.001677 0.005374
# 5 -0.001058 0.002479 -0.000407 0.001677 0.017817 -0.003247
# 6 -0.002608 0.002160 0.001440 0.005374 -0.003247 0.027230
#
#
# Mechanical properties :
#
#
# Convention : Reuss Voigt Hill
#
# Bulk Modulus (GPa) = 50.28003 84.03137 67.15570
# Shear Modulus (GPa) = 28.42323 47.55546 37.98935
#
# Velocity S-wave (km/s) = 3.22513 4.17167 3.72856
# Velocity P-wave (km/s) = 5.68054 7.34541 6.56596
#
# Compressibility (1/GPa) = 0.01988861
#
# Stress axis : x y z
#
# Youngs Moduli (GPa) = 120.00728 84.67056 137.42884
#
# Poissons Ratio (x) = 0.21979 0.31680
# Poissons Ratio (y) = 0.31151 -0.15604
# Poissons Ratio (z) = 0.27664 -0.09613
#
# Static dielectric constant tensor:
#      x y z
#    x 2.203380 0.084640 -0.040290 
#    y 0.084640 2.287090 -0.115420 
#    z -0.040290 -0.115420 2.272440 
# 
# From -- ./inp_files/398246.got.cif
#   From: 2010.05.17/outbox.cif.g08.bks.cpg/sg2_200_cif.got.tgz:398246.got - 2010.06.03 11:33:40.
