data_PCOD9036294
_publ_section_title
;
Structure prediction by ZEFSAII (Michael W. Deem and Ramdas Pophale) SiO2 
 PCOD9036294
Probable space group: P -1
;
_chemical_formula_sum "Si O2"
_cell_formula_units_Z 11
_cell_length_a 7.148577
_cell_length_b 6.992427
_cell_length_c 12.406779
_cell_angle_alpha 103.848430
_cell_angle_beta 39.797911
_cell_angle_gamma 94.931487
_cell_volume 380.601668
_symmetry_space_group_name_H-M "P -1"
_symmetry_group_IT_number 2
_symmetry_cell_setting 'triclinic'
loop_
_space_group_symop_operation_xyz
x,y,z
-x,-y,-z
loop_
_atom_site_type_symbol
_atom_site_label
_atom_site_fract_x
_atom_site_fract_y
_atom_site_fract_z
Si Si1 0.660972 0.032684 0.118142
Si Si2 0.668640 0.927745 0.522209
Si Si3 0.664057 0.515001 0.688920
Si Si4 0.109865 0.452939 0.822487
Si Si5 0.272655 0.779291 0.180802
Si Si6 0.500000 0.500000 0.500000
O O1 0.507384 0.259544 0.196486
O O2 0.500029 0.971066 0.288432
O O3 0.437608 0.118880 0.945757
O O4 0.000000 0.000000 0.000000
O O5 0.477802 0.409088 0.665075
O O6 0.500000 0.000000 0.500000
O O7 0.010950 0.945502 0.366181
O O8 0.652496 0.399929 0.790959
O O9 0.645229 0.693408 0.501942
O O10 0.000000 0.500000 0.500000
O O11 0.155954 0.598051 0.722080
O O12 0.903308 0.299733 0.851426
O O13 0.000000 0.500000 0.000000
#
# Coordination Sequence:
#
# PCOD9036294 Si02
#       6
#     2   2   2   2   2   1
#     4  12  29  52  83 129 172 219 289 366 434 508
#     4  11  25  47  84 119 166 222 285 348 430 520
#     4  12  26  53  88 118 174 230 287 354 436 526
#     4  11  26  51  85 128 172 224 289 362 427 520
#     4  11  28  49  85 122 165 233 284 347 438 519
#     4  10  22  48  80 116 158 226 276 332 438 500
#
# _framework density 28.901606000000001
#
# number of rings (size 3 to 8) (size 9 to 14) (size 15 to 20)
#    0.000    0.727    3.636    1.636    7.636    3.636 
#    0.000    1.818    0.000    0.000    0.000    0.000 
#    0.000    0.000    0.000    0.000    0.000    0.000 
#
# Total GULP energy -61374.957954 kJ/mol
# GULP energy per Si atom -5579.541632 kJ/mol
# Density = 2.883582 g / cm^3
# Si number density = 28.901606 Si / 1000 Ang^3
#
#
#
# Elastic Constant Matrix: (Units=GPa)
#
#
# Indices 1 2 3 4 5 6 
#
# 1 286.3808 68.4525 76.4840 14.1224 -32.8460 23.8752
# 2 68.4525 147.4355 36.4122 8.9205 -16.8404 -13.1994
# 3 76.4840 36.4122 169.2382 -2.4426 -35.4527 6.4849
# 4 14.1224 8.9205 -2.4426 31.2340 -6.6810 -5.6603
# 5 -32.8460 -16.8404 -35.4527 -6.6810 65.0959 1.5267
# 6 23.8752 -13.1994 6.4849 -5.6603 1.5267 61.3154
#
#
#
# Elastic Compliance Matrix: (Units=1/GPa)
#
#
# Indices 1 2 3 4 5 6 
#
# 1 0.004712 -0.001798 -0.001483 -0.001939 0.000959 -0.002268
# 2 -0.001798 0.008195 -0.000948 -0.001043 0.000532 0.002455
# 3 -0.001483 -0.000948 0.007525 0.002189 0.003337 -0.000304
# 4 -0.001939 -0.001043 0.002189 0.034715 0.003426 0.003418
# 5 0.000959 0.000532 0.003337 0.003426 0.018170 -0.000748
# 6 -0.002268 0.002455 -0.000304 0.003418 -0.000748 0.018087
#
#
# Mechanical properties :
#
#
# Convention : Reuss Voigt Hill
#
# Bulk Modulus (GPa) = 83.51230 107.30576 95.40903
# Shear Modulus (GPa) = 48.14437 59.64277 53.89357
#
# Velocity S-wave (km/s) = 4.08585 4.54767 4.32293
# Velocity P-wave (km/s) = 7.15661 8.04883 7.61579
#
# Compressibility (1/GPa) = 0.01197428
#
# Stress axis : x y z
#
# Youngs Moduli (GPa) = 212.20843 122.02241 132.88531
#
# Poissons Ratio (x) = 0.21937 0.19707
# Poissons Ratio (y) = 0.38151 0.12604
# Poissons Ratio (z) = 0.31471 0.11574
#
# Static dielectric constant tensor:
#      x y z
#    x 2.216860 0.260000 0.010700 
#    y 0.260000 1.890810 0.210960 
#    z 0.010700 0.210960 2.484660 
# 
# From -- ./inp_files/376255.got.cif
#   From: 2010.05.17/outbox.cif.g08.bks.cpg/sg2_189_cif.got.tgz:376255.got - 2010.06.03 11:33:40.
