data_PCOD9036932
_publ_section_title
;
Structure prediction by ZEFSAII (Michael W. Deem and Ramdas Pophale) SiO2 
 PCOD9036932
Probable space group: P -1
;
_chemical_formula_sum "Si O2"
_cell_formula_units_Z 16
_cell_length_a 11.825137
_cell_length_b 5.576798
_cell_length_c 17.367069
_cell_angle_alpha 114.678663
_cell_angle_beta 47.502013
_cell_angle_gamma 125.789261
_cell_volume 684.494403
_symmetry_space_group_name_H-M "P -1"
_symmetry_group_IT_number 2
_symmetry_cell_setting 'triclinic'
loop_
_space_group_symop_operation_xyz
x,y,z
-x,-y,-z
loop_
_atom_site_type_symbol
_atom_site_label
_atom_site_fract_x
_atom_site_fract_y
_atom_site_fract_z
Si Si1 0.448910 0.177610 0.106878
Si Si2 0.155839 0.294676 0.294947
Si Si3 0.682201 0.245688 0.416074
Si Si4 0.982690 0.772073 0.081228
Si Si5 0.397628 0.941151 0.268765
Si Si6 0.829944 0.800901 0.312077
Si Si7 0.194289 0.255265 0.447797
Si Si8 0.291699 0.173977 0.897138
O O1 0.262251 0.159438 0.181263
O O2 0.581999 0.513760 0.084856
O O3 0.460305 0.094043 0.178274
O O4 0.500000 0.000000 0.000000
O O5 0.227811 0.635136 0.282210
O O6 0.222756 0.357463 0.359991
O O7 0.962542 0.039111 0.344054
O O8 0.706314 0.490226 0.370486
O O9 0.773975 0.475644 0.474894
O O10 0.500000 0.000000 0.500000
O O11 0.763461 0.020952 0.332146
O O12 0.929488 0.726892 0.188430
O O13 0.835748 0.817556 0.108618
O O14 0.000000 0.500000 0.000000
O O15 0.168985 0.022016 0.005756
O O16 0.570066 0.926608 0.215310
O O17 0.327852 0.117474 0.379987
O O18 0.000000 0.000000 0.500000
#
# Coordination Sequence:
#
# PCOD9036932 Si02
#       8
#     2   2   2   2   2   2   2   2
#     4  10  23  39  66 102 145 184 242 311 377 445
#     4  10  24  41  73 107 141 198 245 319 373 462
#     4  12  30  53  78 113 155 207 253 332 388 458
#     4  11  27  47  75 100 150 205 255 312 383 473
#     4  10  23  42  69 108 144 192 254 314 383 463
#     4  12  29  51  78 113 152 196 268 315 389 463
#     4  11  23  48  77 107 149 198 258 316 393 459
#     4  10  24  45  67 105 139 203 249 308 387 453
#
# _framework density 23.374918999999998
#
# number of rings (size 3 to 8) (size 9 to 14) (size 15 to 20)
#    0.000    1.250    1.250    1.875   12.250    6.000 
#    2.250    0.000    0.000    0.000    0.000    0.000 
#    0.000    0.000    0.000    0.000    0.000    0.000 
#
# Total GULP energy -89229.110954 kJ/mol
# GULP energy per Si atom -5576.819435 kJ/mol
# Density = 2.332172 g / cm^3
# Si number density = 23.374919 Si / 1000 Ang^3
#
#
#
# Elastic Constant Matrix: (Units=GPa)
#
#
# Indices 1 2 3 4 5 6 
#
# 1 51.6846 -17.6549 19.3745 10.0083 -29.1367 0.1143
# 2 -17.6549 426.0477 90.3629 -88.8164 69.6465 -20.7106
# 3 19.3745 90.3629 136.1611 3.5199 6.9817 -8.9468
# 4 10.0083 -88.8164 3.5199 58.4655 -19.9288 -5.1580
# 5 -29.1367 69.6465 6.9817 -19.9288 61.3692 -1.6048
# 6 0.1143 -20.7106 -8.9468 -5.1580 -1.6048 29.2451
#
#
#
# Elastic Compliance Matrix: (Units=1/GPa)
#
#
# Indices 1 2 3 4 5 6 
#
# 1 0.029403 -0.000250 -0.004832 -0.000199 0.014703 -0.000999
# 2 -0.000250 0.005333 -0.003275 0.007587 -0.003231 0.003936
# 3 -0.004832 -0.003275 0.010410 -0.005292 -0.001484 -0.000131
# 4 -0.000199 0.007587 -0.005292 0.030493 0.002042 0.009245
# 5 0.014703 -0.003231 -0.001484 0.002042 0.027751 -0.000917
# 6 -0.000999 0.003936 -0.000131 0.009245 -0.000917 0.038525
#
#
# Mechanical properties :
#
#
# Convention : Reuss Voigt Hill
#
# Bulk Modulus (GPa) = 35.17333 88.67316 61.92325
# Shear Modulus (GPa) = 29.74299 64.60336 47.17317
#
# Velocity S-wave (km/s) = 3.57099 5.26288 4.49721
# Velocity P-wave (km/s) = 5.66416 8.65725 7.31542
#
# Compressibility (1/GPa) = 0.02843063
#
# Stress axis : x y z
#
# Youngs Moduli (GPa) = 34.00958 187.52722 96.06488
#
# Poissons Ratio (x) = 0.04692 0.46420
# Poissons Ratio (y) = 0.00851 0.31462
# Poissons Ratio (z) = 0.16434 0.61418
#
# Static dielectric constant tensor:
#      x y z
#    x 2.049260 0.115700 0.279690 
#    y 0.115700 2.216420 0.541180 
#    z 0.279690 0.541180 2.579780 
# 
# From -- ./inp_files/564538.got.cif
#   From: 2010.05.17/outbox.cif.g08.bks.cpg/sg2_283_cif.got.tgz:564538.got - 2010.06.03 11:33:40.
