data_PCOD9036947
_publ_section_title
;
Structure prediction by ZEFSAII (Michael W. Deem and Ramdas Pophale) SiO2 
 PCOD9036947
Probable space group: P -1
;
_chemical_formula_sum "Si O2"
_cell_formula_units_Z 15
_cell_length_a 16.395356
_cell_length_b 8.039296
_cell_length_c 19.624239
_cell_angle_alpha 110.537934
_cell_angle_beta 166.277373
_cell_angle_gamma 74.631086
_cell_volume 540.133884
_symmetry_space_group_name_H-M "P -1"
_symmetry_group_IT_number 2
_symmetry_cell_setting 'triclinic'
loop_
_space_group_symop_operation_xyz
x,y,z
-x,-y,-z
loop_
_atom_site_type_symbol
_atom_site_label
_atom_site_fract_x
_atom_site_fract_y
_atom_site_fract_z
Si Si1 0.500000 0.000000 0.500000
Si Si2 0.738615 0.078168 0.109017
Si Si3 0.843791 0.335445 0.729824
Si Si4 0.901455 0.288030 0.478399
Si Si5 0.096750 0.789355 0.385970
Si Si6 0.290089 0.374774 0.676049
Si Si7 0.020859 0.261214 0.070331
Si Si8 0.201736 0.862064 0.983949
O O1 0.200414 0.826173 0.274531
O O2 0.291277 0.902906 0.243937
O O3 0.885697 0.262336 0.300305
O O4 0.937866 0.131684 0.204914
O O5 0.893775 0.937575 0.255300
O O6 0.331426 0.936388 0.744269
O O7 0.990661 0.299199 0.771702
O O8 0.423391 0.322859 0.374321
O O9 0.065699 0.545092 0.966633
O O10 0.965171 0.341670 0.617190
O O11 0.671712 0.412452 0.279234
O O12 0.245194 0.330971 0.713605
O O13 0.516329 0.929543 0.743923
O O14 0.572942 0.284147 0.860418
O O15 0.066896 0.193303 0.176859
#
# Coordination Sequence:
#
# PCOD9036947 Si02
#       8
#     1   2   2   2   2   2   2   2
#     4  12  24  46  72  98 134 178 226 286 338 420
#     4  10  23  39  66  95 131 182 218 281 335 402
#     4  11  26  44  69 102 136 180 230 281 345 410
#     4  10  23  42  66  95 137 173 225 279 333 410
#     4  10  23  43  65 101 133 180 226 278 340 404
#     4  10  23  42  64 100 130 177 225 276 340 401
#     4  11  26  46  68 101 137 179 227 287 348 407
#     4  10  23  43  66  99 134 175 227 286 337 408
#
# _framework density 27.770890999999999
#
# number of rings (size 3 to 8) (size 9 to 14) (size 15 to 20)
#    0.000    1.600    1.333    1.200    5.600    6.933 
#    2.400    2.667    0.000    0.000    0.000    0.000 
#    0.000    0.000    0.000    0.000    0.000    0.000 
#
# Total GULP energy -83860.324898 kJ/mol
# GULP energy per Si atom -5590.688327 kJ/mol
# Density = 2.770768 g / cm^3
# Si number density = 27.770891 Si / 1000 Ang^3
#
#
#
# Elastic Constant Matrix: (Units=GPa)
#
#
# Indices 1 2 3 4 5 6 
#
# 1 170.9478 30.1569 21.0793 13.1268 9.0873 19.1990
# 2 30.1569 91.2279 28.9900 31.0040 -6.6404 12.0030
# 3 21.0793 28.9900 69.7435 14.4938 1.3963 -2.0775
# 4 13.1268 31.0040 14.4938 45.5240 2.9231 -0.6531
# 5 9.0873 -6.6404 1.3963 2.9231 45.1609 -3.9885
# 6 19.1990 12.0030 -2.0775 -0.6531 -3.9885 53.0137
#
#
#
# Elastic Compliance Matrix: (Units=1/GPa)
#
#
# Indices 1 2 3 4 5 6 
#
# 1 0.006648 -0.001448 -0.001353 -0.000425 -0.001681 -0.002265
# 2 -0.001448 0.016997 -0.004734 -0.009910 0.003279 -0.003385
# 3 -0.001353 -0.004734 0.017162 -0.001777 -0.000648 0.002164
# 4 -0.000425 -0.009910 -0.001777 0.029633 -0.003017 0.002466
# 5 -0.001681 0.003279 -0.000648 -0.003017 0.023316 0.001558
# 6 -0.002265 -0.003385 0.002164 0.002466 0.001558 0.020682
#
#
# Mechanical properties :
#
#
# Convention : Reuss Voigt Hill
#
# Bulk Modulus (GPa) = 38.85590 54.70795 46.78193
# Shear Modulus (GPa) = 36.20903 45.51925 40.86414
#
# Velocity S-wave (km/s) = 3.61480 4.05297 3.84014
# Velocity P-wave (km/s) = 5.60753 6.45326 6.04520
#
# Compressibility (1/GPa) = 0.02573612
#
# Stress axis : x y z
#
# Youngs Moduli (GPa) = 150.41372 58.83554 58.26891
#
# Poissons Ratio (x) = 0.08518 0.07885
# Poissons Ratio (y) = 0.21777 0.27587
# Poissons Ratio (z) = 0.20353 0.27855
#
# Static dielectric constant tensor:
#      x y z
#    x 2.069840 0.126240 -0.031960 
#    y 0.126240 1.052850 0.560860 
#    z -0.031960 0.560860 1.867380 
# 
# From -- ./inp_files/572709.got.cif
#   From: 2010.05.17/outbox.cif.g08.bks.cpg/sg2_287_cif.got.tgz:572709.got - 2010.06.03 11:33:40.
