data_PCOD9036553
_publ_section_title
;
Structure prediction by ZEFSAII (Michael W. Deem and Ramdas Pophale) SiO2 
 PCOD9036553
Probable space group: P -1
;
_chemical_formula_sum "Si O2"
_cell_formula_units_Z 12
_cell_length_a 7.119843
_cell_length_b 7.371357
_cell_length_c 21.284037
_cell_angle_alpha 140.512667
_cell_angle_beta 60.797635
_cell_angle_gamma 103.612125
_cell_volume 599.662217
_symmetry_space_group_name_H-M "P -1"
_symmetry_group_IT_number 2
_symmetry_cell_setting 'triclinic'
loop_
_space_group_symop_operation_xyz
x,y,z
-x,-y,-z
loop_
_atom_site_type_symbol
_atom_site_label
_atom_site_fract_x
_atom_site_fract_y
_atom_site_fract_z
Si Si1 0.495573 0.250425 0.788898
Si Si2 0.497997 0.806856 0.783738
Si Si3 0.146966 0.731754 0.365533
Si Si4 0.661870 0.729399 0.960554
Si Si5 0.004164 0.313600 0.885651
Si Si6 0.978415 0.256865 0.195357
O O1 0.686040 0.172121 0.684838
O O2 0.250213 0.283348 0.809945
O O3 0.529419 0.008812 0.774021
O O4 0.513829 0.556601 0.899609
O O5 0.695220 0.517347 0.683210
O O6 0.262214 0.730744 0.790666
O O7 0.470205 0.003125 0.903945
O O8 0.998508 0.561182 0.303895
O O9 0.000000 0.000000 0.500000
O O10 0.019037 0.004280 0.174384
O O11 0.812545 0.489562 0.918943
O O12 0.833942 0.822644 0.910255
O O13 0.000000 0.500000 0.000000
#
# Coordination Sequence:
#
# PCOD9036553 Si02
#       6
#     2   2   2   2   2   2
#     4  10  23  38  60  90 119 154 190 236 295 351
#     4  11  22  36  61  87 119 150 193 237 297 348
#     4  11  26  43  59  80 115 161 210 245 274 326
#     4  11  21  34  60  92 126 150 179 233 301 364
#     4  11  21  35  60  92 127 147 180 230 300 365
#     4  10  23  38  60  90 119 154 190 236 295 351
#
# _framework density 20.011268000000001
#
# number of rings (size 3 to 8) (size 9 to 14) (size 15 to 20)
#    0.000    1.333    3.333    3.000    4.667    2.667 
#    0.000    3.333    0.000    0.000    0.000    0.000 
#    0.000    0.000    0.000    0.000    0.000    0.000 
#
# Total GULP energy -67197.909486 kJ/mol
# GULP energy per Si atom -5599.825791 kJ/mol
# Density = 1.996572 g / cm^3
# Si number density = 20.011268 Si / 1000 Ang^3
#
#
#
# Elastic Constant Matrix: (Units=GPa)
#
#
# Indices 1 2 3 4 5 6 
#
# 1 44.5866 10.0511 24.8913 1.9553 -11.2989 9.5539
# 2 10.0511 80.2260 41.7907 -1.8928 -6.5179 10.6332
# 3 24.8913 41.7907 158.0878 6.9284 -2.9425 8.7594
# 4 1.9553 -1.8928 6.9284 20.4552 -7.3016 -10.4001
# 5 -11.2989 -6.5179 -2.9425 -7.3016 18.9456 1.0110
# 6 9.5539 10.6332 8.7594 -10.4001 1.0110 38.9151
#
#
#
# Elastic Compliance Matrix: (Units=1/GPa)
#
#
# Indices 1 2 3 4 5 6 
#
# 1 0.030964 0.000974 -0.004488 0.002066 0.019264 -0.006806
# 2 0.000974 0.015509 -0.004144 0.003835 0.006895 -0.002699
# 3 -0.004488 -0.004144 0.008297 -0.004826 -0.004630 -0.000803
# 4 0.002066 0.003835 -0.004826 0.069354 0.027605 0.017349
# 5 0.019264 0.006895 -0.004630 0.027605 0.076573 -0.000183
# 6 -0.006806 -0.002699 -0.000803 0.017349 -0.000183 0.032927
#
#
# Mechanical properties :
#
#
# Convention : Reuss Voigt Hill
#
# Bulk Modulus (GPa) = 25.34431 48.48518 36.91475
# Shear Modulus (GPa) = 19.07733 29.40766 24.24250
#
# Velocity S-wave (km/s) = 3.09095 3.83764 3.48435
# Velocity P-wave (km/s) = 5.04293 6.62708 5.88852
#
# Compressibility (1/GPa) = 0.03945658
#
# Stress axis : x y z
#
# Youngs Moduli (GPa) = 32.29601 64.47670 120.51997
#
# Poissons Ratio (x) = -0.06282 0.54086
# Poissons Ratio (y) = -0.03147 0.49938
# Poissons Ratio (z) = 0.14494 0.26716
#
# Static dielectric constant tensor:
#      x y z
#    x 1.732720 0.000950 -0.019070 
#    y 0.000950 1.734250 -0.003230 
#    z -0.019070 -0.003230 1.652900 
# 
# From -- ./inp_files/416755.got.cif
#   From: 2010.05.17/outbox.cif.g08.bks.cpg/sg2_209_cif.got.tgz:416755.got - 2010.06.03 11:33:40.
