data_PCOD9036322
_publ_section_title
;
Structure prediction by ZEFSAII (Michael W. Deem and Ramdas Pophale) SiO2 
 PCOD9036322
Probable space group: P -1
;
_chemical_formula_sum "Si O2"
_cell_formula_units_Z 13
_cell_length_a 19.350441
_cell_length_b 11.655457
_cell_length_c 14.329767
_cell_angle_alpha 149.504344
_cell_angle_beta 160.112302
_cell_angle_gamma 32.440724
_cell_volume 547.214236
_symmetry_space_group_name_H-M "P -1"
_symmetry_group_IT_number 2
_symmetry_cell_setting 'triclinic'
loop_
_space_group_symop_operation_xyz
x,y,z
-x,-y,-z
loop_
_atom_site_type_symbol
_atom_site_label
_atom_site_fract_x
_atom_site_fract_y
_atom_site_fract_z
Si Si1 0.343749 0.328032 0.164575
Si Si2 0.745132 0.841267 0.773176
Si Si3 0.562874 0.846575 0.160527
Si Si4 0.128721 0.496548 0.815757
Si Si5 0.710285 0.053128 0.681819
Si Si6 0.293629 0.676124 0.832964
Si Si7 0.000000 0.500000 0.000000
O O1 0.500000 0.500000 0.500000
O O2 0.480246 0.071298 0.151356
O O3 0.225854 0.404270 0.973161
O O4 0.190701 0.345942 0.071488
O O5 0.516701 0.796084 0.473336
O O6 0.918756 0.655433 0.912421
O O7 0.762180 0.875514 0.708507
O O8 0.744101 0.093481 0.991579
O O9 0.727126 0.651780 0.183038
O O10 0.668821 0.936860 0.449887
O O11 0.357333 0.753821 0.866206
O O12 0.904039 0.435351 0.484266
O O13 0.141298 0.763504 0.006656
O O14 0.500000 0.500000 0.000000
#
# Coordination Sequence:
#
# PCOD9036322 Si02
#       7
#     2   2   2   2   2   2   1
#     4  12  26  48  77 117 155 207 261 325 388 480
#     4  10  23  46  80 108 157 211 256 326 389 468
#     4  11  25  50  75 115 164 198 265 322 396 474
#     4  12  27  47  83 115 155 209 260 327 399 463
#     4  10  22  49  77 116 149 211 261 322 393 462
#     4  11  26  49  72 114 158 204 262 324 389 468
#     4  12  24  48  76 110 158 202 260 312 396 458
#
# _framework density 23.756692999999999
#
# number of rings (size 3 to 8) (size 9 to 14) (size 15 to 20)
#    0.000    0.923    4.615    1.385    2.154    9.231 
#    2.769    4.615    0.000    0.000    0.000    0.000 
#    0.000    0.000    0.000    0.000    0.000    0.000 
#
# Total GULP energy -72638.992963 kJ/mol
# GULP energy per Si atom -5587.614843 kJ/mol
# Density = 2.370262 g / cm^3
# Si number density = 23.756693 Si / 1000 Ang^3
#
#
#
# Elastic Constant Matrix: (Units=GPa)
#
#
# Indices 1 2 3 4 5 6 
#
# 1 138.0063 19.1090 41.8734 3.2564 -6.4942 -19.6173
# 2 19.1090 109.1407 10.5706 -14.9433 -12.5138 1.6107
# 3 41.8734 10.5706 104.0933 0.6619 21.0055 -12.5837
# 4 3.2564 -14.9433 0.6619 34.6765 13.3596 -11.0508
# 5 -6.4942 -12.5138 21.0055 13.3596 36.5537 -11.4298
# 6 -19.6173 1.6107 -12.5837 -11.0508 -11.4298 54.1585
#
#
#
# Elastic Compliance Matrix: (Units=1/GPa)
#
#
# Indices 1 2 3 4 5 6 
#
# 1 0.009533 -0.000943 -0.004523 -0.002465 0.005860 0.003164
# 2 -0.000943 0.010255 -0.001215 0.003554 0.002868 0.000402
# 3 -0.004523 -0.001215 0.013631 0.003671 -0.010354 0.000129
# 4 -0.002465 0.003554 0.003671 0.037192 -0.013486 0.004597
# 5 0.005860 0.002868 -0.010354 -0.013486 0.042059 0.005756
# 6 0.003164 0.000402 0.000129 0.004597 0.005756 0.021781
#
#
# Mechanical properties :
#
#
# Convention : Reuss Voigt Hill
#
# Bulk Modulus (GPa) = 49.85940 54.92737 52.39338
# Shear Modulus (GPa) = 32.36285 43.72358 38.04321
#
# Velocity S-wave (km/s) = 3.69489 4.29473 4.00605
# Velocity P-wave (km/s) = 6.26387 6.91114 6.59545
#
# Compressibility (1/GPa) = 0.02005640
#
# Stress axis : x y z
#
# Youngs Moduli (GPa) = 104.90138 97.51576 73.36024
#
# Poissons Ratio (x) = 0.09198 0.33183
# Poissons Ratio (y) = 0.09894 0.08911
# Poissons Ratio (z) = 0.47451 0.11845
#
# Static dielectric constant tensor:
#      x y z
#    x 1.923290 -0.012530 0.004320 
#    y -0.012530 1.886810 0.024720 
#    z 0.004320 0.024720 1.934910 
# 
# From -- ./inp_files/540750.got.cif
#   From: 2010.05.17/outbox.cif.g08.bks.cpg/sg2_271_cif.got.tgz:540750.got - 2010.06.03 11:33:40.
