data_PCOD9036955
_publ_section_title
;
Structure prediction by ZEFSAII (Michael W. Deem and Ramdas Pophale) SiO2 
 PCOD9036955
Probable space group: P -1
;
_chemical_formula_sum "Si O2"
_cell_formula_units_Z 16
_cell_length_a 5.917427
_cell_length_b 8.666006
_cell_length_c 20.551774
_cell_angle_alpha 58.013366
_cell_angle_beta 47.757117
_cell_angle_gamma 79.840347
_cell_volume 634.061968
_symmetry_space_group_name_H-M "P -1"
_symmetry_group_IT_number 2
_symmetry_cell_setting 'triclinic'
loop_
_space_group_symop_operation_xyz
x,y,z
-x,-y,-z
loop_
_atom_site_type_symbol
_atom_site_label
_atom_site_fract_x
_atom_site_fract_y
_atom_site_fract_z
Si Si1 0.045909 0.189256 0.547455
Si Si2 0.371694 0.471522 0.622209
Si Si3 0.245768 0.412096 0.272614
Si Si4 0.418354 0.075663 0.393006
Si Si5 0.039650 0.083958 0.708418
Si Si6 0.395483 0.561673 0.074203
Si Si7 0.212754 0.286319 0.835408
Si Si8 0.811012 0.948166 0.926446
O O1 0.265930 0.399550 0.473196
O O2 0.306564 0.099819 0.482308
O O3 0.876247 0.110437 0.665929
O O4 0.786854 0.120166 0.557012
O O5 0.273148 0.295264 0.631546
O O6 0.303730 0.378967 0.726698
O O7 0.110909 0.587717 0.640176
O O8 0.354984 0.249580 0.325206
O O9 0.291311 0.411622 0.186322
O O10 0.478927 0.618114 0.203120
O O11 0.768738 0.062742 0.317333
O O12 0.869596 0.012947 0.825284
O O13 0.096513 0.646868 0.100444
O O14 0.500000 0.500000 0.000000
O O15 0.710496 0.723810 0.000191
O O16 0.097247 0.062645 0.891972
O O17 0.500000 0.000000 0.000000
#
# Coordination Sequence:
#
# PCOD9036955 Si02
#       8
#     2   2   2   2   2   2   2   2
#     4  11  25  44  68  99 142 182 218 277 341 405
#     4  10  23  43  69  94 135 180 226 268 334 402
#     4  11  24  42  70  97 133 182 222 277 345 392
#     4  11  27  42  66 103 140 176 226 275 339 404
#     4  11  25  43  70  99 136 178 227 281 329 403
#     4  10  23  39  66  96 131 172 222 280 340 399
#     4   9  20  42  65  91 133 171 224 275 329 402
#     4   9  21  44  67  95 130 175 224 278 332 392
#
# _framework density 25.234127000000001
#
# number of rings (size 3 to 8) (size 9 to 14) (size 15 to 20)
#    0.000    1.750    1.250    1.500    8.750    3.500 
#    0.000    0.000    0.000    0.000    0.000    0.000 
#    0.000    0.000    0.000    0.000    0.000    0.000 
#
# Total GULP energy -89411.626109 kJ/mol
# GULP energy per Si atom -5588.226632 kJ/mol
# Density = 2.517669 g / cm^3
# Si number density = 25.234127 Si / 1000 Ang^3
#
#
#
# Elastic Constant Matrix: (Units=GPa)
#
#
# Indices 1 2 3 4 5 6 
#
# 1 56.0063 28.4319 26.9937 -5.0711 -8.0850 20.4362
# 2 28.4319 47.2725 49.8377 14.5466 13.4482 17.2903
# 3 26.9937 49.8377 109.6889 11.3442 5.8909 15.6509
# 4 -5.0711 14.5466 11.3442 49.7945 15.3450 -4.1469
# 5 -8.0850 13.4482 5.8909 15.3450 41.8623 -2.3096
# 6 20.4362 17.2903 15.6509 -4.1469 -2.3096 42.3584
#
#
#
# Elastic Compliance Matrix: (Units=1/GPa)
#
#
# Indices 1 2 3 4 5 6 
#
# 1 0.035058 -0.029078 0.003926 0.006804 0.012782 -0.005133
# 2 -0.029078 0.080588 -0.024927 -0.014674 -0.023300 -0.012363
# 3 0.003926 -0.024927 0.018722 0.001860 0.005552 0.001848
# 4 0.006804 -0.014674 0.001860 0.026100 -0.003559 0.004381
# 5 0.012782 -0.023300 0.005552 -0.003559 0.034521 0.002826
# 6 -0.005133 -0.012363 0.001848 0.004381 0.002826 0.031031
#
#
# Mechanical properties :
#
#
# Convention : Reuss Voigt Hill
#
# Bulk Modulus (GPa) = 29.22972 47.05492 38.14232
# Shear Modulus (GPa) = 14.81128 33.98335 24.39732
#
# Velocity S-wave (km/s) = 2.42534 3.67375 3.11278
# Velocity P-wave (km/s) = 4.41040 6.05666 5.29786
#
# Compressibility (1/GPa) = 0.03421176
#
# Stress axis : x y z
#
# Youngs Moduli (GPa) = 28.52386 12.40884 53.41344
#
# Poissons Ratio (x) = 0.36082 -0.20971
# Poissons Ratio (y) = 0.82941 1.33141
# Poissons Ratio (z) = -0.11199 0.30931
#
# Static dielectric constant tensor:
#      x y z
#    x 2.050750 -0.001920 -0.024990 
#    y -0.001920 2.037240 -0.039100 
#    z -0.024990 -0.039100 2.007570 
# 
# From -- ./inp_files/582320.got.cif
#   From: 2010.05.17/outbox.cif.g08.bks.cpg/sg2_292_cif.got.tgz:582320.got - 2010.06.03 11:33:40.
