data_PCOD9036134
_publ_section_title
;
Structure prediction by ZEFSAII (Michael W. Deem and Ramdas Pophale) SiO2 
 PCOD9036134
Probable space group: P -1
;
_chemical_formula_sum "Si O2"
_cell_formula_units_Z 16
_cell_length_a 8.888775
_cell_length_b 18.853558
_cell_length_c 11.347680
_cell_angle_alpha 42.967095
_cell_angle_beta 39.333117
_cell_angle_gamma 39.286843
_cell_volume 720.047153
_symmetry_space_group_name_H-M "P -1"
_symmetry_group_IT_number 2
_symmetry_cell_setting 'triclinic'
loop_
_space_group_symop_operation_xyz
x,y,z
-x,-y,-z
loop_
_atom_site_type_symbol
_atom_site_label
_atom_site_fract_x
_atom_site_fract_y
_atom_site_fract_z
Si Si1 0.825103 0.784219 0.170321
Si Si2 0.185822 0.550334 0.098330
Si Si3 0.376524 0.211502 0.135251
Si Si4 0.093438 0.944784 0.880817
Si Si5 0.991259 0.376257 0.536950
Si Si6 0.379596 0.849177 0.191712
Si Si7 0.167006 0.676419 0.549242
Si Si8 0.388552 0.459000 0.838935
O O1 0.804484 0.714915 0.381429
O O2 0.539453 0.865923 0.182258
O O3 0.005422 0.684754 0.085762
O O4 0.981450 0.853654 0.032333
O O5 0.075300 0.471635 0.326822
O O6 0.500000 0.500000 0.000000
O O7 0.191945 0.529692 0.979713
O O8 0.583987 0.127206 0.212700
O O9 0.074834 0.245115 0.311040
O O10 0.473375 0.156239 0.014574
O O11 0.395764 0.333459 0.976786
O O12 0.932592 0.051316 0.757527
O O13 0.000000 0.000000 0.000000
O O14 0.955457 0.313512 0.518490
O O15 0.694376 0.434363 0.705669
O O16 0.380767 0.724422 0.360208
O O17 0.292184 0.541754 0.682090
#
# Coordination Sequence:
#
# PCOD9036134 Si02
#       8
#     2   2   2   2   2   2   2   2
#     4  12  24  44  67  99 137 175 222 274 341 393
#     4  12  25  39  63 100 141 180 210 268 335 398
#     4  11  22  44  69  99 132 179 226 274 327 391
#     4  10  22  47  75  91 126 177 232 280 331 387
#     4  12  24  41  65  96 141 186 214 259 328 410
#     4  11  25  43  69  99 133 177 224 285 326 382
#     4  12  25  39  70 102 136 177 225 268 326 403
#     4  12  23  42  65 100 141 177 221 264 329 405
#
# _framework density 22.220765
#
# number of rings (size 3 to 8) (size 9 to 14) (size 15 to 20)
#    0.000    0.500    5.000    3.750    3.500    0.500 
#    0.000    0.000    0.000    5.250    0.000    0.000 
#    0.000    0.000    0.000    0.000    0.000    0.000 
#
# Total GULP energy -89542.024494 kJ/mol
# GULP energy per Si atom -5596.376531 kJ/mol
# Density = 2.217019 g / cm^3
# Si number density = 22.220765 Si / 1000 Ang^3
#
#
#
# Elastic Constant Matrix: (Units=GPa)
#
#
# Indices 1 2 3 4 5 6 
#
# 1 106.5026 8.9431 11.0961 -2.7919 17.8262 -16.0425
# 2 8.9431 48.1051 9.7797 -6.7570 14.1978 -4.2876
# 3 11.0961 9.7797 73.4985 4.9256 5.4877 7.9678
# 4 -2.7919 -6.7570 4.9256 24.1461 -3.3294 0.8744
# 5 17.8262 14.1978 5.4877 -3.3294 40.2238 -6.7307
# 6 -16.0425 -4.2876 7.9678 0.8744 -6.7307 43.1441
#
#
#
# Elastic Compliance Matrix: (Units=1/GPa)
#
#
# Indices 1 2 3 4 5 6 
#
# 1 0.010809 -0.000048 -0.001808 0.000943 -0.003824 0.003732
# 2 -0.000048 0.024742 -0.003360 0.006517 -0.007418 0.001772
# 3 -0.001808 -0.003360 0.015110 -0.004239 -0.001074 -0.003878
# 4 0.000943 0.006517 -0.004239 0.044409 0.001729 0.001151
# 5 -0.003824 -0.007418 -0.001074 0.001729 0.029910 0.002670
# 6 0.003732 0.001772 -0.003878 0.001151 0.002670 0.025852
#
#
# Mechanical properties :
#
#
# Convention : Reuss Voigt Hill
#
# Bulk Modulus (GPa) = 24.85711 31.97156 28.41433
# Shear Modulus (GPa) = 28.62475 34.72195 31.67335
#
# Velocity S-wave (km/s) = 3.59304 3.95725 3.77954
# Velocity P-wave (km/s) = 5.33141 5.94131 5.64460
#
# Compressibility (1/GPa) = 0.04022994
#
# Stress axis : x y z
#
# Youngs Moduli (GPa) = 92.51710 40.41633 66.17934
#
# Poissons Ratio (x) = 0.00195 0.11963
# Poissons Ratio (y) = 0.00446 0.22236
# Poissons Ratio (z) = 0.16724 0.13580
#
# Static dielectric constant tensor:
#      x y z
#    x 1.851950 -0.028260 0.023880 
#    y -0.028260 1.850650 -0.005830 
#    z 0.023880 -0.005830 1.781390 
# 
# From -- ./inp_files/274197.got.cif
#   From: 2010.05.17/outbox.cif.g08.bks.cpg/sg2_138_cif.got.tgz:274197.got - 2010.06.03 11:33:40.
