data_PCOD9036206
_publ_section_title
;
Structure prediction by ZEFSAII (Michael W. Deem and Ramdas Pophale) SiO2 
 PCOD9036206
Probable space group: P -1
;
_chemical_formula_sum "Si O2"
_cell_formula_units_Z 15
_cell_length_a 11.712444
_cell_length_b 6.432872
_cell_length_c 10.876309
_cell_angle_alpha 80.727016
_cell_angle_beta 66.444715
_cell_angle_gamma 50.129212
_cell_volume 571.245882
_symmetry_space_group_name_H-M "P -1"
_symmetry_group_IT_number 2
_symmetry_cell_setting 'triclinic'
loop_
_space_group_symop_operation_xyz
x,y,z
-x,-y,-z
loop_
_atom_site_type_symbol
_atom_site_label
_atom_site_fract_x
_atom_site_fract_y
_atom_site_fract_z
Si Si1 0.000000 0.000000 0.500000
Si Si2 0.463813 0.865101 0.924012
Si Si3 0.589445 0.088940 0.521607
Si Si4 0.141375 0.206026 0.371026
Si Si5 0.740894 0.313335 0.357861
Si Si6 0.940835 0.391840 0.850433
Si Si7 0.218403 0.346054 0.854580
Si Si8 0.760630 0.229659 0.832250
O O1 0.000774 0.260860 0.509111
O O2 0.846264 0.208874 0.445783
O O3 0.618532 0.556531 0.851582
O O4 0.396000 0.057246 0.815789
O O5 0.325772 0.858103 0.041232
O O6 0.500000 0.000000 0.000000
O O7 0.704686 0.104028 0.380792
O O8 0.441044 0.395980 0.595374
O O9 0.500000 0.000000 0.500000
O O10 0.704716 0.907550 0.603399
O O11 0.097924 0.407223 0.262280
O O12 0.172650 0.940592 0.309169
O O13 0.816654 0.399841 0.224010
O O14 0.908465 0.191551 0.836455
O O15 0.103319 0.291264 0.855503
O O16 0.816162 0.564294 0.997690
#
# Coordination Sequence:
#
# PCOD9036206 Si02
#       8
#     1   2   2   2   2   2   2   2
#     4  10  22  48  70  88 136 190 234 290 352 400
#     4  11  23  44  66 104 148 187 228 282 347 430
#     4  10  25  49  73 100 135 182 242 296 353 406
#     4  11  23  47  72  99 142 181 235 298 350 416
#     4  10  23  45  71 101 135 182 233 298 339 421
#     4  11  24  44  68 105 147 185 222 289 355 422
#     4  11  23  45  69 102 150 182 232 282 350 425
#     4  11  24  42  69 104 138 190 229 280 358 412
#
# _framework density 26.258393000000002
#
# number of rings (size 3 to 8) (size 9 to 14) (size 15 to 20)
#    0.000    1.333    4.000    0.000    3.733    3.733 
#    7.200    3.333    0.000    0.000    0.000    0.000 
#    0.000    0.000    0.000    0.000    0.000    0.000 
#
# Total GULP energy -83738.623880 kJ/mol
# GULP energy per Si atom -5582.574925 kJ/mol
# Density = 2.619863 g / cm^3
# Si number density = 26.258393 Si / 1000 Ang^3
#
#
#
# Elastic Constant Matrix: (Units=GPa)
#
#
# Indices 1 2 3 4 5 6 
#
# 1 194.7165 14.8024 25.4657 -25.4092 25.6195 23.8273
# 2 14.8024 71.0026 22.3407 -14.1122 20.0583 -7.9856
# 3 25.4657 22.3407 92.8914 -11.9219 19.6947 2.1868
# 4 -25.4092 -14.1122 -11.9219 58.0136 3.2068 1.9516
# 5 25.6195 20.0583 19.6947 3.2068 44.5837 -9.8054
# 6 23.8273 -7.9856 2.1868 1.9516 -9.8054 51.9153
#
#
#
# Elastic Compliance Matrix: (Units=1/GPa)
#
#
# Indices 1 2 3 4 5 6 
#
# 1 0.006763 0.000328 -0.000333 0.003391 -0.005037 -0.004118
# 2 0.000328 0.017777 -0.002300 0.004357 -0.007231 0.001151
# 3 -0.000333 -0.002300 0.012797 0.002259 -0.004977 -0.001765
# 4 0.003391 0.004357 0.002259 0.020742 -0.007079 -0.003098
# 5 -0.005037 -0.007231 -0.004977 -0.007079 0.033025 0.007913
# 6 -0.004118 0.001151 -0.001765 -0.003098 0.007913 0.023015
#
#
# Mechanical properties :
#
#
# Convention : Reuss Voigt Hill
#
# Bulk Modulus (GPa) = 30.55585 53.75867 42.15726
# Shear Modulus (GPa) = 38.56878 50.63597 44.60238
#
# Velocity S-wave (km/s) = 3.83667 4.39609 4.12587
# Velocity P-wave (km/s) = 5.59362 6.80330 6.22790
#
# Compressibility (1/GPa) = 0.03272695
#
# Stress axis : x y z
#
# Youngs Moduli (GPa) = 147.85461 56.25112 78.14635
#
# Poissons Ratio (x) = -0.01847 0.02603
# Poissons Ratio (y) = -0.04856 0.17977
# Poissons Ratio (z) = 0.04926 0.12940
#
# Static dielectric constant tensor:
#      x y z
#    x 1.758740 -0.140480 0.280370 
#    y -0.140480 2.057640 0.220450 
#    z 0.280370 0.220450 1.527180 
# 
# From -- ./inp_files/410254.got.cif
#   From: 2010.05.17/outbox.cif.g08.bks.cpg/sg2_206_cif.got.tgz:410254.got - 2010.06.03 11:33:40.
