data_PCOD9036159
_publ_section_title
;
Structure prediction by ZEFSAII (Michael W. Deem and Ramdas Pophale) SiO2 
 PCOD9036159
Probable space group: P -1
;
_chemical_formula_sum "Si O2"
_cell_formula_units_Z 16
_cell_length_a 13.709190
_cell_length_b 6.775145
_cell_length_c 8.979950
_cell_angle_alpha 98.770786
_cell_angle_beta 104.300312
_cell_angle_gamma 128.896326
_cell_volume 574.339478
_symmetry_space_group_name_H-M "P -1"
_symmetry_group_IT_number 2
_symmetry_cell_setting 'triclinic'
loop_
_space_group_symop_operation_xyz
x,y,z
-x,-y,-z
loop_
_atom_site_type_symbol
_atom_site_label
_atom_site_fract_x
_atom_site_fract_y
_atom_site_fract_z
Si Si1 0.449546 0.589529 0.115778
Si Si2 0.626447 0.762873 0.675430
Si Si3 0.193290 0.322180 0.705699
Si Si4 0.698976 0.213302 0.930810
Si Si5 0.868456 0.568488 0.766462
Si Si6 0.091812 0.979362 0.320225
Si Si7 0.157653 0.848959 0.775858
Si Si8 0.299688 0.795547 0.610358
O O1 0.365642 0.367985 0.191594
O O2 0.578364 0.876432 0.283358
O O3 0.500000 0.500000 0.000000
O O4 0.367628 0.669518 0.032056
O O5 0.500000 0.500000 0.500000
O O6 0.776446 0.975816 0.671397
O O7 0.600719 0.947563 0.752981
O O8 0.136263 0.148730 0.509385
O O9 0.308827 0.625112 0.710503
O O10 0.207138 0.143111 0.791187
O O11 0.070780 0.286101 0.733687
O O12 0.829127 0.451001 0.902523
O O13 0.740062 0.122281 0.067910
O O14 0.905015 0.850316 0.788798
O O15 0.737787 0.342299 0.580424
O O16 0.005910 0.648904 0.767784
O O17 0.166371 0.739010 0.613100
#
# Coordination Sequence:
#
# PCOD9036159 Si02
#       8
#     2   2   2   2   2   2   2   2
#     4  12  30  56  78 108 157 210 269 327 391 471
#     4  12  28  46  80 119 155 203 265 332 385 455
#     4   9  22  43  74 114 159 200 251 314 391 460
#     4  12  28  49  77 114 157 212 256 316 405 469
#     4  10  22  47  77 117 159 196 261 320 391 463
#     4   9  20  45  74 113 160 199 250 326 380 458
#     4  11  25  44  74 119 161 208 244 320 387 482
#     4  11  25  44  82 110 149 209 266 320 385 460
#
# _framework density 27.858087999999999
#
# number of rings (size 3 to 8) (size 9 to 14) (size 15 to 20)
#    0.000    1.250    1.250    3.000    8.750    5.000 
#    0.000    1.875    0.000    0.750    0.000    0.000 
#    0.000    0.000    0.000    0.000    0.000    0.000 
#
# Total GULP energy -89642.595247 kJ/mol
# GULP energy per Si atom -5602.662203 kJ/mol
# Density = 2.779468 g / cm^3
# Si number density = 27.858088 Si / 1000 Ang^3
#
#
#
# Elastic Constant Matrix: (Units=GPa)
#
#
# Indices 1 2 3 4 5 6 
#
# 1 143.0079 49.0864 28.7282 -16.9450 -5.7381 5.8758
# 2 49.0864 148.4025 39.6861 -22.4554 -6.5355 -3.9826
# 3 28.7282 39.6861 118.5527 -17.1051 -12.3779 -14.9633
# 4 -16.9450 -22.4554 -17.1051 38.1028 -11.4448 -2.3062
# 5 -5.7381 -6.5355 -12.3779 -11.4448 39.3639 -3.4376
# 6 5.8758 -3.9826 -14.9633 -2.3062 -3.4376 55.9392
#
#
#
# Elastic Compliance Matrix: (Units=1/GPa)
#
#
# Indices 1 2 3 4 5 6 
#
# 1 0.008275 -0.002111 -0.001002 0.002247 0.001095 -0.001128
# 2 -0.002111 0.008546 -0.001479 0.004043 0.001884 0.000717
# 3 -0.001002 -0.001479 0.010863 0.005220 0.004841 0.003418
# 4 0.002247 0.004043 0.005220 0.036257 0.013511 0.003773
# 5 0.001095 0.001884 0.004841 0.013511 0.031660 0.003817
# 6 -0.001128 0.000717 0.003418 0.003773 0.003817 0.019351
#
#
# Mechanical properties :
#
#
# Convention : Reuss Voigt Hill
#
# Bulk Modulus (GPa) = 54.05408 71.66275 62.85841
# Shear Modulus (GPa) = 38.37207 46.17869 42.27538
#
# Velocity S-wave (km/s) = 3.71538 4.07583 3.89977
# Velocity P-wave (km/s) = 6.15230 6.92314 6.54907
#
# Compressibility (1/GPa) = 0.01849999
#
# Stress axis : x y z
#
# Youngs Moduli (GPa) = 120.84437 117.01113 92.05561
#
# Poissons Ratio (x) = 0.24703 0.09227
# Poissons Ratio (y) = 0.25512 0.13612
# Poissons Ratio (z) = 0.12113 0.17302
#
# Static dielectric constant tensor:
#      x y z
#    x 2.199860 -0.008280 0.085250 
#    y -0.008280 2.143800 0.090150 
#    z 0.085250 0.090150 2.321240 
# 
# From -- ./inp_files/328892.got.cif
#   From: 2010.05.17/outbox.cif.g08.bks.cpg/sg2_165_cif.got.tgz:328892.got - 2010.06.03 11:33:40.
