data_PCOD9036544
_publ_section_title
;
Structure prediction by ZEFSAII (Michael W. Deem and Ramdas Pophale) SiO2 
 PCOD9036544
Probable space group: P -1
;
_chemical_formula_sum "Si O2"
_cell_formula_units_Z 16
_cell_length_a 10.490817
_cell_length_b 12.903814
_cell_length_c 14.602508
_cell_angle_alpha 56.211402
_cell_angle_beta 40.656683
_cell_angle_gamma 87.248625
_cell_volume 774.234669
_symmetry_space_group_name_H-M "P -1"
_symmetry_group_IT_number 2
_symmetry_cell_setting 'triclinic'
loop_
_space_group_symop_operation_xyz
x,y,z
-x,-y,-z
loop_
_atom_site_type_symbol
_atom_site_label
_atom_site_fract_x
_atom_site_fract_y
_atom_site_fract_z
Si Si1 0.253949 0.345358 0.370354
Si Si2 0.754363 0.097488 0.246885
Si Si3 0.187718 0.172074 0.667075
Si Si4 0.742566 0.407755 0.831217
Si Si5 0.874370 0.574194 0.880944
Si Si6 0.081327 0.755869 0.101100
Si Si7 0.796698 0.519529 0.210629
Si Si8 0.863991 0.812153 0.688589
O O1 0.119658 0.203370 0.590944
O O2 0.167096 0.452588 0.362949
O O3 0.186682 0.269834 0.342637
O O4 0.579238 0.465972 0.139069
O O5 0.500000 0.000000 0.500000
O O6 0.817154 0.978854 0.261555
O O7 0.705704 0.131411 0.153750
O O8 0.020730 0.296082 0.032653
O O9 0.993973 0.146533 0.861220
O O10 0.488444 0.356654 0.435229
O O11 0.821537 0.493596 0.847507
O O12 0.833226 0.305127 0.838357
O O13 0.420914 0.279056 0.066188
O O14 0.000554 0.765890 0.699385
O O15 0.049705 0.545478 0.847096
O O16 0.830822 0.586236 0.263615
O O17 0.000000 0.000000 0.500000
#
# Coordination Sequence:
#
# PCOD9036544 Si02
#       8
#     2   2   2   2   2   2   2   2
#     4   9  19  32  55  82 115 149 190 236 301 344
#     4  10  23  38  58  86 116 155 203 245 286 344
#     4  12  22  38  60  88 124 159 188 246 298 349
#     4   8  16  35  56  76 111 151 189 235 284 350
#     4   8  15  34  52  78 112 148 187 242 278 345
#     4   9  21  40  61  83 118 160 202 234 294 357
#     4   9  21  38  59  84 119 158 202 230 294 354
#     4   9  17  31  55  84 113 145 195 244 294 338
#
# _framework density 20.665569999999999
#
# number of rings (size 3 to 8) (size 9 to 14) (size 15 to 20)
#    0.750    2.000    0.000    3.000    1.750    3.500 
#    4.500    0.000    0.000    0.750    0.000    0.000 
#    0.000    0.000    0.000    0.000    0.000    0.000 
#
# Total GULP energy -89085.831828 kJ/mol
# GULP energy per Si atom -5567.864489 kJ/mol
# Density = 2.061853 g / cm^3
# Si number density = 20.665570 Si / 1000 Ang^3
#
#
#
# Elastic Constant Matrix: (Units=GPa)
#
#
# Indices 1 2 3 4 5 6 
#
# 1 34.4960 16.4306 4.4869 2.3670 13.7626 -12.9637
# 2 16.4306 117.1463 23.1004 -14.9183 7.8609 -24.0522
# 3 4.4869 23.1004 61.7180 -14.8354 8.3832 -6.8286
# 4 2.3670 -14.9183 -14.8354 30.8421 -3.5385 9.2299
# 5 13.7626 7.8609 8.3832 -3.5385 25.2977 -6.8965
# 6 -12.9637 -24.0522 -6.8286 9.2299 -6.8965 20.0551
#
#
#
# Elastic Compliance Matrix: (Units=1/GPa)
#
#
# Indices 1 2 3 4 5 6 
#
# 1 0.051134 -0.001179 -0.000984 -0.016911 -0.020784 0.031940
# 2 -0.001179 0.011881 -0.002975 0.000801 0.001487 0.012617
# 3 -0.000984 -0.002975 0.019735 0.008490 -0.004714 -0.003012
# 4 -0.016911 0.000801 0.008490 0.046824 0.005387 -0.026776
# 5 -0.020784 0.001487 -0.004714 0.005387 0.053407 0.002630
# 6 0.031940 0.012617 -0.003012 -0.026776 0.002630 0.097842
#
#
# Mechanical properties :
#
#
# Convention : Reuss Voigt Hill
#
# Bulk Modulus (GPa) = 13.79788 33.48846 23.64317
# Shear Modulus (GPa) = 15.86014 26.52846 21.19430
#
# Velocity S-wave (km/s) = 2.77332 3.58677 3.20595
# Velocity P-wave (km/s) = 4.11659 5.77870 5.01696
#
# Compressibility (1/GPa) = 0.07247488
#
# Stress axis : x y z
#
# Youngs Moduli (GPa) = 19.55659 84.16841 50.67012
#
# Poissons Ratio (x) = 0.09922 0.04986
# Poissons Ratio (y) = 0.02305 0.15072
# Poissons Ratio (z) = 0.01925 0.25037
#
# Static dielectric constant tensor:
#      x y z
#    x 1.688080 -0.152830 0.007550 
#    y -0.152830 1.519570 -0.064910 
#    z 0.007550 -0.064910 1.774240 
# 
# From -- ./inp_files/569521.got.cif
#   From: 2010.05.17/outbox.cif.g08.bks.cpg/sg2_285_cif.got.tgz:569521.got - 2010.06.03 11:33:40.
