data_PCOD9036337
_publ_section_title
;
Structure prediction by ZEFSAII (Michael W. Deem and Ramdas Pophale) SiO2 
 PCOD9036337
Probable space group: P -1
;
_chemical_formula_sum "Si O2"
_cell_formula_units_Z 15
_cell_length_a 13.620874
_cell_length_b 22.094451
_cell_length_c 5.171710
_cell_angle_alpha 94.614809
_cell_angle_beta 105.711971
_cell_angle_gamma 23.717691
_cell_volume 543.355964
_symmetry_space_group_name_H-M "P -1"
_symmetry_group_IT_number 2
_symmetry_cell_setting 'triclinic'
loop_
_space_group_symop_operation_xyz
x,y,z
-x,-y,-z
loop_
_atom_site_type_symbol
_atom_site_label
_atom_site_fract_x
_atom_site_fract_y
_atom_site_fract_z
Si Si1 0.079520 0.646773 0.556492
Si Si2 0.231677 0.822064 0.528177
Si Si3 0.788673 0.541406 0.120616
Si Si4 0.738467 0.394597 0.826002
Si Si5 0.500000 0.000000 0.500000
Si Si6 0.349686 0.211266 0.171367
Si Si7 0.439896 0.802032 0.312640
Si Si8 0.135015 0.067454 0.895865
O O1 0.090994 0.570893 0.618658
O O2 0.146855 0.618130 0.294139
O O3 0.288214 0.564389 0.888025
O O4 0.778137 0.843412 0.458152
O O5 0.357560 0.780876 0.340849
O O6 0.088803 0.835367 0.433943
O O7 0.496257 0.678238 0.852563
O O8 0.000000 0.000000 0.500000
O O9 0.690671 0.656650 0.235712
O O10 0.023281 0.410577 0.021536
O O11 0.500000 0.500000 0.500000
O O12 0.985617 0.207377 0.963287
O O13 0.400724 0.121398 0.340293
O O14 0.478521 0.199891 0.395070
O O15 0.554170 0.088250 0.029960
O O16 0.181782 0.981528 0.068703
#
# Coordination Sequence:
#
# PCOD9036337 Si02
#       8
#     2   2   2   2   1   2   2   2
#     4  11  26  48  74 111 149 199 249 317 374 454
#     4  12  25  46  68 104 150 190 246 303 373 444
#     4  11  27  45  73 107 146 197 245 311 369 451
#     4  12  27  48  76 112 151 197 255 314 383 453
#     4  10  22  50  72 108 146 200 246 314 374 452
#     4  11  24  48  72 107 147 188 254 302 381 442
#     4  12  25  44  74 107 144 197 247 306 374 446
#     4  12  26  45  77 105 147 195 244 314 371 454
#
# _framework density 27.606214000000001
#
# number of rings (size 3 to 8) (size 9 to 14) (size 15 to 20)
#    0.000    0.533    4.000    2.800    3.733    3.733 
#    7.200    0.000    0.000    0.000    0.000    0.000 
#    0.000    0.000    0.000    0.000    0.000    0.000 
#
# Total GULP energy -83747.903035 kJ/mol
# GULP energy per Si atom -5583.193536 kJ/mol
# Density = 2.754338 g / cm^3
# Si number density = 27.606214 Si / 1000 Ang^3
#
#
#
# Elastic Constant Matrix: (Units=GPa)
#
#
# Indices 1 2 3 4 5 6 
#
# 1 71.8940 20.6511 12.1690 5.2087 -8.8970 9.4697
# 2 20.6511 130.9002 40.5216 -26.3130 0.7566 14.3110
# 3 12.1690 40.5216 84.9030 1.2428 2.3686 -0.2816
# 4 5.2087 -26.3130 1.2428 43.6516 5.6751 -1.9742
# 5 -8.8970 0.7566 2.3686 5.6751 45.0354 -11.7543
# 6 9.4697 14.3110 -0.2816 -1.9742 -11.7543 44.2737
#
#
#
# Elastic Compliance Matrix: (Units=1/GPa)
#
#
# Indices 1 2 3 4 5 6 
#
# 1 0.015823 -0.002849 -0.000946 -0.004084 0.003273 -0.001783
# 2 -0.002849 0.011628 -0.005199 0.007646 -0.002353 -0.003466
# 3 -0.000946 -0.005199 0.014449 -0.003355 0.000043 0.001836
# 4 -0.004084 0.007646 -0.003355 0.028651 -0.004790 -0.001614
# 5 0.003273 -0.002353 0.000043 -0.004790 0.025199 0.006537
# 6 -0.001783 -0.003466 0.001836 -0.001614 0.006537 0.025764
#
#
# Mechanical properties :
#
#
# Convention : Reuss Voigt Hill
#
# Bulk Modulus (GPa) = 41.81770 48.26454 45.04112
# Shear Modulus (GPa) = 33.90490 40.88250 37.39370
#
# Velocity S-wave (km/s) = 3.50832 3.85244 3.68440
# Velocity P-wave (km/s) = 5.62066 6.10816 5.86947
#
# Compressibility (1/GPa) = 0.02391332
#
# Stress axis : x y z
#
# Youngs Moduli (GPa) = 63.19719 86.00084 69.20858
#
# Poissons Ratio (x) = 0.24498 0.06546
# Poissons Ratio (y) = 0.18002 0.35982
# Poissons Ratio (z) = 0.05977 0.44713
#
# Static dielectric constant tensor:
#      x y z
#    x 2.243880 -0.090140 0.079200 
#    y -0.090140 2.108450 0.016370 
#    z 0.079200 0.016370 2.241750 
# 
# From -- ./inp_files/65425.got.cif
#   From: 2010.05.17/outbox.cif.g08.bks.cpg/sg2_33_cif.got.tgz:65425.got - 2010.06.03 11:33:40.
