data_PCOD9036906
_publ_section_title
;
Structure prediction by ZEFSAII (Michael W. Deem and Ramdas Pophale) SiO2 
 PCOD9036906
Probable space group: P -1
;
_chemical_formula_sum "Si O2"
_cell_formula_units_Z 16
_cell_length_a 10.372758
_cell_length_b 9.608190
_cell_length_c 12.954720
_cell_angle_alpha 110.109216
_cell_angle_beta 33.197855
_cell_angle_gamma 109.957879
_cell_volume 660.208423
_symmetry_space_group_name_H-M "P -1"
_symmetry_group_IT_number 2
_symmetry_cell_setting 'triclinic'
loop_
_space_group_symop_operation_xyz
x,y,z
-x,-y,-z
loop_
_atom_site_type_symbol
_atom_site_label
_atom_site_fract_x
_atom_site_fract_y
_atom_site_fract_z
Si Si1 0.409372 0.920804 0.413866
Si Si2 0.842294 0.138294 0.646920
Si Si3 0.317441 0.550708 0.857267
Si Si4 0.134261 0.222871 0.948002
Si Si5 0.593814 0.197134 0.264422
Si Si6 0.166825 0.376655 0.388327
Si Si7 0.726255 0.149627 0.954728
Si Si8 0.923261 0.842887 0.796450
O O1 0.317464 0.859664 0.347610
O O2 0.663333 0.870037 0.255340
O O3 0.207976 0.852453 0.607219
O O4 0.432786 0.099357 0.426579
O O5 0.691894 0.139545 0.853027
O O6 0.035128 0.283079 0.546172
O O7 0.000000 0.000000 0.500000
O O8 0.181154 0.389772 0.916014
O O9 0.382779 0.625552 0.720514
O O10 0.571643 0.550797 0.742073
O O11 0.180127 0.677852 0.039232
O O12 0.864459 0.160713 0.089858
O O13 0.164413 0.216601 0.049697
O O14 0.527066 0.140405 0.176776
O O15 0.000000 0.500000 0.500000
O O16 0.174720 0.262936 0.258152
O O17 0.868547 0.010255 0.849397
#
# Coordination Sequence:
#
# PCOD9036906 Si02
#       8
#     2   2   2   2   2   2   2   2
#     4  11  23  41  67  95 125 170 205 267 325 364
#     4  11  21  39  64  95 132 156 207 267 311 389
#     4  10  24  40  67  88 127 172 206 260 322 367
#     4  12  24  46  60  93 134 167 219 260 308 377
#     4  10  24  42  66  91 125 170 222 260 301 379
#     4  11  24  41  63  99 131 161 207 259 326 390
#     4  10  23  39  65  96 124 167 217 253 324 372
#     4  11  25  41  67  97 130 164 210 265 317 384
#
# _framework density 24.234770999999999
#
# number of rings (size 3 to 8) (size 9 to 14) (size 15 to 20)
#    0.750    0.500    3.750    3.000    3.500    2.000 
#    0.000    0.000    0.000    3.750    0.000    0.000 
#    0.000    0.000    0.000    0.000    0.000    0.000 
#
# Total GULP energy -89374.322324 kJ/mol
# GULP energy per Si atom -5585.895145 kJ/mol
# Density = 2.417961 g / cm^3
# Si number density = 24.234771 Si / 1000 Ang^3
#
#
#
# Elastic Constant Matrix: (Units=GPa)
#
#
# Indices 1 2 3 4 5 6 
#
# 1 79.7867 -8.2954 17.0189 4.2228 -5.8864 7.0564
# 2 -8.2954 120.5470 15.5376 0.2327 -6.8055 -4.8420
# 3 17.0189 15.5376 73.6264 -10.2624 -11.3540 -4.8608
# 4 4.2228 0.2327 -10.2624 35.5849 -1.3298 -11.1976
# 5 -5.8864 -6.8055 -11.3540 -1.3298 38.8791 -5.0450
# 6 7.0564 -4.8420 -4.8608 -11.1976 -5.0450 26.7756
#
#
#
# Elastic Compliance Matrix: (Units=1/GPa)
#
#
# Indices 1 2 3 4 5 6 
#
# 1 0.014569 0.001367 -0.004824 -0.005223 -0.000006 -0.006653
# 2 0.001367 0.008753 -0.001970 -0.000453 0.001267 0.000914
# 3 -0.004824 -0.001970 0.017763 0.008691 0.005554 0.008821
# 4 -0.005223 -0.000453 0.008691 0.037617 0.005503 0.019641
# 5 -0.000006 0.001267 0.005554 0.005503 0.028918 0.008989
# 6 -0.006653 0.000914 0.008821 0.019641 0.008989 0.050775
#
#
# Mechanical properties :
#
#
# Convention : Reuss Voigt Hill
#
# Bulk Modulus (GPa) = 33.08041 35.83137 34.45589
# Shear Modulus (GPa) = 27.88187 36.89450 32.38819
#
# Velocity S-wave (km/s) = 3.39557 3.90600 3.65969
# Velocity P-wave (km/s) = 5.39006 5.92956 5.66624
#
# Compressibility (1/GPa) = 0.03022938
#
# Stress axis : x y z
#
# Youngs Moduli (GPa) = 68.63890 114.25088 56.29552
#
# Poissons Ratio (x) = -0.15617 0.27158
# Poissons Ratio (y) = -0.09382 0.11093
# Poissons Ratio (z) = 0.33113 0.22513
#
# Static dielectric constant tensor:
#      x y z
#    x 1.981710 -0.002510 -0.022910 
#    y -0.002510 1.950610 -0.003960 
#    z -0.022910 -0.003960 1.918940 
# 
# From -- ./inp_files/513311.got.cif
#   From: 2010.05.17/outbox.cif.g08.bks.cpg/sg2_257_cif.got.tgz:513311.got - 2010.06.03 11:33:40.
