data_PCOD9036915
_publ_section_title
;
Structure prediction by ZEFSAII (Michael W. Deem and Ramdas Pophale) SiO2 
 PCOD9036915
Probable space group: P -1
;
_chemical_formula_sum "Si O2"
_cell_formula_units_Z 16
_cell_length_a 9.004062
_cell_length_b 9.562348
_cell_length_c 14.905380
_cell_angle_alpha 82.095989
_cell_angle_beta 50.533526
_cell_angle_gamma 115.503118
_cell_volume 721.899696
_symmetry_space_group_name_H-M "P -1"
_symmetry_group_IT_number 2
_symmetry_cell_setting 'triclinic'
loop_
_space_group_symop_operation_xyz
x,y,z
-x,-y,-z
loop_
_atom_site_type_symbol
_atom_site_label
_atom_site_fract_x
_atom_site_fract_y
_atom_site_fract_z
Si Si1 0.233213 0.142615 0.469013
Si Si2 0.644429 0.509265 0.859524
Si Si3 0.747877 0.298705 0.650463
Si Si4 0.320246 0.779664 0.115562
Si Si5 0.587864 0.085780 0.262548
Si Si6 0.950392 0.353227 0.954875
Si Si7 0.486329 0.462487 0.732249
Si Si8 0.799005 0.101237 0.353449
O O1 0.490576 0.187004 0.328863
O O2 0.324477 0.350138 0.420605
O O3 0.164843 0.030315 0.598632
O O4 0.000000 0.000000 0.500000
O O5 0.535113 0.296411 0.918412
O O6 0.571223 0.548621 0.792467
O O7 0.959436 0.680280 0.728778
O O8 0.500000 0.500000 0.000000
O O9 0.794505 0.261759 0.736165
O O10 0.532947 0.318062 0.722535
O O11 0.000000 0.500000 0.500000
O O12 0.669076 0.135776 0.628234
O O13 0.134761 0.650312 0.113053
O O14 0.500000 0.000000 0.000000
O O15 0.791873 0.111525 0.247902
O O16 0.707579 0.154235 0.112255
O O17 0.191602 0.368328 0.847269
O O18 0.000000 0.500000 0.000000
O O19 0.500000 0.000000 0.500000
#
# Coordination Sequence:
#
# PCOD9036915 Si02
#       8
#     2   2   2   2   2   2   2   2
#     4  11  21  39  65  96 131 172 233 281 330 400
#     4  11  23  42  67  98 135 172 226 283 344 405
#     4  11  26  47  67  94 143 185 225 272 348 414
#     4  11  25  46  70  99 136 185 225 281 346 413
#     4  11  23  41  67  94 133 182 221 279 343 406
#     4  12  23  44  72 103 136 170 234 287 340 405
#     4  11  24  41  66  98 131 176 219 286 336 402
#     4  10  23  39  65  98 134 177 227 281 342 401
#
# _framework density 22.163743
#
# number of rings (size 3 to 8) (size 9 to 14) (size 15 to 20)
#    0.000    1.000    3.750    3.000    7.000    0.500 
#    4.500    1.250    0.000    0.000    0.000    0.000 
#    0.000    0.000    0.000    0.000    0.000    0.000 
#
# Total GULP energy -89216.271440 kJ/mol
# GULP energy per Si atom -5576.016965 kJ/mol
# Density = 2.211330 g / cm^3
# Si number density = 22.163743 Si / 1000 Ang^3
#
#
#
# Elastic Constant Matrix: (Units=GPa)
#
#
# Indices 1 2 3 4 5 6 
#
# 1 108.9181 5.3030 20.7737 -2.3657 29.3488 -3.8518
# 2 5.3030 59.0266 7.8741 -12.8244 10.3899 -9.7160
# 3 20.7737 7.8741 73.0326 -17.9939 11.9681 -14.6634
# 4 -2.3657 -12.8244 -17.9939 34.6418 -3.4228 4.9639
# 5 29.3488 10.3899 11.9681 -3.4228 41.6719 0.6391
# 6 -3.8518 -9.7160 -14.6634 4.9639 0.6391 27.0844
#
#
#
# Elastic Compliance Matrix: (Units=1/GPa)
#
#
# Indices 1 2 3 4 5 6 
#
# 1 0.011697 0.000574 -0.002135 -0.001031 -0.007869 0.001088
# 2 0.000574 0.020299 0.001671 0.006856 -0.005492 0.007141
# 3 -0.002135 0.001671 0.018605 0.008497 -0.003695 0.008899
# 4 -0.001031 0.006856 0.008497 0.035642 -0.000502 0.000392
# 5 -0.007869 -0.005492 -0.003695 -0.000502 0.032017 -0.005753
# 6 0.001088 0.007141 0.008899 0.000392 -0.005753 0.044520
#
#
# Mechanical properties :
#
#
# Convention : Reuss Voigt Hill
#
# Bulk Modulus (GPa) = 19.67678 34.31990 26.99834
# Shear Modulus (GPa) = 27.85528 34.48139 31.16834
#
# Velocity S-wave (km/s) = 3.54898 3.94859 3.75410
# Velocity P-wave (km/s) = 5.06861 6.02551 5.56766
#
# Compressibility (1/GPa) = 0.05082132
#
# Stress axis : x y z
#
# Youngs Moduli (GPa) = 85.49195 49.26428 53.74838
#
# Poissons Ratio (x) = -0.02829 0.11475
# Poissons Ratio (y) = -0.04909 -0.08982
# Poissons Ratio (z) = 0.18253 -0.08232
#
# Static dielectric constant tensor:
#      x y z
#    x 1.850880 -0.004460 0.030750 
#    y -0.004460 1.794840 -0.024400 
#    z 0.030750 -0.024400 1.927950 
# 
# From -- ./inp_files/297968.got.cif
#   From: 2010.05.17/outbox.cif.g08.bks.cpg/sg2_149_cif.got.tgz:297968.got - 2010.06.03 11:33:40.
