data_PCOD9036416
_publ_section_title
;
Structure prediction by ZEFSAII (Michael W. Deem and Ramdas Pophale) SiO2 
 PCOD9036416
Probable space group: P -1
;
_chemical_formula_sum "Si O2"
_cell_formula_units_Z 14
_cell_length_a 15.032899
_cell_length_b 10.980242
_cell_length_c 18.380839
_cell_angle_alpha 23.186078
_cell_angle_beta 145.573739
_cell_angle_gamma 138.870911
_cell_volume 675.164856
_symmetry_space_group_name_H-M "P -1"
_symmetry_group_IT_number 2
_symmetry_cell_setting 'triclinic'
loop_
_space_group_symop_operation_xyz
x,y,z
-x,-y,-z
loop_
_atom_site_type_symbol
_atom_site_label
_atom_site_fract_x
_atom_site_fract_y
_atom_site_fract_z
Si Si1 0.914834 0.674156 0.915207
Si Si2 0.372306 0.318457 0.060539
Si Si3 0.730668 0.728231 0.522304
Si Si4 0.616981 0.814700 0.554433
Si Si5 0.230950 0.794630 0.820521
Si Si6 0.475869 0.870873 0.159970
Si Si7 0.196437 0.977441 0.005973
O O1 0.746827 0.831529 0.695302
O O2 0.000000 0.500000 0.000000
O O3 0.281023 0.152446 0.469180
O O4 0.023387 0.934371 0.880728
O O5 0.469857 0.048384 0.317431
O O6 0.242856 0.197339 0.982667
O O7 0.500000 0.500000 0.000000
O O8 0.296068 0.549671 0.940144
O O9 0.557937 0.793079 0.336320
O O10 0.768918 0.369021 0.750052
O O11 0.116604 0.611522 0.895070
O O12 0.830785 0.914108 0.428937
O O13 0.556714 0.463710 0.710367
O O14 0.386549 0.929373 0.892627
O O15 0.313441 0.034412 0.985085
#
# Coordination Sequence:
#
# PCOD9036416 Si02
#       7
#     2   2   2   2   2   2   2
#     4  12  26  39  56  89 136 156 183 251 323 340
#     4  12  19  37  71  88 111 158 212 245 277 359
#     4   9  16  35  63  94 105 147 220 244 263 344
#     4  11  19  37  64  90 119 157 190 254 303 341
#     4  10  23  36  61  99 112 157 207 245 283 363
#     4   9  16  35  63  94 105 147 220 244 263 344
#     4  11  19  37  64  90 119 157 190 254 303 341
#
# _framework density 20.735676999999999
#
# number of rings (size 3 to 8) (size 9 to 14) (size 15 to 20)
#    0.857    0.571    8.571    0.857    0.000    2.286 
#    0.000    0.714    0.000    0.000    0.000    0.000 
#    0.000    0.000    0.000    0.000    0.000    0.000 
#
# Total GULP energy -78002.483776 kJ/mol
# GULP energy per Si atom -5571.605984 kJ/mol
# Density = 2.068848 g / cm^3
# Si number density = 20.735677 Si / 1000 Ang^3
#
#
#
# Elastic Constant Matrix: (Units=GPa)
#
#
# Indices 1 2 3 4 5 6 
#
# 1 75.6528 13.1281 -5.0071 -10.3033 -2.6625 24.5109
# 2 13.1281 132.9056 23.7860 26.7325 6.5178 2.9789
# 3 -5.0071 23.7860 24.0676 7.1676 -7.7056 -12.6408
# 4 -10.3033 26.7325 7.1676 28.8167 -2.9443 1.3266
# 5 -2.6625 6.5178 -7.7056 -2.9443 21.2330 -2.1736
# 6 24.5109 2.9789 -12.6408 1.3266 -2.1736 27.3512
#
#
#
# Elastic Compliance Matrix: (Units=1/GPa)
#
#
# Indices 1 2 3 4 5 6 
#
# 1 0.023653 -0.002616 -0.011461 0.014867 -0.001094 -0.027017
# 2 -0.002616 0.014939 -0.022863 -0.010225 -0.015714 -0.010602
# 3 -0.011461 -0.022863 0.121726 -0.010868 0.055823 0.073982
# 4 0.014867 -0.010225 -0.010868 0.053763 0.006536 -0.019320
# 5 -0.001094 -0.015714 0.055823 0.006536 0.076454 0.034250
# 6 -0.027017 -0.010602 0.073982 -0.019320 0.034250 0.099778
#
#
# Mechanical properties :
#
#
# Convention : Reuss Voigt Hill
#
# Bulk Modulus (GPa) = 11.56899 32.93780 22.25340
# Shear Modulus (GPa) = 10.14184 28.86147 19.50165
#
# Velocity S-wave (km/s) = 2.21396 3.73483 3.07006
# Velocity P-wave (km/s) = 3.48237 5.87518 4.82932
#
# Compressibility (1/GPa) = 0.08643796
#
# Stress axis : x y z
#
# Youngs Moduli (GPa) = 42.27765 66.93787 8.21514
#
# Poissons Ratio (x) = 0.17513 0.09415
# Poissons Ratio (y) = 0.11061 0.18782
# Poissons Ratio (z) = 0.48455 1.53040
#
# Static dielectric constant tensor:
#      x y z
#    x 1.763650 0.027930 -0.014490 
#    y 0.027930 1.794220 0.059230 
#    z -0.014490 0.059230 1.780270 
# 
# From -- ./inp_files/620753.got.cif
#   From: 2010.05.17/outbox.cif.g08.bks.cpg/sg2_311_cif.got.tgz:620753.got - 2010.06.03 11:33:40.
