data_PCOD9036832
_publ_section_title
;
Structure prediction by ZEFSAII (Michael W. Deem and Ramdas Pophale) SiO2 
 PCOD9036832
Probable space group: P -1
;
_chemical_formula_sum "Si O2"
_cell_formula_units_Z 14
_cell_length_a 12.300072
_cell_length_b 19.777811
_cell_length_c 6.413825
_cell_angle_alpha 66.489428
_cell_angle_beta 123.227480
_cell_angle_gamma 150.724863
_cell_volume 626.202620
_symmetry_space_group_name_H-M "P -1"
_symmetry_group_IT_number 2
_symmetry_cell_setting 'triclinic'
loop_
_space_group_symop_operation_xyz
x,y,z
-x,-y,-z
loop_
_atom_site_type_symbol
_atom_site_label
_atom_site_fract_x
_atom_site_fract_y
_atom_site_fract_z
Si Si1 0.166849 0.746371 0.079716
Si Si2 0.707100 0.060206 0.778335
Si Si3 0.233239 0.281006 0.991858
Si Si4 0.273760 0.662350 0.030001
Si Si5 0.603385 0.509322 0.797199
Si Si6 0.241818 0.138052 0.445655
Si Si7 0.481350 0.814947 0.669375
O O1 0.248509 0.871475 0.047722
O O2 0.263311 0.743244 0.996172
O O3 0.278251 0.760085 0.384861
O O4 0.870466 0.601983 0.933521
O O5 0.500000 0.000000 0.500000
O O6 0.624857 0.935985 0.836436
O O7 0.965997 0.184917 0.772982
O O8 0.351910 0.400633 0.113339
O O9 0.201994 0.194557 0.208974
O O10 0.406942 0.358472 0.878594
O O11 0.504529 0.736894 0.303902
O O12 0.333917 0.686982 0.817815
O O13 0.000000 0.500000 0.000000
O O14 0.500000 0.500000 0.500000
O O15 0.316245 0.117022 0.365228
O O16 0.000000 0.000000 0.500000
#
# Coordination Sequence:
#
# PCOD9036832 Si02
#       7
#     2   2   2   2   2   2   2
#     4   9  22  41  64  96 132 172 225 277 331 405
#     4   9  19  41  66  91 125 177 219 276 332 390
#     4  10  23  40  63  95 133 168 222 280 329 397
#     4  11  26  40  66 102 134 184 227 270 344 413
#     4  10  23  39  63  94 128 176 218 271 338 396
#     4  11  26  45  67 101 138 180 233 280 339 411
#     4  10  23  43  68  96 136 176 223 280 338 397
#
# _framework density 22.356981999999999
#
# number of rings (size 3 to 8) (size 9 to 14) (size 15 to 20)
#    0.000    2.000    0.000    0.857    6.000    8.571 
#    0.000    7.143    0.000    0.000    0.000    0.000 
#    0.000    0.000    0.000    0.000    0.000    0.000 
#
# Total GULP energy -78095.289242 kJ/mol
# GULP energy per Si atom -5578.234946 kJ/mol
# Density = 2.230610 g / cm^3
# Si number density = 22.356982 Si / 1000 Ang^3
#
#
#
# Elastic Constant Matrix: (Units=GPa)
#
#
# Indices 1 2 3 4 5 6 
#
# 1 104.0388 57.9574 51.9591 1.0340 10.3132 27.2183
# 2 57.9574 150.2764 68.4235 0.3483 -1.2845 43.7511
# 3 51.9591 68.4235 82.9713 4.2490 13.4755 37.5611
# 4 1.0340 0.3483 4.2490 37.8975 6.0561 0.6308
# 5 10.3132 -1.2845 13.4755 6.0561 30.3651 0.0019
# 6 27.2183 43.7511 37.5611 0.6308 0.0019 34.6143
#
#
#
# Elastic Compliance Matrix: (Units=1/GPa)
#
#
# Indices 1 2 3 4 5 6 
#
# 1 0.014691 -0.002389 -0.005836 0.000735 -0.002647 -0.002214
# 2 -0.002389 0.012564 -0.006288 0.000117 0.004110 -0.007182
# 3 -0.005836 -0.006288 0.034234 -0.001093 -0.013257 -0.024591
# 4 0.000735 0.000117 -0.001093 0.027321 -0.005209 -0.000038
# 5 -0.002647 0.004110 -0.013257 -0.005209 0.040927 0.011364
# 6 -0.002214 -0.007182 -0.024591 -0.000038 0.011364 0.066392
#
#
# Mechanical properties :
#
#
# Convention : Reuss Voigt Hill
#
# Bulk Modulus (GPa) = 30.80297 77.10740 53.95518
# Shear Modulus (GPa) = 21.18857 31.17181 26.18019
#
# Velocity S-wave (km/s) = 3.08188 3.73805 3.42571
# Velocity P-wave (km/s) = 5.14506 7.29347 6.31135
#
# Compressibility (1/GPa) = 0.03246440
#
# Stress axis : x y z
#
# Youngs Moduli (GPa) = 68.06763 79.58985 29.21095
#
# Poissons Ratio (x) = 0.19012 0.17047
# Poissons Ratio (y) = 0.16260 0.18368
# Poissons Ratio (z) = 0.39723 0.50046
#
# Static dielectric constant tensor:
#      x y z
#    x 1.887830 -0.037880 -0.013330 
#    y -0.037880 1.862250 -0.006780 
#    z -0.013330 -0.006780 1.803800 
# 
# From -- ./inp_files/68945.got.cif
#   From: 2010.05.17/outbox.cif.g08.bks.cpg/sg2_35_cif.got.tgz:68945.got - 2010.06.03 11:33:40.
