data_PCOD9036070
_publ_section_title
;
Structure prediction by ZEFSAII (Michael W. Deem and Ramdas Pophale) SiO2 
 PCOD9036070
Probable space group: P -1
;
_chemical_formula_sum "Si O2"
_cell_formula_units_Z 14
_cell_length_a 9.176053
_cell_length_b 5.283824
_cell_length_c 21.745939
_cell_angle_alpha 73.596381
_cell_angle_beta 145.966740
_cell_angle_gamma 91.459648
_cell_volume 521.616096
_symmetry_space_group_name_H-M "P -1"
_symmetry_group_IT_number 2
_symmetry_cell_setting 'triclinic'
loop_
_space_group_symop_operation_xyz
x,y,z
-x,-y,-z
loop_
_atom_site_type_symbol
_atom_site_label
_atom_site_fract_x
_atom_site_fract_y
_atom_site_fract_z
Si Si1 0.201616 0.723873 0.549246
Si Si2 0.838722 0.312809 0.216278
Si Si3 0.723373 0.903572 0.289439
Si Si4 0.958425 0.944244 0.819915
Si Si5 0.694023 0.585489 0.816104
Si Si6 0.665576 0.214996 0.935990
Si Si7 0.380230 0.478133 0.392188
O O1 0.446322 0.534883 0.695253
O O2 0.407723 0.753559 0.564439
O O3 0.000000 0.000000 0.500000
O O4 0.972938 0.660415 0.430501
O O5 0.870755 0.107405 0.299401
O O6 0.527067 0.551410 0.099050
O O7 0.861701 0.142849 0.173061
O O8 0.089558 0.428207 0.298137
O O9 0.476882 0.108596 0.232391
O O10 0.567135 0.843862 0.180749
O O11 0.901473 0.666457 0.840075
O O12 0.688379 0.217871 0.686319
O O13 0.106544 0.017255 0.926079
O O14 0.806908 0.350718 0.925083
O O15 0.500000 0.500000 0.500000
#
# Coordination Sequence:
#
# PCOD9036070 Si02
#       7
#     2   2   2   2   2   2   2
#     4  10  22  47  72 102 142 184 237 291 362 420
#     4  11  24  45  70 101 143 187 236 293 354 422
#     4  10  24  44  71 103 140 185 237 294 349 426
#     4  12  26  44  72 104 144 187 238 291 355 427
#     4  10  24  44  69 103 139 186 234 294 355 418
#     4  11  25  46  69 104 143 191 237 288 354 425
#     4  12  27  44  75 110 142 184 242 301 357 422
#
# _framework density 26.839662000000001
#
# number of rings (size 3 to 8) (size 9 to 14) (size 15 to 20)
#    0.000    1.143    1.429    3.429    4.000    6.857 
#    2.571    0.000    0.000    0.000    0.000    0.000 
#    0.000    0.000    0.000    0.000    0.000    0.000 
#
# Total GULP energy -78329.800732 kJ/mol
# GULP energy per Si atom -5594.985767 kJ/mol
# Density = 2.677857 g / cm^3
# Si number density = 26.839662 Si / 1000 Ang^3
#
#
#
# Elastic Constant Matrix: (Units=GPa)
#
#
# Indices 1 2 3 4 5 6 
#
# 1 140.8827 27.1134 37.1146 0.8778 -3.2653 -13.1947
# 2 27.1134 72.6599 33.1057 10.9813 -2.7846 -0.7131
# 3 37.1146 33.1057 186.9642 13.3726 -30.5086 -0.5358
# 4 0.8778 10.9813 13.3726 41.7725 7.0128 -1.1621
# 5 -3.2653 -2.7846 -30.5086 7.0128 27.3805 12.5999
# 6 -13.1947 -0.7131 -0.5358 -1.1621 12.5999 38.6903
#
#
#
# Elastic Compliance Matrix: (Units=1/GPa)
#
#
# Indices 1 2 3 4 5 6 
#
# 1 0.008401 -0.002641 -0.001943 0.001890 -0.003793 0.004081
# 2 -0.002641 0.016230 -0.002021 -0.003660 0.000425 -0.000878
# 3 -0.001943 -0.002021 0.008361 -0.004268 0.012116 -0.004658
# 4 0.001890 -0.003660 -0.004268 0.028964 -0.015244 0.006352
# 5 -0.003793 0.000425 0.012116 -0.015244 0.063804 -0.022354
# 6 0.004081 -0.000878 -0.004658 0.006352 -0.022354 0.034628
#
#
# Mechanical properties :
#
#
# Convention : Reuss Voigt Hill
#
# Bulk Modulus (GPa) = 50.54820 66.13044 58.33932
# Shear Modulus (GPa) = 27.74844 41.78021 34.76433
#
# Velocity S-wave (km/s) = 3.21886 3.94973 3.60288
# Velocity P-wave (km/s) = 5.71743 6.74486 6.25228
#
# Compressibility (1/GPa) = 0.01978310
#
# Stress axis : x y z
#
# Youngs Moduli (GPa) = 119.03897 61.61542 119.60281
#
# Poissons Ratio (x) = 0.16270 0.23233
# Poissons Ratio (y) = 0.31434 0.24171
# Poissons Ratio (z) = 0.23124 0.12452
#
# Static dielectric constant tensor:
#      x y z
#    x 2.065480 0.068210 0.007550 
#    y 0.068210 2.228220 0.009400 
#    z 0.007550 0.009400 2.119280 
# 
# From -- ./inp_files/585624.got.cif
#   From: 2010.05.17/outbox.cif.g08.bks.cpg/sg2_293_cif.got.tgz:585624.got - 2010.06.03 11:33:40.
