data_PCOD9036577
_publ_section_title
;
Structure prediction by ZEFSAII (Michael W. Deem and Ramdas Pophale) SiO2 
 PCOD9036577
Probable space group: P -1
;
_chemical_formula_sum "Si O2"
_cell_formula_units_Z 16
_cell_length_a 11.365383
_cell_length_b 15.308526
_cell_length_c 7.470974
_cell_angle_alpha 78.260051
_cell_angle_beta 32.279955
_cell_angle_gamma 82.267322
_cell_volume 677.926451
_symmetry_space_group_name_H-M "P -1"
_symmetry_group_IT_number 2
_symmetry_cell_setting 'triclinic'
loop_
_space_group_symop_operation_xyz
x,y,z
-x,-y,-z
loop_
_atom_site_type_symbol
_atom_site_label
_atom_site_fract_x
_atom_site_fract_y
_atom_site_fract_z
Si Si1 0.067887 0.887684 0.272924
Si Si2 0.247269 0.962407 0.389190
Si Si3 0.403202 0.757154 0.786997
Si Si4 0.302105 0.775188 0.505105
Si Si5 0.547923 0.550018 0.106918
Si Si6 0.896172 0.399207 0.154842
Si Si7 0.687269 0.742314 0.752418
Si Si8 0.140823 0.581295 0.189493
O O1 0.139978 0.921961 0.361436
O O2 0.900168 0.800531 0.516331
O O3 0.288097 0.849696 0.923672
O O4 0.914729 0.963977 0.364246
O O5 0.246428 0.877090 0.554875
O O6 0.500000 0.000000 0.000000
O O7 0.405407 0.743502 0.574845
O O8 0.624516 0.756151 0.619624
O O9 0.255453 0.670023 0.094679
O O10 0.097217 0.704292 0.745260
O O11 0.482324 0.774972 0.116748
O O12 0.340763 0.584649 0.459315
O O13 0.500000 0.500000 0.000000
O O14 0.702415 0.638936 0.828543
O O15 0.656059 0.475397 0.115699
O O16 0.965388 0.385599 0.866150
O O17 0.000000 0.500000 0.000000
O O18 0.000000 0.500000 0.500000
#
# Coordination Sequence:
#
# PCOD9036577 Si02
#       8
#     2   2   2   2   2   2   2   2
#     4  11  23  40  73 100 124 177 220 265 343 402
#     4  11  22  45  73  97 134 169 221 276 336 402
#     4  11  23  43  63  97 135 167 226 273 328 395
#     4  10  23  43  67  94 135 176 211 281 335 381
#     4  11  21  37  64  90 129 178 217 268 336 374
#     4  10  23  38  61  96 129 171 223 270 323 400
#     4  11  22  44  66  95 138 173 219 277 331 394
#     4  11  22  38  61  89 128 175 222 272 327 394
#
# _framework density 23.601379999999999
#
# number of rings (size 3 to 8) (size 9 to 14) (size 15 to 20)
#    0.000    1.250    3.750    1.875    1.750    2.500 
#    2.250    2.500    0.000    0.000    0.000    0.000 
#    0.000    0.000    0.000    0.000    0.000    0.000 
#
# Total GULP energy -89097.644591 kJ/mol
# GULP energy per Si atom -5568.602787 kJ/mol
# Density = 2.354766 g / cm^3
# Si number density = 23.601380 Si / 1000 Ang^3
#
#
#
# Elastic Constant Matrix: (Units=GPa)
#
#
# Indices 1 2 3 4 5 6 
#
# 1 78.0363 14.7659 23.4300 -15.1366 -0.3922 6.8567
# 2 14.7659 159.3007 24.6854 -11.2125 -8.3558 -17.0480
# 3 23.4300 24.6854 49.3043 -15.5750 -4.4669 -2.1767
# 4 -15.1366 -11.2125 -15.5750 44.9748 12.1264 -2.9676
# 5 -0.3922 -8.3558 -4.4669 12.1264 30.9674 -5.3135
# 6 6.8567 -17.0480 -2.1767 -2.9676 -5.3135 42.5212
#
#
#
# Elastic Compliance Matrix: (Units=1/GPa)
#
#
# Indices 1 2 3 4 5 6 
#
# 1 0.015842 -0.000723 -0.006477 0.003459 -0.002848 -0.003290
# 2 -0.000723 0.007249 -0.002894 0.000236 0.001975 0.003138
# 3 -0.006477 -0.002894 0.026965 0.006324 0.000861 0.001814
# 4 0.003459 0.000236 0.006324 0.028381 -0.009992 0.000593
# 5 -0.002848 0.001975 0.000861 -0.009992 0.037738 0.005314
# 6 -0.003290 0.003138 0.001814 0.000593 0.005314 0.026105
#
#
# Mechanical properties :
#
#
# Convention : Reuss Voigt Hill
#
# Bulk Modulus (GPa) = 33.47973 45.82265 39.65119
# Shear Modulus (GPa) = 28.99862 38.60998 33.80430
#
# Velocity S-wave (km/s) = 3.50906 4.04904 3.78868
# Velocity P-wave (km/s) = 5.53483 6.42783 5.99797
#
# Compressibility (1/GPa) = 0.02986882
#
# Stress axis : x y z
#
# Youngs Moduli (GPa) = 63.12448 137.95160 37.08537
#
# Poissons Ratio (x) = 0.09971 0.24019
# Poissons Ratio (y) = 0.04562 0.10732
# Poissons Ratio (z) = 0.40884 0.39920
#
# Static dielectric constant tensor:
#      x y z
#    x 2.060840 0.015290 -0.086060 
#    y 0.015290 2.051130 0.012860 
#    z -0.086060 0.012860 1.952410 
# 
# From -- ./inp_files/272298.got.cif
#   From: 2010.05.17/outbox.cif.g08.bks.cpg/sg2_137_cif.got.tgz:272298.got - 2010.06.03 11:33:40.
