data_PCOD9036697
_publ_section_title
;
Structure prediction by ZEFSAII (Michael W. Deem and Ramdas Pophale) SiO2 
 PCOD9036697
Probable space group: P -1
;
_chemical_formula_sum "Si O2"
_cell_formula_units_Z 16
_cell_length_a 19.491796
_cell_length_b 12.258640
_cell_length_c 20.350881
_cell_angle_alpha 31.207811
_cell_angle_beta 163.673016
_cell_angle_gamma 150.016117
_cell_volume 673.074103
_symmetry_space_group_name_H-M "P -1"
_symmetry_group_IT_number 2
_symmetry_cell_setting 'triclinic'
loop_
_space_group_symop_operation_xyz
x,y,z
-x,-y,-z
loop_
_atom_site_type_symbol
_atom_site_label
_atom_site_fract_x
_atom_site_fract_y
_atom_site_fract_z
Si Si1 0.359055 0.681328 0.274723
Si Si2 0.133716 0.597993 0.967003
Si Si3 0.162176 0.617709 0.731695
Si Si4 0.105692 0.046537 0.646769
Si Si5 0.562299 0.844515 0.881684
Si Si6 0.539077 0.837115 0.720120
Si Si7 0.030750 0.887487 0.218355
Si Si8 0.399120 0.540909 0.116736
O O1 0.500000 0.500000 0.500000
O O2 0.266944 0.680687 0.115840
O O3 0.511515 0.930330 0.304079
O O4 0.123190 0.594516 0.152371
O O5 0.298560 0.503500 0.117165
O O6 0.087641 0.811945 0.781922
O O7 0.018942 0.378510 0.693433
O O8 0.039857 0.814618 0.516413
O O9 0.432398 0.708132 0.895281
O O10 0.186238 0.565190 0.857441
O O11 0.389159 0.219265 0.813890
O O12 0.000000 0.000000 0.500000
O O13 0.466363 0.732271 0.780813
O O14 0.873140 0.915554 0.124289
O O15 0.511654 0.654454 0.732698
O O16 0.339977 0.975248 0.452927
O O17 0.848747 0.945308 0.964183
#
# Coordination Sequence:
#
# PCOD9036697 Si02
#       8
#     2   2   2   2   2   2   2   2
#     4  11  26  49  69  94 131 185 237 289 332 405
#     4  11  26  43  67  98 134 182 235 280 342 413
#     4  11  21  38  62 102 139 178 216 283 348 419
#     4  12  24  37  68 102 140 178 220 282 355 420
#     4  10  23  38  68  97 136 179 233 278 345 410
#     4   9  21  39  65  96 140 177 224 279 344 415
#     4   9  20  39  61  99 137 180 219 281 345 415
#     4  11  23  40  63  99 139 173 221 281 351 415
#
# _framework density 23.771526999999999
#
# number of rings (size 3 to 8) (size 9 to 14) (size 15 to 20)
#    0.750    0.750    2.500    2.250    3.500    4.500 
#    0.000    0.625    0.000    1.500    0.000    0.000 
#    0.000    0.000    0.000    0.000    0.000    0.000 
#
# Total GULP energy -89295.722568 kJ/mol
# GULP energy per Si atom -5580.982661 kJ/mol
# Density = 2.371742 g / cm^3
# Si number density = 23.771527 Si / 1000 Ang^3
#
#
#
# Elastic Constant Matrix: (Units=GPa)
#
#
# Indices 1 2 3 4 5 6 
#
# 1 -114.8254 46.6786 -56.0536 18.9297 150.1819 180.2630
# 2 46.6786 63.9594 24.0707 -20.7957 -7.5693 -16.4821
# 3 -56.0536 24.0707 82.9689 -7.4166 49.2496 56.7528
# 4 18.9297 -20.7957 -7.4166 22.8459 -22.1583 -16.7863
# 5 150.1819 -7.5693 49.2496 -22.1583 -47.1340 -109.1688
# 6 180.2630 -16.4821 56.7528 -16.7863 -109.1688 -104.4293
#
#
#
# Elastic Compliance Matrix: (Units=1/GPa)
#
#
# Indices 1 2 3 4 5 6 
#
# 1 0.006368 -0.001650 -0.001666 0.000919 0.003688 0.006344
# 2 -0.001650 0.019353 -0.000439 0.012281 -0.002954 -0.005027
# 3 -0.001666 -0.000439 0.010424 0.005979 0.001092 0.000757
# 4 0.000919 0.012281 0.005979 0.052697 0.003280 -0.009002
# 5 0.003688 -0.002954 0.001092 0.003280 0.017850 -0.011762
# 6 0.006344 -0.005027 0.000757 -0.009002 -0.011762 0.016323
#
#
# Mechanical properties :
#
#
# Convention : Reuss Voigt Hill
#
# Bulk Modulus (GPa) = 34.92352 6.83271 20.87812
# Shear Modulus (GPa) = 35.69675 -24.58301 5.55687
#
# Velocity S-wave (km/s) = 3.87933 -3.21929 1.53059
# Velocity P-wave (km/s) = 5.89820 3.30724 3.45333
#
# Compressibility (1/GPa) = 0.02863400
#
# Stress axis : x y z
#
# Youngs Moduli (GPa) = 157.04402 51.67283 95.93510
#
# Poissons Ratio (x) = 0.08527 0.15979
# Poissons Ratio (y) = 0.25916 0.04212
# Poissons Ratio (z) = 0.26158 0.02269
#
# Static dielectric constant tensor:
#      x y z
#    x 1.938870 0.013960 0.035920 
#    y 0.013960 1.881710 0.018590 
#    z 0.035920 0.018590 2.010170 
# 
# From -- ./inp_files/575956.got.cif
#   From: 2010.05.17/outbox.cif.g08.bks.cpg/sg2_288_cif.got.tgz:575956.got - 2010.06.03 11:33:40.
