data_PCOD9036668
_publ_section_title
;
Structure prediction by ZEFSAII (Michael W. Deem and Ramdas Pophale) SiO2 
 PCOD9036668
Probable space group: P -1
;
_chemical_formula_sum "Si O2"
_cell_formula_units_Z 14
_cell_length_a 11.044867
_cell_length_b 12.271266
_cell_length_c 4.980119
_cell_angle_alpha 115.821900
_cell_angle_beta 69.372775
_cell_angle_gamma 85.244815
_cell_volume 545.796093
_symmetry_space_group_name_H-M "P -1"
_symmetry_group_IT_number 2
_symmetry_cell_setting 'triclinic'
loop_
_space_group_symop_operation_xyz
x,y,z
-x,-y,-z
loop_
_atom_site_type_symbol
_atom_site_label
_atom_site_fract_x
_atom_site_fract_y
_atom_site_fract_z
Si Si1 0.755480 0.215259 0.801935
Si Si2 0.172327 0.473046 0.642455
Si Si3 0.902600 0.024859 0.853070
Si Si4 0.695562 0.982560 0.272146
Si Si5 0.938086 0.371591 0.602981
Si Si6 0.567467 0.830838 0.548534
Si Si7 0.543067 0.678305 0.905249
O O1 0.801351 0.161700 0.005287
O O2 0.728669 0.095944 0.537847
O O3 0.874693 0.261765 0.626970
O O4 0.611150 0.320840 0.025341
O O5 0.096753 0.589342 0.634717
O O6 0.328392 0.434125 0.397375
O O7 0.093286 0.368064 0.530605
O O8 0.144327 0.513594 0.015458
O O9 0.806566 0.939115 0.909521
O O10 0.000000 0.000000 0.500000
O O11 0.000000 0.000000 0.000000
O O12 0.559351 0.050665 0.293683
O O13 0.687830 0.875432 0.371239
O O14 0.564101 0.789368 0.811491
O O15 0.553388 0.716566 0.246905
#
# Coordination Sequence:
#
# PCOD9036668 Si02
#       7
#     2   2   2   2   2   2   2
#     4  11  25  42  68  97 132 172 219 273 326 385
#     4  10  23  45  65  96 127 167 218 271 326 397
#     4  12  25  41  60  90 133 172 213 265 319 382
#     4  10  23  42  62  94 132 170 225 258 322 381
#     4  10  24  43  69  92 130 170 212 270 334 386
#     4  10  23  38  67  90 132 177 206 272 321 381
#     4  11  23  41  67  99 130 170 225 265 327 384
#
# _framework density 25.650607000000001
#
# number of rings (size 3 to 8) (size 9 to 14) (size 15 to 20)
#    0.000    1.429    2.857    0.857    4.000    5.143 
#    0.000    0.000    0.000    0.000    0.000    0.000 
#    0.000    0.000    0.000    0.000    0.000    0.000 
#
# Total GULP energy -78297.740848 kJ/mol
# GULP energy per Si atom -5592.695775 kJ/mol
# Density = 2.559222 g / cm^3
# Si number density = 25.650607 Si / 1000 Ang^3
#
#
#
# Elastic Constant Matrix: (Units=GPa)
#
#
# Indices 1 2 3 4 5 6 
#
# 1 85.1827 25.4503 26.9239 -0.7872 -5.1298 -2.6176
# 2 25.4503 68.2371 -5.4276 -24.9973 9.9162 20.0615
# 3 26.9239 -5.4276 100.2251 -17.3007 -9.9952 -2.2931
# 4 -0.7872 -24.9973 -17.3007 50.6611 -0.8904 -8.2401
# 5 -5.1298 9.9162 -9.9952 -0.8904 46.5956 -11.1576
# 6 -2.6176 20.0615 -2.2931 -8.2401 -11.1576 33.7832
#
#
#
# Elastic Compliance Matrix: (Units=1/GPa)
#
#
# Indices 1 2 3 4 5 6 
#
# 1 0.018085 -0.013101 -0.005962 -0.006662 0.005522 0.008975
# 2 -0.013101 0.033225 0.006211 0.014747 -0.011841 -0.020638
# 3 -0.005962 0.006211 0.013216 0.007295 0.000698 -0.001243
# 4 -0.006662 0.014747 0.007295 0.028957 -0.002350 -0.002491
# 5 0.005522 -0.011841 0.000698 -0.002350 0.028618 0.016385
# 6 0.008975 -0.020638 -0.001243 -0.002491 0.016385 0.047271
#
#
# Mechanical properties :
#
#
# Convention : Reuss Voigt Hill
#
# Bulk Modulus (GPa) = 25.75772 38.61533 32.18653
# Shear Modulus (GPa) = 24.03672 39.98785 32.01228
#
# Velocity S-wave (km/s) = 3.06450 3.95263 3.53655
# Velocity P-wave (km/s) = 4.75238 5.99317 5.40847
#
# Compressibility (1/GPa) = 0.03882331
#
# Stress axis : x y z
#
# Youngs Moduli (GPa) = 55.29510 30.09742 75.66607
#
# Poissons Ratio (x) = 0.39431 0.45110
# Poissons Ratio (y) = 0.72442 -0.46998
# Poissons Ratio (z) = 0.32965 -0.18694
#
# Static dielectric constant tensor:
#      x y z
#    x 2.127070 0.056820 -0.025100 
#    y 0.056820 2.037620 0.071610 
#    z -0.025100 0.071610 2.062590 
# 
# From -- ./inp_files/70986.got.cif
#   From: 2010.05.17/outbox.cif.g08.bks.cpg/sg2_36_cif.got.tgz:70986.got - 2010.06.03 11:33:40.
