data_PCOD9036260
_publ_section_title
;
Structure prediction by ZEFSAII (Michael W. Deem and Ramdas Pophale) SiO2 
 PCOD9036260
Probable space group: P -1
;
_chemical_formula_sum "Si O2"
_cell_formula_units_Z 16
_cell_length_a 13.511669
_cell_length_b 15.468011
_cell_length_c 13.701668
_cell_angle_alpha 36.481044
_cell_angle_beta 157.529406
_cell_angle_gamma 149.583978
_cell_volume 553.741768
_symmetry_space_group_name_H-M "P -1"
_symmetry_group_IT_number 2
_symmetry_cell_setting 'triclinic'
loop_
_space_group_symop_operation_xyz
x,y,z
-x,-y,-z
loop_
_atom_site_type_symbol
_atom_site_label
_atom_site_fract_x
_atom_site_fract_y
_atom_site_fract_z
Si Si1 0.523807 0.957763 0.671602
Si Si2 0.372592 0.258351 0.158808
Si Si3 0.835041 0.879074 0.368066
Si Si4 0.074081 0.318667 0.511127
Si Si5 0.742763 0.508791 0.890163
Si Si6 0.578231 0.348448 0.649816
Si Si7 0.844554 0.847351 0.733396
Si Si8 0.084624 0.646684 0.309627
O O1 0.679047 0.844882 0.894445
O O2 0.199179 0.828585 0.541494
O O3 0.500000 0.000000 0.500000
O O4 0.234735 0.139356 0.240194
O O5 0.722880 0.354828 0.420708
O O6 0.768722 0.623554 0.076195
O O7 0.993321 0.777050 0.568902
O O8 0.509310 0.750465 0.236663
O O9 0.000000 0.000000 0.500000
O O10 0.869318 0.994421 0.201692
O O11 0.433866 0.372879 0.790961
O O12 0.072373 0.492040 0.374950
O O13 0.608798 0.560271 0.629404
O O14 0.867179 0.680929 0.910378
O O15 0.060550 0.527619 0.138207
O O16 0.424506 0.211558 0.541959
O O17 0.270123 0.854513 0.264738
#
# Coordination Sequence:
#
# PCOD9036260 Si02
#       8
#     2   2   2   2   2   2   2   2
#     4  10  25  50  77 114 156 198 253 312 377 448
#     4  11  23  45  80 108 152 204 240 313 378 440
#     4  10  22  48  74 116 150 200 257 312 379 456
#     4  12  26  44  80 114 147 208 252 307 388 447
#     4  10  23  43  71 103 148 193 245 309 371 438
#     4   9  22  44  72 101 151 194 241 317 370 434
#     4   9  21  42  77 104 154 192 247 308 374 437
#     4  11  25  48  75 108 155 193 252 311 369 449
#
# _framework density 28.894334000000001
#
# number of rings (size 3 to 8) (size 9 to 14) (size 15 to 20)
#    0.750    1.000    1.250    1.875    3.500    4.000 
#    0.000   11.250    0.000    3.750    0.000    0.000 
#    0.000    0.000    0.000    0.000    0.000    0.000 
#
# Total GULP energy -89146.306974 kJ/mol
# GULP energy per Si atom -5571.644186 kJ/mol
# Density = 2.882857 g / cm^3
# Si number density = 28.894334 Si / 1000 Ang^3
#
#
#
# Elastic Constant Matrix: (Units=GPa)
#
#
# Indices 1 2 3 4 5 6 
#
# 1 191.0148 95.2735 65.1207 22.5958 27.3961 -3.3430
# 2 95.2735 189.2315 64.0613 35.3407 29.1014 -1.6580
# 3 65.1207 64.0613 196.1596 13.2415 36.8828 10.3435
# 4 22.5958 35.3407 13.2415 44.9581 -2.9245 16.0091
# 5 27.3961 29.1014 36.8828 -2.9245 43.4985 12.1617
# 6 -3.3430 -1.6580 10.3435 16.0091 12.1617 75.0741
#
#
#
# Elastic Compliance Matrix: (Units=1/GPa)
#
#
# Indices 1 2 3 4 5 6 
#
# 1 0.007558 -0.002659 -0.001094 -0.002003 -0.002543 0.001268
# 2 -0.002659 0.008851 -0.000818 -0.006512 -0.004642 0.002331
# 3 -0.001094 -0.000818 0.006637 -0.001037 -0.004450 -0.000039
# 4 -0.002003 -0.006512 -0.001037 0.032547 0.011157 -0.008838
# 5 -0.002543 -0.004642 -0.004450 0.011157 0.034329 -0.007543
# 6 0.001268 0.002331 -0.000039 -0.008838 -0.007543 0.016540
#
#
# Mechanical properties :
#
#
# Convention : Reuss Voigt Hill
#
# Bulk Modulus (GPa) = 71.92413 113.92408 92.92411
# Shear Modulus (GPa) = 41.58383 56.16949 48.87666
#
# Velocity S-wave (km/s) = 3.79775 4.41382 4.11733
# Velocity P-wave (km/s) = 6.64656 8.09254 7.40493
#
# Compressibility (1/GPa) = 0.01390354
#
# Stress axis : x y z
#
# Youngs Moduli (GPa) = 132.30632 112.98680 150.66651
#
# Poissons Ratio (x) = 0.30038 0.16489
# Poissons Ratio (y) = 0.35174 0.12328
# Poissons Ratio (z) = 0.14480 0.09245
#
# Static dielectric constant tensor:
#      x y z
#    x 2.436960 -0.101130 -0.007970 
#    y -0.101130 2.417180 -0.049010 
#    z -0.007970 -0.049010 2.474710 
# 
# From -- ./inp_files/574105.got.cif
#   From: 2010.05.17/outbox.cif.g08.bks.cpg/sg2_288_cif.got.tgz:574105.got - 2010.06.03 11:33:40.
