data_PCOD9036211
_publ_section_title
;
Structure prediction by ZEFSAII (Michael W. Deem and Ramdas Pophale) SiO2 
 PCOD9036211
Probable space group: P -1
;
_chemical_formula_sum "Si O2"
_cell_formula_units_Z 16
_cell_length_a 14.128808
_cell_length_b 11.869146
_cell_length_c 14.332825
_cell_angle_alpha 139.412707
_cell_angle_beta 150.013679
_cell_angle_gamma 62.076581
_cell_volume 635.172744
_symmetry_space_group_name_H-M "P -1"
_symmetry_group_IT_number 2
_symmetry_cell_setting 'triclinic'
loop_
_space_group_symop_operation_xyz
x,y,z
-x,-y,-z
loop_
_atom_site_type_symbol
_atom_site_label
_atom_site_fract_x
_atom_site_fract_y
_atom_site_fract_z
Si Si1 0.602119 0.378139 0.051333
Si Si2 0.357743 0.981708 0.728521
Si Si3 0.732819 0.944804 0.112769
Si Si4 0.267366 0.721524 0.324419
Si Si5 0.661065 0.105559 0.794563
Si Si6 0.046769 0.136226 0.915754
Si Si7 0.516579 0.539261 0.383779
Si Si8 0.852610 0.735552 0.627845
O O1 0.805873 0.549384 0.402276
O O2 0.500000 0.500000 0.000000
O O3 0.666532 0.297205 0.966129
O O4 0.423519 0.170082 0.831216
O O5 0.603064 0.037096 0.011547
O O6 0.247273 0.762973 0.440576
O O7 0.200619 0.957529 0.665639
O O8 0.542613 0.693402 0.810470
O O9 0.911750 0.948639 0.197965
O O10 0.284529 0.529088 0.196553
O O11 0.093740 0.759922 0.149470
O O12 0.526856 0.919646 0.640042
O O13 0.500000 0.000000 0.500000
O O14 0.925667 0.183514 0.066246
O O15 0.296998 0.314786 0.285510
O O16 0.908945 0.930490 0.735161
O O17 0.631615 0.642951 0.447483
#
# Coordination Sequence:
#
# PCOD9036211 Si02
#       8
#     2   2   2   2   2   2   2   2
#     4  11  24  44  73 110 149 190 248 309 370 447
#     4  10  22  48  71 101 142 199 235 308 367 436
#     4  11  24  46  77  97 149 192 248 297 372 444
#     4  11  25  42  72 101 149 182 247 300 364 440
#     4  11  24  42  69 106 149 196 238 308 373 440
#     4  12  25  44  74 109 141 199 239 308 379 431
#     4  12  25  46  72 107 145 192 247 304 365 444
#     4  12  24  45  76 109 149 195 251 304 379 442
#
# _framework density 25.189995
#
# number of rings (size 3 to 8) (size 9 to 14) (size 15 to 20)
#    0.000    0.750    3.750    4.125    3.500    1.000 
#    0.000    0.000    0.000    0.000    0.000    0.000 
#    0.000    0.000    0.000    0.000    0.000    0.000 
#
# Total GULP energy -89655.929672 kJ/mol
# GULP energy per Si atom -5603.495604 kJ/mol
# Density = 2.513266 g / cm^3
# Si number density = 25.189995 Si / 1000 Ang^3
#
#
#
# Elastic Constant Matrix: (Units=GPa)
#
#
# Indices 1 2 3 4 5 6 
#
# 1 171.7996 63.0081 51.7034 -1.3325 -25.4396 -7.5206
# 2 63.0081 143.4209 22.9407 -9.2249 1.7679 -13.7899
# 3 51.7034 22.9407 89.4983 -9.9370 -12.1551 -5.1334
# 4 -1.3325 -9.2249 -9.9370 38.7179 2.7060 2.1026
# 5 -25.4396 1.7679 -12.1551 2.7060 43.7416 6.0342
# 6 -7.5206 -13.7899 -5.1334 2.1026 6.0342 41.1985
#
#
#
# Elastic Compliance Matrix: (Units=1/GPa)
#
#
# Indices 1 2 3 4 5 6 
#
# 1 0.008890 -0.003514 -0.003867 -0.001801 0.004431 -0.000592
# 2 -0.003514 0.008987 -0.000303 0.002006 -0.002983 0.002663
# 3 -0.003867 -0.000303 0.014071 0.003278 0.001391 0.000575
# 4 -0.001801 0.002006 0.003278 0.027234 -0.001852 -0.000368
# 5 0.004431 -0.002983 0.001391 -0.001852 0.026586 -0.003816
# 6 -0.000592 0.002663 0.000575 -0.000368 -0.003816 0.025705
#
#
# Mechanical properties :
#
#
# Convention : Reuss Voigt Hill
#
# Bulk Modulus (GPa) = 60.31784 75.55812 67.93798
# Shear Modulus (GPa) = 37.77350 42.53606 40.15478
#
# Velocity S-wave (km/s) = 3.87660 4.11373 3.99692
# Velocity P-wave (km/s) = 6.63585 7.25425 6.95193
#
# Compressibility (1/GPa) = 0.01657884
#
# Stress axis : x y z
#
# Youngs Moduli (GPa) = 112.49145 111.27518 71.06904
#
# Poissons Ratio (x) = 0.39105 0.27482
# Poissons Ratio (y) = 0.39533 0.02153
# Poissons Ratio (z) = 0.43500 0.03370
#
# Static dielectric constant tensor:
#      x y z
#    x 2.021010 0.002410 -0.031470 
#    y 0.002410 1.980330 -0.011510 
#    z -0.031470 -0.011510 1.987680 
# 
# From -- ./inp_files/532742.got.cif
#   From: 2010.05.17/outbox.cif.g08.bks.cpg/sg2_267_cif.got.tgz:532742.got - 2010.06.03 11:33:40.
