data_PCOD9036042
_publ_section_title
;
Structure prediction by ZEFSAII (Michael W. Deem and Ramdas Pophale) SiO2 
 PCOD9036042
Probable space group: P -1
;
_chemical_formula_sum "Si O2"
_cell_formula_units_Z 14
_cell_length_a 10.918637
_cell_length_b 10.045235
_cell_length_c 8.653633
_cell_angle_alpha 78.152736
_cell_angle_beta 79.445395
_cell_angle_gamma 136.387098
_cell_volume 558.009141
_symmetry_space_group_name_H-M "P -1"
_symmetry_group_IT_number 2
_symmetry_cell_setting 'triclinic'
loop_
_space_group_symop_operation_xyz
x,y,z
-x,-y,-z
loop_
_atom_site_type_symbol
_atom_site_label
_atom_site_fract_x
_atom_site_fract_y
_atom_site_fract_z
Si Si1 0.201213 0.214788 0.801767
Si Si2 0.099105 0.036244 0.312911
Si Si3 0.519135 0.300223 0.258493
Si Si4 0.141790 0.559808 0.321745
Si Si5 0.138942 0.366748 0.101994
Si Si6 0.153630 0.739817 0.984171
Si Si7 0.531291 0.818315 0.356643
O O1 0.371869 0.461201 0.777097
O O2 0.330608 0.196444 0.710280
O O3 0.084703 0.183821 0.691961
O O4 0.000000 0.000000 0.000000
O O5 0.292940 0.114889 0.289388
O O6 0.176271 0.243901 0.167620
O O7 0.000000 0.000000 0.500000
O O8 0.516439 0.219291 0.440895
O O9 0.657805 0.379836 0.060959
O O10 0.049279 0.365179 0.273831
O O11 0.329925 0.649405 0.339969
O O12 0.000000 0.500000 0.500000
O O13 0.196552 0.730005 0.149601
O O14 0.991802 0.255965 0.014140
O O15 0.346400 0.943998 0.788180
O O16 0.000000 0.500000 0.000000
#
# Coordination Sequence:
#
# PCOD9036042 Si02
#       7
#     2   2   2   2   2   2   2
#     4  12  25  43  73 108 151 188 232 287 352 439
#     4  12  24  43  68 109 148 187 236 281 357 435
#     4  12  25  44  70 110 150 189 234 284 356 445
#     4  11  26  45  72 101 134 185 246 303 354 410
#     4  11  23  46  69  98 147 185 231 297 357 417
#     4  10  22  47  70  96 135 180 240 297 345 415
#     4  12  24  46  71 105 141 188 231 293 360 411
#
# _framework density 25.089195
#
# number of rings (size 3 to 8) (size 9 to 14) (size 15 to 20)
#    0.000    0.571    4.286    3.000    4.000    0.000 
#    0.000   17.143    0.000    0.000    0.000    0.000 
#    0.000    0.000    0.000    0.000    0.000    0.000 
#
# Total GULP energy -78184.354481 kJ/mol
# GULP energy per Si atom -5584.596749 kJ/mol
# Density = 2.503209 g / cm^3
# Si number density = 25.089195 Si / 1000 Ang^3
#
#
#
# Elastic Constant Matrix: (Units=GPa)
#
#
# Indices 1 2 3 4 5 6 
#
# 1 79.9976 37.0910 37.2294 9.8295 17.2170 31.7456
# 2 37.0910 83.4462 19.1526 11.9463 -0.1508 6.5193
# 3 37.2294 19.1526 178.0855 2.0191 18.0028 0.7152
# 4 9.8295 11.9463 2.0191 39.8541 -1.2337 7.3231
# 5 17.2170 -0.1508 18.0028 -1.2337 54.1569 2.4205
# 6 31.7456 6.5193 0.7152 7.3231 2.4205 57.5548
#
#
#
# Elastic Compliance Matrix: (Units=1/GPa)
#
#
# Indices 1 2 3 4 5 6 
#
# 1 0.024564 -0.009023 -0.003480 -0.001149 -0.006164 -0.012078
# 2 -0.009023 0.016211 -0.000110 -0.003174 0.002725 0.003431
# 3 -0.003480 -0.000110 0.006458 0.000185 -0.001120 0.001875
# 4 -0.001149 -0.003174 0.000185 0.026801 0.001015 -0.002462
# 5 -0.006164 0.002725 -0.001120 0.001015 0.020734 0.002104
# 6 -0.012078 0.003431 0.001875 -0.002462 0.002104 0.023850
#
#
# Mechanical properties :
#
#
# Convention : Reuss Voigt Hill
#
# Bulk Modulus (GPa) = 45.44080 58.71950 52.08015
# Shear Modulus (GPa) = 33.07316 46.85026 39.96171
#
# Velocity S-wave (km/s) = 3.63467 4.32597 3.99530
# Velocity P-wave (km/s) = 5.98043 6.95752 6.48740
#
# Compressibility (1/GPa) = 0.02200666
#
# Stress axis : x y z
#
# Youngs Moduli (GPa) = 40.70956 61.68656 154.83852
#
# Poissons Ratio (x) = 0.55659 0.53887
# Poissons Ratio (y) = 0.36731 0.01710
# Poissons Ratio (z) = 0.14168 0.00681
#
# Static dielectric constant tensor:
#      x y z
#    x 2.187240 -0.058680 -0.005290 
#    y -0.058680 2.021250 0.006680 
#    z -0.005290 0.006680 2.047490 
# 
# From -- ./inp_files/258049.got.cif
#   From: 2010.05.17/outbox.cif.g08.bks.cpg/sg2_130_cif.got.tgz:258049.got - 2010.06.03 11:33:40.
