data_PCOD9036819
_publ_section_title
;
Structure prediction by ZEFSAII (Michael W. Deem and Ramdas Pophale) SiO2 
 PCOD9036819
Probable space group: P -1
;
_chemical_formula_sum "Si O2"
_cell_formula_units_Z 16
_cell_length_a 6.908913
_cell_length_b 4.977279
_cell_length_c 23.630867
_cell_angle_alpha 87.621092
_cell_angle_beta 117.999203
_cell_angle_gamma 105.261963
_cell_volume 688.971496
_symmetry_space_group_name_H-M "P -1"
_symmetry_group_IT_number 2
_symmetry_cell_setting 'triclinic'
loop_
_space_group_symop_operation_xyz
x,y,z
-x,-y,-z
loop_
_atom_site_type_symbol
_atom_site_label
_atom_site_fract_x
_atom_site_fract_y
_atom_site_fract_z
Si Si1 0.992207 0.436393 0.654654
Si Si2 0.576566 0.822505 0.961663
Si Si3 0.494063 0.417563 0.254061
Si Si4 0.245690 0.867810 0.486930
Si Si5 0.120787 0.872916 0.585006
Si Si6 0.125886 0.465153 0.919173
Si Si7 0.820817 0.886665 0.883701
Si Si8 0.411231 0.851106 0.314209
O O1 0.236533 0.432989 0.712244
O O2 0.053155 0.759956 0.640450
O O3 0.905931 0.310303 0.582080
O O4 0.791887 0.288774 0.670260
O O5 0.334596 0.632384 0.907246
O O6 0.723877 0.975408 0.928164
O O7 0.732546 0.636931 0.010478
O O8 0.500000 0.000000 0.000000
O O9 0.383815 0.274576 0.182911
O O10 0.381434 0.653674 0.257480
O O11 0.437557 0.169249 0.295691
O O12 0.223319 0.733995 0.547455
O O13 0.500000 0.000000 0.500000
O O14 0.121476 0.112845 0.472325
O O15 0.343427 0.134909 0.623964
O O16 0.979422 0.675353 0.915190
O O17 0.972737 0.175592 0.875797
#
# Coordination Sequence:
#
# PCOD9036819 Si02
#       8
#     2   2   2   2   2   2   2   2
#     4  11  24  42  68  91 137 178 223 290 348 401
#     4  11  25  44  74 110 145 181 229 285 350 416
#     4  11  27  46  67  97 133 184 236 280 329 416
#     4  11  21  39  64  99 131 173 221 288 353 414
#     4  10  23  39  63 100 131 168 228 279 351 424
#     4  11  25  44  71 108 141 183 224 285 346 413
#     4  12  26  44  71 101 144 186 233 284 348 407
#     4  11  24  46  69  94 132 180 233 283 345 402
#
# _framework density 23.223025
#
# number of rings (size 3 to 8) (size 9 to 14) (size 15 to 20)
#    0.000    1.000    3.750    1.875    5.250    2.500 
#    0.000    0.000    0.000    0.000    0.000    0.000 
#    0.000    0.000    0.000    0.000    0.000    0.000 
#
# Total GULP energy -89184.235736 kJ/mol
# GULP energy per Si atom -5574.014733 kJ/mol
# Density = 2.317017 g / cm^3
# Si number density = 23.223025 Si / 1000 Ang^3
#
#
#
# Elastic Constant Matrix: (Units=GPa)
#
#
# Indices 1 2 3 4 5 6 
#
# 1 145.7677 55.5044 55.0033 -1.0899 18.0458 31.6433
# 2 55.5044 95.1630 21.0509 16.7646 12.1485 12.4564
# 3 55.0033 21.0509 92.5356 19.7929 14.3380 6.3853
# 4 -1.0899 16.7646 19.7929 39.4267 -0.0175 1.9087
# 5 18.0458 12.1485 14.3380 -0.0175 24.1577 6.1844
# 6 31.6433 12.4564 6.3853 1.9087 6.1844 46.4575
#
#
#
# Elastic Compliance Matrix: (Units=1/GPa)
#
#
# Indices 1 2 3 4 5 6 
#
# 1 0.014037 -0.006799 -0.007835 0.007546 -0.000648 -0.006885
# 2 -0.006799 0.015802 0.002936 -0.008431 -0.004869 0.000985
# 3 -0.007835 0.002936 0.017944 -0.010645 -0.007171 0.003475
# 4 0.007546 -0.008431 -0.010645 0.034679 0.005874 -0.003622
# 5 -0.000648 -0.004869 -0.007171 0.005874 0.049642 -0.004117
# 6 -0.006885 0.000985 0.003475 -0.003622 -0.004117 0.026169
#
#
# Mechanical properties :
#
#
# Convention : Reuss Voigt Hill
#
# Bulk Modulus (GPa) = 41.00504 66.28705 53.64605
# Shear Modulus (GPa) = 26.34365 35.46888 30.90627
#
# Velocity S-wave (km/s) = 3.37170 3.91233 3.65203
# Velocity P-wave (km/s) = 5.73178 7.00100 6.39794
#
# Compressibility (1/GPa) = 0.02438724
#
# Stress axis : x y z
#
# Youngs Moduli (GPa) = 71.24086 63.28175 55.72828
#
# Poissons Ratio (x) = 0.43027 0.43665
# Poissons Ratio (y) = 0.48439 -0.16364
# Poissons Ratio (z) = 0.55819 -0.18582
#
# Static dielectric constant tensor:
#      x y z
#    x 1.855660 -0.084580 0.019790 
#    y -0.084580 2.097880 -0.045650 
#    z 0.019790 -0.045650 1.934280 
# 
# From -- ./inp_files/603276.got.cif
#   From: 2010.05.17/outbox.cif.g08.bks.cpg/sg2_302_cif.got.tgz:603276.got - 2010.06.03 11:33:40.
