data_PCOD9036885
_publ_section_title
;
Structure prediction by ZEFSAII (Michael W. Deem and Ramdas Pophale) SiO2 
 PCOD9036885
Probable space group: P -1
;
_chemical_formula_sum "Si O2"
_cell_formula_units_Z 16
_cell_length_a 8.708509
_cell_length_b 11.921203
_cell_length_c 13.890061
_cell_angle_alpha 74.542593
_cell_angle_beta 121.996421
_cell_angle_gamma 142.550942
_cell_volume 709.621991
_symmetry_space_group_name_H-M "P -1"
_symmetry_group_IT_number 2
_symmetry_cell_setting 'triclinic'
loop_
_space_group_symop_operation_xyz
x,y,z
-x,-y,-z
loop_
_atom_site_type_symbol
_atom_site_label
_atom_site_fract_x
_atom_site_fract_y
_atom_site_fract_z
Si Si1 0.256171 0.790228 0.705315
Si Si2 0.436415 0.704529 0.179982
Si Si3 0.877279 0.390608 0.586721
Si Si4 0.922725 0.078287 0.847762
Si Si5 0.785952 0.258350 0.073876
Si Si6 0.305239 0.405129 0.769276
Si Si7 0.960558 0.844841 0.907297
Si Si8 0.721987 0.946850 0.412537
O O1 0.304273 0.818358 0.829928
O O2 0.032981 0.567792 0.665837
O O3 0.587091 0.938772 0.737954
O O4 0.153974 0.858017 0.606113
O O5 0.616771 0.674848 0.240673
O O6 0.552429 0.834924 0.280324
O O7 0.092320 0.489518 0.131045
O O8 0.418931 0.770717 0.060041
O O9 0.530075 0.198604 0.552504
O O10 0.000000 0.500000 0.500000
O O11 0.039490 0.348922 0.655117
O O12 0.177455 0.298906 0.852888
O O13 0.986313 0.986873 0.840718
O O14 0.941276 0.086250 0.966478
O O15 0.865621 0.176557 0.070301
O O16 0.609489 0.632901 0.829373
O O17 0.000000 0.000000 0.500000
#
# Coordination Sequence:
#
# PCOD9036885 Si02
#       8
#     2   2   2   2   2   2   2   2
#     4  12  26  47  76 105 144 192 241 306 371 443
#     4  10  24  45  73 110 147 196 234 298 370 441
#     4  12  29  52  74 102 146 194 251 315 371 432
#     4  11  23  39  67 107 145 185 236 284 360 436
#     4  10  23  44  73 107 152 189 237 294 374 442
#     4  11  24  44  70  98 144 186 242 298 359 429
#     4  10  23  39  65 107 146 192 226 286 356 440
#     4  12  29  50  76 110 148 192 256 309 365 447
#
# _framework density 22.547212999999999
#
# number of rings (size 3 to 8) (size 9 to 14) (size 15 to 20)
#    0.000    1.000    3.750    1.125    7.000    6.000 
#    0.000    0.000    0.000    0.000    0.000    0.000 
#    0.000    0.000    0.000    0.000    0.000    0.000 
#
# Total GULP energy -89333.882830 kJ/mol
# GULP energy per Si atom -5583.367677 kJ/mol
# Density = 2.249589 g / cm^3
# Si number density = 22.547213 Si / 1000 Ang^3
#
#
#
# Elastic Constant Matrix: (Units=GPa)
#
#
# Indices 1 2 3 4 5 6 
#
# 1 114.7994 10.2321 47.2235 -17.0873 4.7962 23.9883
# 2 10.2321 125.4549 36.0002 -5.3578 47.5383 -0.2244
# 3 47.2235 36.0002 62.7075 -25.4890 23.6525 -0.0595
# 4 -17.0873 -5.3578 -25.4890 31.3957 4.4260 -3.4407
# 5 4.7962 47.5383 23.6525 4.4260 91.2907 -14.3046
# 6 23.9883 -0.2244 -0.0595 -3.4407 -14.3046 44.6355
#
#
#
# Elastic Compliance Matrix: (Units=1/GPa)
#
#
# Indices 1 2 3 4 5 6 
#
# 1 0.016127 0.002781 -0.015938 -0.004751 0.000682 -0.008822
# 2 0.002781 0.011677 -0.008361 -0.003000 -0.004399 -0.003088
# 3 -0.015938 -0.008361 0.048163 0.030991 -0.007444 0.008591
# 4 -0.004751 -0.003000 0.030991 0.055540 -0.008250 0.004217
# 5 0.000682 -0.004399 -0.007444 -0.008250 0.016188 0.004154
# 6 -0.008822 -0.003088 0.008591 0.004217 0.004154 0.028797
#
#
# Mechanical properties :
#
#
# Convention : Reuss Voigt Hill
#
# Bulk Modulus (GPa) = 30.36749 54.43038 42.39893
# Shear Modulus (GPa) = 21.69154 47.43145 34.56149
#
# Velocity S-wave (km/s) = 3.10506 4.59153 3.91941
# Velocity P-wave (km/s) = 5.13350 7.23205 6.27118
#
# Compressibility (1/GPa) = 0.03292995
#
# Stress axis : x y z
#
# Youngs Moduli (GPa) = 62.00743 85.64130 20.76285
#
# Poissons Ratio (x) = -0.23819 0.33092
# Poissons Ratio (y) = -0.17246 0.17361
# Poissons Ratio (z) = 0.98829 0.71608
#
# Static dielectric constant tensor:
#      x y z
#    x 1.879900 0.064050 -0.060690 
#    y 0.064050 2.017530 -0.278600 
#    z -0.060690 -0.278600 2.239480 
# 
# From -- ./inp_files/500315.got.cif
#   From: 2010.05.17/outbox.cif.g08.bks.cpg/sg2_251_cif.got.tgz:500315.got - 2010.06.03 11:33:40.
