data_PCOD9036715
_publ_section_title
;
Structure prediction by ZEFSAII (Michael W. Deem and Ramdas Pophale) SiO2 
 PCOD9036715
Probable space group: P -1
;
_chemical_formula_sum "Si O2"
_cell_formula_units_Z 12
_cell_length_a 9.293984
_cell_length_b 11.811204
_cell_length_c 7.449816
_cell_angle_alpha 83.692435
_cell_angle_beta 120.874336
_cell_angle_gamma 130.545928
_cell_volume 501.007644
_symmetry_space_group_name_H-M "P -1"
_symmetry_group_IT_number 2
_symmetry_cell_setting 'triclinic'
loop_
_space_group_symop_operation_xyz
x,y,z
-x,-y,-z
loop_
_atom_site_type_symbol
_atom_site_label
_atom_site_fract_x
_atom_site_fract_y
_atom_site_fract_z
Si Si1 0.419156 0.026924 0.624193
Si Si2 0.998598 0.227925 0.384175
Si Si3 0.765587 0.595830 0.161551
Si Si4 0.169769 0.118901 0.250833
Si Si5 0.885633 0.338843 0.860867
Si Si6 0.696887 0.416050 0.451058
O O1 0.265907 0.061037 0.447531
O O2 0.661581 0.181879 0.842772
O O3 0.500000 0.000000 0.500000
O O4 0.263371 0.883056 0.690341
O O5 0.130329 0.268041 0.651252
O O6 0.031841 0.143063 0.281472
O O7 0.149190 0.409857 0.388086
O O8 0.765272 0.470736 0.279382
O O9 0.921880 0.661139 0.075455
O O10 0.500000 0.500000 0.000000
O O11 0.416987 0.291810 0.313525
O O12 0.000000 0.000000 0.000000
O O13 0.773846 0.336511 0.605702
O O14 0.000000 0.500000 0.000000
#
# Coordination Sequence:
#
# PCOD9036715 Si02
#       6
#     2   2   2   2   2   2
#     4  11  23  44  65  91 133 171 211 268 319 388
#     4  10  23  43  67  91 132 167 219 263 321 380
#     4  10  23  38  70  93 128 167 219 259 328 374
#     4  11  25  40  66  97 132 168 218 267 324 378
#     4  11  24  42  67  96 127 173 217 264 324 383
#     4   9  23  42  68  90 134 166 221 261 322 383
#
# _framework density 23.951730999999999
#
# number of rings (size 3 to 8) (size 9 to 14) (size 15 to 20)
#    1.000    0.667    1.667    1.500    7.000    2.667 
#    0.000    1.667    0.000    0.000    0.000    0.000 
#    0.000    0.000    0.000    0.000    0.000    0.000 
#
# Total GULP energy -66952.932350 kJ/mol
# GULP energy per Si atom -5579.411029 kJ/mol
# Density = 2.389722 g / cm^3
# Si number density = 23.951731 Si / 1000 Ang^3
#
#
#
# Elastic Constant Matrix: (Units=GPa)
#
#
# Indices 1 2 3 4 5 6 
#
# 1 133.0904 48.2036 53.7338 21.9728 -10.8196 19.9922
# 2 48.2036 138.3922 57.0831 36.7664 1.9252 22.6517
# 3 53.7338 57.0831 92.7453 34.0150 -4.1568 20.5064
# 4 21.9728 36.7664 34.0150 51.3823 -4.7823 11.1418
# 5 -10.8196 1.9252 -4.1568 -4.7823 39.9832 8.7517
# 6 19.9922 22.6517 20.5064 11.1418 8.7517 39.1791
#
#
#
# Elastic Compliance Matrix: (Units=1/GPa)
#
#
# Indices 1 2 3 4 5 6 
#
# 1 0.010511 -0.001469 -0.004580 0.000526 0.003152 -0.002970
# 2 -0.001469 0.010801 -0.003872 -0.004245 -0.001401 -0.001948
# 3 -0.004580 -0.003872 0.019304 -0.007165 0.000905 -0.003693
# 4 0.000526 -0.004245 -0.007165 0.027959 0.003561 -0.002810
# 5 0.003152 -0.001401 0.000905 0.003561 0.028336 -0.008614
# 6 -0.002970 -0.001948 -0.003693 -0.002810 -0.008614 0.032822
#
#
# Mechanical properties :
#
#
# Convention : Reuss Voigt Hill
#
# Bulk Modulus (GPa) = 48.13961 75.80765 61.97363
# Shear Modulus (GPa) = 31.94930 39.78940 35.86935
#
# Velocity S-wave (km/s) = 3.65623 4.08024 3.87404
# Velocity P-wave (km/s) = 6.16167 7.34280 6.77801
#
# Compressibility (1/GPa) = 0.02077291
#
# Stress axis : x y z
#
# Youngs Moduli (GPa) = 95.14244 92.58708 51.80392
#
# Poissons Ratio (x) = 0.13603 0.23727
# Poissons Ratio (y) = 0.13978 0.20056
# Poissons Ratio (z) = 0.43577 0.35846
#
# Static dielectric constant tensor:
#      x y z
#    x 1.966700 0.130800 0.169080 
#    y 0.130800 2.224260 0.137790 
#    z 0.169080 0.137790 2.154210 
# 
# From -- ./inp_files/202654.got.cif
#   From: 2010.05.17/outbox.cif.g08.bks.cpg/sg2_102_cif.got.tgz:202654.got - 2010.06.03 11:33:40.
