data_PCOD9036920
_publ_section_title
;
Structure prediction by ZEFSAII (Michael W. Deem and Ramdas Pophale) SiO2 
 PCOD9036920
Probable space group: P -1
;
_chemical_formula_sum "Si O2"
_cell_formula_units_Z 14
_cell_length_a 22.824800
_cell_length_b 10.082316
_cell_length_c 5.289985
_cell_angle_alpha 107.055295
_cell_angle_beta 80.897362
_cell_angle_gamma 40.559912
_cell_volume 597.952764
_symmetry_space_group_name_H-M "P -1"
_symmetry_group_IT_number 2
_symmetry_cell_setting 'triclinic'
loop_
_space_group_symop_operation_xyz
x,y,z
-x,-y,-z
loop_
_atom_site_type_symbol
_atom_site_label
_atom_site_fract_x
_atom_site_fract_y
_atom_site_fract_z
Si Si1 0.083823 0.947639 0.790670
Si Si2 0.128528 0.479480 0.691176
Si Si3 0.572026 0.830767 0.106659
Si Si4 0.692076 0.086540 0.560096
Si Si5 0.190581 0.513953 0.164720
Si Si6 0.314321 0.619921 0.522694
Si Si7 0.476327 0.423750 0.669753
O O1 0.122848 0.793366 0.420234
O O2 0.202925 0.750601 0.732092
O O3 0.000000 0.000000 0.000000
O O4 0.005855 0.240291 0.998211
O O5 0.147615 0.490763 0.395465
O O6 0.198735 0.201155 0.548663
O O7 0.177502 0.488348 0.874854
O O8 0.500000 0.000000 0.500000
O O9 0.679920 0.715349 0.982206
O O10 0.626107 0.570763 0.867912
O O11 0.500000 0.000000 0.000000
O O12 0.723027 0.146883 0.376137
O O13 0.602036 0.151433 0.550644
O O14 0.612327 0.328031 0.943031
O O15 0.411212 0.435753 0.566344
O O16 0.500000 0.500000 0.500000
#
# Coordination Sequence:
#
# PCOD9036920 Si02
#       7
#     2   2   2   2   2   2   2
#     4   9  21  46  68  93 130 177 224 282 336 390
#     4  11  23  41  69  96 128 176 230 272 329 403
#     4  11  25  40  63  98 133 173 220 277 333 400
#     4  10  23  39  65  99 132 175 221 274 343 397
#     4  10  23  41  65  94 133 175 222 276 337 396
#     4  10  23  43  66  96 137 174 225 274 341 401
#     4   9  21  40  62  89 135 176 211 266 336 400
#
# _framework density 23.413222999999999
#
# number of rings (size 3 to 8) (size 9 to 14) (size 15 to 20)
#    0.000    2.000    0.000    1.286    8.000    5.143 
#   10.286    0.714    0.000    0.000    0.000    0.000 
#    0.000    0.000    0.000    0.000    0.000    0.000 
#
# Total GULP energy -78142.045711 kJ/mol
# GULP energy per Si atom -5581.574694 kJ/mol
# Density = 2.335993 g / cm^3
# Si number density = 23.413223 Si / 1000 Ang^3
#
#
#
# Elastic Constant Matrix: (Units=GPa)
#
#
# Indices 1 2 3 4 5 6 
#
# 1 100.9366 30.7571 37.9137 4.7085 0.9035 -21.8141
# 2 30.7571 94.4698 29.2939 11.5034 -4.9358 5.7704
# 3 37.9137 29.2939 85.0799 12.4879 -6.8657 -0.5419
# 4 4.7085 11.5034 12.4879 39.4614 -3.2566 12.0993
# 5 0.9035 -4.9358 -6.8657 -3.2566 27.6681 6.1039
# 6 -21.8141 5.7704 -0.5419 12.0993 6.1039 44.7493
#
#
#
# Elastic Compliance Matrix: (Units=1/GPa)
#
#
# Indices 1 2 3 4 5 6 
#
# 1 0.015236 -0.003800 -0.005494 -0.002154 -0.004797 0.009088
# 2 -0.003800 0.013085 -0.002444 -0.001291 0.002485 -0.003559
# 3 -0.005494 -0.002444 0.015731 -0.002700 0.003761 -0.001956
# 4 -0.002154 -0.001291 -0.002700 0.030222 0.004879 -0.009753
# 5 -0.004797 0.002485 0.003761 0.004879 0.040331 -0.009434
# 6 0.009088 -0.003559 -0.001956 -0.009753 -0.009434 0.031136
#
#
# Mechanical properties :
#
#
# Convention : Reuss Voigt Hill
#
# Bulk Modulus (GPa) = 48.60437 52.93508 50.76972
# Shear Modulus (GPa) = 28.39651 34.54388 31.47019
#
# Velocity S-wave (km/s) = 3.48636 3.84526 3.67020
# Velocity P-wave (km/s) = 6.08365 6.50944 6.30014
#
# Compressibility (1/GPa) = 0.02057428
#
# Stress axis : x y z
#
# Youngs Moduli (GPa) = 65.63232 76.42250 63.56854
#
# Poissons Ratio (x) = 0.29043 0.34927
# Poissons Ratio (y) = 0.24943 0.15539
# Poissons Ratio (z) = 0.36061 0.18681
#
# Static dielectric constant tensor:
#      x y z
#    x 1.914130 0.017110 0.050110 
#    y 0.017110 1.907110 0.033570 
#    z 0.050110 0.033570 1.859630 
# 
# From -- ./inp_files/84052.got.cif
#   From: 2010.05.17/outbox.cif.g08.bks.cpg/sg2_43_cif.got.tgz:84052.got - 2010.06.03 11:33:40.
