data_PCOD9036005
_publ_section_title
;
Structure prediction by ZEFSAII (Michael W. Deem and Ramdas Pophale) SiO2 
 PCOD9036005
Probable space group: P -1
;
_chemical_formula_sum "Si O2"
_cell_formula_units_Z 16
_cell_length_a 13.528510
_cell_length_b 8.847095
_cell_length_c 14.589065
_cell_angle_alpha 100.755476
_cell_angle_beta 146.826637
_cell_angle_gamma 102.760683
_cell_volume 668.981560
_symmetry_space_group_name_H-M "P -1"
_symmetry_group_IT_number 2
_symmetry_cell_setting 'triclinic'
loop_
_space_group_symop_operation_xyz
x,y,z
-x,-y,-z
loop_
_atom_site_type_symbol
_atom_site_label
_atom_site_fract_x
_atom_site_fract_y
_atom_site_fract_z
Si Si1 0.281581 0.493214 0.847079
Si Si2 0.607530 0.310373 0.376532
Si Si3 0.994548 0.957785 0.382459
Si Si4 0.514870 0.167332 0.086579
Si Si5 0.856000 0.435580 0.086969
Si Si6 0.115426 0.883964 0.002104
Si Si7 0.291236 0.275227 0.485368
Si Si8 0.839559 0.556707 0.905107
O O1 0.048578 0.250536 0.670640
O O2 0.266777 0.592486 0.759302
O O3 0.336409 0.638938 0.990031
O O4 0.500000 0.500000 0.000000
O O5 0.559552 0.189862 0.231681
O O6 0.631914 0.506688 0.398398
O O7 0.866574 0.420805 0.639039
O O8 0.366700 0.133969 0.233465
O O9 0.748721 0.901233 0.145528
O O10 0.000000 0.000000 0.500000
O O11 0.209546 0.134037 0.496813
O O12 0.500000 0.000000 0.000000
O O13 0.797096 0.236145 0.973502
O O14 0.861019 0.576344 0.033573
O O15 0.936166 0.841910 0.777359
O O16 0.955917 0.760449 0.956776
O O17 0.539060 0.358038 0.635604
O O18 0.000000 0.500000 0.000000
#
# Coordination Sequence:
#
# PCOD9036005 Si02
#       8
#     2   2   2   2   2   2   2   2
#     4  10  24  41  64  97 139 179 229 275 344 409
#     4  11  24  42  69 100 135 180 232 282 342 414
#     4  11  25  42  65 101 138 183 230 279 344 407
#     4  11  24  42  68  99 142 184 228 282 337 406
#     4  10  24  42  68 100 136 179 226 288 342 412
#     4  10  22  47  69 101 132 177 232 285 348 404
#     4  11  24  44  73  97 137 180 232 285 345 412
#     4  10  24  44  71  98 137 178 226 290 353 409
#
# _framework density 23.916952999999999
#
# number of rings (size 3 to 8) (size 9 to 14) (size 15 to 20)
#    0.000    1.500    1.250    1.875   10.500    3.500 
#    0.000    2.500    0.000    0.000    0.000    0.000 
#    0.000    0.000    0.000    0.000    0.000    0.000 
#
# Total GULP energy -89471.421439 kJ/mol
# GULP energy per Si atom -5591.963840 kJ/mol
# Density = 2.386252 g / cm^3
# Si number density = 23.916953 Si / 1000 Ang^3
#
#
#
# Elastic Constant Matrix: (Units=GPa)
#
#
# Indices 1 2 3 4 5 6 
#
# 1 69.3415 26.5542 -4.3919 1.4180 18.9777 13.2033
# 2 26.5542 134.7954 31.4516 18.9439 18.0377 36.0439
# 3 -4.3919 31.4516 59.2594 -7.0117 8.5167 2.6599
# 4 1.4180 18.9439 -7.0117 34.5124 7.2426 0.7185
# 5 18.9777 18.0377 8.5167 7.2426 35.1190 -1.8264
# 6 13.2033 36.0439 2.6599 0.7185 -1.8264 57.9992
#
#
#
# Elastic Compliance Matrix: (Units=1/GPa)
#
#
# Indices 1 2 3 4 5 6 
#
# 1 0.019712 -0.003572 0.005677 0.004742 -0.011325 -0.002943
# 2 -0.003572 0.013123 -0.007643 -0.008120 -0.001643 -0.006943
# 3 0.005677 -0.007643 0.023434 0.010108 -0.006804 0.002043
# 4 0.004742 -0.008120 0.010108 0.036980 -0.008325 0.002783
# 5 -0.011325 -0.001643 -0.006804 -0.008325 0.039078 0.005245
# 6 -0.002943 -0.006943 0.002043 0.002783 0.005245 0.022263
#
#
# Mechanical properties :
#
#
# Convention : Reuss Voigt Hill
#
# Bulk Modulus (GPa) = 22.12624 41.18046 31.65335
# Shear Modulus (GPa) = 27.66558 39.51162 33.58860
#
# Velocity S-wave (km/s) = 3.40477 4.06893 3.75158
# Velocity P-wave (km/s) = 4.97272 6.27140 5.65943
#
# Compressibility (1/GPa) = 0.04519521
#
# Stress axis : x y z
#
# Youngs Moduli (GPa) = 50.73095 76.20141 42.67265
#
# Poissons Ratio (x) = 0.27217 -0.24227
# Poissons Ratio (y) = 0.18120 0.32613
# Poissons Ratio (z) = -0.28802 0.58238
#
# Static dielectric constant tensor:
#      x y z
#    x 2.058670 0.010060 -0.043340 
#    y 0.010060 1.939160 0.039810 
#    z -0.043340 0.039810 1.974700 
# 
# From -- ./inp_files/529857.got.cif
#   From: 2010.05.17/outbox.cif.g08.bks.cpg/sg2_265_cif.got.tgz:529857.got - 2010.06.03 11:33:40.
