data_PCOD9036825
_publ_section_title
;
Structure prediction by ZEFSAII (Michael W. Deem and Ramdas Pophale) SiO2 
 PCOD9036825
Probable space group: P -1
;
_chemical_formula_sum "Si O2"
_cell_formula_units_Z 14
_cell_length_a 9.617390
_cell_length_b 17.940671
_cell_length_c 12.516463
_cell_angle_alpha 31.998277
_cell_angle_beta 128.707543
_cell_angle_gamma 143.743572
_cell_volume 664.877594
_symmetry_space_group_name_H-M "P -1"
_symmetry_group_IT_number 2
_symmetry_cell_setting 'triclinic'
loop_
_space_group_symop_operation_xyz
x,y,z
-x,-y,-z
loop_
_atom_site_type_symbol
_atom_site_label
_atom_site_fract_x
_atom_site_fract_y
_atom_site_fract_z
Si Si1 0.446070 0.184566 0.211811
Si Si2 0.913669 0.830996 0.084928
Si Si3 0.507253 0.442730 0.454671
Si Si4 0.576769 0.910520 0.076108
Si Si5 0.211817 0.398418 0.169619
Si Si6 0.273822 0.143314 0.415691
Si Si7 0.638980 0.101773 0.224261
O O1 0.319618 0.119521 0.345013
O O2 0.496620 0.075234 0.294776
O O3 0.275696 0.193897 0.050427
O O4 0.692748 0.401929 0.068666
O O5 0.769788 0.625578 0.316274
O O6 0.000000 0.000000 0.000000
O O7 0.148052 0.916649 0.029432
O O8 0.500000 0.500000 0.500000
O O9 0.457281 0.252041 0.678445
O O10 0.309647 0.409905 0.321117
O O11 0.435485 0.837071 0.983856
O O12 0.500000 0.000000 0.000000
O O13 0.333595 0.336886 0.232464
O O14 0.924096 0.253034 0.200314
O O15 0.410546 0.085901 0.607937
O O16 0.000000 0.000000 0.500000
#
# Coordination Sequence:
#
# PCOD9036825 Si02
#       7
#     2   2   2   2   2   2   2
#     4  11  22  41  66  93 127 170 216 272 315 387
#     4  11  23  43  69  96 130 176 227 260 330 403
#     4  11  23  44  73  95 129 182 217 264 334 395
#     4  12  26  44  69  98 140 171 217 282 323 385
#     4  10  23  42  65  95 130 163 219 265 326 391
#     4  10  23  39  63  91 128 169 209 263 331 380
#     4  11  23  42  63 101 126 168 219 264 326 381
#
# _framework density 21.056508000000001
#
# number of rings (size 3 to 8) (size 9 to 14) (size 15 to 20)
#    0.000    1.143    2.857    3.000    8.000    0.571 
#    5.143    0.000    0.000    0.000    0.000    0.000 
#    0.000    0.000    0.000    0.000    0.000    0.000 
#
# Total GULP energy -78072.277768 kJ/mol
# GULP energy per Si atom -5576.591269 kJ/mol
# Density = 2.100858 g / cm^3
# Si number density = 21.056508 Si / 1000 Ang^3
#
#
#
# Elastic Constant Matrix: (Units=GPa)
#
#
# Indices 1 2 3 4 5 6 
#
# 1 163.1373 24.1581 29.4930 -4.7568 -5.1320 6.4435
# 2 24.1581 60.4278 11.0063 -1.2905 -15.2928 14.6260
# 3 29.4930 11.0063 81.4875 -4.2171 -15.5511 13.7812
# 4 -4.7568 -1.2905 -4.2171 25.8364 -0.4039 -4.5310
# 5 -5.1320 -15.2928 -15.5511 -0.4039 31.7718 -2.2271
# 6 6.4435 14.6260 13.7812 -4.5310 -2.2271 35.1633
#
#
#
# Elastic Compliance Matrix: (Units=1/GPa)
#
#
# Indices 1 2 3 4 5 6 
#
# 1 0.006956 -0.002890 -0.002511 0.000868 -0.001420 0.000934
# 2 -0.002890 0.022126 0.001457 -0.000548 0.010282 -0.008664
# 3 -0.002511 0.001457 0.015413 0.001270 0.007467 -0.005550
# 4 0.000868 -0.000548 0.001270 0.039907 0.001342 0.004798
# 5 -0.001420 0.010282 0.007467 0.001342 0.039567 -0.004264
# 6 0.000934 -0.008664 -0.005550 0.004798 -0.004264 0.034395
#
#
# Mechanical properties :
#
#
# Convention : Reuss Voigt Hill
#
# Bulk Modulus (GPa) = 27.31813 48.26304 37.79059
# Shear Modulus (GPa) = 28.01824 34.58066 31.29945
#
# Velocity S-wave (km/s) = 3.65173 4.05690 3.85963
# Velocity P-wave (km/s) = 5.54816 6.70187 6.15212
#
# Compressibility (1/GPa) = 0.03660572
#
# Stress axis : x y z
#
# Youngs Moduli (GPa) = 143.77063 45.19515 64.87937
#
# Poissons Ratio (x) = 0.13062 0.16292
# Poissons Ratio (y) = 0.41553 -0.09451
# Poissons Ratio (z) = 0.36102 -0.06583
#
# Static dielectric constant tensor:
#      x y z
#    x 1.578780 0.122790 -0.209130 
#    y 0.122790 1.622610 0.171220 
#    z -0.209130 0.171220 1.609000 
# 
# From -- ./inp_files/205882.got.cif
#   From: 2010.05.17/outbox.cif.g08.bks.cpg/sg2_103_cif.got.tgz:205882.got - 2010.06.03 11:33:40.
