data_PCOD9036349
_publ_section_title
;
Structure prediction by ZEFSAII (Michael W. Deem and Ramdas Pophale) SiO2 
 PCOD9036349
Probable space group: P -1
;
_chemical_formula_sum "Si O2"
_cell_formula_units_Z 16
_cell_length_a 7.519371
_cell_length_b 9.646800
_cell_length_c 12.539826
_cell_angle_alpha 92.279697
_cell_angle_beta 45.355123
_cell_angle_gamma 104.258967
_cell_volume 615.397585
_symmetry_space_group_name_H-M "P -1"
_symmetry_group_IT_number 2
_symmetry_cell_setting 'triclinic'
loop_
_space_group_symop_operation_xyz
x,y,z
-x,-y,-z
loop_
_atom_site_type_symbol
_atom_site_label
_atom_site_fract_x
_atom_site_fract_y
_atom_site_fract_z
Si Si1 0.352565 0.283198 0.226283
Si Si2 0.190562 0.398160 0.753625
Si Si3 0.872127 0.194505 0.587456
Si Si4 0.880598 0.477228 0.719246
Si Si5 0.115896 0.990633 0.211259
Si Si6 0.841240 0.176799 0.019560
Si Si7 0.368697 0.977593 0.689638
Si Si8 0.423563 0.681305 0.567751
O O1 0.632164 0.262769 0.128495
O O2 0.143454 0.225258 0.409308
O O3 0.330904 0.439040 0.204939
O O4 0.244370 0.163274 0.174922
O O5 0.918526 0.409380 0.816343
O O6 0.380471 0.562533 0.678674
O O7 0.326591 0.327243 0.603696
O O8 0.120157 0.298209 0.883167
O O9 0.857062 0.089709 0.692913
O O10 0.629927 0.104731 0.613643
O O11 0.852848 0.348731 0.642862
O O12 0.165134 0.604901 0.601212
O O13 0.815190 0.973292 0.311982
O O14 0.217758 0.919172 0.066135
O O15 0.804961 0.072724 0.132338
O O16 0.417923 0.833328 0.618916
#
# Coordination Sequence:
#
# PCOD9036349 Si02
#       8
#     2   2   2   2   2   2   2   2
#     4  12  27  47  79 113 156 205 263 315 389 471
#     4   9  21  44  77 107 152 207 247 318 393 448
#     4  12  28  50  81 119 151 204 266 326 383 455
#     4  10  22  51  79 110 153 205 254 322 395 449
#     4  12  25  54  74 109 168 202 253 326 391 447
#     4  12  27  45  75 117 159 208 252 323 388 464
#     4  12  28  48  81 119 149 209 271 314 383 469
#     4   9  21  47  78 107 154 201 256 322 384 453
#
# _framework density 25.999452000000002
#
# number of rings (size 3 to 8) (size 9 to 14) (size 15 to 20)
#    0.750    0.250    3.750    1.500    3.500    2.500 
#    2.250    3.750    0.000    0.000    0.000    0.000 
#    0.000    0.000    0.000    0.000    0.000    0.000 
#
# Total GULP energy -89662.255153 kJ/mol
# GULP energy per Si atom -5603.890947 kJ/mol
# Density = 2.594028 g / cm^3
# Si number density = 25.999452 Si / 1000 Ang^3
#
#
#
# Elastic Constant Matrix: (Units=GPa)
#
#
# Indices 1 2 3 4 5 6 
#
# 1 70.6567 27.6137 -2.0389 8.3792 -4.3121 13.3458
# 2 27.6137 210.5386 47.3610 28.9562 -7.3090 12.8792
# 3 -2.0389 47.3610 125.1215 2.6390 9.4546 5.4732
# 4 8.3792 28.9562 2.6390 48.9123 -3.9192 -8.5736
# 5 -4.3121 -7.3090 9.4546 -3.9192 31.1453 -2.9566
# 6 13.3458 12.8792 5.4732 -8.5736 -2.9566 34.6918
#
#
#
# Elastic Compliance Matrix: (Units=1/GPa)
#
#
# Indices 1 2 3 4 5 6 
#
# 1 0.016455 -0.001576 0.001180 -0.003071 0.000533 -0.006645
# 2 -0.001576 0.006118 -0.002274 -0.003488 0.001273 -0.002060
# 3 0.001180 -0.002274 0.009172 0.000161 -0.003257 -0.001294
# 4 -0.003071 -0.003488 0.000161 0.024783 0.002661 0.008803
# 5 0.000533 0.001273 -0.003257 0.002661 0.034127 0.003402
# 6 -0.006645 -0.002060 -0.001294 0.008803 0.003402 0.034816
#
#
# Mechanical properties :
#
#
# Convention : Reuss Voigt Hill
#
# Bulk Modulus (GPa) = 37.87336 61.35427 49.61382
# Shear Modulus (GPa) = 35.81353 45.17527 40.49440
#
# Velocity S-wave (km/s) = 3.71546 4.17291 3.95081
# Velocity P-wave (km/s) = 5.74498 6.84596 6.31949
#
# Compressibility (1/GPa) = 0.02640378
#
# Stress axis : x y z
#
# Youngs Moduli (GPa) = 60.77245 163.45414 109.03295
#
# Poissons Ratio (x) = 0.25763 -0.12865
# Poissons Ratio (y) = 0.09579 0.24794
# Poissons Ratio (z) = -0.07171 0.37169
#
# Static dielectric constant tensor:
#      x y z
#    x 2.115090 -0.007660 0.012220 
#    y -0.007660 2.039910 -0.059620 
#    z 0.012220 -0.059620 2.060260 
# 
# From -- ./inp_files/515745.got.cif
#   From: 2010.05.17/outbox.cif.g08.bks.cpg/sg2_258_cif.got.tgz:515745.got - 2010.06.03 11:33:40.
