data_PCOD9036085
_publ_section_title
;
Structure prediction by ZEFSAII (Michael W. Deem and Ramdas Pophale) SiO2 
 PCOD9036085
Probable space group: P -1
;
_chemical_formula_sum "Si O2"
_cell_formula_units_Z 16
_cell_length_a 8.287640
_cell_length_b 13.174083
_cell_length_c 15.077993
_cell_angle_alpha 28.359061
_cell_angle_beta 110.449904
_cell_angle_gamma 95.483151
_cell_volume 644.301422
_symmetry_space_group_name_H-M "P -1"
_symmetry_group_IT_number 2
_symmetry_cell_setting 'triclinic'
loop_
_space_group_symop_operation_xyz
x,y,z
-x,-y,-z
loop_
_atom_site_type_symbol
_atom_site_label
_atom_site_fract_x
_atom_site_fract_y
_atom_site_fract_z
Si Si1 0.784717 0.050515 0.404307
Si Si2 0.702739 0.032485 0.692275
Si Si3 0.394374 0.813666 0.096170
Si Si4 0.229253 0.324040 0.177968
Si Si5 0.434466 0.575199 0.788466
Si Si6 0.181014 0.339460 0.724668
Si Si7 0.975818 0.187805 0.930991
Si Si8 0.590097 0.038240 0.204938
O O1 0.663607 0.312084 0.223948
O O2 0.752447 0.001903 0.335533
O O3 0.726381 0.884646 0.581019
O O4 0.000000 0.000000 0.500000
O O5 0.716277 0.812125 0.801573
O O6 0.525219 0.098256 0.676613
O O7 0.666740 0.238646 0.454861
O O8 0.894585 0.948837 0.853425
O O9 0.627447 0.624049 0.286629
O O10 0.251647 0.696520 0.173316
O O11 0.338289 0.971644 0.872757
O O12 0.313221 0.041235 0.973372
O O13 0.348263 0.457109 0.132759
O O14 0.000000 0.500000 0.000000
O O15 0.437835 0.325487 0.961870
O O16 0.059814 0.361505 0.774970
O O17 0.000000 0.500000 0.500000
O O18 0.000000 0.000000 0.000000
#
# Coordination Sequence:
#
# PCOD9036085 Si02
#       8
#     2   2   2   2   2   2   2   2
#     4  11  23  40  62  94 134 179 225 282 330 402
#     4  11  23  45  66  95 138 178 229 290 340 408
#     4  10  24  43  68 102 136 175 227 287 346 420
#     4  11  23  41  63  93 136 179 231 279 337 410
#     4  11  24  42  64  96 132 182 226 278 347 402
#     4  10  22  47  72  99 134 175 227 287 354 417
#     4  10  23  45  70  95 139 177 219 295 347 401
#     4  12  23  42  67  96 138 177 229 281 343 413
#
# _framework density 24.833098
#
# number of rings (size 3 to 8) (size 9 to 14) (size 15 to 20)
#    0.000    1.250    3.750    1.875    7.000    2.500 
#    4.500    0.000    0.000    0.000    0.000    0.000 
#    0.000    0.000    0.000    0.000    0.000    0.000 
#
# Total GULP energy -89332.963957 kJ/mol
# GULP energy per Si atom -5583.310247 kJ/mol
# Density = 2.477658 g / cm^3
# Si number density = 24.833098 Si / 1000 Ang^3
#
#
#
# Elastic Constant Matrix: (Units=GPa)
#
#
# Indices 1 2 3 4 5 6 
#
# 1 180.4026 10.7163 45.1404 26.5828 27.7711 -1.0362
# 2 10.7163 44.8699 15.9918 20.0042 0.7558 4.2831
# 3 45.1404 15.9918 114.6780 32.3581 12.7910 4.4472
# 4 26.5828 20.0042 32.3581 48.1537 5.1687 -0.3856
# 5 27.7711 0.7558 12.7910 5.1687 49.4499 11.1700
# 6 -1.0362 4.2831 4.4472 -0.3856 11.1700 30.0374
#
#
#
# Elastic Compliance Matrix: (Units=1/GPa)
#
#
# Indices 1 2 3 4 5 6 
#
# 1 0.006870 -0.000176 -0.001744 -0.002147 -0.003593 0.001829
# 2 -0.000176 0.028069 -0.000687 -0.011369 0.002130 -0.004845
# 3 -0.001744 -0.000687 0.011461 -0.006357 -0.001001 -0.001368
# 4 -0.002147 -0.011369 -0.006357 0.031076 -0.000957 0.003243
# 5 -0.003593 0.002130 -0.001001 -0.000957 0.024708 -0.009480
# 6 0.001829 -0.004845 -0.001368 0.003243 -0.009480 0.037815
#
#
# Mechanical properties :
#
#
# Convention : Reuss Voigt Hill
#
# Bulk Modulus (GPa) = 24.27991 53.73864 39.00927
# Shear Modulus (GPa) = 31.45835 43.40166 37.43000
#
# Velocity S-wave (km/s) = 3.56306 4.18513 3.88656
# Velocity P-wave (km/s) = 5.16969 6.71123 5.99025
#
# Compressibility (1/GPa) = 0.04118631
#
# Stress axis : x y z
#
# Youngs Moduli (GPa) = 145.56025 35.62682 87.25490
#
# Poissons Ratio (x) = 0.00627 0.15217
# Poissons Ratio (y) = 0.02562 0.05991
# Poissons Ratio (z) = 0.25385 0.02446
#
# Static dielectric constant tensor:
#      x y z
#    x 1.223940 0.735990 -0.596150 
#    y 0.735990 1.480090 0.472340 
#    z -0.596150 0.472340 1.597490 
# 
# From -- ./inp_files/328448.got.cif
#   From: 2010.05.17/outbox.cif.g08.bks.cpg/sg2_165_cif.got.tgz:328448.got - 2010.06.03 11:33:40.
