data_PCOD9036746
_publ_section_title
;
Structure prediction by ZEFSAII (Michael W. Deem and Ramdas Pophale) SiO2 
 PCOD9036746
Probable space group: P -1
;
_chemical_formula_sum "Si O2"
_cell_formula_units_Z 14
_cell_length_a 11.738351
_cell_length_b 4.993385
_cell_length_c 12.128902
_cell_angle_alpha 56.759481
_cell_angle_beta 76.457453
_cell_angle_gamma 96.617990
_cell_volume 551.515809
_symmetry_space_group_name_H-M "P -1"
_symmetry_group_IT_number 2
_symmetry_cell_setting 'triclinic'
loop_
_space_group_symop_operation_xyz
x,y,z
-x,-y,-z
loop_
_atom_site_type_symbol
_atom_site_label
_atom_site_fract_x
_atom_site_fract_y
_atom_site_fract_z
Si Si1 0.250611 0.835136 0.908272
Si Si2 0.597925 0.705925 0.771715
Si Si3 0.493349 0.248843 0.654511
Si Si4 0.969735 0.644267 0.656319
Si Si5 0.913585 0.947437 0.271360
Si Si6 0.242747 0.359816 0.415312
Si Si7 0.648161 0.788776 0.997576
O O1 0.364167 0.142046 0.767691
O O2 0.134518 0.893654 0.858841
O O3 0.270003 0.896602 0.021296
O O4 0.281343 0.496637 0.944611
O O5 0.730035 0.841293 0.650846
O O6 0.493053 0.347294 0.895159
O O7 0.516468 0.909931 0.684647
O O8 0.628323 0.815482 0.866788
O O9 0.500000 0.500000 0.500000
O O10 0.616533 0.424641 0.653926
O O11 0.052177 0.392022 0.686749
O O12 0.848475 0.457338 0.657022
O O13 0.978635 0.772532 0.751504
O O14 0.000000 0.000000 0.500000
O O15 0.808856 0.835087 0.417258
#
# Coordination Sequence:
#
# PCOD9036746 Si02
#       7
#     2   2   2   2   2   2   2
#     4  11  22  41  64  90 128 164 205 253 313 364
#     4  10  24  37  62  89 130 166 204 251 304 372
#     4  11  23  36  59  99 129 157 195 257 327 373
#     4  10  23  39  60  89 125 167 208 242 305 375
#     4  11  23  40  63  91 126 163 203 257 306 367
#     4  11  22  37  62  91 126 159 200 255 312 370
#     4  10  23  41  61  91 125 169 212 243 300 375
#
# _framework density 25.384584
#
# number of rings (size 3 to 8) (size 9 to 14) (size 15 to 20)
#    0.000    1.429    2.857    2.571    8.000    3.429 
#    0.000    0.000    0.000    5.143    0.000    0.000 
#    0.000    0.000    0.000    0.000    0.000    0.000 
#
# Total GULP energy -78066.681424 kJ/mol
# GULP energy per Si atom -5576.191530 kJ/mol
# Density = 2.532681 g / cm^3
# Si number density = 25.384584 Si / 1000 Ang^3
#
#
#
# Elastic Constant Matrix: (Units=GPa)
#
#
# Indices 1 2 3 4 5 6 
#
# 1 93.8067 20.3019 1.8755 -4.1385 36.9384 8.0372
# 2 20.3019 95.5151 -7.2323 -2.9959 6.1784 0.9823
# 3 1.8755 -7.2323 55.8952 -4.8790 19.3455 -21.9041
# 4 -4.1385 -2.9959 -4.8790 31.3423 -1.1569 1.2579
# 5 36.9384 6.1784 19.3455 -1.1569 32.7572 0.6126
# 6 8.0372 0.9823 -21.9041 1.2579 0.6126 45.6219
#
#
#
# Elastic Compliance Matrix: (Units=1/GPa)
#
#
# Indices 1 2 3 4 5 6 
#
# 1 0.024009 -0.001988 0.011434 0.003462 -0.033360 0.001655
# 2 -0.001988 0.011204 0.002638 0.001112 -0.001416 0.001364
# 3 0.011434 0.002638 0.036736 0.005544 -0.035188 0.015886
# 4 0.003462 0.001112 0.005544 0.033054 -0.006243 0.001200
# 5 -0.033360 -0.001416 -0.035188 -0.006243 0.089197 -0.012013
# 6 0.001655 0.001364 0.015886 0.001200 -0.012013 0.029354
#
#
# Mechanical properties :
#
#
# Convention : Reuss Voigt Hill
#
# Bulk Modulus (GPa) = 10.40390 30.56746 20.48568
# Shear Modulus (GPa) = 21.60522 37.29575 29.45048
#
# Velocity S-wave (km/s) = 2.92055 3.83721 3.40982
# Velocity P-wave (km/s) = 3.93450 5.63029 4.85697
#
# Compressibility (1/GPa) = 0.09611777
#
# Stress axis : x y z
#
# Youngs Moduli (GPa) = 41.65132 89.25168 27.22096
#
# Poissons Ratio (x) = 0.17742 -0.31125
# Poissons Ratio (y) = 0.08280 -0.07181
# Poissons Ratio (z) = -0.47624 -0.23545
#
# Static dielectric constant tensor:
#      x y z
#    x 0.961270 4.166640 1.309480 
#    y 4.166640 -12.523080 -4.936440 
#    z 1.309480 -4.936440 0.323040 
# 
# From -- ./inp_files/67868.got.cif
#   From: 2010.05.17/outbox.cif.g08.bks.cpg/sg2_34_cif.got.tgz:67868.got - 2010.06.03 11:33:40.
