data_PCOD9036969
_publ_section_title
;
Structure prediction by ZEFSAII (Michael W. Deem and Ramdas Pophale) SiO2 
 PCOD9036969
Probable space group: P -1
;
_chemical_formula_sum "Si O2"
_cell_formula_units_Z 16
_cell_length_a 10.167155
_cell_length_b 9.208643
_cell_length_c 10.552404
_cell_angle_alpha 44.776083
_cell_angle_beta 64.695959
_cell_angle_gamma 58.756704
_cell_volume 592.063828
_symmetry_space_group_name_H-M "P -1"
_symmetry_group_IT_number 2
_symmetry_cell_setting 'triclinic'
loop_
_space_group_symop_operation_xyz
x,y,z
-x,-y,-z
loop_
_atom_site_type_symbol
_atom_site_label
_atom_site_fract_x
_atom_site_fract_y
_atom_site_fract_z
Si Si1 0.822228 0.079758 0.667258
Si Si2 0.427776 0.817089 0.097467
Si Si3 0.353719 0.016783 0.421461
Si Si4 0.302377 0.137415 0.734061
Si Si5 0.300770 0.609080 0.835048
Si Si6 0.880635 0.465919 0.268045
Si Si7 0.991765 0.120989 0.796403
Si Si8 0.199570 0.506509 0.203187
O O1 0.668260 0.214862 0.723567
O O2 0.758767 0.943145 0.680824
O O3 0.890871 0.233575 0.465059
O O4 0.946966 0.988734 0.783530
O O5 0.545754 0.592134 0.138640
O O6 0.500000 0.000000 0.000000
O O7 0.322848 0.940983 0.947331
O O8 0.531906 0.919850 0.364674
O O9 0.317307 0.832325 0.634769
O O10 0.252508 0.352161 0.710635
O O11 0.313992 0.262904 0.335368
O O12 0.155007 0.157805 0.693767
O O13 0.171750 0.544175 0.847864
O O14 0.272182 0.607554 0.997326
O O15 0.037888 0.505277 0.210632
O O16 0.857146 0.353509 0.732440
O O17 0.000000 0.000000 0.000000
#
# Coordination Sequence:
#
# PCOD9036969 Si02
#       8
#     2   2   2   2   2   2   2   2
#     4  11  23  42  70 105 137 177 242 286 344 410
#     4  12  19  36  73 104 139 179 235 297 337 407
#     4  11  24  44  75 105 139 179 236 295 345 409
#     4  11  21  41  68 103 138 182 234 286 348 406
#     4  11  22  40  69 107 138 182 232 294 349 408
#     4  10  23  39  67 102 141 179 232 291 346 408
#     4  11  26  45  72 103 140 188 231 285 353 422
#     4  11  25  44  68 104 148 182 227 286 360 417
#
# _framework density 27.024113
#
# number of rings (size 3 to 8) (size 9 to 14) (size 15 to 20)
#    0.000    1.000    5.000    1.125    0.000    8.000 
#    0.000    2.500    0.000    7.500    0.000    0.000 
#    0.000    0.000    0.000    0.000    0.000    0.000 
#
# Total GULP energy -89766.778366 kJ/mol
# GULP energy per Si atom -5610.423648 kJ/mol
# Density = 2.696261 g / cm^3
# Si number density = 27.024113 Si / 1000 Ang^3
#
#
#
# Elastic Constant Matrix: (Units=GPa)
#
#
# Indices 1 2 3 4 5 6 
#
# 1 136.4314 44.0412 19.4365 5.5421 5.3017 14.0819
# 2 44.0412 190.4101 27.5381 -11.8618 -5.5595 -6.6793
# 3 19.4365 27.5381 102.0433 2.5353 -0.4270 -4.3511
# 4 5.5421 -11.8618 2.5353 35.4146 -7.8186 -6.4754
# 5 5.3017 -5.5595 -0.4270 -7.8186 40.1901 8.7420
# 6 14.0819 -6.6793 -4.3511 -6.4754 8.7420 31.9058
#
#
#
# Elastic Compliance Matrix: (Units=1/GPa)
#
#
# Indices 1 2 3 4 5 6 
#
# 1 0.008926 -0.002293 -0.001217 -0.003216 -0.001057 -0.004949
# 2 -0.002293 0.006289 -0.001231 0.003285 0.001258 0.002483
# 3 -0.001217 -0.001231 0.010452 -0.000756 -0.000407 0.001663
# 4 -0.003216 0.003285 -0.000756 0.032429 0.005648 0.007038
# 5 -0.001057 0.001258 -0.000407 0.005648 0.027535 -0.005724
# 6 -0.004949 0.002483 0.001663 0.007038 -0.005724 0.037269
#
#
# Mechanical properties :
#
#
# Convention : Reuss Voigt Hill
#
# Bulk Modulus (GPa) = 61.78771 67.87959 64.83365
# Shear Modulus (GPa) = 36.29091 44.02672 40.15881
#
# Velocity S-wave (km/s) = 3.66855 4.04067 3.85910
# Velocity P-wave (km/s) = 6.39202 6.85143 6.62570
#
# Compressibility (1/GPa) = 0.01618445
#
# Stress axis : x y z
#
# Youngs Moduli (GPa) = 112.03442 159.01408 95.67863
#
# Poissons Ratio (x) = 0.36467 0.11642
# Poissons Ratio (y) = 0.25693 0.11776
# Poissons Ratio (z) = 0.13632 0.19571
#
# Static dielectric constant tensor:
#      x y z
#    x 2.153360 -0.000700 0.011200 
#    y -0.000700 2.099510 -0.016360 
#    z 0.011200 -0.016360 2.063650 
# 
# From -- ./inp_files/424945.got.cif
#   From: 2010.05.17/outbox.cif.g08.bks.cpg/sg2_213_cif.got.tgz:424945.got - 2010.06.03 11:33:40.
