data_PCOD9036501
_publ_section_title
;
Structure prediction by ZEFSAII (Michael W. Deem and Ramdas Pophale) SiO2 
 PCOD9036501
Probable space group: P -1
;
_chemical_formula_sum "Si O2"
_cell_formula_units_Z 16
_cell_length_a 18.523113
_cell_length_b 9.080238
_cell_length_c 5.358741
_cell_angle_alpha 89.276174
_cell_angle_beta 131.159576
_cell_angle_gamma 92.735396
_cell_volume 677.592945
_symmetry_space_group_name_H-M "P -1"
_symmetry_group_IT_number 2
_symmetry_cell_setting 'triclinic'
loop_
_space_group_symop_operation_xyz
x,y,z
-x,-y,-z
loop_
_atom_site_type_symbol
_atom_site_label
_atom_site_fract_x
_atom_site_fract_y
_atom_site_fract_z
Si Si1 0.442068 0.674298 0.113188
Si Si2 0.147392 0.013406 0.846102
Si Si3 0.153095 0.514707 0.852666
Si Si4 0.908425 0.226376 0.969727
Si Si5 0.913103 0.720783 0.987015
Si Si6 0.770570 0.720668 0.267439
Si Si7 0.440405 0.320463 0.111754
Si Si8 0.763304 0.209865 0.249551
O O1 0.424871 0.496570 0.055884
O O2 0.501800 0.703781 0.501940
O O3 0.500990 0.721990 0.998744
O O4 0.341562 0.749542 0.910089
O O5 0.129080 0.128173 0.021685
O O6 0.068516 0.881464 0.743115
O O7 0.164558 0.135438 0.666857
O O8 0.232688 0.904945 0.969087
O O9 0.234066 0.397814 0.969268
O O10 0.176201 0.639154 0.693902
O O11 0.137234 0.626935 0.038975
O O12 0.070061 0.387654 0.737074
O O13 0.824419 0.146313 0.615068
O O14 0.996474 0.257046 0.985759
O O15 0.828213 0.648164 0.623206
O O16 0.664963 0.757011 0.106710
#
# Coordination Sequence:
#
# PCOD9036501 Si02
#       8
#     2   2   2   2   2   2   2   2
#     4  10  23  40  70 101 131 170 222 278 344 405
#     4  10  25  41  65  88 134 175 227 260 334 391
#     4  10  23  37  65  92 132 161 221 270 344 379
#     4  11  24  40  64  95 130 175 222 272 330 398
#     4  11  24  40  64  95 130 175 222 272 330 398
#     4  11  23  42  64  94 132 172 216 279 330 396
#     4  10  23  40  70 101 131 170 222 278 344 405
#     4  11  23  42  64  94 132 172 216 279 330 396
#
# _framework density 23.612997
#
# number of rings (size 3 to 8) (size 9 to 14) (size 15 to 20)
#    0.000    1.500    1.250    2.250    7.000    6.000 
#    0.000    1.250    0.000    0.000    0.000    0.000 
#    0.000    0.000    0.000    0.000    0.000    0.000 
#
# Total GULP energy -89090.335960 kJ/mol
# GULP energy per Si atom -5568.145998 kJ/mol
# Density = 2.355925 g / cm^3
# Si number density = 23.612997 Si / 1000 Ang^3
#
#
#
# Elastic Constant Matrix: (Units=GPa)
#
#
# Indices 1 2 3 4 5 6 
#
# 1 217.5234 54.1641 72.2615 -2.9338 -12.7983 -22.9432
# 2 54.1641 128.1856 16.1473 -13.2172 -14.5077 -5.3477
# 3 72.2615 16.1473 68.8344 -8.8226 13.8979 -4.4984
# 4 -2.9338 -13.2172 -8.8226 22.1479 -2.0642 -10.3014
# 5 -12.7983 -14.5077 13.8979 -2.0642 27.4012 1.5662
# 6 -22.9432 -5.3477 -4.4984 -10.3014 1.5662 43.0675
#
#
#
# Elastic Compliance Matrix: (Units=1/GPa)
#
#
# Indices 1 2 3 4 5 6 
#
# 1 0.009783 -0.001689 -0.011858 -0.002218 0.009357 0.002892
# 2 -0.001689 0.009950 -0.000641 0.006731 0.005215 0.001689
# 3 -0.011858 -0.000641 0.032675 0.009018 -0.021769 -0.000035
# 4 -0.002218 0.006731 0.009018 0.059482 0.001591 0.014766
# 5 0.009357 0.005215 -0.021769 0.001591 0.054687 0.001750
# 6 0.002892 0.001689 -0.000035 0.014766 0.001750 0.028434
#
#
# Mechanical properties :
#
#
# Convention : Reuss Voigt Hill
#
# Bulk Modulus (GPa) = 41.61077 77.74327 59.67702
# Shear Modulus (GPa) = 21.60773 36.65470 29.13121
#
# Velocity S-wave (km/s) = 3.02831 3.94421 3.51621
# Velocity P-wave (km/s) = 5.46697 7.33061 6.46628
#
# Compressibility (1/GPa) = 0.02403224
#
# Stress axis : x y z
#
# Youngs Moduli (GPa) = 102.22111 100.49990 30.60415
#
# Poissons Ratio (x) = 0.16974 0.36291
# Poissons Ratio (y) = 0.17265 0.01962
# Poissons Ratio (z) = 1.21215 0.06442
#
# Static dielectric constant tensor:
#      x y z
#    x 1.889760 0.033000 -0.032670 
#    y 0.033000 1.924310 0.009830 
#    z -0.032670 0.009830 1.908190 
# 
# From -- ./inp_files/107041.got.cif
#   From: 2010.05.17/outbox.cif.g08.bks.cpg/sg2_54_cif.got.tgz:107041.got - 2010.06.03 11:33:40.
