data_PCOD9036027
_publ_section_title
;
Structure prediction by ZEFSAII (Michael W. Deem and Ramdas Pophale) SiO2 
 PCOD9036027
Probable space group: P -1
;
_chemical_formula_sum "Si O2"
_cell_formula_units_Z 12
_cell_length_a 13.444528
_cell_length_b 14.157218
_cell_length_c 9.242731
_cell_angle_alpha 53.303802
_cell_angle_beta 75.237090
_cell_angle_gamma 29.233143
_cell_volume 504.485812
_symmetry_space_group_name_H-M "P -1"
_symmetry_group_IT_number 2
_symmetry_cell_setting 'triclinic'
loop_
_space_group_symop_operation_xyz
x,y,z
-x,-y,-z
loop_
_atom_site_type_symbol
_atom_site_label
_atom_site_fract_x
_atom_site_fract_y
_atom_site_fract_z
Si Si1 0.940921 0.232700 0.123262
Si Si2 0.067805 0.868870 0.248749
Si Si3 0.307913 0.363493 0.928765
Si Si4 0.680753 0.063955 0.293792
Si Si5 0.528778 0.188920 0.707206
Si Si6 0.323363 0.123987 0.325277
O O1 0.879369 0.326753 0.229181
O O2 0.156601 0.103158 0.111634
O O3 0.059794 0.980622 0.267625
O O4 0.629354 0.576576 0.859308
O O5 0.355790 0.492857 0.474229
O O6 0.844670 0.006745 0.248583
O O7 0.000000 0.000000 0.000000
O O8 0.390363 0.270068 0.818511
O O9 0.603936 0.079264 0.159770
O O10 0.206793 0.357025 0.061212
O O11 0.825419 0.819916 0.574998
O O12 0.518604 0.118641 0.634364
O O13 0.500000 0.000000 0.500000
#
# Coordination Sequence:
#
# PCOD9036027 Si02
#       6
#     2   2   2   2   2   2
#     4  10  24  44  69 101 143 176 226 278 344 397
#     4  12  25  44  71 103 139 181 232 280 340 412
#     4   9  23  45  69 103 139 181 227 277 342 404
#     4   9  22  45  70  99 138 186 222 273 344 398
#     4  12  25  43  71 106 136 177 233 280 344 404
#     4  10  22  47  70 101 137 184 225 285 339 407
#
# _framework density 23.786597
#
# number of rings (size 3 to 8) (size 9 to 14) (size 15 to 20)
#    1.000    0.667    0.000    3.500    2.333    1.333 
#    3.000    2.500    0.000    0.000    0.000    0.000 
#    0.000    0.000    0.000    0.000    0.000    0.000 
#
# Total GULP energy -66969.964186 kJ/mol
# GULP energy per Si atom -5580.830349 kJ/mol
# Density = 2.373246 g / cm^3
# Si number density = 23.786597 Si / 1000 Ang^3
#
#
#
# Elastic Constant Matrix: (Units=GPa)
#
#
# Indices 1 2 3 4 5 6 
#
# 1 161.0269 73.8733 30.8368 21.7806 -19.7436 -13.4388
# 2 73.8733 145.0442 53.9860 24.4900 -8.3719 -12.4595
# 3 30.8368 53.9860 117.0158 15.6472 -25.2760 -4.3207
# 4 21.7806 24.4900 15.6472 46.8880 -3.7737 6.6789
# 5 -19.7436 -8.3719 -25.2760 -3.7737 25.3179 -0.3823
# 6 -13.4388 -12.4595 -4.3207 6.6789 -0.3823 38.9211
#
#
#
# Elastic Compliance Matrix: (Units=1/GPa)
#
#
# Indices 1 2 3 4 5 6 
#
# 1 0.009252 -0.004229 0.001412 -0.002356 0.006913 0.002470
# 2 -0.004229 0.011163 -0.004540 -0.003014 -0.004557 0.002082
# 3 0.001412 -0.004540 0.013267 -0.001834 0.012586 0.000945
# 4 -0.002356 -0.003014 -0.001834 0.025435 -0.000969 -0.006356
# 5 0.006913 -0.004557 0.012586 -0.000969 0.055848 0.003040
# 6 0.002470 0.002082 0.000945 -0.006356 0.003040 0.028438
#
#
# Mechanical properties :
#
#
# Convention : Reuss Voigt Hill
#
# Bulk Modulus (GPa) = 52.71880 82.27546 67.49713
# Shear Modulus (GPa) = 30.40623 39.85146 35.12885
#
# Velocity S-wave (km/s) = 3.57920 4.09757 3.84713
# Velocity P-wave (km/s) = 6.26835 7.55321 6.94058
#
# Compressibility (1/GPa) = 0.01896857
#
# Stress axis : x y z
#
# Youngs Moduli (GPa) = 108.08310 89.58236 75.37478
#
# Poissons Ratio (x) = 0.37885 -0.10645
# Poissons Ratio (y) = 0.45709 0.34220
# Poissons Ratio (z) = -0.15265 0.40671
#
# Static dielectric constant tensor:
#      x y z
#    x 1.946260 -0.040000 0.069790 
#    y -0.040000 1.877760 -0.051400 
#    z 0.069790 -0.051400 1.960160 
# 
# From -- ./inp_files/314610.got.cif
#   From: 2010.05.17/outbox.cif.g08.bks.cpg/sg2_158_cif.got.tgz:314610.got - 2010.06.03 11:33:40.
