data_PCOD9036603
_publ_section_title
;
Structure prediction by ZEFSAII (Michael W. Deem and Ramdas Pophale) SiO2 
 PCOD9036603
Probable space group: P -1
;
_chemical_formula_sum "Si O2"
_cell_formula_units_Z 16
_cell_length_a 10.384002
_cell_length_b 18.961567
_cell_length_c 9.184876
_cell_angle_alpha 135.872108
_cell_angle_beta 57.517756
_cell_angle_gamma 145.326205
_cell_volume 709.839179
_symmetry_space_group_name_H-M "P -1"
_symmetry_group_IT_number 2
_symmetry_cell_setting 'triclinic'
loop_
_space_group_symop_operation_xyz
x,y,z
-x,-y,-z
loop_
_atom_site_type_symbol
_atom_site_label
_atom_site_fract_x
_atom_site_fract_y
_atom_site_fract_z
Si Si1 0.396569 0.610890 0.986675
Si Si2 0.641092 0.192522 0.717183
Si Si3 0.878753 0.640641 0.435617
Si Si4 0.788438 0.820451 0.864949
Si Si5 0.657615 0.488761 0.823153
Si Si6 0.632269 0.355325 0.355339
Si Si7 0.497973 0.970876 0.711465
Si Si8 0.179469 0.777218 0.881928
O O1 0.291878 0.662304 0.063111
O O2 0.321024 0.571564 0.138951
O O3 0.303804 0.468907 0.745192
O O4 0.662843 0.753291 0.998419
O O5 0.499143 0.117043 0.540324
O O6 0.874045 0.250359 0.623722
O O7 0.504922 0.071080 0.748480
O O8 0.852592 0.738127 0.661665
O O9 0.814712 0.520333 0.410530
O O10 0.592188 0.758656 0.778523
O O11 0.000000 0.000000 0.000000
O O12 0.567633 0.379941 0.581159
O O13 0.908971 0.650461 0.867680
O O14 0.500000 0.500000 0.000000
O O15 0.736535 0.295964 0.237886
O O16 0.280759 0.853182 0.774225
O O17 0.705638 0.090424 0.874068
#
# Coordination Sequence:
#
# PCOD9036603 Si02
#       8
#     2   2   2   2   2   2   2   2
#     4  11  23  43  65 101 132 175 233 282 332 402
#     4  11  22  38  69  99 133 174 234 279 338 390
#     4  11  22  41  71  96 133 178 226 285 332 396
#     4  11  26  44  67  99 142 179 224 276 348 409
#     4  12  24  43  67 101 134 176 225 284 341 394
#     4  11  23  44  70  98 131 181 235 271 338 406
#     4  10  23  38  63 101 139 175 220 279 345 395
#     4  11  23  43  68  95 138 180 231 272 338 412
#
# _framework density 22.540316000000001
#
# number of rings (size 3 to 8) (size 9 to 14) (size 15 to 20)
#    0.000    1.000    0.000    8.250    5.250    0.000 
#    2.250    0.625    0.000    0.000    0.000    0.000 
#    0.000    0.000    0.000    0.000    0.000    0.000 
#
# Total GULP energy -89488.577991 kJ/mol
# GULP energy per Si atom -5593.036124 kJ/mol
# Density = 2.248901 g / cm^3
# Si number density = 22.540316 Si / 1000 Ang^3
#
#
#
# Elastic Constant Matrix: (Units=GPa)
#
#
# Indices 1 2 3 4 5 6 
#
# 1 58.5618 53.3186 20.3610 -9.9918 -8.3848 0.9051
# 2 53.3186 177.1948 56.4117 -1.5089 10.0830 -6.3048
# 3 20.3610 56.4117 118.3370 -6.3139 9.8849 1.7791
# 4 -9.9918 -1.5089 -6.3139 38.5714 -2.5485 6.8631
# 5 -8.3848 10.0830 9.8849 -2.5485 43.9395 -9.4026
# 6 0.9051 -6.3048 1.7791 6.8631 -9.4026 39.6910
#
#
#
# Elastic Compliance Matrix: (Units=1/GPa)
#
#
# Indices 1 2 3 4 5 6 
#
# 1 0.027340 -0.008340 -0.000939 0.007346 0.007467 -0.001408
# 2 -0.008340 0.009279 -0.002918 -0.002748 -0.002884 0.001587
# 3 -0.000939 -0.002918 0.010282 0.001482 -0.002091 -0.001654
# 4 0.007346 -0.002748 0.001482 0.029031 0.002281 -0.005150
# 5 0.007467 -0.002884 -0.002091 0.002281 0.026598 0.005372
# 6 -0.001408 0.001587 -0.001654 -0.005150 0.005372 0.027716
#
#
# Mechanical properties :
#
#
# Convention : Reuss Voigt Hill
#
# Bulk Modulus (GPa) = 44.43117 68.25292 56.34205
# Shear Modulus (GPa) = 30.83702 39.37384 35.10543
#
# Velocity S-wave (km/s) = 3.70277 4.18403 3.95074
# Velocity P-wave (km/s) = 6.16728 7.32718 6.77211
#
# Compressibility (1/GPa) = 0.02250672
#
# Stress axis : x y z
#
# Youngs Moduli (GPa) = 36.57593 107.76655 97.26114
#
# Poissons Ratio (x) = 0.89881 0.09132
# Poissons Ratio (y) = 0.30506 0.28381
# Poissons Ratio (z) = 0.03434 0.31446
#
# Static dielectric constant tensor:
#      x y z
#    x 1.922560 -0.032170 0.041650 
#    y -0.032170 1.828950 0.011410 
#    z 0.041650 0.011410 1.873100 
# 
# From -- ./inp_files/283334.got.cif
#   From: 2010.05.17/outbox.cif.g08.bks.cpg/sg2_142_cif.got.tgz:283334.got - 2010.06.03 11:33:40.
