data_PCOD9036011
_publ_section_title
;
Structure prediction by ZEFSAII (Michael W. Deem and Ramdas Pophale) SiO2 
 PCOD9036011
Probable space group: P -1
;
_chemical_formula_sum "Si O2"
_cell_formula_units_Z 15
_cell_length_a 12.054074
_cell_length_b 9.415302
_cell_length_c 22.649812
_cell_angle_alpha 36.264461
_cell_angle_beta 150.113850
_cell_angle_gamma 122.376758
_cell_volume 630.238140
_symmetry_space_group_name_H-M "P -1"
_symmetry_group_IT_number 2
_symmetry_cell_setting 'triclinic'
loop_
_space_group_symop_operation_xyz
x,y,z
-x,-y,-z
loop_
_atom_site_type_symbol
_atom_site_label
_atom_site_fract_x
_atom_site_fract_y
_atom_site_fract_z
Si Si1 0.778121 0.228358 0.695863
Si Si2 0.475614 0.083875 0.781812
Si Si3 0.834690 0.924717 0.618668
Si Si4 0.014859 0.673279 0.395114
Si Si5 0.000000 0.000000 0.000000
Si Si6 0.775020 0.767350 0.768747
Si Si7 0.234332 0.740042 0.762718
Si Si8 0.761071 0.708119 0.151926
O O1 0.500000 0.500000 0.500000
O O2 0.925438 0.017253 0.889703
O O3 0.961182 0.342476 0.724930
O O4 0.754486 0.050314 0.691554
O O5 0.310330 0.429718 0.588553
O O6 0.749571 0.964920 0.913899
O O7 0.281438 0.995827 0.694117
O O8 0.550567 0.950729 0.927511
O O9 0.836221 0.733465 0.737742
O O10 0.988045 0.797581 0.670492
O O11 0.985927 0.059786 0.671102
O O12 0.521667 0.163104 0.383478
O O13 0.000000 0.500000 0.500000
O O14 0.781254 0.764745 0.210308
O O15 0.000000 0.500000 0.000000
O O16 0.240490 0.577460 0.761357
O O17 0.500000 0.500000 0.000000
#
# Coordination Sequence:
#
# PCOD9036011 Si02
#       8
#     2   2   2   2   1   2   2   2
#     4  11  22  42  68 100 141 186 234 295 360 425
#     4  10  23  43  66 101 140 182 237 289 353 424
#     4  11  25  48  72 101 152 184 242 305 357 433
#     4  12  24  44  71 102 139 188 232 288 361 431
#     4  10  24  38  70 100 136 184 238 288 350 432
#     4  11  27  45  74 108 144 196 242 295 375 438
#     4  10  22  47  69 103 141 187 238 304 357 422
#     4  10  23  42  69  96 137 181 235 290 352 419
#
# _framework density 23.800526999999999
#
# number of rings (size 3 to 8) (size 9 to 14) (size 15 to 20)
#    0.000    1.333    2.667    1.600    3.733    5.333 
#    7.200    0.000    0.000    0.000    0.000    0.000 
#    0.000    0.000    0.000    0.000    0.000    0.000 
#
# Total GULP energy -83570.858238 kJ/mol
# GULP energy per Si atom -5571.390549 kJ/mol
# Density = 2.374636 g / cm^3
# Si number density = 23.800527 Si / 1000 Ang^3
#
#
#
# Elastic Constant Matrix: (Units=GPa)
#
#
# Indices 1 2 3 4 5 6 
#
# 1 94.6503 -2.4217 26.2607 12.5813 2.9037 23.1047
# 2 -2.4217 95.4483 11.8387 20.3972 4.6706 -6.5555
# 3 26.2607 11.8387 117.8366 20.0301 -3.0435 1.4836
# 4 12.5813 20.3972 20.0301 37.4019 -6.2949 -0.7836
# 5 2.9037 4.6706 -3.0435 -6.2949 35.6017 11.1035
# 6 23.1047 -6.5555 1.4836 -0.7836 11.1035 21.3736
#
#
#
# Elastic Compliance Matrix: (Units=1/GPa)
#
#
# Indices 1 2 3 4 5 6 
#
# 1 0.016565 0.000029 -0.002678 -0.003909 0.003931 -0.019897
# 2 0.000029 0.012794 -0.000210 -0.007582 -0.004978 0.006216
# 3 -0.002678 -0.000210 0.009789 -0.004239 -0.000345 0.002175
# 4 -0.003909 -0.007582 -0.004239 0.035689 0.007362 -0.000322
# 5 0.003931 -0.004978 -0.000345 0.007362 0.037475 -0.024950
# 6 -0.019897 0.006216 0.002175 -0.000322 -0.024950 0.083000
#
#
# Mechanical properties :
#
#
# Convention : Reuss Voigt Hill
#
# Bulk Modulus (GPa) = 29.91309 42.14340 36.02824
# Shear Modulus (GPa) = 23.56560 37.02594 30.29577
#
# Velocity S-wave (km/s) = 3.15005 3.94849 3.57165
# Velocity P-wave (km/s) = 5.08192 6.20748 5.67268
#
# Compressibility (1/GPa) = 0.03343018
#
# Stress axis : x y z
#
# Youngs Moduli (GPa) = 60.36829 78.15870 102.16027
#
# Poissons Ratio (x) = -0.00226 0.27359
# Poissons Ratio (y) = -0.00175 0.02144
# Poissons Ratio (z) = 0.16167 0.01640
#
# Static dielectric constant tensor:
#      x y z
#    x 1.920660 -0.043080 0.035990 
#    y -0.043080 1.921000 -0.026010 
#    z 0.035990 -0.026010 1.874900 
# 
# From -- ./inp_files/593993.got.cif
#   From: 2010.05.17/outbox.cif.g08.bks.cpg/sg2_297_cif.got.tgz:593993.got - 2010.06.03 11:33:40.
