data_PCOD9036394
_publ_section_title
;
Structure prediction by ZEFSAII (Michael W. Deem and Ramdas Pophale) SiO2 
 PCOD9036394
Probable space group: P -1
;
_chemical_formula_sum "Si O2"
_cell_formula_units_Z 16
_cell_length_a 12.011123
_cell_length_b 14.032362
_cell_length_c 16.718962
_cell_angle_alpha 154.218896
_cell_angle_beta 134.770974
_cell_angle_gamma 49.651829
_cell_volume 869.281764
_symmetry_space_group_name_H-M "P -1"
_symmetry_group_IT_number 2
_symmetry_cell_setting 'triclinic'
loop_
_space_group_symop_operation_xyz
x,y,z
-x,-y,-z
loop_
_atom_site_type_symbol
_atom_site_label
_atom_site_fract_x
_atom_site_fract_y
_atom_site_fract_z
Si Si1 0.554049 0.447540 0.115823
Si Si2 0.683620 0.764778 0.910252
Si Si3 0.655902 0.201936 0.640578
Si Si4 0.967769 0.131178 0.501022
Si Si5 0.707589 0.698320 0.250251
Si Si6 0.008229 0.699826 0.092301
Si Si7 0.462189 0.930646 0.060826
Si Si8 0.362761 0.700388 0.483824
O O1 0.489992 0.663905 0.293916
O O2 0.680815 0.519210 0.169615
O O3 0.409399 0.352752 0.920144
O O4 0.602997 0.262214 0.064483
O O5 0.589202 0.554843 0.675577
O O6 0.653101 0.963389 0.984097
O O7 0.864782 0.682997 0.946327
O O8 0.612267 0.832941 0.012221
O O9 0.669676 0.263396 0.599971
O O10 0.810026 0.285108 0.827086
O O11 0.656342 0.939078 0.441627
O O12 0.798358 0.247864 0.510942
O O13 0.113766 0.282866 0.673754
O O14 0.971451 0.938110 0.292494
O O15 0.000000 0.000000 0.500000
O O16 0.000000 0.500000 0.000000
O O17 0.517033 0.125108 0.292570
#
# Coordination Sequence:
#
# PCOD9036394 Si02
#       8
#     2   2   2   2   2   2   2   2
#     4  11  21  38  58  79 115 153 185 226 272 338
#     4  11  23  35  54  88 112 154 181 229 284 327
#     4  11  21  32  58  85 115 143 179 233 283 326
#     4  11  19  32  54  83 118 139 176 236 281 331
#     4  10  23  36  54  87 113 149 184 226 286 323
#     4  11  19  31  53  85 113 141 179 227 283 325
#     4  11  22  38  56  80 119 148 192 222 274 340
#     4  12  20  34  57  85 115 147 177 234 286 324
#
# _framework density 18.405998
#
# number of rings (size 3 to 8) (size 9 to 14) (size 15 to 20)
#    0.000    1.000    7.500    0.750    3.500    0.000 
#    0.000    0.000    0.000    3.750    0.000    0.000 
#    0.000    0.000    0.000    0.000    0.000    0.000 
#
# Total GULP energy -89296.748520 kJ/mol
# GULP energy per Si atom -5581.046783 kJ/mol
# Density = 1.836411 g / cm^3
# Si number density = 18.405998 Si / 1000 Ang^3
#
#
#
# Elastic Constant Matrix: (Units=GPa)
#
#
# Indices 1 2 3 4 5 6 
#
# 1 54.8278 17.8519 7.9597 4.9791 11.4327 10.7769
# 2 17.8519 77.2635 3.8304 17.6995 13.3927 16.5810
# 3 7.9597 3.8304 64.7846 5.0001 -0.0254 7.5032
# 4 4.9791 17.6995 5.0001 24.0210 1.0666 5.4421
# 5 11.4327 13.3927 -0.0254 1.0666 25.9709 7.0277
# 6 10.7769 16.5810 7.5032 5.4421 7.0277 22.9670
#
#
#
# Elastic Compliance Matrix: (Units=1/GPa)
#
#
# Indices 1 2 3 4 5 6 
#
# 1 0.021895 -0.002377 -0.001833 -0.000817 -0.006846 -0.005671
# 2 -0.002377 0.018892 0.001022 -0.011493 -0.005975 -0.008306
# 3 -0.001833 0.001022 0.016406 -0.002702 0.001800 -0.005148
# 4 -0.000817 -0.011493 -0.002702 0.051565 0.005325 -0.004285
# 5 -0.006846 -0.005975 0.001800 0.005325 0.046715 -0.008618
# 6 -0.005671 -0.008306 -0.005148 -0.004285 -0.008618 0.057532
#
#
# Mechanical properties :
#
#
# Convention : Reuss Voigt Hill
#
# Bulk Modulus (GPa) = 19.67820 28.46221 24.07021
# Shear Modulus (GPa) = 21.15766 25.74072 23.44919
#
# Velocity S-wave (km/s) = 3.39410 3.74370 3.57318
# Velocity P-wave (km/s) = 5.10630 5.84673 5.48901
#
# Compressibility (1/GPa) = 0.05081764
#
# Stress axis : x y z
#
# Youngs Moduli (GPa) = 45.67165 52.93109 60.95344
#
# Poissons Ratio (x) = 0.12584 0.11170
# Poissons Ratio (y) = 0.10858 -0.06228
# Poissons Ratio (z) = 0.08369 -0.05408
#
# Static dielectric constant tensor:
#      x y z
#    x 1.633350 -0.001630 -0.006180 
#    y -0.001630 1.637370 -0.001230 
#    z -0.006180 -0.001230 1.567050 
# 
# From -- ./inp_files/423722.got.cif
#   From: 2010.05.17/outbox.cif.g08.bks.cpg/sg2_212_cif.got.tgz:423722.got - 2010.06.03 11:33:40.
