data_PCOD9036438
_publ_section_title
;
Structure prediction by ZEFSAII (Michael W. Deem and Ramdas Pophale) SiO2 
 PCOD9036438
Probable space group: P -1
;
_chemical_formula_sum "Si O2"
_cell_formula_units_Z 16
_cell_length_a 5.354453
_cell_length_b 16.674378
_cell_length_c 6.982024
_cell_angle_alpha 90.754415
_cell_angle_beta 101.254087
_cell_angle_gamma 86.917666
_cell_volume 610.496951
_symmetry_space_group_name_H-M "P -1"
_symmetry_group_IT_number 2
_symmetry_cell_setting 'triclinic'
loop_
_space_group_symop_operation_xyz
x,y,z
-x,-y,-z
loop_
_atom_site_type_symbol
_atom_site_label
_atom_site_fract_x
_atom_site_fract_y
_atom_site_fract_z
Si Si1 0.436691 0.165143 0.693852
Si Si2 0.159013 0.206056 0.287529
Si Si3 0.827249 0.272653 0.784575
Si Si4 0.421695 0.511571 0.764544
Si Si5 0.945188 0.445299 0.808153
Si Si6 0.770606 0.036000 0.600660
Si Si7 0.334787 0.699177 0.677822
Si Si8 0.881424 0.893519 0.061806
O O1 0.208975 0.184010 0.515755
O O2 0.552192 0.242576 0.808485
O O3 0.659460 0.129056 0.582624
O O4 0.369265 0.100141 0.841861
O O5 0.393365 0.259992 0.267906
O O6 0.884201 0.251907 0.233055
O O7 0.169303 0.122570 0.167756
O O8 0.769083 0.294567 0.554923
O O9 0.927970 0.355137 0.875815
O O10 0.018209 0.197855 0.865386
O O11 0.177113 0.458519 0.700351
O O12 0.363940 0.605775 0.730717
O O13 0.670620 0.476496 0.689581
O O14 0.500000 0.500000 0.000000
O O15 0.000000 0.500000 0.000000
O O16 0.915333 0.045737 0.828637
O O17 0.500000 0.000000 0.500000
O O18 0.000000 0.000000 0.500000
#
# Coordination Sequence:
#
# PCOD9036438 Si02
#       8
#     2   2   2   2   2   2   2   2
#     4  10  23  47  69 105 138 176 224 279 328 394
#     4  11  26  41  71 102 135 171 234 279 332 393
#     4  10  24  40  67  94 132 175 229 284 341 397
#     4  10  23  37  56  84 123 168 221 268 350 391
#     4  10  23  38  57  87 123 167 222 275 340 394
#     4  11  23  44  74 104 144 183 214 263 332 399
#     4  11  24  43  62  95 132 177 223 295 340 395
#     4  11  24  42  75 101 133 181 227 270 334 395
#
# _framework density 26.208155999999999
#
# number of rings (size 3 to 8) (size 9 to 14) (size 15 to 20)
#    0.000    1.500    2.500    0.750   12.250    1.000 
#    0.000    1.250    0.000    0.000    0.000    0.000 
#    0.000    0.000    0.000    0.000    0.000    0.000 
#
# Total GULP energy -89371.741476 kJ/mol
# GULP energy per Si atom -5585.733842 kJ/mol
# Density = 2.614850 g / cm^3
# Si number density = 26.208156 Si / 1000 Ang^3
#
#
#
# Elastic Constant Matrix: (Units=GPa)
#
#
# Indices 1 2 3 4 5 6 
#
# 1 192.4761 22.8002 18.8959 15.2074 1.2979 8.7626
# 2 22.8002 95.8366 -1.0009 25.2618 11.1571 13.8786
# 3 18.8959 -1.0009 89.7615 13.7223 13.5798 10.9776
# 4 15.2074 25.2618 13.7223 44.5967 1.8103 14.2640
# 5 1.2979 11.1571 13.5798 1.8103 27.8995 6.6162
# 6 8.7626 13.8786 10.9776 14.2640 6.6162 46.4994
#
#
#
# Elastic Compliance Matrix: (Units=1/GPa)
#
#
# Indices 1 2 3 4 5 6 
#
# 1 0.005519 -0.001174 -0.001151 -0.000803 0.000896 -0.000299
# 2 -0.001174 0.013566 0.002577 -0.007414 -0.005828 -0.001333
# 3 -0.001151 0.002577 0.013291 -0.004446 -0.006837 -0.001353
# 4 -0.000803 -0.007414 -0.004446 0.030155 0.004754 -0.006513
# 5 0.000896 -0.005828 -0.006837 0.004754 0.042164 -0.004273
# 6 -0.000299 -0.001333 -0.001353 -0.006513 -0.004273 0.024885
#
#
# Mechanical properties :
#
#
# Convention : Reuss Voigt Hill
#
# Bulk Modulus (GPa) = 30.41472 51.05162 40.73317
# Shear Modulus (GPa) = 35.70464 46.29105 40.99784
#
# Velocity S-wave (km/s) = 3.69500 4.20728 3.95943
# Velocity P-wave (km/s) = 5.46208 6.56682 6.03976
#
# Compressibility (1/GPa) = 0.03287881
#
# Stress axis : x y z
#
# Youngs Moduli (GPa) = 181.20603 73.71114 75.23774
#
# Poissons Ratio (x) = 0.08655 0.08660
# Poissons Ratio (y) = 0.21278 -0.19385
# Poissons Ratio (z) = 0.20858 -0.18992
#
# Static dielectric constant tensor:
#      x y z
#    x 2.250690 0.022520 -0.066330 
#    y 0.022520 2.072040 0.017020 
#    z -0.066330 0.017020 2.105900 
# 
# From -- ./inp_files/136803.got.cif
#   From: 2010.05.17/outbox.cif.g08.bks.cpg/sg2_69_cif.got.tgz:136803.got - 2010.06.03 11:33:40.
