data_PCOD9036813
_publ_section_title
;
Structure prediction by ZEFSAII (Michael W. Deem and Ramdas Pophale) SiO2 
 PCOD9036813
Probable space group: P -1
;
_chemical_formula_sum "Si O2"
_cell_formula_units_Z 12
_cell_length_a 12.502168
_cell_length_b 12.101350
_cell_length_c 11.100423
_cell_angle_alpha 23.866594
_cell_angle_beta 136.433583
_cell_angle_gamma 134.873911
_cell_volume 462.729072
_symmetry_space_group_name_H-M "P -1"
_symmetry_group_IT_number 2
_symmetry_cell_setting 'triclinic'
loop_
_space_group_symop_operation_xyz
x,y,z
-x,-y,-z
loop_
_atom_site_type_symbol
_atom_site_label
_atom_site_fract_x
_atom_site_fract_y
_atom_site_fract_z
Si Si1 0.294666 0.994811 0.908474
Si Si2 0.316096 0.510940 0.241134
Si Si3 0.176971 0.449730 0.722947
Si Si4 0.047956 0.165742 0.252215
Si Si5 0.263333 0.973402 0.419431
Si Si6 0.550789 0.267757 0.498581
O O1 0.348535 0.809221 0.029120
O O2 0.387975 0.956930 0.142267
O O3 0.301498 0.296264 0.555912
O O4 0.116370 0.844871 0.937792
O O5 0.444335 0.432970 0.331065
O O6 0.150878 0.449408 0.097118
O O7 0.241168 0.656588 0.678448
O O8 0.298920 0.540455 0.624942
O O9 0.000000 0.500000 0.500000
O O10 0.194627 0.144300 0.086010
O O11 0.160612 0.018627 0.407186
O O12 0.000000 0.000000 0.500000
O O13 0.438693 0.112937 0.458356
#
# Coordination Sequence:
#
# PCOD9036813 Si02
#       6
#     2   2   2   2   2   2
#     4  11  22  39  63  98 131 169 216 265 319 386
#     4  10  23  39  62  96 133 170 215 266 321 381
#     4  12  27  47  70  96 128 173 223 271 322 386
#     4   9  21  40  66  95 131 171 212 265 324 381
#     4  11  26  46  67  99 133 169 218 270 325 388
#     4  11  25  43  69  96 134 176 215 269 329 386
#
# _framework density 25.933102999999999
#
# number of rings (size 3 to 8) (size 9 to 14) (size 15 to 20)
#    0.000    1.333    0.000    4.000    0.000   17.333 
#    0.000    0.000    0.000    0.000    0.000    0.000 
#    0.000    0.000    0.000    0.000    0.000    0.000 
#
# Total GULP energy -67355.710756 kJ/mol
# GULP energy per Si atom -5612.975896 kJ/mol
# Density = 2.587408 g / cm^3
# Si number density = 25.933103 Si / 1000 Ang^3
#
#
#
# Elastic Constant Matrix: (Units=GPa)
#
#
# Indices 1 2 3 4 5 6 
#
# 1 115.6638 23.5722 16.1429 -3.6169 -18.6839 24.6389
# 2 23.5722 120.6110 26.9864 9.9083 9.5190 23.9457
# 3 16.1429 26.9864 102.7738 -2.6810 -8.1750 11.7463
# 4 -3.6169 9.9083 -2.6810 34.9669 2.3509 15.6937
# 5 -18.6839 9.5190 -8.1750 2.3509 38.3859 -7.1894
# 6 24.6389 23.9457 11.7463 15.6937 -7.1894 49.4314
#
#
#
# Elastic Compliance Matrix: (Units=1/GPa)
#
#
# Indices 1 2 3 4 5 6 
#
# 1 0.010951 -0.001742 -0.000233 0.003558 0.004553 -0.005027
# 2 -0.001742 0.010405 -0.002415 -0.001272 -0.004588 -0.003862
# 3 -0.000233 -0.002415 0.010824 0.002045 0.002368 -0.001591
# 4 0.003558 -0.001272 0.002045 0.035580 -0.002179 -0.013256
# 5 0.004553 -0.004588 0.002368 -0.002179 0.030900 0.004576
# 6 -0.005027 -0.003862 -0.001591 -0.013256 0.004576 0.029859
#
#
# Mechanical properties :
#
#
# Convention : Reuss Voigt Hill
#
# Bulk Modulus (GPa) = 42.73521 52.49463 47.61492
# Shear Modulus (GPa) = 34.45908 42.71331 38.58620
#
# Velocity S-wave (km/s) = 3.64918 4.06280 3.86153
# Velocity P-wave (km/s) = 5.85407 6.50344 6.18728
#
# Compressibility (1/GPa) = 0.02339991
#
# Stress axis : x y z
#
# Youngs Moduli (GPa) = 91.31740 96.10523 92.38333
#
# Poissons Ratio (x) = 0.16739 0.02155
# Poissons Ratio (y) = 0.15905 0.22314
# Poissons Ratio (z) = 0.02130 0.23213
#
# Static dielectric constant tensor:
#      x y z
#    x 2.030790 0.061640 0.016630 
#    y 0.061640 2.100820 0.052000 
#    z 0.016630 0.052000 1.985140 
# 
# From -- ./inp_files/453544.got.cif
#   From: 2010.05.17/outbox.cif.g08.bks.cpg/sg2_227_cif.got.tgz:453544.got - 2010.06.03 11:33:40.
