data_PCOD9036333
_publ_section_title
;
Structure prediction by ZEFSAII (Michael W. Deem and Ramdas Pophale) SiO2 
 PCOD9036333
Probable space group: P -1
;
_chemical_formula_sum "Si O2"
_cell_formula_units_Z 16
_cell_length_a 14.398434
_cell_length_b 10.395543
_cell_length_c 9.111514
_cell_angle_alpha 96.949547
_cell_angle_beta 57.737019
_cell_angle_gamma 133.075331
_cell_volume 774.132961
_symmetry_space_group_name_H-M "P -1"
_symmetry_group_IT_number 2
_symmetry_cell_setting 'triclinic'
loop_
_space_group_symop_operation_xyz
x,y,z
-x,-y,-z
loop_
_atom_site_type_symbol
_atom_site_label
_atom_site_fract_x
_atom_site_fract_y
_atom_site_fract_z
Si Si1 0.251203 0.038954 0.198577
Si Si2 0.774099 0.190069 0.280020
Si Si3 0.153715 0.712877 0.446921
Si Si4 0.258084 0.261893 0.769315
Si Si5 0.507582 0.087749 0.857403
Si Si6 0.559111 0.187836 0.354675
Si Si7 0.057579 0.868258 0.052766
Si Si8 0.560776 0.658499 0.669856
O O1 0.327155 0.213912 0.266327
O O2 0.196930 0.872625 0.328062
O O3 0.400727 0.120045 0.981226
O O4 0.106645 0.938177 0.190573
O O5 0.865325 0.254700 0.366553
O O6 0.722871 0.296899 0.318590
O O7 0.878117 0.215456 0.067591
O O8 0.601218 0.967029 0.430342
O O9 0.304449 0.743204 0.317978
O O10 0.000000 0.500000 0.500000
O O11 0.409534 0.428442 0.770416
O O12 0.330619 0.288580 0.553189
O O13 0.160412 0.058949 0.894207
O O14 0.128738 0.264185 0.848495
O O15 0.435260 0.928762 0.776479
O O16 0.500000 0.000000 0.000000
O O17 0.529007 0.287047 0.297636
#
# Coordination Sequence:
#
# PCOD9036333 Si02
#       8
#     2   2   2   2   2   2   2   2
#     4  11  21  37  64  86 118 154 197 246 297 348
#     4  10  19  34  60  87 115 155 186 235 300 351
#     4  10  21  35  52  86 128 156 185 230 297 366
#     4  10  25  41  61  83 119 160 206 246 284 350
#     4   9  16  32  55  88 113 150 181 233 293 352
#     4  10  17  32  62  86 112 150 191 229 292 358
#     4  11  22  42  61  88 119 152 202 253 297 336
#     4  11  21  42  63  86 116 163 202 237 294 356
#
# _framework density 20.668281
#
# number of rings (size 3 to 8) (size 9 to 14) (size 15 to 20)
#    0.000    1.750    6.250    0.000    0.000    3.000 
#    0.000    2.500    0.000    0.000    0.000    0.000 
#    0.000    0.000    0.000    0.000    0.000    0.000 
#
# Total GULP energy -89158.755962 kJ/mol
# GULP energy per Si atom -5572.422248 kJ/mol
# Density = 2.062124 g / cm^3
# Si number density = 20.668281 Si / 1000 Ang^3
#
#
#
# Elastic Constant Matrix: (Units=GPa)
#
#
# Indices 1 2 3 4 5 6 
#
# 1 53.0454 2.7236 8.6858 3.7938 -5.1836 17.6340
# 2 2.7236 72.1169 39.7325 0.8013 -9.7283 18.8416
# 3 8.6858 39.7325 57.3624 21.0494 -1.3283 13.7921
# 4 3.7938 0.8013 21.0494 19.8050 -0.1260 1.8296
# 5 -5.1836 -9.7283 -1.3283 -0.1260 20.7552 6.1039
# 6 17.6340 18.8416 13.7921 1.8296 6.1039 23.6407
#
#
#
# Elastic Compliance Matrix: (Units=1/GPa)
#
#
# Indices 1 2 3 4 5 6 
#
# 1 0.038874 0.023092 -0.012887 0.010110 0.034336 -0.049531
# 2 0.023092 0.060074 -0.050855 0.052236 0.046098 -0.051380
# 3 -0.012887 -0.050855 0.080175 -0.082414 -0.027369 0.016814
# 4 0.010110 0.052236 -0.082414 0.135957 0.028110 -0.018872
# 5 0.034336 0.046098 -0.027369 0.028110 0.098546 -0.074004
# 6 -0.049531 -0.051380 0.016814 -0.018872 -0.074004 0.130954
#
#
# Mechanical properties :
#
#
# Convention : Reuss Voigt Hill
#
# Bulk Modulus (GPa) = 10.22241 31.64541 20.93391
# Shear Modulus (GPa) = 7.59315 21.59904 14.59610
#
# Velocity S-wave (km/s) = 1.91880 3.23620 2.66034
# Velocity P-wave (km/s) = 3.14098 5.41372 4.42573
#
# Compressibility (1/GPa) = 0.09782431
#
# Stress axis : x y z
#
# Youngs Moduli (GPa) = 25.72406 16.64603 12.47273
#
# Poissons Ratio (x) = -0.38439 0.16073
# Poissons Ratio (y) = -0.59402 0.63430
# Poissons Ratio (z) = 0.33150 0.84653
#
# Static dielectric constant tensor:
#      x y z
#    x 1.972540 0.059670 0.042830 
#    y 0.059670 1.777060 0.019520 
#    z 0.042830 0.019520 1.746780 
# 
# From -- ./inp_files/305362.got.cif
#   From: 2010.05.17/outbox.cif.g08.bks.cpg/sg2_153_cif.got.tgz:305362.got - 2010.06.03 11:33:40.
