data_PCOD9036061
_publ_section_title
;
Structure prediction by ZEFSAII (Michael W. Deem and Ramdas Pophale) SiO2 
 PCOD9036061
Probable space group: P -1
;
_chemical_formula_sum "Si O2"
_cell_formula_units_Z 16
_cell_length_a 5.244722
_cell_length_b 28.874007
_cell_length_c 5.247134
_cell_angle_alpha 85.078205
_cell_angle_beta 94.220573
_cell_angle_gamma 127.836329
_cell_volume 625.016767
_symmetry_space_group_name_H-M "P -1"
_symmetry_group_IT_number 2
_symmetry_cell_setting 'triclinic'
loop_
_space_group_symop_operation_xyz
x,y,z
-x,-y,-z
loop_
_atom_site_type_symbol
_atom_site_label
_atom_site_fract_x
_atom_site_fract_y
_atom_site_fract_z
Si Si1 0.488413 0.186950 0.729633
Si Si2 0.535181 0.558809 0.468175
Si Si3 0.204335 0.657214 0.594833
Si Si4 0.400901 0.035075 0.319615
Si Si5 0.583752 0.399506 0.031697
Si Si6 0.659386 0.929241 0.204824
Si Si7 0.132967 0.228651 0.470856
Si Si8 0.934332 0.276715 0.082288
O O1 0.322261 0.122176 0.852513
O O2 0.254777 0.189776 0.526552
O O3 0.826248 0.206416 0.630137
O O4 0.609682 0.238152 0.917328
O O5 0.500000 0.500000 0.500000
O O6 0.462352 0.573758 0.731139
O O7 0.914249 0.610407 0.416661
O O8 0.330207 0.560425 0.227121
O O9 0.199605 0.618736 0.840204
O O10 0.562213 0.702517 0.488251
O O11 0.135078 0.699983 0.685661
O O12 0.480485 0.083018 0.512799
O O13 0.500000 0.000000 0.500000
O O14 0.524189 0.061875 0.032766
O O15 0.019249 0.988557 0.253576
O O16 0.249013 0.336212 0.968196
O O17 0.022739 0.233895 0.183404
#
# Coordination Sequence:
#
# PCOD9036061 Si02
#       8
#     2   2   2   2   2   2   2   2
#     4  12  27  41  72 104 145 180 239 291 348 419
#     4  11  24  44  67 101 137 180 237 295 352 417
#     4  10  23  44  70  98 142 185 237 283 358 424
#     4  10  22  47  71  97 138 185 233 286 354 414
#     4  10  24  40  69  96 136 183 229 287 354 421
#     4  10  25  42  68 105 135 182 235 289 346 414
#     4  11  25  45  65 102 140 186 229 287 353 421
#     4  10  24  43  67 101 135 188 229 286 351 426
#
# _framework density 25.599312000000001
#
# number of rings (size 3 to 8) (size 9 to 14) (size 15 to 20)
#    0.000    1.500    1.250    1.500   10.500    3.000 
#    0.000    0.000    0.000    0.000    0.000    0.000 
#    0.000    0.000    0.000    0.000    0.000    0.000 
#
# Total GULP energy -89420.014012 kJ/mol
# GULP energy per Si atom -5588.750876 kJ/mol
# Density = 2.554105 g / cm^3
# Si number density = 25.599312 Si / 1000 Ang^3
#
#
#
# Elastic Constant Matrix: (Units=GPa)
#
#
# Indices 1 2 3 4 5 6 
#
# 1 98.9251 14.9531 38.0317 -5.1882 20.0453 -10.0310
# 2 14.9531 47.1434 33.9267 -3.2132 20.3160 -22.5173
# 3 38.0317 33.9267 157.5568 -10.9535 44.7136 -21.3829
# 4 -5.1882 -3.2132 -10.9535 24.7434 -10.3270 7.8820
# 5 20.0453 20.3160 44.7136 -10.3270 39.8087 -12.5655
# 6 -10.0310 -22.5173 -21.3829 7.8820 -12.5655 36.8691
#
#
#
# Elastic Compliance Matrix: (Units=1/GPa)
#
#
# Indices 1 2 3 4 5 6 
#
# 1 0.011594 -0.000759 -0.001557 -0.000014 -0.003518 0.000592
# 2 -0.000759 0.036375 -0.002379 -0.007133 -0.011616 0.018195
# 3 -0.001557 -0.002379 0.009849 -0.000248 -0.008853 0.000871
# 4 -0.000014 -0.007133 -0.000248 0.048155 0.013163 -0.010313
# 5 -0.003518 -0.011616 -0.008853 0.013163 0.046086 -0.000294
# 6 0.000592 0.018195 0.000871 -0.010313 -0.000294 0.041006
#
#
# Mechanical properties :
#
#
# Convention : Reuss Voigt Hill
#
# Bulk Modulus (GPa) = 20.64969 53.04982 36.84975
# Shear Modulus (GPa) = 22.87296 34.73182 28.80239
#
# Velocity S-wave (km/s) = 2.99239 3.68740 3.35793
# Velocity P-wave (km/s) = 4.47473 6.23678 5.42773
#
# Compressibility (1/GPa) = 0.04842687
#
# Stress axis : x y z
#
# Youngs Moduli (GPa) = 86.24911 27.49110 101.53759
#
# Poissons Ratio (x) = 0.02086 0.15814
# Poissons Ratio (y) = 0.06545 0.24160
# Poissons Ratio (z) = 0.13433 0.06541
#
# Static dielectric constant tensor:
#      x y z
#    x 2.052860 0.003680 -0.064250 
#    y 0.003680 2.021470 -0.044880 
#    z -0.064250 -0.044880 2.111100 
# 
# From -- ./inp_files/14509.got.cif
#   From: 2010.05.17/outbox.cif.g08.bks.cpg/sg2_8_cif.got.tgz:14509.got - 2010.06.03 11:33:40.
