data_PCOD9036799
_publ_section_title
;
Structure prediction by ZEFSAII (Michael W. Deem and Ramdas Pophale) SiO2 
 PCOD9036799
Probable space group: P -1
;
_chemical_formula_sum "Si O2"
_cell_formula_units_Z 16
_cell_length_a 29.141009
_cell_length_b 6.138605
_cell_length_c 27.059221
_cell_angle_alpha 123.538153
_cell_angle_beta 170.116209
_cell_angle_gamma 57.223627
_cell_volume 692.402006
_symmetry_space_group_name_H-M "P -1"
_symmetry_group_IT_number 2
_symmetry_cell_setting 'triclinic'
loop_
_space_group_symop_operation_xyz
x,y,z
-x,-y,-z
loop_
_atom_site_type_symbol
_atom_site_label
_atom_site_fract_x
_atom_site_fract_y
_atom_site_fract_z
Si Si1 0.508888 0.418817 0.265835
Si Si2 0.925005 0.856769 0.155043
Si Si3 0.212690 0.636785 0.704998
Si Si4 0.186674 0.726986 0.208611
Si Si5 0.073126 0.240217 0.437020
Si Si6 0.620079 0.038981 0.763872
Si Si7 0.645099 0.968954 0.023159
Si Si8 0.247585 0.845433 0.188675
O O1 0.511937 0.730545 0.315319
O O2 0.405332 0.319105 0.089266
O O3 0.804849 0.307509 0.574589
O O4 0.307128 0.281350 0.074826
O O5 0.983727 0.145513 0.276638
O O6 0.835814 0.906931 0.010991
O O7 0.115280 0.542128 0.535558
O O8 0.000000 0.500000 0.500000
O O9 0.500000 0.500000 0.000000
O O10 0.254813 0.937827 0.804487
O O11 0.228499 0.636504 0.185155
O O12 0.431792 0.809681 0.513279
O O13 0.000000 0.500000 0.000000
O O14 0.016000 0.988331 0.064585
O O15 0.357073 0.102318 0.728838
O O16 0.856388 0.108854 0.227706
O O17 0.713509 0.190268 0.832006
O O18 0.500000 0.000000 0.500000
#
# Coordination Sequence:
#
# PCOD9036799 Si02
#       8
#     2   2   2   2   2   2   2   2
#     4  10  23  40  60  90 129 164 210 262 303 375
#     4  10  23  39  62  91 126 169 209 255 314 369
#     4   8  12  20  42  70 104 148 199 249 296 353
#     4  10  23  44  68  92 122 155 200 254 312 366
#     4   8  14  27  45  76 112 150 203 252 296 358
#     4  11  25  41  66  93 125 164 208 250 316 378
#     4   8  14  27  46  74 110 155 200 248 306 351
#     4   9  22  43  62  92 121 152 196 248 305 369
#
# _framework density 23.107965
#
# number of rings (size 3 to 8) (size 9 to 14) (size 15 to 20)
#    0.000    2.750    0.000    0.000    3.500    6.000 
#    0.000    0.000    0.000    0.750    0.000    0.000 
#    0.000   30.000    0.000    0.000    0.000    4.500 
#
# Total GULP energy -89106.056698 kJ/mol
# GULP energy per Si atom -5569.128544 kJ/mol
# Density = 2.305537 g / cm^3
# Si number density = 23.107965 Si / 1000 Ang^3
#
#
#
# Elastic Constant Matrix: (Units=GPa)
#
#
# Indices 1 2 3 4 5 6 
#
# 1 65.7964 31.2078 37.5480 21.2975 -5.2893 -26.2474
# 2 31.2078 98.2621 35.5139 6.9341 -14.8841 -35.1773
# 3 37.5480 35.5139 126.6837 -5.3374 5.4614 -10.3058
# 4 21.2975 6.9341 -5.3374 21.2577 -14.4444 12.0534
# 5 -5.2893 -14.8841 5.4614 -14.4444 52.4483 10.9553
# 6 -26.2474 -35.1773 -10.3058 12.0534 10.9553 30.5534
#
#
#
# Elastic Compliance Matrix: (Units=1/GPa)
#
#
# Indices 1 2 3 4 5 6 
#
# 1 -0.001831 -0.011593 0.002138 0.031057 0.011222 -0.030475
# 2 -0.011593 0.012578 -0.000101 0.014597 0.007238 -0.003866
# 3 0.002138 -0.000101 0.007937 -0.009420 -0.005327 0.010023
# 4 0.031057 0.014597 -0.009420 -0.032683 -0.012818 0.057799
# 5 0.011222 0.007238 -0.005327 -0.012818 0.016043 0.015481
# 6 -0.030475 -0.003866 0.010023 0.057799 0.015481 -0.022873
#
#
# Mechanical properties :
#
#
# Convention : Reuss Voigt Hill
#
# Bulk Modulus (GPa) = -2330.06238 55.47572 -1137.29333
# Shear Modulus (GPa) = -2688.68940 33.28339 -1327.70301
#
# Velocity S-wave (km/s) = -34.14761 3.79930 -23.99609
# Velocity P-wave (km/s) = 50.64852 6.58070 35.51033
#
# Compressibility (1/GPa) = -0.00042917
#
# Stress axis : x y z
#
# Youngs Moduli (GPa) = -546.18307 79.50518 125.99844
#
# Poissons Ratio (x) = 0.92170 -0.26940
# Poissons Ratio (y) = -6.33190 0.01279
# Poissons Ratio (z) = 1.16782 0.00807
#
# Static dielectric constant tensor:
#      x y z
#    x 1.878030 -0.047860 -0.048740 
#    y -0.047860 1.899210 0.043430 
#    z -0.048740 0.043430 1.874430 
# 
# From -- ./inp_files/10965.got.cif
#   From: 2010.05.17/outbox.cif.g08.bks.cpg/sg2_6_cif.got.tgz:10965.got - 2010.06.03 11:33:40.
