data_PCOD9036971
_publ_section_title
;
Structure prediction by ZEFSAII (Michael W. Deem and Ramdas Pophale) SiO2 
 PCOD9036971
Probable space group: P -1
;
_chemical_formula_sum "Si O2"
_cell_formula_units_Z 16
_cell_length_a 9.633803
_cell_length_b 15.821505
_cell_length_c 5.552286
_cell_angle_alpha 116.433921
_cell_angle_beta 68.190375
_cell_angle_gamma 120.090636
_cell_volume 643.550127
_symmetry_space_group_name_H-M "P -1"
_symmetry_group_IT_number 2
_symmetry_cell_setting 'triclinic'
loop_
_space_group_symop_operation_xyz
x,y,z
-x,-y,-z
loop_
_atom_site_type_symbol
_atom_site_label
_atom_site_fract_x
_atom_site_fract_y
_atom_site_fract_z
Si Si1 0.096505 0.296634 0.959834
Si Si2 0.572906 0.262709 0.344339
Si Si3 0.804946 0.955154 0.014279
Si Si4 0.167041 0.101495 0.574003
Si Si5 0.068695 0.612438 0.499349
Si Si6 0.378662 0.913344 0.643936
Si Si7 0.430473 0.434513 0.713074
Si Si8 0.213815 0.736580 0.167960
O O1 0.140597 0.199079 0.815066
O O2 0.234197 0.384144 0.821885
O O3 0.915069 0.251878 0.912733
O O4 0.064722 0.341710 0.289104
O O5 0.755243 0.330606 0.415406
O O6 0.542033 0.149766 0.327930
O O7 0.477924 0.334764 0.549100
O O8 0.612662 0.254525 0.028738
O O9 0.742808 0.921240 0.283163
O O10 0.727146 0.034764 0.082620
O O11 0.763663 0.875993 0.716512
O O12 0.000000 0.000000 0.000000
O O13 0.000000 0.000000 0.500000
O O14 0.115340 0.626042 0.209280
O O15 0.000000 0.500000 0.500000
O O16 0.249097 0.825319 0.451698
O O17 0.500000 0.000000 0.500000
O O18 0.500000 0.500000 0.500000
O O19 0.500000 0.500000 0.000000
#
# Coordination Sequence:
#
# PCOD9036971 Si02
#       8
#     2   2   2   2   2   2   2   2
#     4  11  26  43  76 107 145 197 252 315 376 455
#     4  10  26  46  71 109 146 198 253 310 392 463
#     4  10  23  40  68  97 145 189 246 291 362 423
#     4  10  23  39  67 104 143 182 241 300 360 428
#     4  10  23  42  75 104 145 185 257 317 386 452
#     4  11  26  45  72 104 155 200 248 316 380 457
#     4  12  31  52  79 110 157 200 255 321 393 459
#     4  10  24  44  74 106 144 192 260 304 385 451
#
# _framework density 24.862086000000001
#
# number of rings (size 3 to 8) (size 9 to 14) (size 15 to 20)
#    0.000    1.500    0.000    2.250   24.500    2.500 
#    0.000    0.000    0.000    0.000    0.000    0.000 
#    0.000    0.000    0.000    0.000    0.000    0.000 
#
# Total GULP energy -89248.078547 kJ/mol
# GULP energy per Si atom -5578.004909 kJ/mol
# Density = 2.480550 g / cm^3
# Si number density = 24.862086 Si / 1000 Ang^3
#
#
#
# Elastic Constant Matrix: (Units=GPa)
#
#
# Indices 1 2 3 4 5 6 
#
# 1 81.0831 26.1049 34.7770 1.4774 -14.2324 -10.8091
# 2 26.1049 146.6452 52.7319 -11.2856 -14.8767 -13.3900
# 3 34.7770 52.7319 139.6133 -3.7924 -16.4581 -17.8939
# 4 1.4774 -11.2856 -3.7924 48.5344 -0.1672 -5.9665
# 5 -14.2324 -14.8767 -16.4581 -0.1672 48.5416 -2.6113
# 6 -10.8091 -13.3900 -17.8939 -5.9665 -2.6113 35.0804
#
#
#
# Elastic Compliance Matrix: (Units=1/GPa)
#
#
# Indices 1 2 3 4 5 6 
#
# 1 0.014758 -0.001171 -0.002478 -0.000536 0.003287 0.002990
# 2 -0.001171 0.008386 -0.002369 0.002064 0.001544 0.002098
# 3 -0.002478 -0.002369 0.009347 0.000674 0.001899 0.003356
# 4 -0.000536 0.002064 0.000674 0.021739 0.001034 0.004741
# 5 0.003287 0.001544 0.001899 0.001034 0.022925 0.004453
# 6 0.002990 0.002098 0.003356 0.004741 0.004453 0.033078
#
#
# Mechanical properties :
#
#
# Convention : Reuss Voigt Hill
#
# Bulk Modulus (GPa) = 48.88510 66.06324 57.47417
# Shear Modulus (GPa) = 38.73349 43.34647 41.03998
#
# Velocity S-wave (km/s) = 3.95135 4.18003 4.06729
# Velocity P-wave (km/s) = 6.36575 7.06586 6.72492
#
# Compressibility (1/GPa) = 0.02045613
#
# Stress axis : x y z
#
# Youngs Moduli (GPa) = 67.75948 119.23983 106.98661
#
# Poissons Ratio (x) = 0.13963 0.26509
# Poissons Ratio (y) = 0.07934 0.25345
# Poissons Ratio (z) = 0.16789 0.28248
#
# Static dielectric constant tensor:
#      x y z
#    x 1.990080 0.034090 -0.015810 
#    y 0.034090 2.065230 -0.184660 
#    z -0.015810 -0.184660 2.412320 
# 
# From -- ./inp_files/78550.got.cif
#   From: 2010.05.17/outbox.cif.g08.bks.cpg/sg2_40_cif.got.tgz:78550.got - 2010.06.03 11:33:40.
