data_PCOD9036658
_publ_section_title
;
Structure prediction by ZEFSAII (Michael W. Deem and Ramdas Pophale) SiO2 
 PCOD9036658
Probable space group: P -1
;
_chemical_formula_sum "Si O2"
_cell_formula_units_Z 14
_cell_length_a 8.630950
_cell_length_b 13.626155
_cell_length_c 9.501852
_cell_angle_alpha 86.023404
_cell_angle_beta 62.943437
_cell_angle_gamma 47.313776
_cell_volume 681.019102
_symmetry_space_group_name_H-M "P -1"
_symmetry_group_IT_number 2
_symmetry_cell_setting 'triclinic'
loop_
_space_group_symop_operation_xyz
x,y,z
-x,-y,-z
loop_
_atom_site_type_symbol
_atom_site_label
_atom_site_fract_x
_atom_site_fract_y
_atom_site_fract_z
Si Si1 0.671539 0.013372 0.500313
Si Si2 0.436439 0.308879 0.689383
Si Si3 0.079978 0.756110 0.571799
Si Si4 0.245459 0.049092 0.061588
Si Si5 0.498208 0.736472 0.010968
Si Si6 0.997446 0.560221 0.640899
Si Si7 0.005230 0.095295 0.891595
O O1 0.526344 0.162992 0.619318
O O2 0.500000 0.000000 0.500000
O O3 0.862607 0.886373 0.545117
O O4 0.842013 0.985399 0.305551
O O5 0.660541 0.294426 0.563857
O O6 0.192806 0.435512 0.685341
O O7 0.396607 0.330445 0.871846
O O8 0.079503 0.638833 0.571158
O O9 0.986676 0.821288 0.760072
O O10 0.167972 0.098044 0.926869
O O11 0.500000 0.000000 0.000000
O O12 0.326049 0.904911 0.079662
O O13 0.718679 0.667848 0.815585
O O14 0.280428 0.752574 0.040686
O O15 0.000000 0.500000 0.500000
O O16 0.000000 0.000000 0.000000
#
# Coordination Sequence:
#
# PCOD9036658 Si02
#       7
#     2   2   2   2   2   2   2
#     4  12  24  41  73 106 137 170 228 287 339 398
#     4  12  25  46  69 101 138 181 225 280 344 407
#     4  12  24  46  71 103 134 176 230 281 343 401
#     4  11  21  39  72 103 133 171 227 284 336 395
#     4  11  23  46  66  99 137 179 227 274 343 404
#     4  12  29  46  69  96 141 186 224 276 340 417
#     4  10  23  38  66 104 136 172 219 288 334 390
#
# _framework density 20.557426
#
# number of rings (size 3 to 8) (size 9 to 14) (size 15 to 20)
#    0.000    0.571    4.286    4.714    8.000    0.000 
#    0.000    0.714    0.000    0.000    0.000    0.000 
#    0.000    0.000    0.000    0.000    0.000    0.000 
#
# Total GULP energy -78234.917900 kJ/mol
# GULP energy per Si atom -5588.208421 kJ/mol
# Density = 2.051064 g / cm^3
# Si number density = 20.557426 Si / 1000 Ang^3
#
#
#
# Elastic Constant Matrix: (Units=GPa)
#
#
# Indices 1 2 3 4 5 6 
#
# 1 106.2042 38.1311 30.5702 7.6326 1.8792 -12.4088
# 2 38.1311 87.6222 1.6205 -13.1978 15.6787 -3.7566
# 3 30.5702 1.6205 85.8251 -5.7216 8.3596 17.5829
# 4 7.6326 -13.1978 -5.7216 24.9625 -9.4712 6.8038
# 5 1.8792 15.6787 8.3596 -9.4712 38.9431 -4.0340
# 6 -12.4088 -3.7566 17.5829 6.8038 -4.0340 33.1217
#
#
#
# Elastic Compliance Matrix: (Units=1/GPa)
#
#
# Indices 1 2 3 4 5 6 
#
# 1 0.019946 -0.011051 -0.011815 -0.017881 0.003391 0.016577
# 2 -0.011051 0.019067 0.007171 0.015499 -0.005917 -0.009689
# 3 -0.011815 0.007171 0.021039 0.015380 -0.005014 -0.018552
# 4 -0.017881 0.015499 0.015380 0.066152 0.004704 -0.026122
# 5 0.003391 -0.005917 -0.005014 0.004704 0.030743 0.006039
# 6 0.016577 -0.009689 -0.018552 -0.026122 0.006039 0.051253
#
#
# Mechanical properties :
#
#
# Convention : Reuss Voigt Hill
#
# Bulk Modulus (GPa) = 34.88888 46.69945 40.79416
# Shear Modulus (GPa) = 20.06873 33.36076 26.71475
#
# Velocity S-wave (km/s) = 3.12785 4.03278 3.60879
# Velocity P-wave (km/s) = 5.48205 6.66711 6.10341
#
# Compressibility (1/GPa) = 0.02866243
#
# Stress axis : x y z
#
# Youngs Moduli (GPa) = 50.13470 52.44656 47.53101
#
# Poissons Ratio (x) = 0.57959 0.56156
# Poissons Ratio (y) = 0.55404 -0.34084
# Poissons Ratio (z) = 0.59232 -0.37608
#
# Static dielectric constant tensor:
#      x y z
#    x 1.049040 -0.186490 -0.140190 
#    y -0.186490 1.662520 -0.033270 
#    z -0.140190 -0.033270 1.717470 
# 
# From -- ./inp_files/157589.got.cif
#   From: 2010.05.17/outbox.cif.g08.bks.cpg/sg2_79_cif.got.tgz:157589.got - 2010.06.03 11:33:40.
