data_PCOD9036599
_publ_section_title
;
Structure prediction by ZEFSAII (Michael W. Deem and Ramdas Pophale) SiO2 
 PCOD9036599
Probable space group: P -1
;
_chemical_formula_sum "Si O2"
_cell_formula_units_Z 13
_cell_length_a 4.973353
_cell_length_b 9.871758
_cell_length_c 10.119576
_cell_angle_alpha 80.690440
_cell_angle_beta 68.026218
_cell_angle_gamma 80.608412
_cell_volume 451.798253
_symmetry_space_group_name_H-M "P -1"
_symmetry_group_IT_number 2
_symmetry_cell_setting 'triclinic'
loop_
_space_group_symop_operation_xyz
x,y,z
-x,-y,-z
loop_
_atom_site_type_symbol
_atom_site_label
_atom_site_fract_x
_atom_site_fract_y
_atom_site_fract_z
Si Si1 0.385001 0.644165 0.755086
Si Si2 0.000000 0.000000 0.000000
Si Si3 0.052870 0.388196 0.861385
Si Si4 0.891897 0.796544 0.679239
Si Si5 0.441807 0.766035 0.080923
Si Si6 0.763985 0.693524 0.457000
Si Si7 0.501762 0.082301 0.701691
O O1 0.193967 0.525412 0.850179
O O2 0.636975 0.701834 0.785871
O O3 0.563228 0.600723 0.594198
O O4 0.155903 0.773115 0.734336
O O5 0.803859 0.950360 0.170059
O O6 0.704602 0.101425 0.990320
O O7 0.212884 0.274718 0.952963
O O8 0.133094 0.365727 0.693731
O O9 0.718692 0.361856 0.919256
O O10 0.976082 0.732315 0.530118
O O11 0.736342 0.949588 0.671893
O O12 0.372252 0.808632 0.239086
O O13 0.580062 0.839751 0.431176
#
# Coordination Sequence:
#
# PCOD9036599 Si02
#       7
#     2   1   2   2   2   2   2
#     4  10  23  38  62  95 132 178 197 249 314 379
#     4  12  24  46  68  96 118 166 216 274 322 354
#     4  11  22  40  64  95 134 160 219 251 304 386
#     4  10  24  38  62  95 137 169 201 250 321 384
#     4  11  24  40  67  96 118 165 208 277 312 355
#     4   9  22  37  63 100 126 173 200 260 312 369
#     4  11  24  42  65  97 130 160 218 262 321 373
#
# _framework density 28.773907000000001
#
# number of rings (size 3 to 8) (size 9 to 14) (size 15 to 20)
#    0.923    0.615    3.077    2.308    6.462    1.231 
#    0.000    0.000    0.000    5.538    0.000    0.000 
#    0.000    0.000    0.000    0.000    0.000    0.000 
#
# Total GULP energy -72474.696105 kJ/mol
# GULP energy per Si atom -5574.976623 kJ/mol
# Density = 2.870842 g / cm^3
# Si number density = 28.773907 Si / 1000 Ang^3
#
#
#
# Elastic Constant Matrix: (Units=GPa)
#
#
# Indices 1 2 3 4 5 6 
#
# 1 151.3215 10.8423 35.0493 9.4526 22.3504 7.5715
# 2 10.8423 52.8201 2.4214 22.9238 18.2992 5.2022
# 3 35.0493 2.4214 131.1319 3.0628 -18.2715 2.3919
# 4 9.4526 22.9238 3.0628 37.5957 -2.9302 12.1008
# 5 22.3504 18.2992 -18.2715 -2.9302 50.9697 -3.0331
# 6 7.5715 5.2022 2.3919 12.1008 -3.0331 43.9350
#
#
#
# Elastic Compliance Matrix: (Units=1/GPa)
#
#
# Indices 1 2 3 4 5 6 
#
# 1 0.008206 0.001757 -0.002904 -0.003000 -0.005504 -0.001018
# 2 0.001757 0.033306 -0.002663 -0.021992 -0.014892 0.000928
# 3 -0.002904 -0.002663 0.009189 0.001995 0.005647 0.000156
# 4 -0.003000 -0.021992 0.001995 0.044217 0.011972 -0.008340
# 5 -0.005504 -0.014892 0.005647 0.011972 0.030163 0.001189
# 6 -0.001018 0.000928 0.000156 -0.008340 0.001189 0.025197
#
#
# Mechanical properties :
#
#
# Convention : Reuss Voigt Hill
#
# Bulk Modulus (GPa) = 23.21176 47.98883 35.60029
# Shear Modulus (GPa) = 29.02619 45.63078 37.32848
#
# Velocity S-wave (km/s) = 3.17956 3.98658 3.60572
# Velocity P-wave (km/s) = 4.64369 6.15667 5.45291
#
# Compressibility (1/GPa) = 0.04308161
#
# Stress axis : x y z
#
# Youngs Moduli (GPa) = 121.85662 30.02473 108.82877
#
# Poissons Ratio (x) = -0.05276 0.31605
# Poissons Ratio (y) = -0.21414 0.28980
# Poissons Ratio (z) = 0.35388 0.07995
#
# Static dielectric constant tensor:
#      x y z
#    x 2.189770 0.025780 -0.084520 
#    y 0.025780 2.404460 0.116150 
#    z -0.084520 0.116150 2.348210 
# 
# From -- ./inp_files/361174.got.cif
#   From: 2010.05.17/outbox.cif.g08.bks.cpg/sg2_181_cif.got.tgz:361174.got - 2010.06.03 11:33:40.
