data_PCOD9036854
_publ_section_title
;
Structure prediction by ZEFSAII (Michael W. Deem and Ramdas Pophale) SiO2 
 PCOD9036854
Probable space group: P -1
;
_chemical_formula_sum "Si O2"
_cell_formula_units_Z 10
_cell_length_a 6.653857
_cell_length_b 20.478132
_cell_length_c 7.411710
_cell_angle_alpha 143.370415
_cell_angle_beta 63.176329
_cell_angle_gamma 140.068956
_cell_volume 349.435181
_symmetry_space_group_name_H-M "P -1"
_symmetry_group_IT_number 2
_symmetry_cell_setting 'triclinic'
loop_
_space_group_symop_operation_xyz
x,y,z
-x,-y,-z
loop_
_atom_site_type_symbol
_atom_site_label
_atom_site_fract_x
_atom_site_fract_y
_atom_site_fract_z
Si Si1 0.685966 0.184249 0.834962
Si Si2 0.901772 0.407270 0.524439
Si Si3 0.672557 0.917542 0.597175
Si Si4 0.306676 0.290689 0.670046
Si Si5 0.027042 0.254854 0.318883
O O1 0.499307 0.180196 0.740169
O O2 0.089573 0.303950 0.891671
O O3 0.500000 0.000000 0.500000
O O4 0.635736 0.221606 0.130015
O O5 0.165391 0.418562 0.534684
O O6 0.000000 0.500000 0.500000
O O7 0.720282 0.420284 0.770053
O O8 0.815145 0.867863 0.541009
O O9 0.337692 0.839385 0.661410
O O10 0.937160 0.117386 0.925520
O O11 0.221553 0.281783 0.475125
#
# Coordination Sequence:
#
# PCOD9036854 Si02
#       5
#     2   2   2   2   2
#     4  11  23  39  63  98 121 151 213 254 294 370
#     4  11  25  43  61  88 127 167 203 245 303 366
#     4   9  18  35  61  94 122 151 198 258 307 351
#     4  10  23  39  64  91 126 162 194 259 312 344
#     4   9  18  36  61  91 122 156 202 248 301 367
#
# _framework density 28.617611
#
# number of rings (size 3 to 8) (size 9 to 14) (size 15 to 20)
#    0.000    2.000    2.000    0.600    5.600    4.000 
#    0.000    9.000    0.000    0.000    0.000    0.000 
#    0.000    0.000    0.000    0.000    0.000    0.000 
#
# Total GULP energy -55884.023946 kJ/mol
# GULP energy per Si atom -5588.402395 kJ/mol
# Density = 2.855248 g / cm^3
# Si number density = 28.617611 Si / 1000 Ang^3
#
#
#
# Elastic Constant Matrix: (Units=GPa)
#
#
# Indices 1 2 3 4 5 6 
#
# 1 199.6902 67.6960 41.8840 -8.6770 -36.2815 -22.4021
# 2 67.6960 110.8337 18.1779 -8.7480 -18.4540 -5.5753
# 3 41.8840 18.1779 58.8979 -9.0383 -10.1181 1.5317
# 4 -8.6770 -8.7480 -9.0383 59.2764 -17.6406 -16.8244
# 5 -36.2815 -18.4540 -10.1181 -17.6406 46.2712 -12.9939
# 6 -22.4021 -5.5753 1.5317 -16.8244 -12.9939 76.6445
#
#
#
# Elastic Compliance Matrix: (Units=1/GPa)
#
#
# Indices 1 2 3 4 5 6 
#
# 1 0.008880 -0.002996 -0.003565 0.003951 0.007797 0.004638
# 2 -0.002996 0.011798 -0.000527 0.002617 0.003568 0.001173
# 3 -0.003565 -0.000527 0.020638 0.003242 0.002650 -0.000332
# 4 0.003951 0.002617 0.003242 0.026494 0.017791 0.010112
# 5 0.007797 0.003568 0.002650 0.017791 0.040220 0.013210
# 6 0.004638 0.001173 -0.000332 0.010112 0.013210 0.018954
#
#
# Mechanical properties :
#
#
# Convention : Reuss Voigt Hill
#
# Bulk Modulus (GPa) = 36.84503 69.43751 53.14127
# Shear Modulus (GPa) = 33.28788 52.54936 42.91862
#
# Velocity S-wave (km/s) = 3.41427 4.28981 3.87683
# Velocity P-wave (km/s) = 5.33346 6.98951 6.21687
#
# Compressibility (1/GPa) = 0.02714070
#
# Stress axis : x y z
#
# Youngs Moduli (GPa) = 112.61826 84.75787 48.45527
#
# Poissons Ratio (x) = 0.25389 0.17274
# Poissons Ratio (y) = 0.33735 0.02554
# Poissons Ratio (z) = 0.40147 0.04467
#
# Static dielectric constant tensor:
#      x y z
#    x 2.296970 -0.035480 -0.046620 
#    y -0.035480 2.336330 0.112580 
#    z -0.046620 0.112580 2.286250 
# 
# From -- ./inp_files/32483.got.cif
#   From: 2010.05.17/outbox.cif.g08.bks.cpg/sg2_17_cif.got.tgz:32483.got - 2010.06.03 11:33:40.
