data_PCOD9036193
_publ_section_title
;
Structure prediction by ZEFSAII (Michael W. Deem and Ramdas Pophale) SiO2 
 PCOD9036193
Probable space group: P -1
;
_chemical_formula_sum "Si O2"
_cell_formula_units_Z 16
_cell_length_a 16.248088
_cell_length_b 18.008849
_cell_length_c 5.061970
_cell_angle_alpha 56.742450
_cell_angle_beta 64.285502
_cell_angle_gamma 31.902365
_cell_volume 652.874132
_symmetry_space_group_name_H-M "P -1"
_symmetry_group_IT_number 2
_symmetry_cell_setting 'triclinic'
loop_
_space_group_symop_operation_xyz
x,y,z
-x,-y,-z
loop_
_atom_site_type_symbol
_atom_site_label
_atom_site_fract_x
_atom_site_fract_y
_atom_site_fract_z
Si Si1 0.636412 0.322412 0.683642
Si Si2 0.174193 0.467791 0.445475
Si Si3 0.304053 0.831198 0.574482
Si Si4 0.976317 0.102516 0.640866
Si Si5 0.655750 0.952416 0.209053
Si Si6 0.881416 0.672197 0.090874
Si Si7 0.051740 0.222643 0.605659
Si Si8 0.484595 0.856707 0.461272
O O1 0.500000 0.500000 0.500000
O O2 0.610551 0.261178 0.635736
O O3 0.798996 0.239658 0.526811
O O4 0.659134 0.271218 0.051632
O O5 0.150022 0.403530 0.804759
O O6 0.351169 0.322849 0.389796
O O7 0.050628 0.545360 0.235655
O O8 0.107254 0.611033 0.378783
O O9 0.358093 0.878788 0.547006
O O10 0.119538 0.980977 0.477429
O O11 0.010005 0.166687 0.623861
O O12 0.000000 0.000000 0.000000
O O13 0.561351 0.041194 0.437659
O O14 0.750521 0.794285 0.263035
O O15 0.807863 0.897601 0.144202
O O16 0.532710 0.076737 0.916180
O O17 0.878525 0.753237 0.724827
#
# Coordination Sequence:
#
# PCOD9036193 Si02
#       8
#     2   2   2   2   2   2   2   2
#     4  11  25  43  65 100 132 177 224 288 343 406
#     4  10  26  41  71 104 142 184 231 287 351 415
#     4  11  23  44  67  92 140 174 226 278 345 407
#     4  10  23  43  69 100 132 184 229 282 337 414
#     4  11  23  44  69  98 138 183 229 283 342 410
#     4  10  22  48  69 102 140 188 232 286 342 426
#     4  11  22  46  71 100 138 188 233 283 351 418
#     4  12  25  43  69 106 138 183 229 292 346 408
#
# _framework density 24.507020000000001
#
# number of rings (size 3 to 8) (size 9 to 14) (size 15 to 20)
#    0.000    1.250    2.500    1.875    5.250    2.000 
#    9.000    0.000    0.000    0.000    0.000    0.000 
#    0.000    0.000    0.000    0.000    0.000    0.000 
#
# Total GULP energy -89482.745363 kJ/mol
# GULP energy per Si atom -5592.671585 kJ/mol
# Density = 2.445124 g / cm^3
# Si number density = 24.507020 Si / 1000 Ang^3
#
#
#
# Elastic Constant Matrix: (Units=GPa)
#
#
# Indices 1 2 3 4 5 6 
#
# 1 71.1600 47.6403 10.8602 -11.4720 5.7227 6.7254
# 2 47.6403 177.2410 28.6834 -18.8546 24.9547 -7.2695
# 3 10.8602 28.6834 75.3164 -0.2626 15.3206 -3.9235
# 4 -11.4720 -18.8546 -0.2626 31.1289 1.6375 7.6121
# 5 5.7227 24.9547 15.3206 1.6375 38.5321 -4.4963
# 6 6.7254 -7.2695 -3.9235 7.6121 -4.4963 53.8539
#
#
#
# Elastic Compliance Matrix: (Units=1/GPa)
#
#
# Indices 1 2 3 4 5 6 
#
# 1 0.018292 -0.004336 -0.001140 0.005007 -0.000096 -0.003668
# 2 -0.004336 0.007996 -0.001564 0.003266 -0.003968 0.000714
# 3 -0.001140 -0.001564 0.015020 -0.001194 -0.004645 0.000806
# 4 0.005007 0.003266 -0.001194 0.037647 -0.004682 -0.005984
# 5 -0.000096 -0.003968 -0.004645 -0.004682 0.030860 0.002376
# 6 -0.003668 0.000714 0.000806 -0.005984 0.002376 0.020226
#
#
# Mechanical properties :
#
#
# Convention : Reuss Voigt Hill
#
# Bulk Modulus (GPa) = 36.72929 55.34280 46.03605
# Shear Modulus (GPa) = 32.63745 40.47186 36.55466
#
# Velocity S-wave (km/s) = 3.65329 4.06820 3.86631
# Velocity P-wave (km/s) = 5.72845 6.68569 6.22549
#
# Compressibility (1/GPa) = 0.02722623
#
# Stress axis : x y z
#
# Youngs Moduli (GPa) = 54.66994 125.06011 66.57724
#
# Poissons Ratio (x) = 0.54231 0.07591
# Poissons Ratio (y) = 0.23707 0.10414
# Poissons Ratio (z) = 0.06234 0.19562
#
# Static dielectric constant tensor:
#      x y z
#    x 1.961250 -0.002450 -0.058080 
#    y -0.002450 1.961820 0.028190 
#    z -0.058080 0.028190 2.027850 
# 
# From -- ./inp_files/111580.got.cif
#   From: 2010.05.17/outbox.cif.g08.bks.cpg/sg2_56_cif.got.tgz:111580.got - 2010.06.03 11:33:40.
