data_PCOD9036607
_publ_section_title
;
Structure prediction by ZEFSAII (Michael W. Deem and Ramdas Pophale) SiO2 
 PCOD9036607
Probable space group: P -1
;
_chemical_formula_sum "Si O2"
_cell_formula_units_Z 16
_cell_length_a 12.417633
_cell_length_b 12.481763
_cell_length_c 9.763513
_cell_angle_alpha 120.813968
_cell_angle_beta 46.271037
_cell_angle_gamma 93.098669
_cell_volume 822.110458
_symmetry_space_group_name_H-M "P -1"
_symmetry_group_IT_number 2
_symmetry_cell_setting 'triclinic'
loop_
_space_group_symop_operation_xyz
x,y,z
-x,-y,-z
loop_
_atom_site_type_symbol
_atom_site_label
_atom_site_fract_x
_atom_site_fract_y
_atom_site_fract_z
Si Si1 0.792215 0.316752 0.664968
Si Si2 0.533830 0.865298 0.287446
Si Si3 0.487027 0.379436 0.162716
Si Si4 0.399303 0.055851 0.269752
Si Si5 0.904958 0.920121 0.596437
Si Si6 0.657673 0.286216 0.498184
Si Si7 0.625557 0.182772 0.175759
Si Si8 0.202672 0.409162 0.241852
O O1 0.803642 0.261896 0.463650
O O2 0.753366 0.479182 0.800325
O O3 0.960258 0.220335 0.538083
O O4 0.633861 0.313853 0.875939
O O5 0.446072 0.783728 0.385361
O O6 0.500000 0.000000 0.500000
O O7 0.453817 0.933846 0.255508
O O8 0.725161 0.739652 0.000774
O O9 0.441564 0.543440 0.320700
O O10 0.564832 0.294719 0.178212
O O11 0.318121 0.375031 0.256037
O O12 0.203983 0.112182 0.440113
O O13 0.460996 0.164139 0.342775
O O14 0.500000 0.000000 0.000000
O O15 0.000000 0.000000 0.500000
O O16 0.770948 0.031842 0.894235
O O17 0.697572 0.224457 0.270694
O O18 0.000000 0.500000 0.500000
#
# Coordination Sequence:
#
# PCOD9036607 Si02
#       8
#     2   2   2   2   2   2   2   2
#     4  11  22  40  68  90 126 169 217 259 313 392
#     4  12  22  41  67  94 132 170 208 270 329 381
#     4  11  21  44  67  89 124 176 218 252 317 396
#     4  10  23  38  63  93 125 172 220 259 319 386
#     4  11  22  39  62  96 126 168 218 264 312 383
#     4  11  22  41  64  95 120 172 216 258 329 381
#     4  11  23  39  65  93 131 166 213 270 322 382
#     4  11  24  39  68  98 124 168 223 270 314 380
#
# _framework density 19.462104
#
# number of rings (size 3 to 8) (size 9 to 14) (size 15 to 20)
#    0.000    1.000    5.000    3.375    5.250    0.500 
#    0.000    3.750    0.000    2.250    0.000    0.000 
#    0.000    0.000    0.000    0.000    0.000    0.000 
#
# Total GULP energy -89262.818129 kJ/mol
# GULP energy per Si atom -5578.926133 kJ/mol
# Density = 1.941781 g / cm^3
# Si number density = 19.462104 Si / 1000 Ang^3
#
#
#
# Elastic Constant Matrix: (Units=GPa)
#
#
# Indices 1 2 3 4 5 6 
#
# 1 102.7776 19.6112 50.2789 9.4015 -1.1545 -11.8878
# 2 19.6112 70.0902 12.6319 11.0861 10.8877 -11.5748
# 3 50.2789 12.6319 80.3654 15.2986 5.1578 -2.1189
# 4 9.4015 11.0861 15.2986 32.2450 1.6715 0.8814
# 5 -1.1545 10.8877 5.1578 1.6715 31.5648 2.8906
# 6 -11.8878 -11.5748 -2.1189 0.8814 2.8906 42.4836
#
#
#
# Elastic Compliance Matrix: (Units=1/GPa)
#
#
# Indices 1 2 3 4 5 6 
#
# 1 0.015033 -0.002592 -0.009220 0.000667 0.002655 0.002846
# 2 -0.002592 0.017495 0.000399 -0.005245 -0.006338 0.004601
# 3 -0.009220 0.000399 0.019569 -0.006535 -0.003222 -0.001140
# 4 0.000667 -0.005245 -0.006535 0.035724 0.001229 -0.002393
# 5 0.002655 -0.006338 -0.003222 0.001229 0.034749 -0.003535
# 6 0.002846 0.004601 -0.001140 -0.002393 -0.003535 0.025822
#
#
# Mechanical properties :
#
#
# Convention : Reuss Voigt Hill
#
# Bulk Modulus (GPa) = 34.16477 46.47527 40.32002
# Shear Modulus (GPa) = 27.62805 32.63942 30.13374
#
# Velocity S-wave (km/s) = 3.77182 4.09965 3.93915
# Velocity P-wave (km/s) = 6.04661 6.80744 6.43827
#
# Compressibility (1/GPa) = 0.02926992
#
# Stress axis : x y z
#
# Youngs Moduli (GPa) = 66.52174 57.15960 51.10000
#
# Poissons Ratio (x) = 0.14818 0.47113
# Poissons Ratio (y) = 0.17245 -0.02037
# Poissons Ratio (z) = 0.61331 -0.02279
#
# Static dielectric constant tensor:
#      x y z
#    x 1.754800 0.036850 -0.055470 
#    y 0.036850 1.703330 -0.024140 
#    z -0.055470 -0.024140 1.793650 
# 
# From -- ./inp_files/206914.got.cif
#   From: 2010.05.17/outbox.cif.g08.bks.cpg/sg2_104_cif.got.tgz:206914.got - 2010.06.03 11:33:40.
