data_PCOD9036200
_publ_section_title
;
Structure prediction by ZEFSAII (Michael W. Deem and Ramdas Pophale) SiO2 
 PCOD9036200
Probable space group: P -1
;
_chemical_formula_sum "Si O2"
_cell_formula_units_Z 15
_cell_length_a 4.707080
_cell_length_b 24.738174
_cell_length_c 7.552233
_cell_angle_alpha 139.474622
_cell_angle_beta 76.451613
_cell_angle_gamma 109.953551
_cell_volume 536.673349
_symmetry_space_group_name_H-M "P -1"
_symmetry_group_IT_number 2
_symmetry_cell_setting 'triclinic'
loop_
_space_group_symop_operation_xyz
x,y,z
-x,-y,-z
loop_
_atom_site_type_symbol
_atom_site_label
_atom_site_fract_x
_atom_site_fract_y
_atom_site_fract_z
Si Si1 0.787120 0.905709 0.787097
Si Si2 0.500000 0.000000 0.500000
Si Si3 0.483156 0.840260 0.348966
Si Si4 0.493354 0.442977 0.033139
Si Si5 0.671671 0.277939 0.248130
Si Si6 0.166692 0.868291 0.934053
Si Si7 0.658050 0.618337 0.621511
Si Si8 0.809250 0.339104 0.918046
O O1 0.773329 0.859632 0.485527
O O2 0.442344 0.908378 0.862229
O O3 0.871184 0.862660 0.846701
O O4 0.000000 0.000000 0.000000
O O5 0.552064 0.069231 0.496565
O O6 0.773024 0.068224 0.747578
O O7 0.243043 0.763323 0.298572
O O8 0.510445 0.792177 0.042339
O O9 0.632697 0.519231 0.342745
O O10 0.500000 0.500000 0.000000
O O11 0.691654 0.373445 0.839056
O O12 0.154198 0.392437 0.009562
O O13 0.776274 0.221824 0.242638
O O14 0.453459 0.341281 0.439794
O O15 0.998777 0.332493 0.264630
O O16 0.422934 0.635256 0.843912
#
# Coordination Sequence:
#
# PCOD9036200 Si02
#       8
#     2   1   2   2   2   2   2   2
#     4  12  25  44  66 101 136 188 236 289 365 421
#     4  10  22  48  70 102 134 190 232 296 342 422
#     4  10  24  44  72 102 145 184 240 296 348 428
#     4  12  26  44  71 105 146 187 235 294 364 431
#     4  10  23  43  69 107 139 188 242 296 353 413
#     4  11  25  44  68 101 139 184 237 293 358 419
#     4  11  22  44  73 102 142 186 241 293 351 437
#     4  11  24  45  69 106 138 192 238 292 356 421
#
# _framework density 27.949960000000001
#
# number of rings (size 3 to 8) (size 9 to 14) (size 15 to 20)
#    0.000    1.067    1.333    4.800    0.000    6.933 
#    4.800    0.000    0.000    0.000    0.000    0.000 
#    0.000    0.000    0.000    0.000    0.000    0.000 
#
# Total GULP energy -83687.466368 kJ/mol
# GULP energy per Si atom -5579.164425 kJ/mol
# Density = 2.788634 g / cm^3
# Si number density = 27.949960 Si / 1000 Ang^3
#
#
#
# Elastic Constant Matrix: (Units=GPa)
#
#
# Indices 1 2 3 4 5 6 
#
# 1 148.5574 50.0617 50.8198 16.3136 31.9207 -17.2378
# 2 50.0617 193.0092 62.8312 37.4851 16.3903 -43.4847
# 3 50.8198 62.8312 159.6476 19.5301 29.8353 -6.1344
# 4 16.3136 37.4851 19.5301 54.3858 -6.8805 11.1951
# 5 31.9207 16.3903 29.8353 -6.8805 41.5983 2.5608
# 6 -17.2378 -43.4847 -6.1344 11.1951 2.5608 68.1842
#
#
#
# Elastic Compliance Matrix: (Units=1/GPa)
#
#
# Indices 1 2 3 4 5 6 
#
# 1 0.009507 0.000050 -0.001014 -0.004148 -0.007478 0.003306
# 2 0.000050 0.009169 -0.001612 -0.007760 -0.004218 0.007147
# 3 -0.001014 -0.001612 0.008435 -0.002254 -0.005011 0.000033
# 4 -0.004148 -0.007760 -0.002254 0.029891 0.013517 -0.011616
# 5 -0.007478 -0.004218 -0.005011 0.013517 0.037803 -0.008671
# 6 0.003306 0.007147 0.000033 -0.011616 -0.008671 0.022296
#
#
# Mechanical properties :
#
#
# Convention : Reuss Voigt Hill
#
# Bulk Modulus (GPa) = 45.54169 92.07107 68.80638
# Shear Modulus (GPa) = 38.58829 55.33376 46.96103
#
# Velocity S-wave (km/s) = 3.71970 4.45426 4.10345
# Velocity P-wave (km/s) = 5.89726 7.71147 6.86456
#
# Compressibility (1/GPa) = 0.02195790
#
# Stress axis : x y z
#
# Youngs Moduli (GPa) = 105.18075 109.06700 118.56037
#
# Poissons Ratio (x) = -0.00541 0.12023
# Poissons Ratio (y) = -0.00522 0.19111
# Poissons Ratio (z) = 0.10666 0.17581
#
# Static dielectric constant tensor:
#      x y z
#    x 2.112350 -0.049490 -0.045060 
#    y -0.049490 2.384200 -0.137600 
#    z -0.045060 -0.137600 2.216440 
# 
# From -- ./inp_files/142422.got.cif
#   From: 2010.05.17/outbox.cif.g08.bks.cpg/sg2_72_cif.got.tgz:142422.got - 2010.06.03 11:33:40.
