data_PCOD9036508
_publ_section_title
;
Structure prediction by ZEFSAII (Michael W. Deem and Ramdas Pophale) SiO2 
 PCOD9036508
Probable space group: P -1
;
_chemical_formula_sum "Si O2"
_cell_formula_units_Z 14
_cell_length_a 20.676290
_cell_length_b 10.692309
_cell_length_c 5.895937
_cell_angle_alpha 65.437413
_cell_angle_beta 107.262966
_cell_angle_gamma 153.078920
_cell_volume 528.042822
_symmetry_space_group_name_H-M "P -1"
_symmetry_group_IT_number 2
_symmetry_cell_setting 'triclinic'
loop_
_space_group_symop_operation_xyz
x,y,z
-x,-y,-z
loop_
_atom_site_type_symbol
_atom_site_label
_atom_site_fract_x
_atom_site_fract_y
_atom_site_fract_z
Si Si1 0.215546 0.910626 0.343257
Si Si2 0.478936 0.125176 0.953880
Si Si3 0.977192 0.840362 0.781258
Si Si4 0.838154 0.064596 0.228691
Si Si5 0.224076 0.389311 0.914788
Si Si6 0.516147 0.363282 0.409480
Si Si7 0.304891 0.791747 0.432829
O O1 0.200461 0.717671 0.485976
O O2 0.165581 0.879015 0.560381
O O3 0.393678 0.242834 0.269033
O O4 0.158535 0.851804 0.077997
O O5 0.634016 0.433949 0.997125
O O6 0.334399 0.866534 0.146344
O O7 0.465892 0.238872 0.704439
O O8 0.500000 0.000000 0.000000
O O9 0.019533 0.776288 0.752480
O O10 0.097558 0.066124 0.936939
O O11 0.000000 0.000000 0.500000
O O12 0.833099 0.622300 0.927886
O O13 0.683411 0.703171 0.322120
O O14 0.260560 0.562170 0.625869
O O15 0.465898 0.121510 0.446615
#
# Coordination Sequence:
#
# PCOD9036508 Si02
#       7
#     2   2   2   2   2   2   2
#     4  10  25  43  68 103 142 183 228 285 352 411
#     4  12  22  38  68 107 142 176 219 286 365 415
#     4  11  28  46  71  94 134 189 233 293 342 403
#     4  12  24  44  71 100 141 184 238 280 343 423
#     4  11  25  45  66 101 138 176 241 283 348 419
#     4  10  23  37  66 101 142 177 220 283 350 413
#     4  10  24  40  66 100 138 178 219 288 345 415
#
# _framework density 26.513000999999999
#
# number of rings (size 3 to 8) (size 9 to 14) (size 15 to 20)
#    0.857    0.286    1.429    3.857   12.000    0.000 
#    0.000    1.429    0.000    0.000    0.000    0.000 
#    0.000    0.000    0.000    0.000    0.000    0.000 
#
# Total GULP energy -78080.291298 kJ/mol
# GULP energy per Si atom -5577.163664 kJ/mol
# Density = 2.645266 g / cm^3
# Si number density = 26.513001 Si / 1000 Ang^3
#
#
#
# Elastic Constant Matrix: (Units=GPa)
#
#
# Indices 1 2 3 4 5 6 
#
# 1 88.7613 4.7717 26.6972 4.0019 -15.9573 12.6098
# 2 4.7717 76.4636 1.5408 13.0419 -19.2529 -5.8446
# 3 26.6972 1.5408 118.7824 5.0861 -0.2863 24.0049
# 4 4.0019 13.0419 5.0861 33.3409 6.9880 -7.1145
# 5 -15.9573 -19.2529 -0.2863 6.9880 44.6663 2.8577
# 6 12.6098 -5.8446 24.0049 -7.1145 2.8577 38.1971
#
#
#
# Elastic Compliance Matrix: (Units=1/GPa)
#
#
# Indices 1 2 3 4 5 6 
#
# 1 0.013742 0.001121 -0.002049 -0.004008 0.006281 -0.004294
# 2 0.001121 0.016717 -0.000077 -0.008541 0.008943 -0.000024
# 3 -0.002049 -0.000077 0.010266 -0.002657 0.000119 -0.006291
# 4 -0.004008 -0.008541 -0.002657 0.038790 -0.011826 0.009796
# 5 0.006281 0.008943 0.000119 -0.011826 0.030676 -0.005278
# 6 -0.004294 -0.000024 -0.006291 0.009796 -0.005278 0.033767
#
#
# Mechanical properties :
#
#
# Convention : Reuss Voigt Hill
#
# Bulk Modulus (GPa) = 25.82967 38.89185 32.36076
# Shear Modulus (GPa) = 31.47217 39.97403 35.72310
#
# Velocity S-wave (km/s) = 3.44909 3.88714 3.67465
# Velocity P-wave (km/s) = 5.06212 5.90316 5.49874
#
# Compressibility (1/GPa) = 0.03871517
#
# Stress axis : x y z
#
# Youngs Moduli (GPa) = 72.76931 59.82083 97.41310
#
# Poissons Ratio (x) = -0.06704 0.19956
# Poissons Ratio (y) = -0.08155 0.00746
# Poissons Ratio (z) = 0.14908 0.00458
#
# Static dielectric constant tensor:
#      x y z
#    x 2.149170 -0.132500 -0.114370 
#    y -0.132500 2.166400 0.177270 
#    z -0.114370 0.177270 2.282580 
# 
# From -- ./inp_files/117805.got.cif
#   From: 2010.05.17/outbox.cif.g08.bks.cpg/sg2_59_cif.got.tgz:117805.got - 2010.06.03 11:33:40.
