data_PCOD9036946
_publ_section_title
;
Structure prediction by ZEFSAII (Michael W. Deem and Ramdas Pophale) SiO2 
 PCOD9036946
Probable space group: P -1
;
_chemical_formula_sum "Si O2"
_cell_formula_units_Z 14
_cell_length_a 9.920785
_cell_length_b 14.431713
_cell_length_c 9.490179
_cell_angle_alpha 141.076591
_cell_angle_beta 43.721512
_cell_angle_gamma 141.850195
_cell_volume 505.343799
_symmetry_space_group_name_H-M "P -1"
_symmetry_group_IT_number 2
_symmetry_cell_setting 'triclinic'
loop_
_space_group_symop_operation_xyz
x,y,z
-x,-y,-z
loop_
_atom_site_type_symbol
_atom_site_label
_atom_site_fract_x
_atom_site_fract_y
_atom_site_fract_z
Si Si1 0.030741 0.156775 0.008422
Si Si2 0.752910 0.276488 0.844607
Si Si3 0.634948 0.665035 0.779117
Si Si4 0.017113 0.567308 0.782249
Si Si5 0.305306 0.801958 0.515779
Si Si6 0.481241 0.285430 0.514736
Si Si7 0.070803 0.157023 0.481781
O O1 0.210513 0.217401 0.070562
O O2 0.081105 0.316005 0.057925
O O3 0.792886 0.105316 0.206052
O O4 0.008376 0.004297 0.750997
O O5 0.919508 0.469749 0.887417
O O6 0.658344 0.161717 0.634610
O O7 0.878545 0.191949 0.726178
O O8 0.544246 0.282860 0.073859
O O9 0.512332 0.473442 0.706772
O O10 0.785167 0.686301 0.553901
O O11 0.913452 0.396104 0.560258
O O12 0.288787 0.680516 0.697645
O O13 0.493585 0.781151 0.431183
O O14 0.244691 0.162782 0.471728
#
# Coordination Sequence:
#
# PCOD9036946 Si02
#       7
#     2   2   2   2   2   2   2
#     4  11  20  39  66  90 125 163 206 253 314 357
#     4  10  23  39  66  95 118 159 222 254 289 374
#     4  12  21  39  70  87 120 173 208 244 313 363
#     4   9  18  39  65  93 114 157 216 255 283 376
#     4   9  18  39  65  93 114 157 216 255 283 376
#     4  11  20  39  66  90 125 163 206 253 314 357
#     4  12  26  39  59  97 135 157 194 266 315 370
#
# _framework density 27.703911000000002
#
# number of rings (size 3 to 8) (size 9 to 14) (size 15 to 20)
#    0.857    0.571    5.714    1.714    0.000    5.714 
#    0.000    0.000    0.000    3.429    0.000    0.000 
#    0.000    0.000    0.000    0.000    0.000    0.000 
#
# Total GULP energy -78513.233516 kJ/mol
# GULP energy per Si atom -5608.088108 kJ/mol
# Density = 2.764086 g / cm^3
# Si number density = 27.703911 Si / 1000 Ang^3
#
#
#
# Elastic Constant Matrix: (Units=GPa)
#
#
# Indices 1 2 3 4 5 6 
#
# 1 193.2362 28.6126 40.5769 -0.1551 -20.4415 24.4996
# 2 28.6126 70.3324 27.5176 -3.8929 -12.6689 5.1335
# 3 40.5769 27.5176 121.2232 11.2896 -30.9348 14.7908
# 4 -0.1551 -3.8929 11.2896 39.6071 3.7331 -6.8637
# 5 -20.4415 -12.6689 -30.9348 3.7331 52.6242 -1.6107
# 6 24.4996 5.1335 14.7908 -6.8637 -1.6107 45.8300
#
#
#
# Elastic Compliance Matrix: (Units=1/GPa)
#
#
# Indices 1 2 3 4 5 6 
#
# 1 0.006122 -0.001705 -0.000922 -0.000497 0.001375 -0.002810
# 2 -0.001705 0.016470 -0.003124 0.002464 0.001307 0.000490
# 3 -0.000922 -0.003124 0.011656 -0.004790 0.005977 -0.003426
# 4 -0.000497 0.002464 -0.004790 0.028227 -0.004246 0.005614
# 5 0.001375 0.001307 0.005977 -0.004246 0.023586 -0.002617
# 6 -0.002810 0.000490 -0.003426 0.005614 -0.002617 0.025122
#
#
# Mechanical properties :
#
#
# Convention : Reuss Voigt Hill
#
# Bulk Modulus (GPa) = 43.96128 64.24514 54.10321
# Shear Modulus (GPa) = 38.38256 46.81790 42.60023
#
# Velocity S-wave (km/s) = 3.72621 4.11535 3.92560
# Velocity P-wave (km/s) = 5.86648 6.76917 6.33393
#
# Compressibility (1/GPa) = 0.02274729
#
# Stress axis : x y z
#
# Youngs Moduli (GPa) = 163.33284 60.71672 85.78910
#
# Poissons Ratio (x) = 0.10350 0.07913
# Poissons Ratio (y) = 0.27842 0.26799
# Poissons Ratio (z) = 0.15065 0.18967
#
# Static dielectric constant tensor:
#      x y z
#    x 2.144860 0.001860 0.040750 
#    y 0.001860 2.252290 0.016360 
#    z 0.040750 0.016360 2.096150 
# 
# From -- ./inp_files/402416.got.cif
#   From: 2010.05.17/outbox.cif.g08.bks.cpg/sg2_202_cif.got.tgz:402416.got - 2010.06.03 11:33:40.
