data_PCOD9036547
_publ_section_title
;
Structure prediction by ZEFSAII (Michael W. Deem and Ramdas Pophale) SiO2 
 PCOD9036547
Probable space group: P -1
;
_chemical_formula_sum "Si O2"
_cell_formula_units_Z 16
_cell_length_a 21.680194
_cell_length_b 20.306459
_cell_length_c 8.602533
_cell_angle_alpha 131.376784
_cell_angle_beta 38.116972
_cell_angle_gamma 160.896779
_cell_volume 698.508290
_symmetry_space_group_name_H-M "P -1"
_symmetry_group_IT_number 2
_symmetry_cell_setting 'triclinic'
loop_
_space_group_symop_operation_xyz
x,y,z
-x,-y,-z
loop_
_atom_site_type_symbol
_atom_site_label
_atom_site_fract_x
_atom_site_fract_y
_atom_site_fract_z
Si Si1 0.413986 0.652697 0.703849
Si Si2 0.608156 0.558585 0.709732
Si Si3 0.922138 0.497868 0.010454
Si Si4 0.912460 0.198405 0.169143
Si Si5 0.915750 0.017270 0.407894
Si Si6 0.696069 0.187368 0.768270
Si Si7 0.158367 0.239377 0.932255
Si Si8 0.622217 0.016337 0.191444
O O1 0.450424 0.590170 0.442339
O O2 0.649570 0.850368 0.659230
O O3 0.352242 0.679079 0.742820
O O4 0.161742 0.439044 0.970300
O O5 0.500000 0.500000 0.000000
O O6 0.456432 0.488987 0.768629
O O7 0.904363 0.809575 0.538092
O O8 0.922853 0.429157 0.760713
O O9 0.116538 0.733848 0.999735
O O10 0.000000 0.500000 0.000000
O O11 0.796790 0.180188 0.479178
O O12 0.705991 0.015430 0.156568
O O13 0.015359 0.198611 0.058727
O O14 0.881522 0.885130 0.268577
O O15 0.040765 0.138736 0.181277
O O16 0.556133 0.136068 0.839857
O O17 0.500000 0.000000 0.000000
O O18 0.500000 0.000000 0.500000
#
# Coordination Sequence:
#
# PCOD9036547 Si02
#       8
#     2   2   2   2   2   2   2   2
#     4  10  23  38  59  91 128 165 203 262 322 364
#     4   9  19  39  61  90 125 159 207 262 311 374
#     4  11  23  39  63  94 125 162 218 266 307 377
#     4  10  23  41  61  94 135 165 205 270 322 372
#     4   9  19  37  65  89 120 162 214 256 310 380
#     4  11  23  42  68  92 125 176 218 260 318 384
#     4   9  19  38  61  90 123 163 206 261 313 373
#     4   9  21  41  60  88 128 165 204 261 320 365
#
# _framework density 22.905954999999999
#
# number of rings (size 3 to 8) (size 9 to 14) (size 15 to 20)
#    0.000    2.250    1.250    0.750    1.750   10.500 
#    0.000    8.750    0.000    0.000    0.000    0.000 
#    0.000    0.000    0.000    0.000    0.000    0.000 
#
# Total GULP energy -89287.660124 kJ/mol
# GULP energy per Si atom -5580.478758 kJ/mol
# Density = 2.285382 g / cm^3
# Si number density = 22.905955 Si / 1000 Ang^3
#
#
#
# Elastic Constant Matrix: (Units=GPa)
#
#
# Indices 1 2 3 4 5 6 
#
# 1 179.9112 57.5863 50.8100 4.2385 -54.4598 43.2603
# 2 57.5863 84.4497 1.7628 -5.4047 -16.9993 41.1960
# 3 50.8100 1.7628 90.7361 -4.7137 -23.4122 4.6944
# 4 4.2385 -5.4047 -4.7137 29.5913 3.4466 -7.5497
# 5 -54.4598 -16.9993 -23.4122 3.4466 48.0008 -10.9955
# 6 43.2603 41.1960 4.6944 -7.5497 -10.9955 43.3932
#
#
#
# Elastic Compliance Matrix: (Units=1/GPa)
#
#
# Indices 1 2 3 4 5 6 
#
# 1 0.012958 -0.003301 -0.004542 -0.006352 0.009970 -0.007872
# 2 -0.003301 0.023653 0.002803 0.000197 0.001628 -0.019021
# 3 -0.004542 0.002803 0.014376 0.003535 0.002983 0.001683
# 4 -0.006352 0.000197 0.003535 0.038788 -0.005661 0.011078
# 5 0.009970 0.001628 0.002983 -0.005661 0.033603 -0.004278
# 6 -0.007872 -0.019021 0.001683 0.011078 -0.004278 0.049613
#
#
# Mechanical properties :
#
#
# Convention : Reuss Voigt Hill
#
# Bulk Modulus (GPa) = 24.44552 63.93501 44.19027
# Shear Modulus (GPa) = 25.41859 40.52624 32.97241
#
# Velocity S-wave (km/s) = 3.33482 4.21080 3.79815
# Velocity P-wave (km/s) = 5.05206 7.18427 6.21036
#
# Compressibility (1/GPa) = 0.04090728
#
# Stress axis : x y z
#
# Youngs Moduli (GPa) = 77.17079 42.27863 69.55891
#
# Poissons Ratio (x) = 0.13955 0.31596
# Poissons Ratio (y) = 0.25472 -0.19498
# Poissons Ratio (z) = 0.35053 -0.11851
#
# Static dielectric constant tensor:
#      x y z
#    x 1.884620 0.052430 -0.035610 
#    y 0.052430 1.853140 -0.017670 
#    z -0.035610 -0.017670 1.877030 
# 
# From -- ./inp_files/349542.got.cif
#   From: 2010.05.17/outbox.cif.g08.bks.cpg/sg2_175_cif.got.tgz:349542.got - 2010.06.03 11:33:40.
