data_PCOD9036492
_publ_section_title
;
Structure prediction by ZEFSAII (Michael W. Deem and Ramdas Pophale) SiO2 
 PCOD9036492
Probable space group: P -1
;
_chemical_formula_sum "Si O2"
_cell_formula_units_Z 16
_cell_length_a 13.074163
_cell_length_b 7.717061
_cell_length_c 15.040858
_cell_angle_alpha 71.125338
_cell_angle_beta 29.066013
_cell_angle_gamma 66.019552
_cell_volume 671.883631
_symmetry_space_group_name_H-M "P -1"
_symmetry_group_IT_number 2
_symmetry_cell_setting 'triclinic'
loop_
_space_group_symop_operation_xyz
x,y,z
-x,-y,-z
loop_
_atom_site_type_symbol
_atom_site_label
_atom_site_fract_x
_atom_site_fract_y
_atom_site_fract_z
Si Si1 0.581550 0.403336 0.571249
Si Si2 0.310507 0.502535 0.213989
Si Si3 0.995985 0.667492 0.644486
Si Si4 0.331754 0.206250 0.584850
Si Si5 0.995288 0.194657 0.206046
Si Si6 0.767842 0.808880 0.146799
Si Si7 0.066216 0.923508 0.342083
Si Si8 0.639777 0.830607 0.632035
O O1 0.567862 0.613694 0.513516
O O2 0.358422 0.348477 0.757889
O O3 0.741603 0.377226 0.539556
O O4 0.738133 0.248303 0.412686
O O5 0.113172 0.449763 0.317979
O O6 0.217903 0.718162 0.281890
O O7 0.382343 0.345223 0.262175
O O8 0.500000 0.500000 0.000000
O O9 0.936548 0.661961 0.797252
O O10 0.909704 0.892963 0.653405
O O11 0.175778 0.216930 0.787324
O O12 0.258178 0.221110 0.535815
O O13 0.500000 0.000000 0.500000
O O14 0.106349 0.989915 0.199189
O O15 0.044540 0.209332 0.064486
O O16 0.589960 0.011910 0.232630
O O17 0.816478 0.916176 0.532116
#
# Coordination Sequence:
#
# PCOD9036492 Si02
#       8
#     2   2   2   2   2   2   2   2
#     4   9  19  41  64  89 130 163 213 271 316 385
#     4  12  24  38  64  97 134 169 217 266 325 393
#     4   8  21  42  61  92 131 166 212 260 330 380
#     4  10  23  37  64  95 126 167 225 258 326 384
#     4   8  20  39  64  94 130 158 219 261 319 382
#     4  11  19  41  68  89 127 173 212 269 321 379
#     4   9  20  43  62  91 136 163 215 265 322 389
#     4  11  22  41  62  93 130 174 213 271 317 387
#
# _framework density 23.813648000000001
#
# number of rings (size 3 to 8) (size 9 to 14) (size 15 to 20)
#    1.500    0.500    2.500    2.250    0.000    2.500 
#    2.250    0.625    2.750    0.000    0.000    0.000 
#    0.000    0.000    0.000    0.000    0.000    0.000 
#
# Total GULP energy -89223.824933 kJ/mol
# GULP energy per Si atom -5576.489058 kJ/mol
# Density = 2.375945 g / cm^3
# Si number density = 23.813648 Si / 1000 Ang^3
#
#
#
# Elastic Constant Matrix: (Units=GPa)
#
#
# Indices 1 2 3 4 5 6 
#
# 1 102.0041 26.8731 29.9626 -7.4196 35.2274 -12.3426
# 2 26.8731 141.6768 13.1704 -20.2343 12.4436 -14.7527
# 3 29.9626 13.1704 79.0739 -16.6247 26.0830 -2.5318
# 4 -7.4196 -20.2343 -16.6247 26.0071 -9.1928 10.0890
# 5 35.2274 12.4436 26.0830 -9.1928 34.6426 -2.9752
# 6 -12.3426 -14.7527 -2.5318 10.0890 -2.9752 30.6196
#
#
#
# Elastic Compliance Matrix: (Units=1/GPa)
#
#
# Indices 1 2 3 4 5 6 
#
# 1 0.016600 -0.001778 -0.001754 -0.005738 -0.015925 0.006033
# 2 -0.001778 0.008313 0.000519 0.005763 0.000084 0.001441
# 3 -0.001754 0.000519 0.018390 0.009257 -0.010047 -0.002963
# 4 -0.005738 0.005763 0.009257 0.057427 0.010603 -0.016663
# 5 -0.015925 0.000084 -0.010047 0.010603 0.054947 -0.005364
# 6 0.006033 0.001441 -0.002963 -0.016663 -0.005364 0.040509
#
#
# Mechanical properties :
#
#
# Convention : Reuss Voigt Hill
#
# Bulk Modulus (GPa) = 26.82650 51.41855 39.12252
# Shear Modulus (GPa) = 23.29510 35.10378 29.19944
#
# Velocity S-wave (km/s) = 3.13105 3.84357 3.50546
# Velocity P-wave (km/s) = 4.93568 6.42933 5.73137
#
# Compressibility (1/GPa) = 0.03727658
#
# Stress axis : x y z
#
# Youngs Moduli (GPa) = 60.24257 120.29252 54.37738
#
# Poissons Ratio (x) = 0.21390 0.09538
# Poissons Ratio (y) = 0.10712 -0.02823
# Poissons Ratio (z) = 0.10567 -0.06245
#
# Static dielectric constant tensor:
#      x y z
#    x 1.963650 0.005080 0.075490 
#    y 0.005080 1.955990 0.008730 
#    z 0.075490 0.008730 1.916320 
# 
# From -- ./inp_files/452384.got.cif
#   From: 2010.05.17/outbox.cif.g08.bks.cpg/sg2_227_cif.got.tgz:452384.got - 2010.06.03 11:33:40.
