data_PCOD9036439
_publ_section_title
;
Structure prediction by ZEFSAII (Michael W. Deem and Ramdas Pophale) SiO2 
 PCOD9036439
Probable space group: P -1
;
_chemical_formula_sum "Si O2"
_cell_formula_units_Z 16
_cell_length_a 20.133434
_cell_length_b 12.190581
_cell_length_c 11.400307
_cell_angle_alpha 119.376546
_cell_angle_beta 148.251272
_cell_angle_gamma 40.078549
_cell_volume 835.383965
_symmetry_space_group_name_H-M "P -1"
_symmetry_group_IT_number 2
_symmetry_cell_setting 'triclinic'
loop_
_space_group_symop_operation_xyz
x,y,z
-x,-y,-z
loop_
_atom_site_type_symbol
_atom_site_label
_atom_site_fract_x
_atom_site_fract_y
_atom_site_fract_z
Si Si1 0.949378 0.900165 0.321479
Si Si2 0.657817 0.345053 0.503032
Si Si3 0.852923 0.640231 0.705928
Si Si4 0.454842 0.869904 0.183729
Si Si5 0.082233 0.113379 0.013650
Si Si6 0.267804 0.266325 0.167199
Si Si7 0.625514 0.476586 0.271082
Si Si8 0.449605 0.741299 0.509933
O O1 0.907107 0.923352 0.129398
O O2 0.153543 0.671293 0.519511
O O3 0.000000 0.000000 0.500000
O O4 0.742422 0.012140 0.123781
O O5 0.640214 0.377383 0.354920
O O6 0.533838 0.552485 0.478640
O O7 0.591565 0.265543 0.421024
O O8 0.878561 0.209217 0.796831
O O9 0.669643 0.755483 0.405780
O O10 0.778468 0.650243 0.727646
O O11 0.905303 0.747239 0.864152
O O12 0.056344 0.418587 0.869916
O O13 0.513667 0.692417 0.237533
O O14 0.377847 0.050644 0.232417
O O15 0.255269 0.921629 0.244284
O O16 0.400827 0.259947 0.290888
O O17 0.500000 0.500000 0.000000
#
# Coordination Sequence:
#
# PCOD9036439 Si02
#       8
#     2   2   2   2   2   2   2   2
#     4  11  22  36  55  86 119 154 195 244 293 348
#     4  10  23  37  56  87 122 156 197 239 285 357
#     4  11  21  32  55  89 121 151 186 252 302 343
#     4  12  21  35  56  85 120 150 188 247 304 342
#     4  11  20  36  58  86 124 151 196 242 296 348
#     4  11  21  33  54  86 121 151 192 235 303 358
#     4  11  23  39  60  86 120 152 202 248 291 341
#     4  11  21  37  58  85 124 161 187 232 301 365
#
# _framework density 19.15287
#
# number of rings (size 3 to 8) (size 9 to 14) (size 15 to 20)
#    0.000    1.000    5.000    3.750    3.500    0.000 
#    0.000    0.000    0.000    0.750    0.000    1.750 
#    0.000    0.000    0.000    0.000    0.000    0.000 
#
# Total GULP energy -89126.657490 kJ/mol
# GULP energy per Si atom -5570.416093 kJ/mol
# Density = 1.910928 g / cm^3
# Si number density = 19.152870 Si / 1000 Ang^3
#
#
#
# Elastic Constant Matrix: (Units=GPa)
#
#
# Indices 1 2 3 4 5 6 
#
# 1 76.4108 30.1986 48.6068 3.5049 23.5384 18.2479
# 2 30.1986 90.8083 56.4923 -23.9660 4.9664 12.7484
# 3 48.6068 56.4923 164.7898 -20.2293 18.9361 10.0363
# 4 3.5049 -23.9660 -20.2293 44.3915 -11.4387 14.6067
# 5 23.5384 4.9664 18.9361 -11.4387 -1.1265 22.3786
# 6 18.2479 12.7484 10.0363 14.6067 22.3786 1.8466
#
#
#
# Elastic Compliance Matrix: (Units=1/GPa)
#
#
# Indices 1 2 3 4 5 6 
#
# 1 0.028470 -0.002407 -0.004034 -0.000844 -0.017232 -0.027297
# 2 -0.002407 0.014693 -0.003229 0.003566 -0.007572 0.003445
# 3 -0.004034 -0.003229 0.008847 0.002822 -0.000589 -0.001114
# 4 -0.000844 0.003566 0.002822 0.019458 -0.015876 0.006855
# 5 -0.017232 -0.007572 -0.000589 -0.015876 0.024197 0.058092
# 6 -0.027297 0.003445 -0.001114 0.006855 0.058092 0.035318
#
#
# Mechanical properties :
#
#
# Convention : Reuss Voigt Hill
#
# Bulk Modulus (GPa) = 30.60753 66.95603 48.78178
# Shear Modulus (GPa) = 31.01501 22.13641 26.57571
#
# Velocity S-wave (km/s) = 4.02847 3.40336 3.72903
# Velocity P-wave (km/s) = 6.13624 7.10482 6.63822
#
# Compressibility (1/GPa) = 0.03267170
#
# Stress axis : x y z
#
# Youngs Moduli (GPa) = 35.12480 68.05905 113.03323
#
# Poissons Ratio (x) = 0.16379 0.45592
# Poissons Ratio (y) = 0.08453 0.36499
# Poissons Ratio (z) = 0.14168 0.21977
#
# Static dielectric constant tensor:
#      x y z
#    x 1.702820 0.008740 0.039190 
#    y 0.008740 1.720170 -0.024860 
#    z 0.039190 -0.024860 1.741880 
# 
# From -- ./inp_files/428945.got.cif
#   From: 2010.05.17/outbox.cif.g08.bks.cpg/sg2_215_cif.got.tgz:428945.got - 2010.06.03 11:33:40.
