data_PCOD9036136
_publ_section_title
;
Structure prediction by ZEFSAII (Michael W. Deem and Ramdas Pophale) SiO2 
 PCOD9036136
Probable space group: P -1
;
_chemical_formula_sum "Si O2"
_cell_formula_units_Z 10
_cell_length_a 7.520100
_cell_length_b 15.624541
_cell_length_c 5.263464
_cell_angle_alpha 94.264511
_cell_angle_beta 115.849049
_cell_angle_gamma 60.424290
_cell_volume 476.149338
_symmetry_space_group_name_H-M "P -1"
_symmetry_group_IT_number 2
_symmetry_cell_setting 'triclinic'
loop_
_space_group_symop_operation_xyz
x,y,z
-x,-y,-z
loop_
_atom_site_type_symbol
_atom_site_label
_atom_site_fract_x
_atom_site_fract_y
_atom_site_fract_z
Si Si1 0.986814 0.445576 0.229906
Si Si2 0.556972 0.726973 0.334730
Si Si3 0.629950 0.881638 0.569259
Si Si4 0.163162 0.233087 0.819921
Si Si5 0.324077 0.597989 0.251626
O O1 0.211798 0.337214 0.368816
O O2 0.000000 0.500000 0.500000
O O3 0.000000 0.500000 0.000000
O O4 0.764161 0.436406 0.053367
O O5 0.456986 0.838504 0.405109
O O6 0.654926 0.730458 0.119468
O O7 0.425276 0.667664 0.254390
O O8 0.806891 0.829942 0.431774
O O9 0.500000 0.000000 0.500000
O O10 0.757338 0.839373 0.905716
O O11 0.910558 0.328595 0.722484
O O12 0.500000 0.500000 0.500000
#
# Coordination Sequence:
#
# PCOD9036136 Si02
#       5
#     2   2   2   2   2
#     4  12  25  45  63  99 144 190 236 284 335 423
#     4  10  25  42  72  99 147 181 241 285 356 411
#     4  10  22  47  75  95 140 187 228 303 366 398
#     4  10  23  46  66 106 141 177 240 292 341 433
#     4  12  24  46  73 108 146 198 231 284 361 425
#
# _framework density 21.001814
#
# number of rings (size 3 to 8) (size 9 to 14) (size 15 to 20)
#    1.200    0.000    4.000    1.800    0.000    0.800 
#   14.400    2.000    0.000    0.000    0.000    0.000 
#    0.000    0.000    0.000    0.000    0.000    0.000 
#
# Total GULP energy -55803.263954 kJ/mol
# GULP energy per Si atom -5580.326395 kJ/mol
# Density = 2.095401 g / cm^3
# Si number density = 21.001814 Si / 1000 Ang^3
#
#
#
# Elastic Constant Matrix: (Units=GPa)
#
#
# Indices 1 2 3 4 5 6 
#
# 1 111.7130 74.4088 58.5664 3.2882 -0.9608 12.2180
# 2 74.4088 187.1603 73.9554 -4.6160 -6.4618 19.8114
# 3 58.5664 73.9554 145.6886 2.7863 -21.2998 10.6905
# 4 3.2882 -4.6160 2.7863 31.1358 9.6263 0.7231
# 5 -0.9608 -6.4618 -21.2998 9.6263 48.6743 12.1953
# 6 12.2180 19.8114 10.6905 0.7231 12.1953 35.3458
#
#
#
# Elastic Compliance Matrix: (Units=1/GPa)
#
#
# Indices 1 2 3 4 5 6 
#
# 1 0.013588 -0.003983 -0.003544 -0.001275 -0.001332 -0.000907
# 2 -0.003983 0.008192 -0.002358 0.001822 0.000277 -0.002634
# 3 -0.003544 -0.002358 0.010485 -0.002497 0.005301 -0.002402
# 4 -0.001275 0.001822 -0.002497 0.035303 -0.008451 0.002369
# 5 -0.001332 0.000277 0.005301 -0.008451 0.027177 -0.010502
# 6 -0.000907 -0.002634 -0.002402 0.002369 -0.010502 0.034383
#
#
# Mechanical properties :
#
#
# Convention : Reuss Voigt Hill
#
# Bulk Modulus (GPa) = 80.04288 95.38034 87.71161
# Shear Modulus (GPa) = 32.66612 38.87327 35.76969
#
# Velocity S-wave (km/s) = 3.94813 4.30693 4.13143
# Velocity P-wave (km/s) = 7.67976 8.38133 8.03821
#
# Compressibility (1/GPa) = 0.01249330
#
# Stress axis : x y z
#
# Youngs Moduli (GPa) = 73.59515 122.07451 95.37612
#
# Poissons Ratio (x) = 0.48623 0.33803
# Poissons Ratio (y) = 0.29314 0.22492
# Poissons Ratio (z) = 0.26083 0.28788
#
# Static dielectric constant tensor:
#      x y z
#    x 1.829020 0.004580 -0.022520 
#    y 0.004580 1.826890 0.050510 
#    z -0.022520 0.050510 1.778210 
# 
# From -- ./inp_files/33118.got.cif
#   From: 2010.05.17/outbox.cif.g08.bks.cpg/sg2_17_cif.got.tgz:33118.got - 2010.06.03 11:33:40.
