data_PCOD9036957
_publ_section_title
;
Structure prediction by ZEFSAII (Michael W. Deem and Ramdas Pophale) SiO2 
 PCOD9036957
Probable space group: P -1
;
_chemical_formula_sum "Si O2"
_cell_formula_units_Z 16
_cell_length_a 17.470839
_cell_length_b 24.150531
_cell_length_c 9.191298
_cell_angle_alpha 144.474312
_cell_angle_beta 36.022483
_cell_angle_gamma 161.906685
_cell_volume 686.414713
_symmetry_space_group_name_H-M "P -1"
_symmetry_group_IT_number 2
_symmetry_cell_setting 'triclinic'
loop_
_space_group_symop_operation_xyz
x,y,z
-x,-y,-z
loop_
_atom_site_type_symbol
_atom_site_label
_atom_site_fract_x
_atom_site_fract_y
_atom_site_fract_z
Si Si1 0.936313 0.006517 0.766769
Si Si2 0.940425 0.546087 0.393235
Si Si3 0.333118 0.027028 0.408644
Si Si4 0.714301 0.820739 0.001499
Si Si5 0.156647 0.695112 0.659883
Si Si6 0.170630 0.733597 0.145030
Si Si7 0.750792 0.048452 0.943524
Si Si8 0.477556 0.385506 0.875781
O O1 0.832050 0.042163 0.946594
O O2 0.202142 0.181864 0.811106
O O3 0.000000 0.000000 0.500000
O O4 0.739759 0.836828 0.821386
O O5 0.696739 0.447721 0.624829
O O6 0.180555 0.709417 0.478686
O O7 0.998192 0.628098 0.325966
O O8 0.905504 0.411366 0.130624
O O9 0.362834 0.125514 0.697429
O O10 0.614777 0.162881 0.275380
O O11 0.155616 0.827949 0.297546
O O12 0.262268 0.013114 0.324687
O O13 0.555319 0.643291 0.958384
O O14 0.000000 0.000000 0.000000
O O15 0.000000 0.500000 0.500000
O O16 0.064990 0.746469 0.928156
O O17 0.463895 0.902385 0.096074
O O18 0.500000 0.500000 0.000000
#
# Coordination Sequence:
#
# PCOD9036957 Si02
#       8
#     2   2   2   2   2   2   2   2
#     4  11  24  43  71  96 130 175 227 283 330 404
#     4  11  23  41  63  99 140 175 219 278 341 405
#     4  11  23  40  68  95 135 173 227 276 335 408
#     4  10  23  41  68  95 127 174 227 273 332 399
#     4  11  22  36  63  95 131 172 216 270 338 394
#     4  10  23  39  66  96 138 178 219 276 345 397
#     4  11  22  40  66  96 133 175 227 273 337 398
#     4  11  24  45  70  98 135 180 221 280 340 398
#
# _framework density 23.309524
#
# number of rings (size 3 to 8) (size 9 to 14) (size 15 to 20)
#    0.000    1.250    0.000    7.500    7.000    1.000 
#    0.000    0.625    0.000    0.000    0.000    0.000 
#    0.000    0.000    0.000    0.000    0.000    0.000 
#
# Total GULP energy -89094.213770 kJ/mol
# GULP energy per Si atom -5568.388361 kJ/mol
# Density = 2.325647 g / cm^3
# Si number density = 23.309524 Si / 1000 Ang^3
#
#
#
# Elastic Constant Matrix: (Units=GPa)
#
#
# Indices 1 2 3 4 5 6 
#
# 1 120.9091 35.5414 37.1685 -2.4946 19.5498 -32.6873
# 2 35.5414 81.0178 32.6914 0.0721 16.9554 -30.9388
# 3 37.1685 32.6914 61.1099 -5.3995 16.7265 -26.2543
# 4 -2.4946 0.0721 -5.3995 43.8439 -6.8545 5.6611
# 5 19.5498 16.9554 16.7265 -6.8545 39.8581 -1.7421
# 6 -32.6873 -30.9388 -26.2543 5.6611 -1.7421 56.7793
#
#
#
# Elastic Compliance Matrix: (Units=1/GPa)
#
#
# Indices 1 2 3 4 5 6 
#
# 1 0.011433 -0.001198 -0.003593 -0.000895 -0.003558 0.004247
# 2 -0.001198 0.018805 -0.004885 -0.002509 -0.005471 0.007381
# 3 -0.003593 -0.004885 0.026084 0.001075 -0.006614 0.007021
# 4 -0.000895 -0.002509 0.001075 0.024153 0.005050 -0.003638
# 5 -0.003558 -0.005471 -0.006614 0.005050 0.032474 -0.007595
# 6 0.004247 0.007381 0.007021 -0.003638 -0.007595 0.027455
#
#
# Mechanical properties :
#
#
# Convention : Reuss Voigt Hill
#
# Bulk Modulus (GPa) = 27.04835 52.64885 39.84860
# Shear Modulus (GPa) = 29.05645 38.60528 33.83087
#
# Velocity S-wave (km/s) = 3.53448 4.07406 3.81383
# Velocity P-wave (km/s) = 5.31845 6.69078 6.04369
#
# Compressibility (1/GPa) = 0.03697083
#
# Stress axis : x y z
#
# Youngs Moduli (GPa) = 87.46989 53.17635 38.33751
#
# Poissons Ratio (x) = 0.06371 0.13774
# Poissons Ratio (y) = 0.10479 0.18726
# Poissons Ratio (z) = 0.31427 0.25975
#
# Static dielectric constant tensor:
#      x y z
#    x 1.964070 -0.089400 0.038410 
#    y -0.089400 1.957530 0.001600 
#    z 0.038410 0.001600 1.929790 
# 
# From -- ./inp_files/338612.got.cif
#   From: 2010.05.17/outbox.cif.g08.bks.cpg/sg2_170_cif.got.tgz:338612.got - 2010.06.03 11:33:40.
