data_PCOD9036065
_publ_section_title
;
Structure prediction by ZEFSAII (Michael W. Deem and Ramdas Pophale) SiO2 
 PCOD9036065
Probable space group: P -1
;
_chemical_formula_sum "Si O2"
_cell_formula_units_Z 14
_cell_length_a 7.027390
_cell_length_b 18.975655
_cell_length_c 7.725098
_cell_angle_alpha 43.311856
_cell_angle_beta 82.671625
_cell_angle_gamma 106.159868
_cell_volume 587.411253
_symmetry_space_group_name_H-M "P -1"
_symmetry_group_IT_number 2
_symmetry_cell_setting 'triclinic'
loop_
_space_group_symop_operation_xyz
x,y,z
-x,-y,-z
loop_
_atom_site_type_symbol
_atom_site_label
_atom_site_fract_x
_atom_site_fract_y
_atom_site_fract_z
Si Si1 0.801807 0.959957 0.231247
Si Si2 0.062956 0.214586 0.363725
Si Si3 0.511432 0.586009 0.193958
Si Si4 0.112459 0.543283 0.099551
Si Si5 0.298916 0.685734 0.275311
Si Si6 0.672603 0.209346 0.549531
Si Si7 0.763317 0.111485 0.244681
O O1 0.784377 0.840012 0.521995
O O2 0.555928 0.914481 0.260447
O O3 0.865628 0.061130 0.186224
O O4 0.000000 0.000000 0.000000
O O5 0.894880 0.201827 0.559330
O O6 0.895245 0.141662 0.355134
O O7 0.246004 0.352577 0.038879
O O8 0.500000 0.500000 0.500000
O O9 0.312596 0.527003 0.177188
O O10 0.476840 0.681371 0.137162
O O11 0.905175 0.455253 0.410506
O O12 0.241399 0.689524 0.795094
O O13 0.000000 0.500000 0.000000
O O14 0.381864 0.744731 0.351045
O O15 0.221311 0.768601 0.045187
O O16 0.500000 0.000000 0.500000
#
# Coordination Sequence:
#
# PCOD9036065 Si02
#       7
#     2   2   2   2   2   2   2
#     4  12  27  44  71 103 142 185 245 288 350 425
#     4  12  25  45  71 102 142 186 241 292 353 422
#     4  12  24  44  74 111 143 181 244 300 357 434
#     4  10  22  47  72 101 141 186 232 294 364 426
#     4  11  25  44  73 100 144 186 232 289 365 422
#     4  11  24  48  70 103 142 189 228 300 360 422
#     4  12  25  45  70 101 143 193 233 288 358 423
#
# _framework density 23.833386999999998
#
# number of rings (size 3 to 8) (size 9 to 14) (size 15 to 20)
#    0.000    0.571    2.857    5.143    4.000    1.143 
#    5.143    4.286    0.000    0.000    0.000    0.000 
#    0.000    0.000    0.000    0.000    0.000    0.000 
#
# Total GULP energy -78282.940380 kJ/mol
# GULP energy per Si atom -5591.638599 kJ/mol
# Density = 2.377914 g / cm^3
# Si number density = 23.833387 Si / 1000 Ang^3
#
#
#
# Elastic Constant Matrix: (Units=GPa)
#
#
# Indices 1 2 3 4 5 6 
#
# 1 103.7849 20.8957 21.1719 4.0177 -11.6993 -2.1407
# 2 20.8957 103.5004 4.2458 14.0941 -15.3553 2.0440
# 3 21.1719 4.2458 95.2961 13.6438 -9.3424 -5.7044
# 4 4.0177 14.0941 13.6438 25.0199 -1.5846 -0.9580
# 5 -11.6993 -15.3553 -9.3424 -1.5846 52.8025 -2.4097
# 6 -2.1407 2.0440 -5.7044 -0.9580 -2.4097 47.3636
#
#
#
# Elastic Compliance Matrix: (Units=1/GPa)
#
#
# Indices 1 2 3 4 5 6 
#
# 1 0.010620 -0.001943 -0.002209 0.000700 0.001436 0.000385
# 2 -0.001943 0.011326 0.001113 -0.006511 0.002845 -0.000430
# 3 -0.002209 0.001113 0.012156 -0.006735 0.001841 0.001274
# 4 0.000700 -0.006511 -0.006735 0.047116 -0.001499 0.000378
# 5 0.001436 0.002845 0.001841 -0.001499 0.020418 0.001172
# 6 0.000385 -0.000430 0.001274 0.000378 0.001172 0.021370
#
#
# Mechanical properties :
#
#
# Convention : Reuss Voigt Hill
#
# Bulk Modulus (GPa) = 35.68713 43.91203 39.79958
# Shear Modulus (GPa) = 36.12038 42.12173 39.12105
#
# Velocity S-wave (km/s) = 3.89721 4.20854 4.05586
# Velocity P-wave (km/s) = 5.93777 6.48693 6.21842
#
# Compressibility (1/GPa) = 0.02802130
#
# Stress axis : x y z
#
# Youngs Moduli (GPa) = 94.16246 88.29514 82.26459
#
# Poissons Ratio (x) = 0.17159 0.18174
# Poissons Ratio (y) = 0.18299 -0.09152
# Poissons Ratio (z) = 0.20803 -0.09823
#
# Static dielectric constant tensor:
#      x y z
#    x 1.948240 -0.026030 0.055310 
#    y -0.026030 1.886680 -0.019670 
#    z 0.055310 -0.019670 1.968960 
# 
# From -- ./inp_files/45923.got.cif
#   From: 2010.05.17/outbox.cif.g08.bks.cpg/sg2_23_cif.got.tgz:45923.got - 2010.06.03 11:33:40.
