data_PCOD9036280
_publ_section_title
;
Structure prediction by ZEFSAII (Michael W. Deem and Ramdas Pophale) SiO2 
 PCOD9036280
Probable space group: P -1
;
_chemical_formula_sum "Si O2"
_cell_formula_units_Z 16
_cell_length_a 8.057494
_cell_length_b 11.536356
_cell_length_c 22.724623
_cell_angle_alpha 23.965473
_cell_angle_beta 40.454568
_cell_angle_gamma 43.394220
_cell_volume 552.767265
_symmetry_space_group_name_H-M "P -1"
_symmetry_group_IT_number 2
_symmetry_cell_setting 'triclinic'
loop_
_space_group_symop_operation_xyz
x,y,z
-x,-y,-z
loop_
_atom_site_type_symbol
_atom_site_label
_atom_site_fract_x
_atom_site_fract_y
_atom_site_fract_z
Si Si1 0.215994 0.871934 0.909962
Si Si2 0.797865 0.492212 0.029664
Si Si3 0.018448 0.849354 0.318395
Si Si4 0.762621 0.322273 0.873958
Si Si5 0.217802 0.164889 0.489265
Si Si6 0.832672 0.307293 0.355202
Si Si7 0.472314 0.717217 0.179776
Si Si8 0.542643 0.775095 0.399352
O O1 0.188746 0.607154 0.994707
O O2 0.467363 0.985143 0.760067
O O3 0.284746 0.815449 0.985198
O O4 0.949950 0.090298 0.891730
O O5 0.536912 0.530465 0.118967
O O6 0.008690 0.270755 0.113595
O O7 0.813910 0.854135 0.316070
O O8 0.000000 0.500000 0.500000
O O9 0.315921 0.835086 0.224137
O O10 0.937730 0.922391 0.373099
O O11 0.944430 0.555448 0.736182
O O12 0.085377 0.008243 0.545760
O O13 0.712846 0.511721 0.690702
O O14 0.500000 0.000000 0.500000
O O15 0.717910 0.523525 0.232791
O O16 0.615455 0.257098 0.484214
O O17 0.500000 0.000000 0.000000
O O18 0.500000 0.500000 0.500000
#
# Coordination Sequence:
#
# PCOD9036280 Si02
#       8
#     2   2   2   2   2   2   2   2
#     4  10  25  49  81 120 164 218 288 336 428 509
#     4  11  28  51  78 121 169 213 276 353 426 505
#     4  11  25  49  72 118 161 211 278 337 419 503
#     4  11  25  53  82 117 167 222 279 353 421 508
#     4  10  22  48  77 116 164 213 277 347 420 504
#     4  11  25  49  84 119 163 220 282 343 424 508
#     4  11  26  49  82 122 166 216 278 353 422 500
#     4  11  22  48  76 107 163 214 270 339 409 503
#
# _framework density 28.945274000000001
#
# number of rings (size 3 to 8) (size 9 to 14) (size 15 to 20)
#    0.000    1.250    3.750    0.750    5.250    3.500 
#   15.750    2.500    0.000    0.000    0.000    0.000 
#    0.000    0.000    0.000    0.000    0.000    0.000 
#
# Total GULP energy -89248.512125 kJ/mol
# GULP energy per Si atom -5578.032008 kJ/mol
# Density = 2.887939 g / cm^3
# Si number density = 28.945274 Si / 1000 Ang^3
#
#
#
# Elastic Constant Matrix: (Units=GPa)
#
#
# Indices 1 2 3 4 5 6 
#
# 1 107.0234 44.8011 52.4341 -6.7133 -46.8465 12.9777
# 2 44.8011 156.1523 54.0865 29.0061 -6.6711 24.2316
# 3 52.4341 54.0865 202.8298 21.2579 3.0998 8.9184
# 4 -6.7133 29.0061 21.2579 67.7645 11.0016 6.2906
# 5 -46.8465 -6.6711 3.0998 11.0016 73.2453 -11.1902
# 6 12.9777 24.2316 8.9184 6.2906 -11.1902 60.1198
#
#
#
# Elastic Compliance Matrix: (Units=1/GPa)
#
#
# Indices 1 2 3 4 5 6 
#
# 1 0.017830 -0.003783 -0.004070 0.002912 0.010791 -0.000016
# 2 -0.003783 0.008742 -0.000867 -0.003376 -0.001461 -0.002497
# 3 -0.004070 -0.000867 0.006426 -0.001600 -0.002723 -0.000065
# 4 0.002912 -0.003376 -0.001600 0.017273 -0.001132 -0.001049
# 5 0.010791 -0.001461 -0.002723 -0.001132 0.021121 0.002713
# 6 -0.000016 -0.002497 -0.000065 -0.001049 0.002713 0.018268
#
#
# Mechanical properties :
#
#
# Convention : Reuss Voigt Hill
#
# Bulk Modulus (GPa) = 64.28001 85.40542 74.84271
# Shear Modulus (GPa) = 44.52940 61.20483 52.86712
#
# Velocity S-wave (km/s) = 3.92650 4.60336 4.27834
# Velocity P-wave (km/s) = 6.54310 7.60424 7.09354
#
# Compressibility (1/GPa) = 0.01555694
#
# Stress axis : x y z
#
# Youngs Moduli (GPa) = 56.08679 114.39203 155.62545
#
# Poissons Ratio (x) = 0.43276 0.63336
# Poissons Ratio (y) = 0.21218 0.13496
# Poissons Ratio (z) = 0.22826 0.09920
#
# Static dielectric constant tensor:
#      x y z
#    x 2.710610 -0.111210 0.077840 
#    y -0.111210 2.179610 -0.367600 
#    z 0.077840 -0.367600 2.358140 
# 
# From -- ./inp_files/623110.got.cif
#   From: 2010.05.17/outbox.cif.g08.bks.cpg/sg2_312_cif.got.tgz:623110.got - 2010.06.03 11:33:40.
