data_PCOD9036951
_publ_section_title
;
Structure prediction by ZEFSAII (Michael W. Deem and Ramdas Pophale) SiO2 
 PCOD9036951
Probable space group: P -1
;
_chemical_formula_sum "Si O2"
_cell_formula_units_Z 12
_cell_length_a 8.929636
_cell_length_b 7.099535
_cell_length_c 12.983042
_cell_angle_alpha 34.418507
_cell_angle_beta 90.341024
_cell_angle_gamma 90.733854
_cell_volume 465.176660
_symmetry_space_group_name_H-M "P -1"
_symmetry_group_IT_number 2
_symmetry_cell_setting 'triclinic'
loop_
_space_group_symop_operation_xyz
x,y,z
-x,-y,-z
loop_
_atom_site_type_symbol
_atom_site_label
_atom_site_fract_x
_atom_site_fract_y
_atom_site_fract_z
Si Si1 0.216642 0.489239 0.930335
Si Si2 0.127799 0.813272 0.201584
Si Si3 0.402165 0.060982 0.371739
Si Si4 0.442637 0.923322 0.210680
Si Si5 0.114882 0.711965 0.605712
Si Si6 0.282590 0.803115 0.995750
O O1 0.181437 0.618510 0.759477
O O2 0.373429 0.290264 0.021553
O O3 0.219499 0.744763 0.907801
O O4 0.108253 0.169553 0.094819
O O5 0.164311 0.872717 0.053296
O O6 0.987507 0.572004 0.319208
O O7 0.294192 0.696830 0.292654
O O8 0.248829 0.848824 0.475482
O O9 0.500000 0.000000 0.500000
O O10 0.482461 0.934147 0.325827
O O11 0.588155 0.911901 0.144643
O O12 0.352214 0.443880 0.187433
O O13 0.000000 0.000000 0.500000
#
# Coordination Sequence:
#
# PCOD9036951 Si02
#       6
#     2   2   2   2   2   2
#     4   9  22  40  66  90 122 175 217 246 313 383
#     4  10  23  39  66  96 125 168 218 255 316 378
#     4  11  22  40  67  91 128 171 206 263 325 366
#     4   9  21  40  65  92 126 169 219 252 308 388
#     4  12  23  42  64  97 135 163 208 269 324 375
#     4  11  19  43  67  93 126 172 217 258 308 386
#
# _framework density 25.79665
#
# number of rings (size 3 to 8) (size 9 to 14) (size 15 to 20)
#    1.000    0.667    1.667    5.000    0.000    1.333 
#    0.000    2.500    0.000    0.000    0.000    0.000 
#    0.000    0.000    0.000    0.000    0.000    0.000 
#
# Total GULP energy -67138.697417 kJ/mol
# GULP energy per Si atom -5594.891451 kJ/mol
# Density = 2.573794 g / cm^3
# Si number density = 25.796650 Si / 1000 Ang^3
#
#
#
# Elastic Constant Matrix: (Units=GPa)
#
#
# Indices 1 2 3 4 5 6 
#
# 1 92.3122 19.9357 52.8180 -6.4351 -31.1232 13.6735
# 2 19.9357 102.5197 29.4849 13.2640 -8.8354 29.3911
# 3 52.8180 29.4849 97.4734 1.6692 -14.3377 25.2112
# 4 -6.4351 13.2640 1.6692 33.4768 11.4193 -3.8234
# 5 -31.1232 -8.8354 -14.3377 11.4193 53.5747 -12.2150
# 6 13.6735 29.3911 25.2112 -3.8234 -12.2150 37.8536
#
#
#
# Elastic Compliance Matrix: (Units=1/GPa)
#
#
# Indices 1 2 3 4 5 6 
#
# 1 0.019252 -0.001580 -0.009685 0.002270 0.008705 0.003762
# 2 -0.001580 0.014277 -0.000485 -0.007307 0.000402 -0.010800
# 3 -0.009685 -0.000485 0.017657 -0.002741 -0.002437 -0.008948
# 4 0.002270 -0.007307 -0.002741 0.036506 -0.006517 0.008263
# 5 0.008705 0.000402 -0.002437 -0.006517 0.025860 0.005853
# 6 0.003762 -0.010800 -0.008948 0.008263 0.005853 0.042127
#
#
# Mechanical properties :
#
#
# Convention : Reuss Voigt Hill
#
# Bulk Modulus (GPa) = 36.12016 55.19804 45.65910
# Shear Modulus (GPa) = 26.53807 37.65214 32.09511
#
# Velocity S-wave (km/s) = 3.21088 3.82458 3.53109
# Velocity P-wave (km/s) = 5.27054 6.39899 5.86198
#
# Compressibility (1/GPa) = 0.02768537
#
# Stress axis : x y z
#
# Youngs Moduli (GPa) = 51.94365 70.04183 56.63503
#
# Poissons Ratio (x) = 0.11066 0.54853
# Poissons Ratio (y) = 0.08207 0.02747
# Poissons Ratio (z) = 0.50309 0.03397
#
# Static dielectric constant tensor:
#      x y z
#    x 2.076390 0.042770 0.009930 
#    y 0.042770 2.034860 -0.038900 
#    z 0.009930 -0.038900 2.013980 
# 
# From -- ./inp_files/416117.got.cif
#   From: 2010.05.17/outbox.cif.g08.bks.cpg/sg2_209_cif.got.tgz:416117.got - 2010.06.03 11:33:40.
