data_PCOD9036748
_publ_section_title
;
Structure prediction by ZEFSAII (Michael W. Deem and Ramdas Pophale) SiO2 
 PCOD9036748
Probable space group: P -1
;
_chemical_formula_sum "Si O2"
_cell_formula_units_Z 14
_cell_length_a 5.584460
_cell_length_b 4.816750
_cell_length_c 24.250576
_cell_angle_alpha 105.464579
_cell_angle_beta 60.674933
_cell_angle_gamma 94.077853
_cell_volume 546.758797
_symmetry_space_group_name_H-M "P -1"
_symmetry_group_IT_number 2
_symmetry_cell_setting 'triclinic'
loop_
_space_group_symop_operation_xyz
x,y,z
-x,-y,-z
loop_
_atom_site_type_symbol
_atom_site_label
_atom_site_fract_x
_atom_site_fract_y
_atom_site_fract_z
Si Si1 0.143636 0.938986 0.393153
Si Si2 0.793966 0.433585 0.362674
Si Si3 0.260722 0.145664 0.705931
Si Si4 0.970671 0.063251 0.170185
Si Si5 0.858284 0.732808 0.068541
Si Si6 0.545448 0.283681 0.141766
Si Si7 0.680936 0.251582 0.514173
O O1 0.422391 0.977663 0.331463
O O2 0.944085 0.226593 0.443223
O O3 0.228342 0.845124 0.440408
O O4 0.999842 0.662632 0.372209
O O5 0.878713 0.098192 0.328118
O O6 0.524544 0.472003 0.434815
O O7 0.735850 0.561023 0.313796
O O8 0.120208 0.131565 0.779638
O O9 0.063161 0.853996 0.097419
O O10 0.701922 0.236961 0.181053
O O11 0.222474 0.241588 0.172018
O O12 0.626810 0.579502 0.121780
O O13 0.295875 0.980526 0.924399
O O14 0.000000 0.500000 0.000000
O O15 0.500000 0.000000 0.500000
#
# Coordination Sequence:
#
# PCOD9036748 Si02
#       7
#     2   2   2   2   2   2   2
#     4   9  19  38  62  88 122 163 207 269 327 385
#     4  10  23  39  60  91 120 163 215 267 329 391
#     4  11  25  39  62  89 125 167 218 262 323 393
#     4  10  27  43  68  98 140 180 227 276 334 397
#     4  10  24  45  73 105 137 179 225 276 334 395
#     4  10  25  42  69  99 138 177 221 276 332 392
#     4   8  16  37  61  88 121 157 208 266 327 389
#
# _framework density 25.605440999999999
#
# number of rings (size 3 to 8) (size 9 to 14) (size 15 to 20)
#    0.857    1.429    0.000    0.429    6.000    5.143 
#    0.000   24.286    0.000    0.000    0.000    0.000 
#    0.000    0.000    0.000    0.000    0.000    0.000 
#
# Total GULP energy -78257.108450 kJ/mol
# GULP energy per Si atom -5589.793461 kJ/mol
# Density = 2.554716 g / cm^3
# Si number density = 25.605441 Si / 1000 Ang^3
#
#
#
# Elastic Constant Matrix: (Units=GPa)
#
#
# Indices 1 2 3 4 5 6 
#
# 1 124.2962 25.9414 17.9666 -3.2149 9.7488 21.3418
# 2 25.9414 125.5353 6.0938 -11.6515 9.9358 1.6769
# 3 17.9666 6.0938 72.5088 4.0038 6.8208 10.3274
# 4 -3.2149 -11.6515 4.0038 33.2052 4.1986 -4.9019
# 5 9.7488 9.9358 6.8208 4.1986 24.9759 3.3152
# 6 21.3418 1.6769 10.3274 -4.9019 3.3152 42.5238
#
#
#
# Elastic Compliance Matrix: (Units=1/GPa)
#
#
# Indices 1 2 3 4 5 6 
#
# 1 0.009482 -0.001651 -0.001427 0.000166 -0.002130 -0.004162
# 2 -0.001651 0.008933 -0.000388 0.003663 -0.003588 0.001272
# 3 -0.001427 -0.000388 0.014965 -0.002183 -0.002617 -0.002951
# 4 0.000166 0.003663 -0.002183 0.033277 -0.007143 0.004695
# 5 -0.002130 -0.003588 -0.002617 -0.007143 0.044538 -0.002449
# 6 -0.004162 0.001272 -0.002951 0.004695 -0.002449 0.027004
#
#
# Mechanical properties :
#
#
# Convention : Reuss Voigt Hill
#
# Bulk Modulus (GPa) = 37.80820 46.92709 42.36765
# Shear Modulus (GPa) = 32.47932 38.29690 35.38811
#
# Velocity S-wave (km/s) = 3.56540 3.87157 3.72163
# Velocity P-wave (km/s) = 5.63446 6.19291 5.92028
#
# Compressibility (1/GPa) = 0.02644929
#
# Stress axis : x y z
#
# Youngs Moduli (GPa) = 105.46289 111.94757 66.82474
#
# Poissons Ratio (x) = 0.18478 0.09534
# Poissons Ratio (y) = 0.17407 0.02591
# Poissons Ratio (z) = 0.15047 0.04340
#
# Static dielectric constant tensor:
#      x y z
#    x 2.167570 -0.064930 0.026240 
#    y -0.064930 1.975740 0.039360 
#    z 0.026240 0.039360 2.037300 
# 
# From -- ./inp_files/121323.got.cif
#   From: 2010.05.17/outbox.cif.g08.bks.cpg/sg2_61_cif.got.tgz:121323.got - 2010.06.03 11:33:40.
