data_PCOD9036570
_publ_section_title
;
Structure prediction by ZEFSAII (Michael W. Deem and Ramdas Pophale) SiO2 
 PCOD9036570
Probable space group: P -1
;
_chemical_formula_sum "Si O2"
_cell_formula_units_Z 14
_cell_length_a 7.193269
_cell_length_b 16.065854
_cell_length_c 5.751562
_cell_angle_alpha 123.109012
_cell_angle_beta 110.314393
_cell_angle_gamma 76.415929
_cell_volume 521.265966
_symmetry_space_group_name_H-M "P -1"
_symmetry_group_IT_number 2
_symmetry_cell_setting 'triclinic'
loop_
_space_group_symop_operation_xyz
x,y,z
-x,-y,-z
loop_
_atom_site_type_symbol
_atom_site_label
_atom_site_fract_x
_atom_site_fract_y
_atom_site_fract_z
Si Si1 0.447833 0.275271 0.368041
Si Si2 0.144228 0.787926 0.429008
Si Si3 0.307297 0.262317 0.784653
Si Si4 0.237207 0.493290 0.595952
Si Si5 0.708696 0.008958 0.977911
Si Si6 0.081724 0.923588 0.223060
Si Si7 0.239681 0.498603 0.104843
O O1 0.681798 0.286986 0.521009
O O2 0.397699 0.224013 0.518013
O O3 0.315352 0.378198 0.462907
O O4 0.402340 0.226754 0.021268
O O5 0.207813 0.887829 0.735536
O O6 0.141120 0.817686 0.200425
O O7 0.924872 0.758580 0.344002
O O8 0.315382 0.382095 0.966027
O O9 0.296757 0.538828 0.937308
O O10 0.000000 0.500000 0.500000
O O11 0.298873 0.537058 0.443278
O O12 0.732706 0.027173 0.741805
O O13 0.882561 0.924889 0.983657
O O14 0.500000 0.000000 0.000000
O O15 0.000000 0.000000 0.500000
O O16 0.000000 0.500000 0.000000
#
# Coordination Sequence:
#
# PCOD9036570 Si02
#       7
#     2   2   2   2   2   2   2
#     4  10  23  38  61  91 124 168 206 256 324 371
#     4  11  25  37  64  92 125 161 210 261 315 384
#     4  10  23  39  60  90 129 163 206 263 316 369
#     4   8  14  29  53  79 112 156 202 245 298 363
#     4  10  23  41  66  89 123 164 213 257 322 387
#     4   9  22  42  61  91 121 158 206 264 311 383
#     4   8  14  29  54  79 110 159 201 242 305 361
#
# _framework density 26.857689000000001
#
# number of rings (size 3 to 8) (size 9 to 14) (size 15 to 20)
#    0.000    2.571    0.000    0.000    6.000    4.571 
#    0.000    0.000    0.000   27.429    0.000    0.000 
#    0.000    0.000    0.000    0.000    0.000    0.000 
#
# Total GULP energy -78205.421546 kJ/mol
# GULP energy per Si atom -5586.101539 kJ/mol
# Density = 2.679656 g / cm^3
# Si number density = 26.857689 Si / 1000 Ang^3
#
#
#
# Elastic Constant Matrix: (Units=GPa)
#
#
# Indices 1 2 3 4 5 6 
#
# 1 208.1773 45.6865 86.9548 -41.9478 0.6402 8.2606
# 2 45.6865 95.4100 42.5730 -31.1273 1.4714 -8.6632
# 3 86.9548 42.5730 187.2652 -34.2055 -38.0486 17.3972
# 4 -41.9478 -31.1273 -34.2055 47.0650 7.8755 -1.8565
# 5 0.6402 1.4714 -38.0486 7.8755 50.6389 -20.1597
# 6 8.2606 -8.6632 17.3972 -1.8565 -20.1597 43.9077
#
#
#
# Elastic Compliance Matrix: (Units=1/GPa)
#
#
# Indices 1 2 3 4 5 6 
#
# 1 0.007148 -0.000853 -0.002925 0.004220 -0.003658 -0.001855
# 2 -0.000853 0.014795 -0.002251 0.007855 -0.001980 0.003394
# 3 -0.002925 -0.002251 0.008751 0.001189 0.006332 -0.000403
# 4 0.004220 0.007855 0.001189 0.031804 -0.004510 -0.000441
# 5 -0.003658 -0.001980 0.006332 -0.004510 0.029802 0.011281
# 6 -0.001855 0.003394 -0.000403 -0.000441 0.011281 0.029114
#
#
# Mechanical properties :
#
#
# Convention : Reuss Voigt Hill
#
# Bulk Modulus (GPa) = 53.65778 93.47570 73.56674
# Shear Modulus (GPa) = 35.79513 49.36487 42.58000
#
# Velocity S-wave (km/s) = 3.65467 4.29186 3.98602
# Velocity P-wave (km/s) = 6.15067 7.70972 6.97390
#
# Compressibility (1/GPa) = 0.01863663
#
# Stress axis : x y z
#
# Youngs Moduli (GPa) = 139.90399 67.59105 114.26912
#
# Poissons Ratio (x) = 0.05764 0.33428
# Poissons Ratio (y) = 0.11930 0.25717
# Poissons Ratio (z) = 0.40927 0.15212
#
# Static dielectric constant tensor:
#      x y z
#    x 2.031030 0.044020 -0.078960 
#    y 0.044020 2.132940 -0.061630 
#    z -0.078960 -0.061630 2.319370 
# 
# From -- ./inp_files/9959.got.cif
#   From: 2010.05.17/outbox.cif.g08.bks.cpg/sg2_5_cif.got.tgz:9959.got - 2010.06.03 11:33:40.
