data_PCOD9036336
_publ_section_title
;
Structure prediction by ZEFSAII (Michael W. Deem and Ramdas Pophale) SiO2 
 PCOD9036336
Probable space group: P -1
;
_chemical_formula_sum "Si O2"
_cell_formula_units_Z 13
_cell_length_a 7.718758
_cell_length_b 5.332782
_cell_length_c 15.951934
_cell_angle_alpha 95.923965
_cell_angle_beta 110.871754
_cell_angle_gamma 116.087055
_cell_volume 523.943624
_symmetry_space_group_name_H-M "P -1"
_symmetry_group_IT_number 2
_symmetry_cell_setting 'triclinic'
loop_
_space_group_symop_operation_xyz
x,y,z
-x,-y,-z
loop_
_atom_site_type_symbol
_atom_site_label
_atom_site_fract_x
_atom_site_fract_y
_atom_site_fract_z
Si Si1 0.500000 0.500000 0.500000
Si Si2 0.849115 0.309291 0.731789
Si Si3 0.209697 0.531886 0.943885
Si Si4 0.978498 0.590987 0.593256
Si Si5 0.675003 0.860272 0.944120
Si Si6 0.238707 0.143548 0.584209
Si Si7 0.610947 0.678509 0.734688
O O1 0.401928 0.205600 0.537994
O O2 0.363773 0.464836 0.657954
O O3 0.727417 0.489331 0.735290
O O4 0.021770 0.399701 0.838901
O O5 0.964055 0.405555 0.665212
O O6 0.699935 0.957310 0.698298
O O7 0.436198 0.690336 0.937921
O O8 0.202590 0.280158 0.992077
O O9 0.218420 0.795264 0.007596
O O10 0.255290 0.437273 0.447281
O O11 0.000000 0.500000 0.500000
O O12 0.811283 0.081911 0.355976
O O13 0.648302 0.789358 0.839223
O O14 0.000000 0.000000 0.500000
#
# Coordination Sequence:
#
# PCOD9036336 Si02
#       7
#     1   2   2   2   2   2   2
#     4  10  22  50  72 106 152 190 282 316 400 474
#     4  12  28  48  76 117 160 201 269 334 390 487
#     4  10  23  45  73 110 154 202 258 322 391 477
#     4  11  27  48  80 113 156 219 263 344 407 479
#     4  10  23  45  74 109 153 205 257 319 394 475
#     4  10  25  47  76 107 152 207 259 335 396 470
#     4  12  27  47  77 114 159 202 266 333 390 485
#
# _framework density 24.811831999999999
#
# number of rings (size 3 to 8) (size 9 to 14) (size 15 to 20)
#    0.000    1.231    1.538    1.846    2.154   16.615 
#    0.000    0.000    0.000    0.000    0.000    0.000 
#    0.000    0.000    0.000    0.000    0.000    0.000 
#
# Total GULP energy -72530.147828 kJ/mol
# GULP energy per Si atom -5579.242141 kJ/mol
# Density = 2.475536 g / cm^3
# Si number density = 24.811832 Si / 1000 Ang^3
#
#
#
# Elastic Constant Matrix: (Units=GPa)
#
#
# Indices 1 2 3 4 5 6 
#
# 1 134.8370 82.1329 56.3853 4.9084 -10.4716 18.7152
# 2 82.1329 240.7757 79.7566 -6.9013 -5.1794 25.2417
# 3 56.3853 79.7566 180.9818 -12.8163 1.1322 8.2089
# 4 4.9084 -6.9013 -12.8163 41.8626 6.5439 -2.1806
# 5 -10.4716 -5.1794 1.1322 6.5439 36.4636 -0.2092
# 6 18.7152 25.2417 8.2089 -2.1806 -0.2092 57.6306
#
#
#
# Elastic Compliance Matrix: (Units=1/GPa)
#
#
# Indices 1 2 3 4 5 6 
#
# 1 0.010650 -0.002678 -0.002278 -0.003007 0.003277 -0.002063
# 2 -0.002678 0.005760 -0.001590 0.000710 -0.000037 -0.001400
# 3 -0.002278 -0.001590 0.007095 0.002444 -0.001536 0.000512
# 4 -0.003007 0.000710 0.002444 0.026033 -0.005503 0.001283
# 5 0.003277 -0.000037 -0.001536 -0.005503 0.029390 -0.000931
# 6 -0.002063 -0.001400 0.000512 0.001283 -0.000931 0.018607
#
#
# Mechanical properties :
#
#
# Convention : Reuss Voigt Hill
#
# Bulk Modulus (GPa) = 96.02652 110.34936 103.18794
# Shear Modulus (GPa) = 43.82185 49.74601 46.78393
#
# Velocity S-wave (km/s) = 4.20714 4.48250 4.34700
# Velocity P-wave (km/s) = 7.89848 8.44757 8.17764
#
# Compressibility (1/GPa) = 0.01041379
#
# Stress axis : x y z
#
# Youngs Moduli (GPa) = 93.89274 173.62029 140.93994
#
# Poissons Ratio (x) = 0.46494 0.32105
# Poissons Ratio (y) = 0.25144 0.22409
# Poissons Ratio (z) = 0.21388 0.27605
#
# Static dielectric constant tensor:
#      x y z
#    x 2.031770 -0.138860 -0.030490 
#    y -0.138860 2.133860 -0.047600 
#    z -0.030490 -0.047600 1.973340 
# 
# From -- ./inp_files/487322.got.cif
#   From: 2010.05.17/outbox.cif.g08.bks.cpg/sg2_244_cif.got.tgz:487322.got - 2010.06.03 11:33:40.
