data_PCOD9036314
_publ_section_title
;
Structure prediction by ZEFSAII (Michael W. Deem and Ramdas Pophale) SiO2 
 PCOD9036314
Probable space group: P -1
;
_chemical_formula_sum "Si O2"
_cell_formula_units_Z 14
_cell_length_a 7.109361
_cell_length_b 5.696588
_cell_length_c 25.193307
_cell_angle_alpha 114.727512
_cell_angle_beta 143.011577
_cell_angle_gamma 73.549494
_cell_volume 555.156334
_symmetry_space_group_name_H-M "P -1"
_symmetry_group_IT_number 2
_symmetry_cell_setting 'triclinic'
loop_
_space_group_symop_operation_xyz
x,y,z
-x,-y,-z
loop_
_atom_site_type_symbol
_atom_site_label
_atom_site_fract_x
_atom_site_fract_y
_atom_site_fract_z
Si Si1 0.604688 0.788920 0.816865
Si Si2 0.269018 0.308105 0.648464
Si Si3 0.837228 0.015167 0.105772
Si Si4 0.790199 0.926466 0.702378
Si Si5 0.858202 0.974396 0.596539
Si Si6 0.227909 0.629052 0.107534
Si Si7 0.308814 0.548240 0.516879
O O1 0.369968 0.612227 0.709600
O O2 0.939198 0.791706 0.862456
O O3 0.610337 0.609644 0.853195
O O4 0.583253 0.100839 0.845710
O O5 0.562263 0.150967 0.685360
O O6 0.120262 0.195442 0.659276
O O7 0.960217 0.267080 0.538697
O O8 0.923930 0.081427 0.192848
O O9 0.994473 0.744955 0.108264
O O10 0.500000 0.000000 0.000000
O O11 0.871668 0.952209 0.661001
O O12 0.562711 0.656721 0.626616
O O13 0.500000 0.000000 0.500000
O O14 0.893008 0.721101 0.544758
O O15 0.000000 0.500000 0.000000
O O16 0.500000 0.500000 0.500000
#
# Coordination Sequence:
#
# PCOD9036314 Si02
#       7
#     2   2   2   2   2   2   2
#     4  10  24  45  76 110 146 196 264 304 401 465
#     4  12  23  47  74 107 160 194 246 325 374 478
#     4  10  25  50  74 105 154 198 264 324 384 461
#     4  11  24  49  73 114 146 209 262 313 396 459
#     4  11  25  46  71 111 159 200 261 311 387 472
#     4  10  22  49  73 106 148 188 264 326 374 471
#     4  10  23  43  67 110 153 192 254 307 378 468
#
# _framework density 25.218125000000001
#
# number of rings (size 3 to 8) (size 9 to 14) (size 15 to 20)
#    0.857    0.571    4.286    0.857    4.000    2.286 
#    7.714    0.000    0.000    0.000    0.000    0.000 
#    0.000    0.000    0.000    0.000    0.000    0.000 
#
# Total GULP energy -78061.802100 kJ/mol
# GULP energy per Si atom -5575.843007 kJ/mol
# Density = 2.516073 g / cm^3
# Si number density = 25.218125 Si / 1000 Ang^3
#
#
#
# Elastic Constant Matrix: (Units=GPa)
#
#
# Indices 1 2 3 4 5 6 
#
# 1 93.6417 41.6352 56.6844 6.8165 6.5502 6.3725
# 2 41.6352 145.4490 68.5052 9.5759 2.6523 8.4118
# 3 56.6844 68.5052 208.8594 4.4011 -11.7413 6.0266
# 4 6.8165 9.5759 4.4011 45.3445 5.7704 12.3485
# 5 6.5502 2.6523 -11.7413 5.7704 38.5646 -0.1416
# 6 6.3725 8.4118 6.0266 12.3485 -0.1416 40.0866
#
#
#
# Elastic Compliance Matrix: (Units=1/GPa)
#
#
# Indices 1 2 3 4 5 6 
#
# 1 0.013965 -0.002357 -0.003146 -0.000611 -0.003080 -0.001075
# 2 -0.002357 0.008718 -0.002217 -0.000952 -0.000735 -0.000831
# 3 -0.003146 -0.002217 0.006520 -0.000034 0.002677 0.000005
# 4 -0.000611 -0.000952 -0.000034 0.024807 -0.003580 -0.007352
# 5 -0.003080 -0.000735 0.002677 -0.003580 0.027860 0.001443
# 6 -0.001075 -0.000831 0.000005 -0.007352 0.001443 0.027560
#
#
# Mechanical properties :
#
#
# Convention : Reuss Voigt Hill
#
# Bulk Modulus (GPa) = 72.66222 86.84439 79.75331
# Shear Modulus (GPa) = 38.62224 43.54083 41.08153
#
# Velocity S-wave (km/s) = 3.91772 4.15971 4.04053
# Velocity P-wave (km/s) = 7.02430 7.58834 7.31176
#
# Compressibility (1/GPa) = 0.01376231
#
# Stress axis : x y z
#
# Youngs Moduli (GPa) = 71.60987 114.70052 153.37289
#
# Poissons Ratio (x) = 0.27035 0.48253
# Poissons Ratio (y) = 0.16878 0.34006
# Poissons Ratio (z) = 0.22529 0.25431
#
# Static dielectric constant tensor:
#      x y z
#    x 2.072250 -0.011360 0.006250 
#    y -0.011360 2.240300 -0.080700 
#    z 0.006250 -0.080700 2.039100 
# 
# From -- ./inp_files/616388.got.cif
#   From: 2010.05.17/outbox.cif.g08.bks.cpg/sg2_309_cif.got.tgz:616388.got - 2010.06.03 11:33:40.
