data_PCOD9036766
_publ_section_title
;
Structure prediction by ZEFSAII (Michael W. Deem and Ramdas Pophale) SiO2 
 PCOD9036766
Probable space group: P -1
;
_chemical_formula_sum "Si O2"
_cell_formula_units_Z 14
_cell_length_a 7.370746
_cell_length_b 10.280691
_cell_length_c 7.856743
_cell_angle_alpha 97.459866
_cell_angle_beta 110.021487
_cell_angle_gamma 106.902551
_cell_volume 517.495223
_symmetry_space_group_name_H-M "P -1"
_symmetry_group_IT_number 2
_symmetry_cell_setting 'triclinic'
loop_
_space_group_symop_operation_xyz
x,y,z
-x,-y,-z
loop_
_atom_site_type_symbol
_atom_site_label
_atom_site_fract_x
_atom_site_fract_y
_atom_site_fract_z
Si Si1 0.248293 0.663398 0.420233
Si Si2 0.081373 0.727169 0.056500
Si Si3 0.637272 0.637243 0.372440
Si Si4 0.675877 0.901889 0.197627
Si Si5 0.461095 0.115534 0.228192
Si Si6 0.077459 0.145622 0.271756
Si Si7 0.811140 0.488648 0.151981
O O1 0.423727 0.607402 0.398312
O O2 0.337228 0.754011 0.629294
O O3 0.028105 0.540972 0.332096
O O4 0.204224 0.765087 0.279992
O O5 0.022815 0.832621 0.935939
O O6 0.210046 0.655769 0.969667
O O7 0.871275 0.602538 0.033926
O O8 0.830159 0.706337 0.573974
O O9 0.650373 0.514189 0.233952
O O10 0.664319 0.768738 0.279447
O O11 0.521822 0.979062 0.219805
O O12 0.902861 0.022405 0.291569
O O13 0.617952 0.861438 0.977102
O O14 0.279309 0.106877 0.297917
#
# Coordination Sequence:
#
# PCOD9036766 Si02
#       7
#     2   2   2   2   2   2   2
#     4   9  21  40  60  90 119 157 195 257 289 361
#     4   9  21  42  65  87 125 153 204 243 314 345
#     4  11  23  38  64  89 123 158 210 234 308 352
#     4  11  24  39  60  92 121 164 200 247 292 367
#     4  10  23  39  61  86 122 158 206 238 305 348
#     4  11  23  41  60  91 124 163 194 254 293 364
#     4   9  20  42  65  87 121 160 193 258 297 357
#
# _framework density 27.053391000000001
#
# number of rings (size 3 to 8) (size 9 to 14) (size 15 to 20)
#    0.857    1.143    0.000    2.571    4.000    4.571 
#    0.000    2.857    0.000    0.000    0.000    0.000 
#    0.000    0.000    0.000    0.000    0.000    0.000 
#
# Total GULP energy -78510.806432 kJ/mol
# GULP energy per Si atom -5607.914745 kJ/mol
# Density = 2.699182 g / cm^3
# Si number density = 27.053391 Si / 1000 Ang^3
#
#
#
# Elastic Constant Matrix: (Units=GPa)
#
#
# Indices 1 2 3 4 5 6 
#
# 1 87.5224 9.4188 -1.3996 -5.0712 -5.6566 -12.0460
# 2 9.4188 90.0933 28.4707 -18.5234 -4.4695 -13.2392
# 3 -1.3996 28.4707 125.7869 1.0919 8.1220 -3.2330
# 4 -5.0712 -18.5234 1.0919 33.1092 -8.0175 -3.1113
# 5 -5.6566 -4.4695 8.1220 -8.0175 39.6062 14.0224
# 6 -12.0460 -13.2392 -3.2330 -3.1113 14.0224 38.5836
#
#
#
# Elastic Compliance Matrix: (Units=1/GPa)
#
#
# Indices 1 2 3 4 5 6 
#
# 1 0.012138 -0.000319 0.000226 0.002211 0.000833 0.003574
# 2 -0.000319 0.015018 -0.003543 0.009551 0.002700 0.004546
# 3 0.000226 -0.003543 0.008982 -0.002918 -0.002959 0.000447
# 4 0.002211 0.009551 -0.002918 0.038376 0.008432 0.003753
# 5 0.000833 0.002700 -0.002959 0.008432 0.031461 -0.009815
# 6 0.003574 0.004546 0.000447 0.003753 -0.009815 0.032501
#
#
# Mechanical properties :
#
#
# Convention : Reuss Voigt Hill
#
# Bulk Modulus (GPa) = 34.64349 41.82028 38.23188
# Shear Modulus (GPa) = 32.18125 40.05398 36.11762
#
# Velocity S-wave (km/s) = 3.45272 3.85197 3.65780
# Velocity P-wave (km/s) = 5.35989 5.93932 5.65703
#
# Compressibility (1/GPa) = 0.02886545
#
# Stress axis : x y z
#
# Youngs Moduli (GPa) = 82.38927 66.58531 111.32982
#
# Poissons Ratio (x) = 0.02126 -0.02519
# Poissons Ratio (y) = 0.02631 0.39447
# Poissons Ratio (z) = -0.01864 0.23593
#
# Static dielectric constant tensor:
#      x y z
#    x 2.090740 0.038900 0.008770 
#    y 0.038900 2.125890 0.021500 
#    z 0.008770 0.021500 2.091690 
# 
# From -- ./inp_files/171786.got.cif
#   From: 2010.05.17/outbox.cif.g08.bks.cpg/sg2_86_cif.got.tgz:171786.got - 2010.06.03 11:33:40.
