data_PCOD9036235
_publ_section_title
;
Structure prediction by ZEFSAII (Michael W. Deem and Ramdas Pophale) SiO2 
 PCOD9036235
Probable space group: P -1
;
_chemical_formula_sum "Si O2"
_cell_formula_units_Z 13
_cell_length_a 10.051264
_cell_length_b 10.741946
_cell_length_c 9.765524
_cell_angle_alpha 139.915390
_cell_angle_beta 81.692423
_cell_angle_gamma 71.266156
_cell_volume 494.093290
_symmetry_space_group_name_H-M "P -1"
_symmetry_group_IT_number 2
_symmetry_cell_setting 'triclinic'
loop_
_space_group_symop_operation_xyz
x,y,z
-x,-y,-z
loop_
_atom_site_type_symbol
_atom_site_label
_atom_site_fract_x
_atom_site_fract_y
_atom_site_fract_z
Si Si1 0.257489 0.668479 0.911985
Si Si2 0.000000 0.500000 0.500000
Si Si3 0.958254 0.643342 0.939652
Si Si4 0.823685 0.278316 0.327595
Si Si5 0.789222 0.939298 0.580947
Si Si6 0.575137 0.856216 0.221888
Si Si7 0.656426 0.337569 0.687437
O O1 0.302790 0.603879 0.690130
O O2 0.448793 0.474240 0.800269
O O3 0.102674 0.668295 0.981602
O O4 0.175816 0.958859 0.208191
O O5 0.020545 0.385606 0.250537
O O6 0.145394 0.533484 0.470003
O O7 0.047769 0.355729 0.735856
O O8 0.742457 0.836595 0.156414
O O9 0.757019 0.238542 0.442322
O O10 0.000000 0.000000 0.000000
O O11 0.259830 0.874173 0.382042
O O12 0.620751 0.965780 0.676567
O O13 0.500000 0.000000 0.500000
O O14 0.646182 0.568614 0.940241
#
# Coordination Sequence:
#
# PCOD9036235 Si02
#       7
#     2   1   2   2   2   2   2
#     4  10  24  47  77 114 147 208 256 312 385 457
#     4  10  22  48  72 114 146 202 254 310 374 464
#     4  11  25  50  79 108 159 197 261 313 385 454
#     4  11  23  46  77 110 152 201 258 313 387 455
#     4  11  27  49  75 116 156 198 257 313 391 456
#     4  11  26  49  73 110 156 203 250 315 380 455
#     4  11  25  51  73 114 163 194 261 323 379 467
#
# _framework density 26.310822000000002
#
# number of rings (size 3 to 8) (size 9 to 14) (size 15 to 20)
#    0.000    1.231    1.538    3.231    4.308    3.692 
#    5.538    1.538    0.000    0.000    0.000    0.000 
#    0.000    0.000    0.000    0.000    0.000    0.000 
#
# Total GULP energy -72509.372719 kJ/mol
# GULP energy per Si atom -5577.644055 kJ/mol
# Density = 2.625094 g / cm^3
# Si number density = 26.310822 Si / 1000 Ang^3
#
#
#
# Elastic Constant Matrix: (Units=GPa)
#
#
# Indices 1 2 3 4 5 6 
#
# 1 235.1474 40.8945 65.4167 -18.0208 1.9683 -8.6184
# 2 40.8945 84.1218 29.1037 -22.2741 -10.1843 7.4603
# 3 65.4167 29.1037 117.8553 -16.4427 -7.5722 3.1677
# 4 -18.0208 -22.2741 -16.4427 31.2930 6.3858 -3.0347
# 5 1.9683 -10.1843 -7.5722 6.3858 66.6624 -15.5267
# 6 -8.6184 7.4603 3.1677 -3.0347 -15.5267 32.0205
#
#
#
# Elastic Compliance Matrix: (Units=1/GPa)
#
#
# Indices 1 2 3 4 5 6 
#
# 1 0.005400 -0.001760 -0.002527 0.000791 -0.000317 0.002035
# 2 -0.001760 0.016060 -0.001586 0.009150 0.000795 -0.002806
# 3 -0.002527 -0.001586 0.010738 0.002859 0.000588 -0.000817
# 4 0.000791 0.009150 0.002859 0.040913 -0.002063 0.000676
# 5 -0.000317 0.000795 0.000588 -0.002063 0.017219 0.007825
# 6 0.002035 -0.002806 -0.000817 0.000676 0.007825 0.036370
#
#
# Mechanical properties :
#
#
# Convention : Reuss Voigt Hill
#
# Bulk Modulus (GPa) = 48.89730 78.66159 63.77944
# Shear Modulus (GPa) = 34.42043 46.10914 40.26478
#
# Velocity S-wave (km/s) = 3.62086 4.19080 3.91621
# Velocity P-wave (km/s) = 6.00880 7.30610 6.68897
#
# Compressibility (1/GPa) = 0.02045103
#
# Stress axis : x y z
#
# Youngs Moduli (GPa) = 185.19798 62.26790 93.12779
#
# Poissons Ratio (x) = 0.10959 0.23535
# Poissons Ratio (y) = 0.32595 0.14769
# Poissons Ratio (z) = 0.46803 0.09875
#
# Static dielectric constant tensor:
#      x y z
#    x 2.149800 0.009720 0.013440 
#    y 0.009720 2.183370 0.079550 
#    z 0.013440 0.079550 2.090120 
# 
# From -- ./inp_files/197083.got.cif
#   From: 2010.05.17/outbox.cif.g08.bks.cpg/sg2_99_cif.got.tgz:197083.got - 2010.06.03 11:33:40.
