data_PCOD9036808
_publ_section_title
;
Structure prediction by ZEFSAII (Michael W. Deem and Ramdas Pophale) SiO2 
 PCOD9036808
Probable space group: P -1
;
_chemical_formula_sum "Si O2"
_cell_formula_units_Z 16
_cell_length_a 11.448228
_cell_length_b 9.342353
_cell_length_c 16.955164
_cell_angle_alpha 131.039633
_cell_angle_beta 145.742677
_cell_angle_gamma 63.565857
_cell_volume 749.356797
_symmetry_space_group_name_H-M "P -1"
_symmetry_group_IT_number 2
_symmetry_cell_setting 'triclinic'
loop_
_space_group_symop_operation_xyz
x,y,z
-x,-y,-z
loop_
_atom_site_type_symbol
_atom_site_label
_atom_site_fract_x
_atom_site_fract_y
_atom_site_fract_z
Si Si1 0.731287 0.581255 0.623772
Si Si2 0.024824 0.722873 0.572835
Si Si3 0.165214 0.211374 0.668786
Si Si4 0.425793 0.715265 0.699397
Si Si5 0.123178 0.506673 0.888372
Si Si6 0.613280 0.125914 0.901764
Si Si7 0.848400 0.648210 0.986664
Si Si8 0.993960 0.903862 0.788312
O O1 0.500000 0.500000 0.500000
O O2 0.731431 0.443813 0.498012
O O3 0.810964 0.794641 0.706865
O O4 0.889687 0.550563 0.770369
O O5 0.269409 0.791195 0.701110
O O6 0.000000 0.500000 0.500000
O O7 0.856517 0.729532 0.412170
O O8 0.973535 0.835620 0.661864
O O9 0.124903 0.379240 0.764544
O O10 0.393532 0.186175 0.814924
O O11 0.000000 0.000000 0.500000
O O12 0.541867 0.891871 0.770554
O O13 0.611454 0.626607 0.810069
O O14 0.174857 0.378473 0.941978
O O15 0.277405 0.721604 0.048646
O O16 0.790929 0.152512 0.079004
O O17 0.970735 0.864431 0.107771
O O18 0.000000 0.500000 0.000000
#
# Coordination Sequence:
#
# PCOD9036808 Si02
#       8
#     2   2   2   2   2   2   2   2
#     4  11  22  44  68  91 125 173 223 266 315 391
#     4  12  22  39  68 100 137 162 214 271 331 393
#     4  12  22  39  61  95 132 168 211 261 325 390
#     4  11  23  42  65  96 128 173 214 266 333 380
#     4  11  23  41  61  94 128 169 220 263 320 383
#     4  10  23  39  62  93 131 167 209 258 325 390
#     4  11  26  44  63  93 134 173 224 269 318 382
#     4  10  24  43  67  97 130 174 214 267 335 383
#
# _framework density 21.351647
#
# number of rings (size 3 to 8) (size 9 to 14) (size 15 to 20)
#    0.000    1.000    3.750    2.625    3.500    2.000 
#    0.000    6.250    0.000    0.000    0.000    0.000 
#    0.000    0.000    0.000    0.000    0.000    0.000 
#
# Total GULP energy -89240.549849 kJ/mol
# GULP energy per Si atom -5577.534366 kJ/mol
# Density = 2.130305 g / cm^3
# Si number density = 21.351647 Si / 1000 Ang^3
#
#
#
# Elastic Constant Matrix: (Units=GPa)
#
#
# Indices 1 2 3 4 5 6 
#
# 1 66.0952 33.3895 30.6824 -15.6880 11.8208 7.1329
# 2 33.3895 136.8669 47.5689 -8.6743 11.9362 22.9868
# 3 30.6824 47.5689 72.0288 -0.9504 21.5725 12.8777
# 4 -15.6880 -8.6743 -0.9504 33.8289 2.8237 6.1048
# 5 11.8208 11.9362 21.5725 2.8237 38.6011 -0.7273
# 6 7.1329 22.9868 12.8777 6.1048 -0.7273 38.0399
#
#
#
# Elastic Compliance Matrix: (Units=1/GPa)
#
#
# Indices 1 2 3 4 5 6 
#
# 1 0.022588 -0.001714 -0.006867 0.010601 -0.003374 -0.002641
# 2 -0.001714 0.010532 -0.005356 0.002595 -0.000016 -0.004647
# 3 -0.006867 -0.005356 0.023703 -0.002519 -0.009365 -0.003275
# 4 0.010601 0.002595 -0.002519 0.037114 -0.005521 -0.008765
# 5 -0.003374 -0.000016 -0.009365 -0.005521 0.032682 0.005324
# 6 -0.002641 -0.004647 -0.003275 -0.008765 0.005324 0.032208
#
#
# Mechanical properties :
#
#
# Convention : Reuss Voigt Hill
#
# Bulk Modulus (GPa) = 34.54358 55.36359 44.95359
# Shear Modulus (GPa) = 25.46463 32.98400 29.22431
#
# Velocity S-wave (km/s) = 3.45720 3.93466 3.70363
# Velocity P-wave (km/s) = 5.67008 6.82845 6.27605
#
# Compressibility (1/GPa) = 0.02894894
#
# Stress axis : x y z
#
# Youngs Moduli (GPa) = 44.27092 94.94679 42.18963
#
# Poissons Ratio (x) = 0.16275 0.28973
# Poissons Ratio (y) = 0.07588 0.22595
# Poissons Ratio (z) = 0.30402 0.50850
#
# Static dielectric constant tensor:
#      x y z
#    x 1.857460 -0.031090 -0.019240 
#    y -0.031090 1.774100 -0.011380 
#    z -0.019240 -0.011380 1.740930 
# 
# From -- ./inp_files/296109.got.cif
#   From: 2010.05.17/outbox.cif.g08.bks.cpg/sg2_149_cif.got.tgz:296109.got - 2010.06.03 11:33:40.
