data_PCOD9036888
_publ_section_title
;
Structure prediction by ZEFSAII (Michael W. Deem and Ramdas Pophale) SiO2 
 PCOD9036888
Probable space group: P -1
;
_chemical_formula_sum "Si O2"
_cell_formula_units_Z 14
_cell_length_a 9.158512
_cell_length_b 20.203127
_cell_length_c 14.776295
_cell_angle_alpha 29.036815
_cell_angle_beta 32.280158
_cell_angle_gamma 49.454409
_cell_volume 665.506853
_symmetry_space_group_name_H-M "P -1"
_symmetry_group_IT_number 2
_symmetry_cell_setting 'triclinic'
loop_
_space_group_symop_operation_xyz
x,y,z
-x,-y,-z
loop_
_atom_site_type_symbol
_atom_site_label
_atom_site_fract_x
_atom_site_fract_y
_atom_site_fract_z
Si Si1 0.669577 0.381258 0.742506
Si Si2 0.289211 0.085376 0.801745
Si Si3 0.717124 0.902636 0.814828
Si Si4 0.309618 0.629762 0.853859
Si Si5 0.645408 0.461545 0.378261
Si Si6 0.292957 0.561994 0.144315
Si Si7 0.620851 0.866559 0.103255
O O1 0.549698 0.513201 0.631228
O O2 0.689833 0.355097 0.869286
O O3 0.984339 0.429304 0.472788
O O4 0.438162 0.248551 0.972329
O O5 0.490675 0.227810 0.472811
O O6 0.227641 0.124400 0.890057
O O7 0.481574 0.982941 0.836937
O O8 0.000000 0.000000 0.000000
O O9 0.801035 0.880196 0.900527
O O10 0.000000 0.000000 0.500000
O O11 0.452178 0.505412 0.913799
O O12 0.301058 0.649266 0.943801
O O13 0.976596 0.566965 0.071127
O O14 0.500000 0.500000 0.500000
O O15 0.621811 0.293776 0.588107
O O16 0.500000 0.000000 0.000000
#
# Coordination Sequence:
#
# PCOD9036888 Si02
#       7
#     2   2   2   2   2   2   2
#     4  11  22  41  62  97 130 167 211 272 333 372
#     4  11  25  43  63  92 133 176 215 268 324 392
#     4  11  23  40  63  91 128 170 213 264 320 389
#     4  11  23  43  65  96 126 175 229 263 325 399
#     4  12  22  40  72  98 129 166 223 282 315 383
#     4  10  23  39  65  90 131 166 211 272 328 388
#     4  10  24  44  66  93 135 175 213 267 338 384
#
# _framework density 21.036597
#
# number of rings (size 3 to 8) (size 9 to 14) (size 15 to 20)
#    0.000    1.143    2.857    2.571    0.000   10.286 
#    0.000    1.429    0.000    0.000    0.000    0.000 
#    0.000    0.000    0.000    0.000    0.000    0.000 
#
# Total GULP energy -78217.429911 kJ/mol
# GULP energy per Si atom -5586.959279 kJ/mol
# Density = 2.098872 g / cm^3
# Si number density = 21.036597 Si / 1000 Ang^3
#
#
#
# Elastic Constant Matrix: (Units=GPa)
#
#
# Indices 1 2 3 4 5 6 
#
# 1 135.6750 22.4819 64.8312 14.7629 9.5999 33.5548
# 2 22.4819 51.4099 30.0491 -7.8698 -8.8764 4.4212
# 3 64.8312 30.0491 131.4685 12.2140 -3.5589 27.0178
# 4 14.7629 -7.8698 12.2140 37.0863 -4.8895 -3.1963
# 5 9.5999 -8.8764 -3.5589 -4.8895 40.0824 9.6974
# 6 33.5548 4.4212 27.0178 -3.1963 9.6974 41.4870
#
#
#
# Elastic Compliance Matrix: (Units=1/GPa)
#
#
# Indices 1 2 3 4 5 6 
#
# 1 0.012170 -0.004319 -0.003112 -0.005759 -0.003141 -0.007065
# 2 -0.004319 0.027114 -0.005552 0.010518 0.007008 0.003391
# 3 -0.003112 -0.005552 0.011918 -0.004142 0.001348 -0.005287
# 4 -0.005759 0.010518 -0.004142 0.034253 0.005694 0.007543
# 5 -0.003141 0.007008 0.001348 0.005694 0.029402 -0.005518
# 6 -0.007065 0.003391 -0.005287 0.007543 -0.005518 0.034771
#
#
# Mechanical properties :
#
#
# Convention : Reuss Voigt Hill
#
# Bulk Modulus (GPa) = 39.62687 61.47529 50.55108
# Shear Modulus (GPa) = 27.17318 37.14389 32.15854
#
# Velocity S-wave (km/s) = 3.59794 4.20656 3.91409
# Velocity P-wave (km/s) = 6.01150 7.27186 6.67151
#
# Compressibility (1/GPa) = 0.02523540
#
# Stress axis : x y z
#
# Youngs Moduli (GPa) = 82.17253 36.88173 83.90865
#
# Poissons Ratio (x) = 0.15929 0.26112
# Poissons Ratio (y) = 0.35491 0.46584
# Poissons Ratio (z) = 0.25572 0.20476
#
# Static dielectric constant tensor:
#      x y z
#    x 1.789700 0.005830 0.046810 
#    y 0.005830 1.812630 -0.020920 
#    z 0.046810 -0.020920 1.736570 
# 
# From -- ./inp_files/159842.got.cif
#   From: 2010.05.17/outbox.cif.g08.bks.cpg/sg2_80_cif.got.tgz:159842.got - 2010.06.03 11:33:40.
