data_PCOD9036768
_publ_section_title
;
Structure prediction by ZEFSAII (Michael W. Deem and Ramdas Pophale) SiO2 
 PCOD9036768
Probable space group: P -1
;
_chemical_formula_sum "Si O2"
_cell_formula_units_Z 16
_cell_length_a 19.668696
_cell_length_b 8.045281
_cell_length_c 16.678158
_cell_angle_alpha 125.967676
_cell_angle_beta 20.255961
_cell_angle_gamma 135.081403
_cell_volume 612.344679
_symmetry_space_group_name_H-M "P -1"
_symmetry_group_IT_number 2
_symmetry_cell_setting 'triclinic'
loop_
_space_group_symop_operation_xyz
x,y,z
-x,-y,-z
loop_
_atom_site_type_symbol
_atom_site_label
_atom_site_fract_x
_atom_site_fract_y
_atom_site_fract_z
Si Si1 0.643558 0.111421 0.788604
Si Si2 0.306066 0.208142 0.634821
Si Si3 0.947787 0.522200 0.228257
Si Si4 0.204852 0.932453 0.834614
Si Si5 0.602110 0.530622 0.737048
Si Si6 0.239406 0.604786 0.068505
Si Si7 0.891723 0.641055 0.585840
Si Si8 0.583778 0.998865 0.213721
O O1 0.729445 0.387610 0.744492
O O2 0.898584 0.146891 0.529439
O O3 0.444763 0.884738 0.890280
O O4 0.500000 0.000000 0.000000
O O5 0.500000 0.500000 0.500000
O O6 0.395712 0.072021 0.443415
O O7 0.281652 0.116312 0.727118
O O8 0.050838 0.141410 0.873499
O O9 0.831925 0.318314 0.230025
O O10 0.781446 0.568450 0.479005
O O11 0.083736 0.448982 0.120202
O O12 0.158395 0.777694 0.032074
O O13 0.386660 0.042892 0.736902
O O14 0.390340 0.528390 0.928979
O O15 0.743494 0.700417 0.706709
O O16 0.499775 0.257567 0.807423
O O17 0.049592 0.597425 0.336452
#
# Coordination Sequence:
#
# PCOD9036768 Si02
#       8
#     2   2   2   2   2   2   2   2
#     4   9  18  40  69  91 121 159 192 243 296 351
#     4  11  24  40  63  84 112 156 204 261 308 358
#     4  11  24  41  59  87 121 158 207 252 300 364
#     4  11  25  40  61  87 116 156 211 256 305 366
#     4  11  25  39  60  89 126 161 197 251 298 358
#     4  10  23  39  61  89 123 160 198 243 300 355
#     4   9  20  41  64  91 124 155 198 241 293 359
#     4  12  25  39  60  86 121 160 204 258 309 354
#
# _framework density 26.129076000000001
#
# number of rings (size 3 to 8) (size 9 to 14) (size 15 to 20)
#    0.000    1.500    2.500    1.500    3.500    2.500 
#    0.000    5.625    0.000    0.000    0.000    0.000 
#    0.000    0.000    0.000    0.000    0.000    0.000 
#
# Total GULP energy -89576.067696 kJ/mol
# GULP energy per Si atom -5598.504231 kJ/mol
# Density = 2.606961 g / cm^3
# Si number density = 26.129076 Si / 1000 Ang^3
#
#
#
# Elastic Constant Matrix: (Units=GPa)
#
#
# Indices 1 2 3 4 5 6 
#
# 1 79.1858 -14.7096 15.4441 7.8769 -6.4007 8.2489
# 2 -14.7096 69.8166 27.1009 -21.7401 9.8202 -10.4842
# 3 15.4441 27.1009 153.9670 -8.7769 -2.7479 -22.4773
# 4 7.8769 -21.7401 -8.7769 46.6680 -16.1614 -3.5793
# 5 -6.4007 9.8202 -2.7479 -16.1614 37.5995 -8.3866
# 6 8.2489 -10.4842 -22.4773 -3.5793 -8.3866 36.7554
#
#
#
# Elastic Compliance Matrix: (Units=1/GPa)
#
#
# Indices 1 2 3 4 5 6 
#
# 1 0.014303 0.002813 -0.002686 -0.002062 -0.000348 -0.004330
# 2 0.002813 0.019094 -0.002612 0.008115 -0.000334 0.003931
# 3 -0.002686 -0.002612 0.008267 0.002326 0.003135 0.005855
# 4 -0.002062 0.008115 0.002326 0.031476 0.013539 0.010354
# 5 -0.000348 -0.000334 0.003135 0.013539 0.035181 0.011246
# 6 -0.004330 0.003931 0.005855 0.010354 0.011246 0.036455
#
#
# Mechanical properties :
#
#
# Convention : Reuss Voigt Hill
#
# Bulk Modulus (GPa) = 27.25273 39.84891 33.55082
# Shear Modulus (GPa) = 30.86826 42.54684 36.70755
#
# Velocity S-wave (km/s) = 3.44084 4.03964 3.75221
# Velocity P-wave (km/s) = 5.12236 6.08623 5.62498
#
# Compressibility (1/GPa) = 0.03669357
#
# Stress axis : x y z
#
# Youngs Moduli (GPa) = 69.91609 52.37216 120.95587
#
# Poissons Ratio (x) = -0.14731 0.32485
# Poissons Ratio (y) = -0.19665 0.31599
# Poissons Ratio (z) = 0.18777 0.13682
#
# Static dielectric constant tensor:
#      x y z
#    x 2.144530 0.004530 0.011590 
#    y 0.004530 2.077220 0.015470 
#    z 0.011590 0.015470 2.049980 
# 
# From -- ./inp_files/577353.got.cif
#   From: 2010.05.17/outbox.cif.g08.bks.cpg/sg2_289_cif.got.tgz:577353.got - 2010.06.03 11:33:40.
