data_PCOD9036945
_publ_section_title
;
Structure prediction by ZEFSAII (Michael W. Deem and Ramdas Pophale) SiO2 
 PCOD9036945
Probable space group: P -1
;
_chemical_formula_sum "Si O2"
_cell_formula_units_Z 16
_cell_length_a 14.309862
_cell_length_b 9.190452
_cell_length_c 15.094369
_cell_angle_alpha 39.137843
_cell_angle_beta 38.968119
_cell_angle_gamma 59.481912
_cell_volume 764.971024
_symmetry_space_group_name_H-M "P -1"
_symmetry_group_IT_number 2
_symmetry_cell_setting 'triclinic'
loop_
_space_group_symop_operation_xyz
x,y,z
-x,-y,-z
loop_
_atom_site_type_symbol
_atom_site_label
_atom_site_fract_x
_atom_site_fract_y
_atom_site_fract_z
Si Si1 0.033590 0.770827 0.635110
Si Si2 0.471111 0.667279 0.521955
Si Si3 0.356470 0.061511 0.325282
Si Si4 0.805300 0.697036 0.545260
Si Si5 0.256082 0.522591 0.912949
Si Si6 0.392188 0.135799 0.064542
Si Si7 0.890520 0.278622 0.581019
Si Si8 0.667615 0.955182 0.373390
O O1 0.194505 0.870361 0.517652
O O2 0.047903 0.613263 0.611721
O O3 0.906951 0.643783 0.858861
O O4 0.000000 0.000000 0.500000
O O5 0.500000 0.500000 0.500000
O O6 0.453693 0.917120 0.377109
O O7 0.320970 0.562363 0.744701
O O8 0.621319 0.742714 0.437601
O O9 0.317140 0.284588 0.297759
O O10 0.422905 0.130427 0.147816
O O11 0.804400 0.449946 0.615615
O O12 0.764960 0.874420 0.417862
O O13 0.970728 0.762221 0.441113
O O14 0.250977 0.776382 0.838008
O O15 0.382558 0.398123 0.920690
O O16 0.229664 0.963856 0.238705
O O17 0.500000 0.000000 0.000000
O O18 0.500000 0.000000 0.500000
#
# Coordination Sequence:
#
# PCOD9036945 Si02
#       8
#     2   2   2   2   2   2   2   2
#     4  11  20  41  66  94 131 170 221 270 325 392
#     4  11  25  43  66  97 131 172 223 272 335 399
#     4  11  21  41  66  92 132 176 218 269 333 388
#     4  11  20  41  66  92 125 180 215 269 333 390
#     4  11  21  42  67  95 130 174 218 269 334 395
#     4  11  23  39  66 100 131 173 223 275 324 392
#     4  10  23  39  66  94 135 170 221 274 327 381
#     4  10  23  41  66  92 133 172 218 269 338 398
#
# _framework density 20.915825999999999
#
# number of rings (size 3 to 8) (size 9 to 14) (size 15 to 20)
#    0.000    1.250    6.250    0.750    7.000    0.500 
#    2.250   10.625    0.000    0.000    0.000    0.000 
#    0.000    0.000    0.000    0.000    0.000    0.000 
#
# Total GULP energy -89133.246572 kJ/mol
# GULP energy per Si atom -5570.827911 kJ/mol
# Density = 2.086822 g / cm^3
# Si number density = 20.915826 Si / 1000 Ang^3
#
#
#
# Elastic Constant Matrix: (Units=GPa)
#
#
# Indices 1 2 3 4 5 6 
#
# 1 74.1389 23.1209 9.5071 4.6887 18.2171 1.6054
# 2 23.1209 138.4379 28.9258 23.2254 19.2382 16.7617
# 3 9.5071 28.9258 63.2085 5.6435 13.4805 10.1187
# 4 4.6887 23.2254 5.6435 23.3416 0.8653 8.2806
# 5 18.2171 19.2382 13.4805 0.8653 29.3835 0.4778
# 6 1.6054 16.7617 10.1187 8.2806 0.4778 39.7573
#
#
#
# Elastic Compliance Matrix: (Units=1/GPa)
#
#
# Indices 1 2 3 4 5 6 
#
# 1 0.016237 -0.001174 0.000210 -0.001903 -0.009343 0.000294
# 2 -0.001174 0.010217 -0.002481 -0.008524 -0.004543 -0.001799
# 3 0.000210 -0.002481 0.019091 -0.000646 -0.007187 -0.003601
# 4 -0.001903 -0.008524 -0.000646 0.054333 0.005579 -0.007549
# 5 -0.009343 -0.004543 -0.007187 0.005579 0.045894 0.002408
# 6 0.000294 -0.001799 -0.003601 -0.007549 0.002408 0.028359
#
#
# Mechanical properties :
#
#
# Convention : Reuss Voigt Hill
#
# Bulk Modulus (GPa) = 25.86899 44.32143 35.09521
# Shear Modulus (GPa) = 25.78581 32.77859 29.28220
#
# Velocity S-wave (km/s) = 3.51499 3.96304 3.74572
# Velocity P-wave (km/s) = 5.37294 6.49441 5.96011
#
# Compressibility (1/GPa) = 0.03865632
#
# Stress axis : x y z
#
# Youngs Moduli (GPa) = 61.58763 97.87531 52.37999
#
# Poissons Ratio (x) = 0.11488 -0.01102
# Poissons Ratio (y) = 0.07229 0.12996
# Poissons Ratio (z) = -0.01296 0.24284
#
# Static dielectric constant tensor:
#      x y z
#    x 1.837370 0.080340 -0.077990 
#    y 0.080340 1.911320 -0.039510 
#    z -0.077990 -0.039510 1.901650 
# 
# From -- ./inp_files/528063.got.cif
#   From: 2010.05.17/outbox.cif.g08.bks.cpg/sg2_265_cif.got.tgz:528063.got - 2010.06.03 11:33:40.
