data_PCOD9036079
_publ_section_title
;
Structure prediction by ZEFSAII (Michael W. Deem and Ramdas Pophale) SiO2 
 PCOD9036079
Probable space group: P -1
;
_chemical_formula_sum "Si O2"
_cell_formula_units_Z 8
_cell_length_a 17.799490
_cell_length_b 11.962029
_cell_length_c 7.199102
_cell_angle_alpha 128.612749
_cell_angle_beta 138.510356
_cell_angle_gamma 19.276391
_cell_volume 310.135849
_symmetry_space_group_name_H-M "P -1"
_symmetry_group_IT_number 2
_symmetry_cell_setting 'triclinic'
loop_
_space_group_symop_operation_xyz
x,y,z
-x,-y,-z
loop_
_atom_site_type_symbol
_atom_site_label
_atom_site_fract_x
_atom_site_fract_y
_atom_site_fract_z
Si Si1 0.531292 0.808188 0.773549
Si Si2 0.118111 0.004215 0.831402
Si Si3 0.336062 0.595365 0.150338
Si Si4 0.273434 0.129386 0.239592
O O1 0.545058 0.696510 0.870409
O O2 0.824482 0.417816 0.803689
O O3 0.288248 0.084642 0.445569
O O4 0.500000 0.000000 0.000000
O O5 0.281400 0.954774 0.000327
O O6 0.000000 0.000000 0.500000
O O7 0.332265 0.688660 0.051742
O O8 0.500000 0.500000 0.500000
O O9 0.000000 0.000000 0.000000
O O10 0.500000 0.000000 0.500000
O O11 0.000000 0.500000 0.000000
#
# Coordination Sequence:
#
# PCOD9036079 Si02
#       4
#     2   2   2   2
#     4  11  26  49  76 110 151 200 252 313 380 451
#     4  11  26  51  79 113 152 201 253 316 379 451
#     4  10  22  47  72 106 145 193 248 309 369 444
#     4  12  26  50  75 115 155 202 251 315 380 454
#
# _framework density 25.795147
#
# number of rings (size 3 to 8) (size 9 to 14) (size 15 to 20)
#    0.000    1.000    5.000    0.000    3.500    2.000 
#    9.000    0.000    0.000    0.000    0.000    0.000 
#    0.000    0.000    0.000    0.000    0.000    0.000 
#
# Total GULP energy -44557.069764 kJ/mol
# GULP energy per Si atom -5569.633720 kJ/mol
# Density = 2.573644 g / cm^3
# Si number density = 25.795147 Si / 1000 Ang^3
#
#
#
# Elastic Constant Matrix: (Units=GPa)
#
#
# Indices 1 2 3 4 5 6 
#
# 1 184.0187 83.9193 62.8275 0.2920 4.7971 60.0656
# 2 83.9193 233.9663 114.2976 24.5911 -8.1040 72.4252
# 3 62.8275 114.2976 247.7139 -9.3458 11.3489 38.0604
# 4 0.2920 24.5911 -9.3458 73.9910 28.1333 -1.9830
# 5 4.7971 -8.1040 11.3489 28.1333 55.6249 -2.2821
# 6 60.0656 72.4252 38.0604 -1.9830 -2.2821 78.7440
#
#
#
# Elastic Compliance Matrix: (Units=1/GPa)
#
#
# Indices 1 2 3 4 5 6 
#
# 1 0.007680 -0.001145 -0.000650 0.000597 -0.001184 -0.004511
# 2 -0.001145 0.008678 -0.003256 -0.005105 0.004382 -0.005536
# 3 -0.000650 -0.003256 0.005863 0.003029 -0.003120 0.000643
# 4 0.000597 -0.005105 0.003029 0.020011 -0.011413 0.002949
# 5 -0.001184 0.004382 -0.003120 -0.011413 0.025079 -0.001180
# 6 -0.004511 -0.005536 0.000643 0.002949 -0.001180 0.020961
#
#
# Mechanical properties :
#
#
# Convention : Reuss Voigt Hill
#
# Bulk Modulus (GPa) = 82.51854 131.97640 107.24747
# Shear Modulus (GPa) = 48.82202 68.64896 58.73549
#
# Velocity S-wave (km/s) = 4.35522 5.16439 4.77697
# Velocity P-wave (km/s) = 7.57297 9.31856 8.49074
#
# Compressibility (1/GPa) = 0.01211849
#
# Stress axis : x y z
#
# Youngs Moduli (GPa) = 130.20010 115.24039 170.56902
#
# Poissons Ratio (x) = 0.13192 0.11086
# Poissons Ratio (y) = 0.14904 0.55545
# Poissons Ratio (z) = 0.08463 0.37527
#
# Static dielectric constant tensor:
#      x y z
#    x 4.228560 -0.853500 -0.081660 
#    y -0.853500 2.259460 0.109770 
#    z -0.081660 0.109770 2.020370 
# 
# From -- ./inp_files/17141.got.cif
#   From: 2010.05.17/outbox.cif.g08.bks.cpg/sg2_9_cif.got.tgz:17141.got - 2010.06.03 11:33:40.
