data_PCOD9036092
_publ_section_title
;
Structure prediction by ZEFSAII (Michael W. Deem and Ramdas Pophale) SiO2 
 PCOD9036092
Probable space group: P -1
;
_chemical_formula_sum "Si O2"
_cell_formula_units_Z 16
_cell_length_a 16.185968
_cell_length_b 7.880958
_cell_length_c 8.311118
_cell_angle_alpha 49.742870
_cell_angle_beta 51.456333
_cell_angle_gamma 69.187203
_cell_volume 630.809554
_symmetry_space_group_name_H-M "P -1"
_symmetry_group_IT_number 2
_symmetry_cell_setting 'triclinic'
loop_
_space_group_symop_operation_xyz
x,y,z
-x,-y,-z
loop_
_atom_site_type_symbol
_atom_site_label
_atom_site_fract_x
_atom_site_fract_y
_atom_site_fract_z
Si Si1 0.334759 0.111646 0.432314
Si Si2 0.608521 0.378877 0.455044
Si Si3 0.214620 0.274761 0.009207
Si Si4 0.890754 0.410788 0.266244
Si Si5 0.303492 0.919195 0.915947
Si Si6 0.882791 0.928513 0.443272
Si Si7 0.081194 0.706933 0.326255
Si Si8 0.530746 0.207340 0.963465
O O1 0.372218 0.863786 0.491653
O O2 0.214377 0.152728 0.504219
O O3 0.417768 0.270120 0.131196
O O4 0.340151 0.097011 0.626033
O O5 0.500000 0.500000 0.500000
O O6 0.610807 0.355040 0.661068
O O7 0.692917 0.546737 0.160795
O O8 0.131406 0.215197 0.286645
O O9 0.259872 0.047560 0.043169
O O10 0.176810 0.388541 0.823790
O O11 0.897370 0.348297 0.480716
O O12 0.859093 0.181384 0.352627
O O13 0.000000 0.500000 0.000000
O O14 0.199229 0.765326 0.076004
O O15 0.404984 0.823970 0.930797
O O16 0.005655 0.909244 0.261881
O O17 0.000000 0.500000 0.500000
O O18 0.500000 0.000000 0.000000
#
# Coordination Sequence:
#
# PCOD9036092 Si02
#       8
#     2   2   2   2   2   2   2   2
#     4  11  25  44  73 106 151 186 237 307 373 426
#     4  11  22  42  73 105 135 188 247 290 356 442
#     4  12  23  43  73 102 142 190 247 295 353 430
#     4  12  24  45  72 101 135 195 253 287 350 429
#     4  12  26  46  71 108 152 189 239 309 369 424
#     4  12  25  49  71 107 147 197 248 296 351 443
#     4  12  29  46  71 109 154 193 242 303 366 427
#     4  10  22  47  73 102 142 187 244 301 356 439
#
# _framework density 25.364231
#
# number of rings (size 3 to 8) (size 9 to 14) (size 15 to 20)
#    0.000    0.500    3.750    6.000    5.250    0.500 
#    0.000    1.250    0.000    0.000    0.000    0.000 
#    0.000    0.000    0.000    0.000    0.000    0.000 
#
# Total GULP energy -89303.842474 kJ/mol
# GULP energy per Si atom -5581.490155 kJ/mol
# Density = 2.530650 g / cm^3
# Si number density = 25.364231 Si / 1000 Ang^3
#
#
#
# Elastic Constant Matrix: (Units=GPa)
#
#
# Indices 1 2 3 4 5 6 
#
# 1 89.4090 5.8486 3.0206 11.2023 3.4757 -17.9324
# 2 5.8486 42.2212 -0.2601 -6.6207 -6.7920 -4.4542
# 3 3.0206 -0.2601 107.9694 9.9677 -10.3860 7.7299
# 4 11.2023 -6.6207 9.9677 33.4310 3.1855 -3.3937
# 5 3.4757 -6.7920 -10.3860 3.1855 45.8483 -4.0011
# 6 -17.9324 -4.4542 7.7299 -3.3937 -4.0011 28.7929
#
#
#
# Elastic Compliance Matrix: (Units=1/GPa)
#
#
# Indices 1 2 3 4 5 6 
#
# 1 0.013358 -0.001713 -0.000624 -0.003802 -0.000471 0.007709
# 2 -0.001713 0.025912 -0.000368 0.005882 0.003849 0.004268
# 3 -0.000624 -0.000368 0.010037 -0.003396 0.002220 -0.003232
# 4 -0.003802 0.005882 -0.003396 0.033850 -0.001681 0.003210
# 5 -0.000471 0.003849 0.002220 -0.001681 0.023276 0.002742
# 6 0.007709 0.004268 -0.003232 0.003210 0.002742 0.041819
#
#
# Mechanical properties :
#
#
# Convention : Reuss Voigt Hill
#
# Bulk Modulus (GPa) = 22.78069 28.53533 25.65801
# Shear Modulus (GPa) = 29.70983 37.01380 33.36181
#
# Velocity S-wave (km/s) = 3.42618 3.82421 3.63065
# Velocity P-wave (km/s) = 4.96513 5.54744 5.26434
#
# Compressibility (1/GPa) = 0.04389683
#
# Stress axis : x y z
#
# Youngs Moduli (GPa) = 74.85898 38.59275 99.63190
#
# Poissons Ratio (x) = 0.06611 0.06218
# Poissons Ratio (y) = 0.12823 0.03667
# Poissons Ratio (z) = 0.04672 0.01420
#
# Static dielectric constant tensor:
#      x y z
#    x 2.335910 0.139390 -0.250400 
#    y 0.139390 2.164030 -0.181990 
#    z -0.250400 -0.181990 2.225860 
# 
# From -- ./inp_files/327023.got.cif
#   From: 2010.05.17/outbox.cif.g08.bks.cpg/sg2_164_cif.got.tgz:327023.got - 2010.06.03 11:33:40.
