data_PCOD9036125
_publ_section_title
;
Structure prediction by ZEFSAII (Michael W. Deem and Ramdas Pophale) SiO2 
 PCOD9036125
Probable space group: P -1
;
_chemical_formula_sum "Si O2"
_cell_formula_units_Z 16
_cell_length_a 24.642737
_cell_length_b 7.954092
_cell_length_c 5.369623
_cell_angle_alpha 82.289032
_cell_angle_beta 120.749091
_cell_angle_gamma 133.065065
_cell_volume 620.906672
_symmetry_space_group_name_H-M "P -1"
_symmetry_group_IT_number 2
_symmetry_cell_setting 'triclinic'
loop_
_space_group_symop_operation_xyz
x,y,z
-x,-y,-z
loop_
_atom_site_type_symbol
_atom_site_label
_atom_site_fract_x
_atom_site_fract_y
_atom_site_fract_z
Si Si1 0.722220 0.745847 0.303887
Si Si2 0.401323 0.238809 0.737534
Si Si3 0.052961 0.433318 0.061543
Si Si4 0.168774 0.187260 0.062135
Si Si5 0.432427 0.114242 0.317179
Si Si6 0.824287 0.151221 0.071616
Si Si7 0.070469 0.337328 0.620621
Si Si8 0.371607 0.617456 0.237510
O O1 0.676184 0.770580 0.404006
O O2 0.811849 0.825191 0.601919
O O3 0.742728 0.914403 0.091178
O O4 0.650891 0.470157 0.086176
O O5 0.404444 0.163702 0.487447
O O6 0.500000 0.500000 0.000000
O O7 0.385964 0.075652 0.957257
O O8 0.041676 0.270266 0.279869
O O9 0.155725 0.689742 0.158041
O O10 0.013463 0.284211 0.738729
O O11 0.000000 0.500000 0.000000
O O12 0.273099 0.414655 0.171286
O O13 0.118224 0.257862 0.840778
O O14 0.133095 0.944307 0.902454
O O15 0.542620 0.336690 0.508851
O O16 0.406008 0.868939 0.338849
O O17 0.868826 0.371869 0.322814
#
# Coordination Sequence:
#
# PCOD9036125 Si02
#       8
#     2   2   2   2   2   2   2   2
#     4  11  24  42  68  96 137 182 228 301 345 413
#     4  12  25  42  67  90 128 173 235 283 356 417
#     4  10  22  47  75 104 142 180 223 275 334 403
#     4  11  24  43  67 100 144 177 236 281 346 411
#     4  11  26  44  63  94 126 176 237 291 355 425
#     4   9  24  41  71  99 143 177 230 275 343 403
#     4  10  24  43  74 101 140 182 224 273 335 411
#     4  10  25  41  64  91 132 179 225 302 351 403
#
# _framework density 25.768767
#
# number of rings (size 3 to 8) (size 9 to 14) (size 15 to 20)
#    0.750    0.750    1.250    2.250   10.500    1.000 
#    0.000    1.250    0.000    0.000    0.000    0.000 
#    0.000    0.000    0.000    0.000    0.000    0.000 
#
# Total GULP energy -89183.306706 kJ/mol
# GULP energy per Si atom -5573.956669 kJ/mol
# Density = 2.571012 g / cm^3
# Si number density = 25.768767 Si / 1000 Ang^3
#
#
#
# Elastic Constant Matrix: (Units=GPa)
#
#
# Indices 1 2 3 4 5 6 
#
# 1 116.2211 57.5551 46.2663 -27.6404 -6.8790 3.6494
# 2 57.5551 102.3134 46.6643 1.7966 -11.0444 -7.1682
# 3 46.2663 46.6643 155.3969 -35.0465 8.6536 -4.4951
# 4 -27.6404 1.7966 -35.0465 35.2645 -5.7117 -9.8853
# 5 -6.8790 -11.0444 8.6536 -5.7117 31.4596 -8.5793
# 6 3.6494 -7.1682 -4.4951 -9.8853 -8.5793 44.2675
#
#
#
# Elastic Compliance Matrix: (Units=1/GPa)
#
#
# Indices 1 2 3 4 5 6 
#
# 1 0.017008 -0.010110 0.001492 0.016196 0.003060 0.001322
# 2 -0.010110 0.018922 -0.006015 -0.014002 0.003789 0.000894
# 3 0.001492 -0.006015 0.010817 0.012629 -0.001793 0.002474
# 4 0.016196 -0.014002 0.012629 0.059424 0.009425 0.012776
# 5 0.003060 0.003789 -0.001793 0.009425 0.038656 0.009776
# 6 0.001322 0.000894 0.002474 0.012776 0.009776 0.027625
#
#
# Mechanical properties :
#
#
# Convention : Reuss Voigt Hill
#
# Bulk Modulus (GPa) = 57.20162 74.98921 66.09542
# Shear Modulus (GPa) = 24.09140 37.09470 30.59305
#
# Velocity S-wave (km/s) = 3.06094 3.79822 3.44934
# Velocity P-wave (km/s) = 5.89396 6.95696 6.44740
#
# Compressibility (1/GPa) = 0.01748202
#
# Stress axis : x y z
#
# Youngs Moduli (GPa) = 58.79553 52.84885 92.44993
#
# Poissons Ratio (x) = 0.53429 -0.13798
# Poissons Ratio (y) = 0.59441 0.55608
# Poissons Ratio (z) = -0.08775 0.31788
#
# Static dielectric constant tensor:
#      x y z
#    x 2.033410 0.076270 -0.004470 
#    y 0.076270 2.090270 0.025920 
#    z -0.004470 0.025920 2.160580 
# 
# From -- ./inp_files/126021.got.cif
#   From: 2010.05.17/outbox.cif.g08.bks.cpg/sg2_64_cif.got.tgz:126021.got - 2010.06.03 11:33:40.
