data_PCOD9036637
_publ_section_title
;
Structure prediction by ZEFSAII (Michael W. Deem and Ramdas Pophale) SiO2 
 PCOD9036637
Probable space group: P -1
;
_chemical_formula_sum "Si O2"
_cell_formula_units_Z 15
_cell_length_a 20.400360
_cell_length_b 8.255928
_cell_length_c 11.727077
_cell_angle_alpha 71.900813
_cell_angle_beta 142.669361
_cell_angle_gamma 136.910307
_cell_volume 620.529655
_symmetry_space_group_name_H-M "P -1"
_symmetry_group_IT_number 2
_symmetry_cell_setting 'triclinic'
loop_
_space_group_symop_operation_xyz
x,y,z
-x,-y,-z
loop_
_atom_site_type_symbol
_atom_site_label
_atom_site_fract_x
_atom_site_fract_y
_atom_site_fract_z
Si Si1 0.500000 0.500000 0.000000
Si Si2 0.502732 0.806445 0.081737
Si Si3 0.465570 0.769895 0.445268
Si Si4 0.023488 0.217247 0.335187
Si Si5 0.774938 0.191215 0.590731
Si Si6 0.052575 0.249431 0.628106
Si Si7 0.158205 0.552429 0.937773
Si Si8 0.608076 0.795369 0.844117
O O1 0.428539 0.215106 0.923825
O O2 0.520873 0.578561 0.876096
O O3 0.636183 0.962525 0.342500
O O4 0.272888 0.467615 0.865625
O O5 0.500000 0.000000 0.000000
O O6 0.458527 0.626796 0.569402
O O7 0.500000 0.000000 0.500000
O O8 0.658793 0.993766 0.586816
O O9 0.277290 0.546873 0.151530
O O10 0.178522 0.544491 0.416372
O O11 0.998432 0.242562 0.428510
O O12 0.080097 0.092361 0.450496
O O13 0.808112 0.965316 0.039830
O O14 0.983410 0.373977 0.820583
O O15 0.067211 0.394785 0.722015
O O16 0.311174 0.911775 0.069408
#
# Coordination Sequence:
#
# PCOD9036637 Si02
#       8
#     1   2   2   2   2   2   2   2
#     4  12  26  42  70 112 140 192 248 294 378 432
#     4  12  24  42  72 107 152 193 245 302 368 447
#     4  10  23  45  72 101 140 193 244 297 361 440
#     4  10  23  38  65 101 145 183 231 305 351 434
#     4  11  24  43  71 106 136 196 245 290 370 436
#     4  11  21  41  62 103 148 183 235 301 369 423
#     4  10  23  42  71 102 142 190 243 298 363 436
#     4  10  23  42  67 101 140 184 239 302 356 439
#
# _framework density 24.172899999999998
#
# number of rings (size 3 to 8) (size 9 to 14) (size 15 to 20)
#    0.000    1.333    4.000    0.800    3.733    5.867 
#    0.000    2.667    0.000    6.400    0.000    0.000 
#    0.000    0.000    0.000    0.000    0.000    0.000 
#
# Total GULP energy -83713.168807 kJ/mol
# GULP energy per Si atom -5580.877920 kJ/mol
# Density = 2.411788 g / cm^3
# Si number density = 24.172900 Si / 1000 Ang^3
#
#
#
# Elastic Constant Matrix: (Units=GPa)
#
#
# Indices 1 2 3 4 5 6 
#
# 1 79.5377 29.3751 0.0542 -7.8172 -6.6107 6.4334
# 2 29.3751 91.8863 24.4306 -15.9876 0.8084 16.4428
# 3 0.0542 24.4306 73.8633 -4.9681 8.0776 17.5006
# 4 -7.8172 -15.9876 -4.9681 29.6932 2.3438 -8.7660
# 5 -6.6107 0.8084 8.0776 2.3438 18.5900 10.6506
# 6 6.4334 16.4428 17.5006 -8.7660 10.6506 39.0823
#
#
#
# Elastic Compliance Matrix: (Units=1/GPa)
#
#
# Indices 1 2 3 4 5 6 
#
# 1 0.015128 -0.004730 0.001548 0.000322 0.006535 -0.002902
# 2 -0.004730 0.014825 -0.003960 0.005309 0.000182 -0.002544
# 3 0.001548 -0.003960 0.016408 -0.000185 -0.003506 -0.005022
# 4 0.000322 0.005309 -0.000185 0.040316 -0.010709 0.009757
# 5 0.006535 0.000182 -0.003506 -0.010709 0.071242 -0.021399
# 6 -0.002902 -0.002544 -0.005022 0.009757 -0.021399 0.037404
#
#
# Mechanical properties :
#
#
# Convention : Reuss Voigt Hill
#
# Bulk Modulus (GPa) = 31.17460 39.22302 35.19881
# Shear Modulus (GPa) = 22.69632 30.23493 26.46563
#
# Velocity S-wave (km/s) = 3.06750 3.54047 3.31244
# Velocity P-wave (km/s) = 5.04684 5.74234 5.40579
#
# Compressibility (1/GPa) = 0.03207740
#
# Stress axis : x y z
#
# Youngs Moduli (GPa) = 66.10262 67.45140 60.94557
#
# Poissons Ratio (x) = 0.31904 -0.09434
# Poissons Ratio (y) = 0.31266 0.24135
# Poissons Ratio (z) = -0.10233 0.26712
#
# Static dielectric constant tensor:
#      x y z
#    x 1.934470 -0.044420 0.025140 
#    y -0.044420 1.917210 0.058100 
#    z 0.025140 0.058100 2.025650 
# 
# From -- ./inp_files/469961.got.cif
#   From: 2010.05.17/outbox.cif.g08.bks.cpg/sg2_235_cif.got.tgz:469961.got - 2010.06.03 11:33:40.
