data_PCOD9036584
_publ_section_title
;
Structure prediction by ZEFSAII (Michael W. Deem and Ramdas Pophale) SiO2 
 PCOD9036584
Probable space group: P -1
;
_chemical_formula_sum "Si O2"
_cell_formula_units_Z 16
_cell_length_a 9.064280
_cell_length_b 11.577539
_cell_length_c 15.268371
_cell_angle_alpha 111.371839
_cell_angle_beta 108.487931
_cell_angle_gamma 129.817330
_cell_volume 731.830354
_symmetry_space_group_name_H-M "P -1"
_symmetry_group_IT_number 2
_symmetry_cell_setting 'triclinic'
loop_
_space_group_symop_operation_xyz
x,y,z
-x,-y,-z
loop_
_atom_site_type_symbol
_atom_site_label
_atom_site_fract_x
_atom_site_fract_y
_atom_site_fract_z
Si Si1 0.334980 0.785959 0.689567
Si Si2 0.223854 0.173508 0.417335
Si Si3 0.742128 0.484012 0.072233
Si Si4 0.443407 0.947243 0.370415
Si Si5 0.417609 0.652688 0.300674
Si Si6 0.708639 0.175416 0.006378
Si Si7 0.591944 0.615846 0.168980
Si Si8 0.751511 0.524922 0.479488
O O1 0.290455 0.607800 0.640254
O O2 0.032834 0.655946 0.621523
O O3 0.391947 0.855958 0.616460
O O4 0.607584 0.022271 0.863675
O O5 0.435789 0.254186 0.551265
O O6 0.429132 0.312933 0.408228
O O7 0.165160 0.275128 0.464665
O O8 0.913228 0.887903 0.271645
O O9 0.579720 0.461870 0.105803
O O10 0.092087 0.728356 0.227441
O O11 0.651685 0.279678 0.999940
O O12 0.660489 0.488555 0.965288
O O13 0.507825 0.847512 0.331914
O O14 0.500000 0.000000 0.500000
O O15 0.551931 0.632489 0.264270
O O16 0.057420 0.399481 0.159839
O O17 0.500000 0.000000 0.000000
#
# Coordination Sequence:
#
# PCOD9036584 Si02
#       8
#     2   2   2   2   2   2   2   2
#     4  11  22  41  63  89 119 159 207 247 295 356
#     4  11  22  40  59  88 125 158 196 248 304 353
#     4  10  23  40  61  89 119 155 203 242 303 363
#     4  11  22  39  64  90 120 157 199 255 303 349
#     4  11  23  37  60  90 118 154 206 249 297 360
#     4  11  24  42  62  86 124 164 198 247 299 356
#     4  11  22  39  63  88 120 158 197 255 302 348
#     4  10  23  38  62  87 118 160 203 242 295 365
#
# _framework density 21.86299
#
# number of rings (size 3 to 8) (size 9 to 14) (size 15 to 20)
#    0.000    1.250    0.000    6.375    0.000    9.000 
#    0.000    1.250    0.000    0.000    0.000    0.000 
#    0.000    0.000    0.000    0.000    0.000    0.000 
#
# Total GULP energy -89421.229849 kJ/mol
# GULP energy per Si atom -5588.826866 kJ/mol
# Density = 2.181323 g / cm^3
# Si number density = 21.862990 Si / 1000 Ang^3
#
#
#
# Elastic Constant Matrix: (Units=GPa)
#
#
# Indices 1 2 3 4 5 6 
#
# 1 88.9172 4.4758 11.5606 4.3064 -4.6940 -23.7400
# 2 4.4758 24.9122 7.3135 4.0003 -2.6249 10.2297
# 3 11.5606 7.3135 118.5222 0.2886 1.4078 -4.1657
# 4 4.3064 4.0003 0.2886 24.4100 0.3026 -3.6626
# 5 -4.6940 -2.6249 1.4078 0.3026 31.1937 3.1885
# 6 -23.7400 10.2297 -4.1657 -3.6626 3.1885 37.0708
#
#
#
# Elastic Compliance Matrix: (Units=1/GPa)
#
#
# Indices 1 2 3 4 5 6 
#
# 1 0.014711 -0.007093 -0.000607 0.000263 0.000487 0.011294
# 2 -0.007093 0.053479 -0.003398 -0.010733 0.005862 -0.021247
# 3 -0.000607 -0.003398 0.008775 0.000827 -0.000955 0.001699
# 4 0.000263 -0.010733 0.000827 0.043857 -0.002117 0.007738
# 5 0.000487 0.005862 -0.000955 -0.002117 0.033145 -0.004473
# 6 0.011294 -0.021247 0.001699 0.007738 -0.004473 0.041411
#
#
# Mechanical properties :
#
#
# Convention : Reuss Voigt Hill
#
# Bulk Modulus (GPa) = 18.25894 31.00572 24.63233
# Shear Modulus (GPa) = 21.20167 32.46835 26.83501
#
# Velocity S-wave (km/s) = 3.11746 3.85786 3.50725
# Velocity P-wave (km/s) = 4.61820 5.83581 5.26234
#
# Compressibility (1/GPa) = 0.05476771
#
# Stress axis : x y z
#
# Youngs Moduli (GPa) = 67.97763 18.69907 113.95811
#
# Poissons Ratio (x) = 0.13264 0.06913
# Poissons Ratio (y) = 0.48219 0.38726
# Poissons Ratio (z) = 0.04124 0.06355
#
# Static dielectric constant tensor:
#      x y z
#    x 1.836860 0.019700 -0.023110 
#    y 0.019700 1.816690 -0.013740 
#    z -0.023110 -0.013740 1.783520 
# 
# From -- ./inp_files/184164.got.cif
#   From: 2010.05.17/outbox.cif.g08.bks.cpg/sg2_93_cif.got.tgz:184164.got - 2010.06.03 11:33:40.
