data_PCOD9036985
_publ_section_title
;
Structure prediction by ZEFSAII (Michael W. Deem and Ramdas Pophale) SiO2 
 PCOD9036985
Probable space group: P -1
;
_chemical_formula_sum "Si O2"
_cell_formula_units_Z 16
_cell_length_a 9.892018
_cell_length_b 13.548722
_cell_length_c 10.114113
_cell_angle_alpha 89.655168
_cell_angle_beta 126.735472
_cell_angle_gamma 131.460392
_cell_volume 619.113635
_symmetry_space_group_name_H-M "P -1"
_symmetry_group_IT_number 2
_symmetry_cell_setting 'triclinic'
loop_
_space_group_symop_operation_xyz
x,y,z
-x,-y,-z
loop_
_atom_site_type_symbol
_atom_site_label
_atom_site_fract_x
_atom_site_fract_y
_atom_site_fract_z
Si Si1 0.914795 0.965500 0.747028
Si Si2 0.154663 0.669722 0.646550
Si Si3 0.532180 0.406606 0.588500
Si Si4 0.528173 0.763762 0.099692
Si Si5 0.816892 0.270944 0.920840
Si Si6 0.153529 0.381269 0.877698
Si Si7 0.716409 0.999439 0.844612
Si Si8 0.705780 0.605267 0.325204
O O1 0.617834 0.756694 0.570545
O O2 0.831442 0.029800 0.764827
O O3 0.129601 0.078463 0.744538
O O4 0.117594 0.998903 0.965323
O O5 0.353254 0.746565 0.889490
O O6 0.372005 0.812558 0.659390
O O7 0.000000 0.500000 0.500000
O O8 0.890418 0.617368 0.518516
O O9 0.500000 0.500000 0.500000
O O10 0.328251 0.316967 0.602910
O O11 0.868673 0.548901 0.829834
O O12 0.365742 0.580266 0.986757
O O13 0.436172 0.775975 0.180336
O O14 0.877858 0.288864 0.799448
O O15 0.758988 0.129473 0.924066
O O16 0.140836 0.324824 0.728670
O O17 0.362310 0.413881 0.095164
#
# Coordination Sequence:
#
# PCOD9036985 Si02
#       8
#     2   2   2   2   2   2   2   2
#     4  10  24  40  65  99 141 176 216 283 342 398
#     4  11  23  39  70 102 135 170 226 285 331 392
#     4  11  22  38  68  99 136 174 226 279 335 397
#     4  11  24  42  70 100 136 171 228 281 339 391
#     4  11  24  42  69  97 132 179 229 278 331 401
#     4  10  23  43  69  91 137 188 221 265 340 414
#     4  10  24  40  64 101 139 175 220 276 347 394
#     4  10  23  39  67  97 132 174 232 260 335 396
#
# _framework density 25.843398000000001
#
# number of rings (size 3 to 8) (size 9 to 14) (size 15 to 20)
#    0.000    1.500    2.500    1.125   10.500    1.000 
#    0.000    3.125    2.750    0.000    0.000    0.000 
#    0.000    0.000    0.000    0.000    0.000    0.000 
#
# Total GULP energy -89455.875323 kJ/mol
# GULP energy per Si atom -5590.992208 kJ/mol
# Density = 2.578458 g / cm^3
# Si number density = 25.843398 Si / 1000 Ang^3
#
#
#
# Elastic Constant Matrix: (Units=GPa)
#
#
# Indices 1 2 3 4 5 6 
#
# 1 189.9749 42.4116 26.6567 19.0926 12.6871 6.9673
# 2 42.4116 63.2473 14.7759 18.7400 13.6703 8.7419
# 3 26.6567 14.7759 72.1848 11.8922 15.2713 -7.4956
# 4 19.0926 18.7400 11.8922 43.4320 3.7211 -0.1627
# 5 12.6871 13.6703 15.2713 3.7211 28.4238 -6.6274
# 6 6.9673 8.7419 -7.4956 -0.1627 -6.6274 42.9134
#
#
#
# Elastic Compliance Matrix: (Units=1/GPa)
#
#
# Indices 1 2 3 4 5 6 
#
# 1 0.006392 -0.003508 -0.001482 -0.000858 -0.000409 -0.000648
# 2 -0.003508 0.023504 -0.000835 -0.007564 -0.009672 -0.005887
# 3 -0.001482 -0.000835 0.016784 -0.002972 -0.007042 0.002243
# 4 -0.000858 -0.007564 -0.002972 0.027277 0.002429 0.001640
# 5 -0.000409 -0.009672 -0.007042 0.002429 0.045303 0.007812
# 6 -0.000648 -0.005887 0.002243 0.001640 0.007812 0.026212
#
#
# Mechanical properties :
#
#
# Convention : Reuss Voigt Hill
#
# Bulk Modulus (GPa) = 28.54638 54.78837 41.66738
# Shear Modulus (GPa) = 29.62119 39.05803 34.33961
#
# Velocity S-wave (km/s) = 3.38920 3.89181 3.64917
# Velocity P-wave (km/s) = 5.13668 6.43747 5.82351
#
# Compressibility (1/GPa) = 0.03503071
#
# Stress axis : x y z
#
# Youngs Moduli (GPa) = 156.43888 42.54663 59.58073
#
# Poissons Ratio (x) = 0.14926 0.08830
# Poissons Ratio (y) = 0.54879 0.04972
# Poissons Ratio (z) = 0.23184 0.03551
#
# Static dielectric constant tensor:
#      x y z
#    x 2.026070 0.049040 0.005640 
#    y 0.049040 2.054460 -0.085250 
#    z 0.005640 -0.085250 2.003490 
# 
# From -- ./inp_files/399327.got.cif
#   From: 2010.05.17/outbox.cif.g08.bks.cpg/sg2_200_cif.got.tgz:399327.got - 2010.06.03 11:33:40.
