data_PCOD9036016
_publ_section_title
;
Structure prediction by ZEFSAII (Michael W. Deem and Ramdas Pophale) SiO2 
 PCOD9036016
Probable space group: P -1
;
_chemical_formula_sum "Si O2"
_cell_formula_units_Z 14
_cell_length_a 9.083975
_cell_length_b 8.539865
_cell_length_c 10.854020
_cell_angle_alpha 77.487329
_cell_angle_beta 87.487999
_cell_angle_gamma 134.636235
_cell_volume 561.151082
_symmetry_space_group_name_H-M "P -1"
_symmetry_group_IT_number 2
_symmetry_cell_setting 'triclinic'
loop_
_space_group_symop_operation_xyz
x,y,z
-x,-y,-z
loop_
_atom_site_type_symbol
_atom_site_label
_atom_site_fract_x
_atom_site_fract_y
_atom_site_fract_z
Si Si1 0.749900 0.851330 0.030945
Si Si2 0.983582 0.692566 0.735086
Si Si3 0.897416 0.692499 0.454427
Si Si4 0.556305 0.180015 0.820783
Si Si5 0.698947 0.794401 0.298351
Si Si6 0.661213 0.249394 0.382858
Si Si7 0.655599 0.901018 0.772540
O O1 0.664068 0.783016 0.906119
O O2 0.654685 0.950408 0.065458
O O3 0.667416 0.690155 0.182387
O O4 0.000000 0.000000 0.000000
O O5 0.948534 0.720423 0.590631
O O6 0.762466 0.433592 0.829315
O O7 0.172316 0.711398 0.718142
O O8 0.083868 0.923811 0.760954
O O9 0.730493 0.699892 0.424181
O O10 0.808930 0.459607 0.438328
O O11 0.112689 0.906718 0.333870
O O12 0.495302 0.232917 0.690071
O O13 0.607642 0.040818 0.806435
O O14 0.500000 0.000000 0.500000
O O15 0.516489 0.249472 0.304388
#
# Coordination Sequence:
#
# PCOD9036016 Si02
#       7
#     2   2   2   2   2   2   2
#     4  10  22  47  69  94 139 175 227 283 330 400
#     4  12  23  43  67 100 138 178 226 273 338 402
#     4  12  25  41  71 101 136 180 222 277 338 402
#     4  10  23  41  68  96 138 173 225 280 331 393
#     4  10  25  45  63 100 136 177 222 283 334 393
#     4  12  24  41  68 103 135 176 225 271 333 405
#     4  12  21  44  71 100 134 181 224 275 339 395
#
# _framework density 24.948718
#
# number of rings (size 3 to 8) (size 9 to 14) (size 15 to 20)
#    0.857    0.000    5.714    2.143    0.000    1.714 
#    2.571    2.857    0.000    0.000    0.000    0.000 
#    0.000    0.000    0.000    0.000    0.000    0.000 
#
# Total GULP energy -78139.581401 kJ/mol
# GULP energy per Si atom -5581.398672 kJ/mol
# Density = 2.489193 g / cm^3
# Si number density = 24.948718 Si / 1000 Ang^3
#
#
#
# Elastic Constant Matrix: (Units=GPa)
#
#
# Indices 1 2 3 4 5 6 
#
# 1 130.2152 38.2884 32.4797 -10.0431 -1.6894 27.7073
# 2 38.2884 84.3633 33.4182 1.4359 18.9095 5.9292
# 3 32.4797 33.4182 109.3877 21.4650 16.2213 14.5440
# 4 -10.0431 1.4359 21.4650 23.6781 7.2930 10.1188
# 5 -1.6894 18.9095 16.2213 7.2930 48.3749 6.9962
# 6 27.7073 5.9292 14.5440 10.1188 6.9962 32.3542
#
#
#
# Elastic Compliance Matrix: (Units=1/GPa)
#
#
# Indices 1 2 3 4 5 6 
#
# 1 0.014973 -0.005000 -0.004605 0.016397 0.003834 -0.015794
# 2 -0.005000 0.016462 -0.003154 -0.000100 -0.006121 0.004038
# 3 -0.004605 -0.003154 0.014375 -0.015652 -0.001874 0.003360
# 4 0.016397 -0.000100 -0.015652 0.076928 -0.001288 -0.030769
# 5 0.003834 -0.006121 -0.001874 -0.001288 0.024933 -0.006307
# 6 -0.015794 0.004038 0.003360 -0.030769 -0.006307 0.053170
#
#
# Mechanical properties :
#
#
# Convention : Reuss Voigt Hill
#
# Bulk Modulus (GPa) = 49.27783 59.14877 54.21330
# Shear Modulus (GPa) = 21.44783 35.53343 28.49063
#
# Velocity S-wave (km/s) = 2.93521 3.77803 3.38297
# Velocity P-wave (km/s) = 5.59301 6.54148 6.08575
#
# Compressibility (1/GPa) = 0.02029310
#
# Stress axis : x y z
#
# Youngs Moduli (GPa) = 66.78555 60.74579 69.56431
#
# Poissons Ratio (x) = 0.30373 0.32031
# Poissons Ratio (y) = 0.33393 0.21942
# Poissons Ratio (z) = 0.30752 0.19160
#
# Static dielectric constant tensor:
#      x y z
#    x 2.001390 -0.021260 0.001330 
#    y -0.021260 2.012400 -0.020870 
#    z 0.001330 -0.020870 2.012860 
# 
# From -- ./inp_files/378743.got.cif
#   From: 2010.05.17/outbox.cif.g08.bks.cpg/sg2_190_cif.got.tgz:378743.got - 2010.06.03 11:33:40.
