data_PCOD9036123
_publ_section_title
;
Structure prediction by ZEFSAII (Michael W. Deem and Ramdas Pophale) SiO2 
 PCOD9036123
Probable space group: P -1
;
_chemical_formula_sum "Si O2"
_cell_formula_units_Z 10
_cell_length_a 15.216956
_cell_length_b 4.931930
_cell_length_c 9.796998
_cell_angle_alpha 126.361402
_cell_angle_beta 132.702228
_cell_angle_gamma 88.213474
_cell_volume 339.060438
_symmetry_space_group_name_H-M "P -1"
_symmetry_group_IT_number 2
_symmetry_cell_setting 'triclinic'
loop_
_space_group_symop_operation_xyz
x,y,z
-x,-y,-z
loop_
_atom_site_type_symbol
_atom_site_label
_atom_site_fract_x
_atom_site_fract_y
_atom_site_fract_z
Si Si1 0.079915 0.241388 0.013178
Si Si2 0.343179 0.885214 0.680662
Si Si3 0.547001 0.608711 0.425871
Si Si4 0.754922 0.527957 0.991939
Si Si5 0.795495 0.700378 0.391264
O O1 0.245204 0.611526 0.362040
O O2 0.137811 0.118973 0.905475
O O3 0.936874 0.151311 0.747377
O O4 0.000000 0.000000 0.000000
O O5 0.453778 0.755037 0.755225
O O6 0.243281 0.654896 0.645450
O O7 0.346167 0.288566 0.773841
O O8 0.500000 0.500000 0.500000
O O9 0.412726 0.594591 0.213684
O O10 0.712261 0.082337 0.753395
O O11 0.823730 0.635038 0.247289
#
# Coordination Sequence:
#
# PCOD9036123 Si02
#       5
#     2   2   2   2   2
#     4  10  22  47  75 103 145 190 234 290 362 435
#     4  11  24  45  70 105 145 190 232 286 365 427
#     4  11  25  46  74  97 145 194 239 290 355 434
#     4  11  25  46  72 108 141 188 243 296 356 420
#     4  11  26  43  73 111 145 181 238 304 355 423
#
# _framework density 29.493265999999998
#
# number of rings (size 3 to 8) (size 9 to 14) (size 15 to 20)
#    0.000    1.200    2.000    2.400    5.600    4.800 
#    0.000    6.000    0.000    0.000    0.000    0.000 
#    0.000    0.000    0.000    0.000    0.000    0.000 
#
# Total GULP energy -55784.707233 kJ/mol
# GULP energy per Si atom -5578.470723 kJ/mol
# Density = 2.942614 g / cm^3
# Si number density = 29.493266 Si / 1000 Ang^3
#
#
#
# Elastic Constant Matrix: (Units=GPa)
#
#
# Indices 1 2 3 4 5 6 
#
# 1 116.7011 35.0491 19.2836 -25.5179 -20.0714 16.4687
# 2 35.0491 152.8308 5.7573 -30.3309 -38.2754 16.8321
# 3 19.2836 5.7573 139.3789 -41.0228 -31.0674 24.1758
# 4 -25.5179 -30.3309 -41.0228 47.8243 7.3356 -26.0883
# 5 -20.0714 -38.2754 -31.0674 7.3356 59.7487 -32.0074
# 6 16.4687 16.8321 24.1758 -26.0883 -32.0074 75.7479
#
#
#
# Elastic Compliance Matrix: (Units=1/GPa)
#
#
# Indices 1 2 3 4 5 6 
#
# 1 0.010338 -0.000395 0.001023 0.006239 0.003626 0.001194
# 2 -0.000395 0.010701 0.004365 0.011178 0.009963 0.004375
# 3 0.001023 0.004365 0.012830 0.015051 0.010221 0.004216
# 4 0.006239 0.011178 0.015051 0.050578 0.020131 0.017282
# 5 0.003626 0.009963 0.010221 0.020131 0.035597 0.015710
# 6 0.001194 0.004375 0.004216 0.017282 0.015710 0.023215
#
#
# Mechanical properties :
#
#
# Convention : Reuss Voigt Hill
#
# Bulk Modulus (GPa) = 22.80225 58.78787 40.79506
# Shear Modulus (GPa) = 33.80887 59.91889 46.86388
#
# Velocity S-wave (km/s) = 3.38942 4.51223 3.99051
# Velocity P-wave (km/s) = 4.80267 6.86461 5.92404
#
# Compressibility (1/GPa) = 0.04385533
#
# Stress axis : x y z
#
# Youngs Moduli (GPa) = 96.73473 93.44768 77.94296
#
# Poissons Ratio (x) = 0.03688 -0.07976
# Poissons Ratio (y) = 0.03817 -0.34019
# Poissons Ratio (z) = -0.09899 -0.40787
#
# Static dielectric constant tensor:
#      x y z
#    x 2.414810 -0.161250 0.059160 
#    y -0.161250 2.522430 0.249360 
#    z 0.059160 0.249360 2.366500 
# 
# From -- ./inp_files/287529.got.cif
#   From: 2010.05.17/outbox.cif.g08.bks.cpg/sg2_144_cif.got.tgz:287529.got - 2010.06.03 11:33:40.
