data_PCOD9036910
_publ_section_title
;
Structure prediction by ZEFSAII (Michael W. Deem and Ramdas Pophale) SiO2 
 PCOD9036910
Probable space group: P -1
;
_chemical_formula_sum "Si O2"
_cell_formula_units_Z 12
_cell_length_a 5.311581
_cell_length_b 7.040045
_cell_length_c 15.030295
_cell_angle_alpha 72.548578
_cell_angle_beta 112.841391
_cell_angle_gamma 76.975740
_cell_volume 455.257790
_symmetry_space_group_name_H-M "P -1"
_symmetry_group_IT_number 2
_symmetry_cell_setting 'triclinic'
loop_
_space_group_symop_operation_xyz
x,y,z
-x,-y,-z
loop_
_atom_site_type_symbol
_atom_site_label
_atom_site_fract_x
_atom_site_fract_y
_atom_site_fract_z
Si Si1 0.152568 0.849032 0.670912
Si Si2 0.810071 0.406770 0.109915
Si Si3 0.202054 0.028729 0.102426
Si Si4 0.137684 0.205944 0.820967
Si Si5 0.612165 0.178820 0.458542
Si Si6 0.053935 0.499364 0.404038
O O1 0.191854 0.761595 0.787848
O O2 0.438564 0.822028 0.655463
O O3 0.068829 0.673191 0.628899
O O4 0.925068 0.080710 0.568706
O O5 0.865958 0.602575 0.139450
O O6 0.500000 0.500000 0.000000
O O7 0.062601 0.263217 0.095802
O O8 0.524789 0.970609 0.112584
O O9 0.133884 0.866348 0.184942
O O10 0.000000 0.000000 0.000000
O O11 0.108116 0.288380 0.704354
O O12 0.393765 0.405358 0.432868
O O13 0.500000 0.000000 0.500000
O O14 0.000000 0.500000 0.500000
#
# Coordination Sequence:
#
# PCOD9036910 Si02
#       6
#     2   2   2   2   2   2
#     4   9  21  41  63  96 134 179 236 289 355 429
#     4  11  25  46  76 105 145 198 237 307 367 429
#     4  12  27  49  75 107 148 191 248 301 362 436
#     4  11  28  49  72 111 148 189 246 302 363 441
#     4   9  19  38  62  90 127 173 226 282 345 422
#     4  10  23  39  65  96 136 183 227 296 358 426
#
# _framework density 26.358691
#
# number of rings (size 3 to 8) (size 9 to 14) (size 15 to 20)
#    0.000    1.667    1.667    0.500    7.000    6.667 
#    3.000    0.000    0.000    0.000    0.000    0.000 
#    0.000    0.000    0.000    0.000    0.000    0.000 
#
# Total GULP energy -67012.758694 kJ/mol
# GULP energy per Si atom -5584.396558 kJ/mol
# Density = 2.629870 g / cm^3
# Si number density = 26.358691 Si / 1000 Ang^3
#
#
#
# Elastic Constant Matrix: (Units=GPa)
#
#
# Indices 1 2 3 4 5 6 
#
# 1 54.3717 23.5449 4.5116 0.0932 -10.8259 -8.2308
# 2 23.5449 107.7653 31.3458 25.9195 12.8250 -23.1366
# 3 4.5116 31.3458 145.3449 8.7634 -21.8353 -16.4091
# 4 0.0932 25.9195 8.7634 50.1605 2.8225 3.4106
# 5 -10.8259 12.8250 -21.8353 2.8225 39.5168 5.9539
# 6 -8.2308 -23.1366 -16.4091 3.4106 5.9539 57.1034
#
#
#
# Elastic Compliance Matrix: (Units=1/GPa)
#
#
# Indices 1 2 3 4 5 6 
#
# 1 0.023523 -0.007796 0.002236 0.003053 0.010046 -0.000355
# 2 -0.007796 0.016302 -0.003613 -0.007631 -0.009770 0.005918
# 3 0.002236 -0.003613 0.008640 -0.000056 0.006462 0.000671
# 4 0.003053 -0.007631 -0.000056 0.024053 0.002217 -0.004335
# 5 0.010046 -0.009770 0.006462 0.002217 0.035314 -0.004468
# 6 -0.000355 0.005918 0.000671 -0.004335 -0.004468 0.020776
#
#
# Mechanical properties :
#
#
# Convention : Reuss Voigt Hill
#
# Bulk Modulus (GPa) = 33.20147 47.36518 40.28332
# Shear Modulus (GPa) = 31.84818 45.89477 38.87147
#
# Velocity S-wave (km/s) = 3.47978 4.17725 3.84436
# Velocity P-wave (km/s) = 5.36363 6.42451 5.91789
#
# Compressibility (1/GPa) = 0.03011915
#
# Stress axis : x y z
#
# Youngs Moduli (GPa) = 42.51080 61.34148 115.74130
#
# Poissons Ratio (x) = 0.47822 -0.25881
# Poissons Ratio (y) = 0.33141 0.41822
# Poissons Ratio (z) = -0.09506 0.22165
#
# Static dielectric constant tensor:
#      x y z
#    x 1.403080 0.044610 -0.014610 
#    y 0.044610 2.144750 0.002430 
#    z -0.014610 0.002430 2.111130 
# 
# From -- ./inp_files/479807.got.cif
#   From: 2010.05.17/outbox.cif.g08.bks.cpg/sg2_240_cif.got.tgz:479807.got - 2010.06.03 11:33:40.
