data_PCOD9036925
_publ_section_title
;
Structure prediction by ZEFSAII (Michael W. Deem and Ramdas Pophale) SiO2 
 PCOD9036925
Probable space group: P -1
;
_chemical_formula_sum "Si O2"
_cell_formula_units_Z 16
_cell_length_a 9.185646
_cell_length_b 10.668822
_cell_length_c 13.838796
_cell_angle_alpha 116.235910
_cell_angle_beta 87.490866
_cell_angle_gamma 136.585487
_cell_volume 746.672377
_symmetry_space_group_name_H-M "P -1"
_symmetry_group_IT_number 2
_symmetry_cell_setting 'triclinic'
loop_
_space_group_symop_operation_xyz
x,y,z
-x,-y,-z
loop_
_atom_site_type_symbol
_atom_site_label
_atom_site_fract_x
_atom_site_fract_y
_atom_site_fract_z
Si Si1 0.851709 0.970616 0.076986
Si Si2 0.898337 0.548696 0.457258
Si Si3 0.384132 0.682317 0.899433
Si Si4 0.960174 0.531342 0.902297
Si Si5 0.893726 0.736619 0.099522
Si Si6 0.215022 0.389623 0.345660
Si Si7 0.716680 0.255208 0.624113
Si Si8 0.416825 0.245791 0.288295
O O1 0.770620 0.787299 0.090473
O O2 0.623000 0.881570 0.020915
O O3 0.032180 0.204699 0.206644
O O4 0.000000 0.000000 0.000000
O O5 0.923397 0.699155 0.578758
O O6 0.615672 0.327691 0.377277
O O7 0.000000 0.500000 0.500000
O O8 0.048292 0.648780 0.389426
O O9 0.213416 0.686480 0.900486
O O10 0.478427 0.700726 0.801867
O O11 0.235482 0.448145 0.877066
O O12 0.766949 0.321577 0.760542
O O13 0.908919 0.651482 0.973810
O O14 0.000000 0.500000 0.000000
O O15 0.159018 0.980000 0.208372
O O16 0.305684 0.608293 0.379250
O O17 0.393144 0.394535 0.353998
O O18 0.500000 0.000000 0.500000
#
# Coordination Sequence:
#
# PCOD9036925 Si02
#       8
#     2   2   2   2   2   2   2   2
#     4  11  20  40  64  97 133 171 215 270 339 393
#     4  10  23  43  66  91 128 180 219 271 333 400
#     4  11  22  38  64  97 134 171 213 268 332 398
#     4  10  23  40  63  98 133 171 222 278 336 396
#     4  10  23  39  66 100 134 169 216 273 332 402
#     4  10  23  41  68  93 129 178 219 270 342 400
#     4  11  24  44  67  95 133 174 232 280 328 409
#     4  11  22  44  66  97 138 167 220 279 335 399
#
# _framework density 21.428408000000001
#
# number of rings (size 3 to 8) (size 9 to 14) (size 15 to 20)
#    0.000    1.500    3.750    1.500    0.000    8.500 
#    4.500    0.625    0.000    0.000    0.000    0.000 
#    0.000    0.000    0.000    0.000    0.000    0.000 
#
# Total GULP energy -89202.968023 kJ/mol
# GULP energy per Si atom -5575.185501 kJ/mol
# Density = 2.137964 g / cm^3
# Si number density = 21.428408 Si / 1000 Ang^3
#
#
#
# Elastic Constant Matrix: (Units=GPa)
#
#
# Indices 1 2 3 4 5 6 
#
# 1 87.8764 13.1921 39.3493 14.7522 11.2921 -2.2315
# 2 13.1921 69.6713 27.9829 7.4262 0.4063 -11.0661
# 3 39.3493 27.9829 146.8074 11.5004 8.9260 -3.4628
# 4 14.7522 7.4262 11.5004 34.1324 2.4390 -1.7195
# 5 11.2921 0.4063 8.9260 2.4390 35.4036 5.6958
# 6 -2.2315 -11.0661 -3.4628 -1.7195 5.6958 32.9772
#
#
#
# Elastic Compliance Matrix: (Units=1/GPa)
#
#
# Indices 1 2 3 4 5 6 
#
# 1 0.014106 -0.000826 -0.003031 -0.004607 -0.003525 0.000728
# 2 -0.000826 0.016617 -0.002664 -0.002107 0.000066 0.005119
# 3 -0.003031 -0.002664 0.008256 -0.000825 -0.001011 -0.000101
# 4 -0.004607 -0.002107 -0.000825 0.032103 -0.000619 0.000675
# 5 -0.003525 0.000066 -0.001011 -0.000619 0.030573 -0.005635
# 6 0.000728 0.005119 -0.000101 0.000675 -0.005635 0.033089
#
#
# Mechanical properties :
#
#
# Convention : Reuss Voigt Hill
#
# Bulk Modulus (GPa) = 38.55717 51.71152 45.13435
# Shear Modulus (GPa) = 31.96279 35.42470 33.69375
#
# Velocity S-wave (km/s) = 3.86632 4.07032 3.96964
# Velocity P-wave (km/s) = 6.16148 6.80255 6.48993
#
# Compressibility (1/GPa) = 0.02593551
#
# Stress axis : x y z
#
# Youngs Moduli (GPa) = 70.89338 60.17964 121.13091
#
# Poissons Ratio (x) = 0.04973 0.36714
# Poissons Ratio (y) = 0.05858 0.32270
# Poissons Ratio (z) = 0.21487 0.16032
#
# Static dielectric constant tensor:
#      x y z
#    x 1.853980 -0.021140 0.029240 
#    y -0.021140 1.802730 -0.035310 
#    z 0.029240 -0.035310 1.859960 
# 
# From -- ./inp_files/499302.got.cif
#   From: 2010.05.17/outbox.cif.g08.bks.cpg/sg2_250_cif.got.tgz:499302.got - 2010.06.03 11:33:40.
