data_PCOD9036619
_publ_section_title
;
Structure prediction by ZEFSAII (Michael W. Deem and Ramdas Pophale) SiO2 
 PCOD9036619
Probable space group: P -1
;
_chemical_formula_sum "Si O2"
_cell_formula_units_Z 16
_cell_length_a 15.422353
_cell_length_b 16.069586
_cell_length_c 11.838885
_cell_angle_alpha 120.730411
_cell_angle_beta 151.728786
_cell_angle_gamma 39.039684
_cell_volume 712.981067
_symmetry_space_group_name_H-M "P -1"
_symmetry_group_IT_number 2
_symmetry_cell_setting 'triclinic'
loop_
_space_group_symop_operation_xyz
x,y,z
-x,-y,-z
loop_
_atom_site_type_symbol
_atom_site_label
_atom_site_fract_x
_atom_site_fract_y
_atom_site_fract_z
Si Si1 0.559403 0.478496 0.723765
Si Si2 0.179584 0.152859 0.305724
Si Si3 0.813731 0.993963 0.427459
Si Si4 0.834114 0.670386 0.405800
Si Si5 0.878666 0.458142 0.900664
Si Si6 0.797194 0.001387 0.146949
Si Si7 0.234422 0.636661 0.700494
Si Si8 0.439688 0.100822 0.270473
O O1 0.674219 0.529152 0.829113
O O2 0.319306 0.523449 0.400475
O O3 0.387000 0.567163 0.704999
O O4 0.866071 0.284379 0.966766
O O5 0.153354 0.263944 0.424890
O O6 0.500000 0.000000 0.500000
O O7 0.240550 0.046206 0.398193
O O8 0.905879 0.066666 0.597338
O O9 0.063124 0.811645 0.632659
O O10 0.796519 0.982814 0.266599
O O11 0.509441 0.104504 0.226135
O O12 0.000000 0.500000 0.500000
O O13 0.980658 0.664790 0.463550
O O14 0.480473 0.808123 0.066097
O O15 0.000000 0.500000 0.000000
O O16 0.200886 0.271653 0.173614
O O17 0.720230 0.935736 0.949523
O O18 0.500000 0.500000 0.000000
#
# Coordination Sequence:
#
# PCOD9036619 Si02
#       8
#     2   2   2   2   2   2   2   2
#     4  11  25  45  72 100 141 187 238 297 362 426
#     4  11  22  46  73  96 136 191 235 290 359 423
#     4  11  22  39  65 101 131 175 228 279 348 427
#     4  11  24  42  69 104 144 182 236 297 360 427
#     4  11  27  47  70 100 139 189 242 297 360 433
#     4  10  23  38  64 100 133 178 223 282 352 414
#     4  12  22  41  69 101 144 180 228 298 358 421
#     4  11  22  44  68  92 139 176 228 289 347 417
#
# _framework density 22.440987
#
# number of rings (size 3 to 8) (size 9 to 14) (size 15 to 20)
#    0.000    1.000    5.000    1.875    1.750    5.000 
#    0.000    1.875    0.000    0.000    0.000    0.000 
#    0.000    0.000    0.000    0.000    0.000    0.000 
#
# Total GULP energy -89288.976497 kJ/mol
# GULP energy per Si atom -5580.561031 kJ/mol
# Density = 2.238991 g / cm^3
# Si number density = 22.440987 Si / 1000 Ang^3
#
#
#
# Elastic Constant Matrix: (Units=GPa)
#
#
# Indices 1 2 3 4 5 6 
#
# 1 150.3406 43.4784 9.2876 13.1056 20.1641 -6.6574
# 2 43.4784 32.2889 1.4649 -24.3250 21.0214 -1.1428
# 3 9.2876 1.4649 59.6413 -13.5309 -0.4986 7.3985
# 4 13.1056 -24.3250 -13.5309 27.7772 12.5476 3.6205
# 5 20.1641 21.0214 -0.4986 12.5476 40.2554 -2.0723
# 6 -6.6574 -1.1428 7.3985 3.6205 -2.0723 36.2637
#
#
#
# Elastic Compliance Matrix: (Units=1/GPa)
#
#
# Indices 1 2 3 4 5 6 
#
# 1 0.004476 0.008482 0.001551 0.010719 -0.010038 -0.000871
# 2 0.008482 -0.023326 -0.010675 -0.040047 0.020704 0.008181
# 3 0.001551 -0.010675 0.016057 -0.004811 0.006369 -0.002483
# 4 0.010719 -0.040047 -0.004811 -0.016480 0.020854 0.004524
# 5 -0.010038 0.020704 0.006369 0.020854 0.012438 -0.003861
# 6 -0.000871 0.008181 -0.002483 0.004524 -0.003861 0.027508
#
#
# Mechanical properties :
#
#
# Convention : Reuss Voigt Hill
#
# Bulk Modulus (GPa) = -245.21959 38.97030 -103.12464
# Shear Modulus (GPa) = 242.71241 33.39524 138.05383
#
# Velocity S-wave (km/s) = 10.41108 3.86182 7.85189
# Velocity P-wave (km/s) = 5.91697 6.10641 6.01244
#
# Compressibility (1/GPa) = -0.00407798
#
# Stress axis : x y z
#
# Youngs Moduli (GPa) = 223.40185 -42.87151 62.27660
#
# Poissons Ratio (x) = 0.36362 -0.09656
# Poissons Ratio (y) = -1.89482 0.66482
# Poissons Ratio (z) = -0.34640 -0.45767
#
# Static dielectric constant tensor:
#      x y z
#    x 1.946560 0.026400 0.004390 
#    y 0.026400 1.866780 -0.011930 
#    z 0.004390 -0.011930 1.887080 
# 
# From -- ./inp_files/455845.got.cif
#   From: 2010.05.17/outbox.cif.g08.bks.cpg/sg2_228_cif.got.tgz:455845.got - 2010.06.03 11:33:40.
