data_PCOD9036072
_publ_section_title
;
Structure prediction by ZEFSAII (Michael W. Deem and Ramdas Pophale) SiO2 
 PCOD9036072
Probable space group: P -1
;
_chemical_formula_sum "Si O2"
_cell_formula_units_Z 12
_cell_length_a 10.061231
_cell_length_b 14.504347
_cell_length_c 7.642240
_cell_angle_alpha 88.002974
_cell_angle_beta 83.199342
_cell_angle_gamma 25.505342
_cell_volume 470.025361
_symmetry_space_group_name_H-M "P -1"
_symmetry_group_IT_number 2
_symmetry_cell_setting 'triclinic'
loop_
_space_group_symop_operation_xyz
x,y,z
-x,-y,-z
loop_
_atom_site_type_symbol
_atom_site_label
_atom_site_fract_x
_atom_site_fract_y
_atom_site_fract_z
Si Si1 0.692723 0.257290 0.535105
Si Si2 0.820223 0.752407 0.905498
Si Si3 0.599841 0.141519 0.079421
Si Si4 0.153416 0.095805 0.297801
Si Si5 0.376795 0.281033 0.473557
Si Si6 0.532468 0.584738 0.044374
O O1 0.432920 0.355736 0.477968
O O2 0.603087 0.325435 0.745231
O O3 0.828065 0.262572 0.418858
O O4 0.000000 0.000000 0.500000
O O5 0.739698 0.695459 0.917208
O O6 0.814146 0.967702 0.899919
O O7 0.108920 0.603282 0.987959
O O8 0.500000 0.000000 0.000000
O O9 0.137609 0.216206 0.281852
O O10 0.604642 0.110670 0.284844
O O11 0.624097 0.236253 0.055470
O O12 0.458101 0.870464 0.374043
O O13 0.000000 0.500000 0.500000
O O14 0.500000 0.500000 0.000000
#
# Coordination Sequence:
#
# PCOD9036072 Si02
#       6
#     2   2   2   2   2   2
#     4  10  22  47  72 102 149 191 243 310 361 434
#     4  10  25  45  72 105 151 197 238 309 369 437
#     4  11  24  46  76 101 150 197 245 300 378 433
#     4  10  24  48  71 104 152 190 250 306 367 441
#     4  11  24  40  74 108 140 199 246 298 372 443
#     4  12  26  46  77 113 145 197 254 304 373 444
#
# _framework density 25.530539000000001
#
# number of rings (size 3 to 8) (size 9 to 14) (size 15 to 20)
#    0.000    1.333    3.333    1.500    7.000    7.333 
#    3.000    0.000    0.000    0.000    0.000    0.000 
#    0.000    0.000    0.000    0.000    0.000    0.000 
#
# Total GULP energy -67013.347076 kJ/mol
# GULP energy per Si atom -5584.445590 kJ/mol
# Density = 2.547243 g / cm^3
# Si number density = 25.530539 Si / 1000 Ang^3
#
#
#
# Elastic Constant Matrix: (Units=GPa)
#
#
# Indices 1 2 3 4 5 6 
#
# 1 159.9585 24.3228 34.8355 15.2297 -30.5389 -18.7455
# 2 24.3228 102.8027 23.4376 18.3015 -4.7802 -20.7121
# 3 34.8355 23.4376 130.4440 25.0587 8.6619 0.8498
# 4 15.2297 18.3015 25.0587 39.9667 7.0402 -10.0509
# 5 -30.5389 -4.7802 8.6619 7.0402 66.7378 10.7461
# 6 -18.7455 -20.7121 0.8498 -10.0509 10.7461 38.5396
#
#
#
# Elastic Compliance Matrix: (Units=1/GPa)
#
#
# Indices 1 2 3 4 5 6 
#
# 1 0.007856 -0.000523 -0.001945 -0.001637 0.003638 0.002142
# 2 -0.000523 0.011789 -0.001451 -0.003015 0.000266 0.005253
# 3 -0.001945 -0.001451 0.009523 -0.005084 -0.001223 -0.002921
# 4 -0.001637 -0.003015 -0.005084 0.033040 -0.005033 0.007716
# 5 0.003638 0.000266 -0.001223 -0.005033 0.018068 -0.004411
# 6 0.002142 0.005253 -0.002921 0.007716 -0.004411 0.033119
#
#
# Mechanical properties :
#
#
# Convention : Reuss Voigt Hill
#
# Bulk Modulus (GPa) = 46.88279 62.04413 54.46346
# Shear Modulus (GPa) = 38.95782 49.75612 44.35697
#
# Velocity S-wave (km/s) = 3.91055 4.41941 4.17274
# Velocity P-wave (km/s) = 6.22842 7.09903 6.67793
#
# Compressibility (1/GPa) = 0.02132979
#
# Stress axis : x y z
#
# Youngs Moduli (GPa) = 127.28978 84.82131 105.00585
#
# Poissons Ratio (x) = 0.04438 0.20424
# Poissons Ratio (y) = 0.06661 0.15238
# Poissons Ratio (z) = 0.24759 0.12309
#
# Static dielectric constant tensor:
#      x y z
#    x 2.132120 0.057780 -0.002290 
#    y 0.057780 2.493870 0.145010 
#    z -0.002290 0.145010 2.155930 
# 
# From -- ./inp_files/206227.got.cif
#   From: 2010.05.17/outbox.cif.g08.bks.cpg/sg2_104_cif.got.tgz:206227.got - 2010.06.03 11:33:40.
