data_PCOD9036892
_publ_section_title
;
Structure prediction by ZEFSAII (Michael W. Deem and Ramdas Pophale) SiO2 
 PCOD9036892
Probable space group: P -1
;
_chemical_formula_sum "Si O2"
_cell_formula_units_Z 14
_cell_length_a 13.074972
_cell_length_b 12.326893
_cell_length_c 8.769722
_cell_angle_alpha 109.714474
_cell_angle_beta 136.919146
_cell_angle_gamma 46.786407
_cell_volume 664.928134
_symmetry_space_group_name_H-M "P -1"
_symmetry_group_IT_number 2
_symmetry_cell_setting 'triclinic'
loop_
_space_group_symop_operation_xyz
x,y,z
-x,-y,-z
loop_
_atom_site_type_symbol
_atom_site_label
_atom_site_fract_x
_atom_site_fract_y
_atom_site_fract_z
Si Si1 0.929713 0.770878 0.206881
Si Si2 0.882151 0.004286 0.059540
Si Si3 0.392351 0.417139 0.018682
Si Si4 0.198956 0.708229 0.733832
Si Si5 0.334126 0.487117 0.334104
Si Si6 0.449240 0.153090 0.075324
Si Si7 0.321917 0.856869 0.403748
O O1 0.004335 0.777442 0.454938
O O2 0.129244 0.624927 0.263261
O O3 0.836293 0.930688 0.096556
O O4 0.768837 0.752795 0.036285
O O5 0.830160 0.161819 0.133288
O O6 0.763796 0.037459 0.790331
O O7 0.128227 0.876677 0.241883
O O8 0.616967 0.356069 0.212805
O O9 0.298806 0.474126 0.112815
O O10 0.425786 0.262142 0.970086
O O11 0.260659 0.563393 0.829589
O O12 0.500000 0.500000 0.500000
O O13 0.468913 0.320293 0.488465
O O14 0.615902 0.106565 0.359485
O O15 0.500000 0.000000 0.000000
#
# Coordination Sequence:
#
# PCOD9036892 Si02
#       7
#     2   2   2   2   2   2   2
#     4  12  24  38  70  97 133 176 219 253 342 384
#     4  11  22  39  67 100 121 170 224 274 312 385
#     4  10  23  39  65  92 132 170 216 268 330 364
#     4  11  22  39  67 100 121 170 224 274 312 385
#     4  11  19  41  64  96 130 170 214 280 313 389
#     4  11  24  46  64  95 137 177 207 273 324 402
#     4  10  23  39  65  92 132 170 216 268 330 364
#
# _framework density 21.054908999999999
#
# number of rings (size 3 to 8) (size 9 to 14) (size 15 to 20)
#    0.000    1.143    2.857    3.857    4.000    3.429 
#    0.000    0.000    0.000    0.000    0.000    0.000 
#    0.000    0.000    0.000    0.000    0.000    0.000 
#
# Total GULP energy -78139.016129 kJ/mol
# GULP energy per Si atom -5581.358295 kJ/mol
# Density = 2.100699 g / cm^3
# Si number density = 21.054909 Si / 1000 Ang^3
#
#
#
# Elastic Constant Matrix: (Units=GPa)
#
#
# Indices 1 2 3 4 5 6 
#
# 1 99.5225 43.4470 52.7055 -21.3794 2.3155 22.0447
# 2 43.4470 109.4119 21.9995 -17.4841 -5.4489 12.2776
# 3 52.7055 21.9995 86.4627 -18.0877 -9.4584 24.7734
# 4 -21.3794 -17.4841 -18.0877 19.4378 1.3016 0.0641
# 5 2.3155 -5.4489 -9.4584 1.3016 21.8936 -12.2903
# 6 22.0447 12.2776 24.7734 0.0641 -12.2903 52.4975
#
#
#
# Elastic Compliance Matrix: (Units=1/GPa)
#
#
# Indices 1 2 3 4 5 6 
#
# 1 0.020588 -0.004493 -0.008424 0.011529 -0.011122 -0.006237
# 2 -0.004493 0.012008 0.001893 0.007407 0.003244 -0.001065
# 3 -0.008424 0.001893 0.020817 0.011370 0.006786 -0.005154
# 4 0.011529 0.007407 0.011370 0.081884 -0.007011 -0.013680
# 5 -0.011122 0.003244 0.006786 -0.007011 0.059189 0.014575
# 6 -0.006237 -0.001065 -0.005154 -0.013680 0.014575 0.027777
#
#
# Mechanical properties :
#
#
# Convention : Reuss Voigt Hill
#
# Bulk Modulus (GPa) = 31.88429 59.07789 45.48109
# Shear Modulus (GPa) = 19.62578 30.58211 25.10394
#
# Velocity S-wave (km/s) = 3.05638 3.81529 3.45673
# Velocity P-wave (km/s) = 5.25657 6.89409 6.13026
#
# Compressibility (1/GPa) = 0.03136340
#
# Stress axis : x y z
#
# Youngs Moduli (GPa) = 48.57279 83.27791 48.03748
#
# Poissons Ratio (x) = 0.37418 0.40469
# Poissons Ratio (y) = 0.21824 -0.09093
# Poissons Ratio (z) = 0.40920 -0.15764
#
# Static dielectric constant tensor:
#      x y z
#    x 1.759280 -0.038310 -0.013520 
#    y -0.038310 1.852320 -0.003780 
#    z -0.013520 -0.003780 1.733630 
# 
# From -- ./inp_files/187463.got.cif
#   From: 2010.05.17/outbox.cif.g08.bks.cpg/sg2_94_cif.got.tgz:187463.got - 2010.06.03 11:33:40.
