data_PCOD9036216
_publ_section_title
;
Structure prediction by ZEFSAII (Michael W. Deem and Ramdas Pophale) SiO2 
 PCOD9036216
Probable space group: P -1
;
_chemical_formula_sum "Si O2"
_cell_formula_units_Z 16
_cell_length_a 8.473213
_cell_length_b 15.321225
_cell_length_c 5.172756
_cell_angle_alpha 76.743941
_cell_angle_beta 106.672708
_cell_angle_gamma 96.660644
_cell_volume 625.246975
_symmetry_space_group_name_H-M "P -1"
_symmetry_group_IT_number 2
_symmetry_cell_setting 'triclinic'
loop_
_space_group_symop_operation_xyz
x,y,z
-x,-y,-z
loop_
_atom_site_type_symbol
_atom_site_label
_atom_site_fract_x
_atom_site_fract_y
_atom_site_fract_z
Si Si1 0.172836 0.651825 0.365844
Si Si2 0.117389 0.516645 0.799752
Si Si3 0.844341 0.705085 0.359966
Si Si4 0.053124 0.865386 0.552224
Si Si5 0.679936 0.524904 0.674603
Si Si6 0.364657 0.832787 0.394538
Si Si7 0.844057 0.000360 0.107702
Si Si8 0.586285 0.853752 0.991741
O O1 0.179413 0.617281 0.690275
O O2 0.242282 0.569870 0.298398
O O3 0.297779 0.735352 0.335121
O O4 0.000000 0.500000 0.500000
O O5 0.019063 0.323396 0.770050
O O6 0.278712 0.466479 0.004157
O O7 0.000000 0.500000 0.000000
O O8 0.758709 0.616158 0.514326
O O9 0.710724 0.772620 0.146966
O O10 0.963008 0.767067 0.564737
O O11 0.194207 0.873022 0.391080
O O12 0.899787 0.929298 0.402002
O O13 0.152409 0.903170 0.820554
O O14 0.500000 0.500000 0.500000
O O15 0.480770 0.867639 0.192372
O O16 0.476287 0.831683 0.704815
O O17 0.689165 0.948884 0.938138
O O18 0.000000 0.000000 0.000000
#
# Coordination Sequence:
#
# PCOD9036216 Si02
#       8
#     2   2   2   2   2   2   2   2
#     4  11  24  48  73 100 150 195 260 298 379 449
#     4  12  24  47  72 106 138 195 255 309 370 451
#     4  10  22  48  71 103 139 202 244 314 361 456
#     4   9  23  45  72 106 145 191 247 297 369 451
#     4  12  26  46  75 111 152 195 257 320 391 435
#     4  11  27  47  71 110 150 195 240 311 381 433
#     4  10  23  45  76 107 144 195 245 292 366 459
#     4  11  27  48  71 109 150 186 247 311 378 445
#
# _framework density 25.589887000000001
#
# number of rings (size 3 to 8) (size 9 to 14) (size 15 to 20)
#    0.000    1.250    2.500    1.125   10.500    1.500 
#    9.000    0.000    0.000    0.000    0.000    0.000 
#    0.000    0.000    0.000    0.000    0.000    0.000 
#
# Total GULP energy -89217.059438 kJ/mol
# GULP energy per Si atom -5576.066215 kJ/mol
# Density = 2.553164 g / cm^3
# Si number density = 25.589887 Si / 1000 Ang^3
#
#
#
# Elastic Constant Matrix: (Units=GPa)
#
#
# Indices 1 2 3 4 5 6 
#
# 1 125.7409 61.5991 58.6579 11.5499 21.4201 13.0421
# 2 61.5991 163.0134 42.0623 23.3498 14.9478 18.8772
# 3 58.6579 42.0623 128.6800 7.7361 15.6373 0.4398
# 4 11.5499 23.3498 7.7361 33.8643 4.1972 -3.4274
# 5 21.4201 14.9478 15.6373 4.1972 55.3304 -3.6467
# 6 13.0421 18.8772 0.4398 -3.4274 -3.6467 55.8004
#
#
#
# Elastic Compliance Matrix: (Units=1/GPa)
#
#
# Indices 1 2 3 4 5 6 
#
# 1 0.012076 -0.002838 -0.004167 -0.001075 -0.002786 -0.002078
# 2 -0.002838 0.008550 -0.001116 -0.004845 -0.000697 -0.002563
# 3 -0.004167 -0.001116 0.010131 0.000109 -0.000876 0.001221
# 4 -0.001075 -0.004845 0.000109 0.033684 -0.000602 0.003919
# 5 -0.002786 -0.000697 -0.000876 -0.000602 0.019775 0.002149
# 6 -0.002078 -0.002563 0.001221 0.003919 0.002149 0.019645
#
#
# Mechanical properties :
#
#
# Convention : Reuss Voigt Hill
#
# Bulk Modulus (GPa) = 68.89522 82.45253 75.67388
# Shear Modulus (GPa) = 40.01892 46.00668 43.01280
#
# Velocity S-wave (km/s) = 3.95885 4.24470 4.10427
# Velocity P-wave (km/s) = 6.91939 7.50427 7.21776
#
# Compressibility (1/GPa) = 0.01451480
#
# Stress axis : x y z
#
# Youngs Moduli (GPa) = 82.81064 116.96341 98.70455
#
# Poissons Ratio (x) = 0.33194 0.41127
# Poissons Ratio (y) = 0.23502 0.11018
# Poissons Ratio (z) = 0.34505 0.13056
#
# Static dielectric constant tensor:
#      x y z
#    x 2.133310 -0.009520 0.035900 
#    y -0.009520 2.195380 0.076700 
#    z 0.035900 0.076700 2.361100 
# 
# From -- ./inp_files/38914.got.cif
#   From: 2010.05.17/outbox.cif.g08.bks.cpg/sg2_20_cif.got.tgz:38914.got - 2010.06.03 11:33:40.
