data_PCOD9036140
_publ_section_title
;
Structure prediction by ZEFSAII (Michael W. Deem and Ramdas Pophale) SiO2 
 PCOD9036140
Probable space group: P -1
;
_chemical_formula_sum "Si O2"
_cell_formula_units_Z 16
_cell_length_a 9.302517
_cell_length_b 15.474002
_cell_length_c 4.938887
_cell_angle_alpha 116.624380
_cell_angle_beta 110.579381
_cell_angle_gamma 79.867303
_cell_volume 594.852374
_symmetry_space_group_name_H-M "P -1"
_symmetry_group_IT_number 2
_symmetry_cell_setting 'triclinic'
loop_
_space_group_symop_operation_xyz
x,y,z
-x,-y,-z
loop_
_atom_site_type_symbol
_atom_site_label
_atom_site_fract_x
_atom_site_fract_y
_atom_site_fract_z
Si Si1 0.439378 0.893862 0.303897
Si Si2 0.912573 0.599351 0.996117
Si Si3 0.264373 0.446069 0.692205
Si Si4 0.506137 0.688524 0.630233
Si Si5 0.033293 0.780801 0.624805
Si Si6 0.716494 0.843565 0.780411
Si Si7 0.704804 0.328697 0.019243
Si Si8 0.750806 0.070540 0.270202
O O1 0.584277 0.840029 0.457399
O O2 0.429256 0.673708 0.847179
O O3 0.500000 0.000000 0.500000
O O4 0.381283 0.881629 0.944573
O O5 0.999595 0.695453 0.268831
O O6 0.869414 0.592125 0.645336
O O7 0.252207 0.561048 0.842826
O O8 0.000000 0.500000 0.000000
O O9 0.418319 0.407112 0.595146
O O10 0.237714 0.404902 0.915311
O O11 0.644551 0.765340 0.826718
O O12 0.364138 0.709872 0.359835
O O13 0.292405 0.903081 0.416325
O O14 0.097216 0.876986 0.656312
O O15 0.877561 0.809381 0.716711
O O16 0.157291 0.733446 0.845464
O O17 0.738167 0.953969 0.056854
#
# Coordination Sequence:
#
# PCOD9036140 Si02
#       8
#     2   2   2   2   2   2   2   2
#     4  10  22  47  76 101 141 194 241 295 359 424
#     4  12  26  47  75 105 151 194 239 297 376 434
#     4  12  25  49  76 104 141 196 250 303 358 435
#     4  12  26  47  73 109 141 192 244 301 358 433
#     4  12  27  48  74 112 149 193 243 301 365 438
#     4  11  24  47  74 109 148 191 243 295 363 437
#     4  12  27  47  74 106 147 186 243 303 366 427
#     4  11  25  49  75 107 146 192 242 301 358 426
#
# _framework density 26.897431000000001
#
# number of rings (size 3 to 8) (size 9 to 14) (size 15 to 20)
#    0.000    0.500    2.500    6.000    0.000    3.000 
#    0.000    3.125    0.000    0.000    0.000    0.000 
#    0.000    0.000    0.000    0.000    0.000    0.000 
#
# Total GULP energy -89793.924761 kJ/mol
# GULP energy per Si atom -5612.120298 kJ/mol
# Density = 2.683621 g / cm^3
# Si number density = 26.897431 Si / 1000 Ang^3
#
#
#
# Elastic Constant Matrix: (Units=GPa)
#
#
# Indices 1 2 3 4 5 6 
#
# 1 155.9571 45.1851 40.7692 12.1386 -13.1746 20.1370
# 2 45.1851 118.9463 42.1078 31.6674 5.1404 30.7637
# 3 40.7692 42.1078 163.3119 16.8164 8.2955 17.8776
# 4 12.1386 31.6674 16.8164 49.6732 17.2319 1.2881
# 5 -13.1746 5.1404 8.2955 17.2319 46.3392 8.6278
# 6 20.1370 30.7637 17.8776 1.2881 8.6278 65.3370
#
#
#
# Elastic Compliance Matrix: (Units=1/GPa)
#
#
# Indices 1 2 3 4 5 6 
#
# 1 0.007934 -0.001874 -0.001347 -0.001481 0.003560 -0.001635
# 2 -0.001874 0.013086 -0.001621 -0.007982 0.002257 -0.005281
# 3 -0.001347 -0.001621 0.007064 -0.000623 -0.001125 -0.000594
# 4 -0.001481 -0.007982 -0.000623 0.029620 -0.011427 0.005310
# 5 0.003560 0.002257 -0.001125 -0.011427 0.027778 -0.005295
# 6 -0.001635 -0.005281 -0.000594 0.005310 -0.005295 0.019053
#
#
# Mechanical properties :
#
#
# Convention : Reuss Voigt Hill
#
# Bulk Modulus (GPa) = 54.34511 77.14883 65.74697
# Shear Modulus (GPa) = 41.54481 52.94676 47.24579
#
# Velocity S-wave (km/s) = 3.93436 4.44156 4.19563
# Velocity P-wave (km/s) = 6.39432 7.41944 6.92587
#
# Compressibility (1/GPa) = 0.01840092
#
# Stress axis : x y z
#
# Youngs Moduli (GPa) = 126.03747 76.41573 141.56855
#
# Poissons Ratio (x) = 0.14319 0.19067
# Poissons Ratio (y) = 0.23618 0.22947
# Poissons Ratio (z) = 0.16975 0.12386
#
# Static dielectric constant tensor:
#      x y z
#    x 2.113540 -0.020400 -0.001550 
#    y -0.020400 2.113970 0.013030 
#    z -0.001550 0.013030 2.054170 
# 
# From -- ./inp_files/51994.got.cif
#   From: 2010.05.17/outbox.cif.g08.bks.cpg/sg2_26_cif.got.tgz:51994.got - 2010.06.03 11:33:40.
