data_PCOD9036129
_publ_section_title
;
Structure prediction by ZEFSAII (Michael W. Deem and Ramdas Pophale) SiO2 
 PCOD9036129
Probable space group: P -1
;
_chemical_formula_sum "Si O2"
_cell_formula_units_Z 12
_cell_length_a 18.284524
_cell_length_b 18.437489
_cell_length_c 5.341656
_cell_angle_alpha 126.873947
_cell_angle_beta 52.030069
_cell_angle_gamma 161.595771
_cell_volume 447.240976
_symmetry_space_group_name_H-M "P -1"
_symmetry_group_IT_number 2
_symmetry_cell_setting 'triclinic'
loop_
_space_group_symop_operation_xyz
x,y,z
-x,-y,-z
loop_
_atom_site_type_symbol
_atom_site_label
_atom_site_fract_x
_atom_site_fract_y
_atom_site_fract_z
Si Si1 0.246673 0.801073 0.011634
Si Si2 0.898377 0.836040 0.678367
Si Si3 0.671525 0.786161 0.825615
Si Si4 0.744517 0.507739 0.252191
Si Si5 0.869284 0.258010 0.367063
Si Si6 0.398903 0.110975 0.502511
O O1 0.078544 0.642306 0.276801
O O2 0.254092 0.919031 0.216851
O O3 0.209798 0.744087 0.685509
O O4 0.500000 0.000000 0.000000
O O5 0.673142 0.686112 0.724036
O O6 0.835223 0.677824 0.563397
O O7 0.093045 0.996333 0.384954
O O8 0.000000 0.000000 0.000000
O O9 0.460219 0.633867 0.786317
O O10 0.687374 0.867912 0.197521
O O11 0.644501 0.347865 0.337362
O O12 0.916028 0.608880 0.911171
O O13 0.654816 0.997562 0.362273
#
# Coordination Sequence:
#
# PCOD9036129 Si02
#       6
#     2   2   2   2   2   2
#     4  10  22  47  75 105 147 188 230 302 362 424
#     4  11  25  43  68 100 140 190 246 301 356 423
#     4  11  24  43  65 102 141 189 242 301 353 430
#     4  12  25  45  71 102 144 191 241 295 368 422
#     4  10  24  43  75 105 143 189 237 291 360 430
#     4  10  24  40  74  99 142 185 241 287 364 425
#
# _framework density 26.831174000000001
#
# number of rings (size 3 to 8) (size 9 to 14) (size 15 to 20)
#    1.000    0.333    1.667    3.000    4.667    5.333 
#    0.000    1.667    0.000    0.000    0.000    0.000 
#    0.000    0.000    0.000    0.000    0.000    0.000 
#
# Total GULP energy -67024.650001 kJ/mol
# GULP energy per Si atom -5585.387500 kJ/mol
# Density = 2.677010 g / cm^3
# Si number density = 26.831174 Si / 1000 Ang^3
#
#
#
# Elastic Constant Matrix: (Units=GPa)
#
#
# Indices 1 2 3 4 5 6 
#
# 1 142.5727 59.5779 32.1674 -25.7559 15.4540 18.7236
# 2 59.5779 72.8601 35.7215 -21.7670 14.6038 -21.0964
# 3 32.1674 35.7215 151.3922 -27.5863 11.2460 6.6352
# 4 -25.7559 -21.7670 -27.5863 46.8887 3.2520 5.4246
# 5 15.4540 14.6038 11.2460 3.2520 46.1987 -8.5827
# 6 18.7236 -21.0964 6.6352 5.4246 -8.5827 69.4636
#
#
#
# Elastic Compliance Matrix: (Units=1/GPa)
#
#
# Indices 1 2 3 4 5 6 
#
# 1 0.014349 -0.013213 0.001337 0.003730 -0.002818 -0.008648
# 2 -0.013213 0.032132 -0.004502 0.003657 -0.002454 0.013162
# 3 0.001337 -0.004502 0.008406 0.004081 -0.001931 -0.003088
# 4 0.003730 0.003657 0.004081 0.028264 -0.005987 -0.003232
# 5 -0.002818 -0.002454 -0.001931 -0.005987 0.024952 0.003749
# 6 -0.008648 0.013162 -0.003088 -0.003232 0.003749 0.021735
#
#
# Mechanical properties :
#
#
# Convention : Reuss Voigt Hill
#
# Bulk Modulus (GPa) = 45.18823 69.08430 57.13627
# Shear Modulus (GPa) = 29.41666 48.46743 38.94205
#
# Velocity S-wave (km/s) = 3.31473 4.25477 3.81382
# Velocity P-wave (km/s) = 5.61499 7.06690 6.38237
#
# Compressibility (1/GPa) = 0.02212965
#
# Stress axis : x y z
#
# Youngs Moduli (GPa) = 69.69209 31.12147 118.96156
#
# Poissons Ratio (x) = 0.41122 -0.15905
# Poissons Ratio (y) = 0.92086 0.53561
# Poissons Ratio (z) = -0.09318 0.14012
#
# Static dielectric constant tensor:
#      x y z
#    x 2.124460 0.038010 0.016870 
#    y 0.038010 2.180610 0.059690 
#    z 0.016870 0.059690 2.113210 
# 
# From -- ./inp_files/111520.got.cif
#   From: 2010.05.17/outbox.cif.g08.bks.cpg/sg2_56_cif.got.tgz:111520.got - 2010.06.03 11:33:40.
