data_PCOD9036975
_publ_section_title
;
Structure prediction by ZEFSAII (Michael W. Deem and Ramdas Pophale) SiO2 
 PCOD9036975
Probable space group: P -1
;
_chemical_formula_sum "Si O2"
_cell_formula_units_Z 14
_cell_length_a 12.094930
_cell_length_b 13.720584
_cell_length_c 7.569565
_cell_angle_alpha 65.709861
_cell_angle_beta 112.655856
_cell_angle_gamma 146.053840
_cell_volume 636.974689
_symmetry_space_group_name_H-M "P -1"
_symmetry_group_IT_number 2
_symmetry_cell_setting 'triclinic'
loop_
_space_group_symop_operation_xyz
x,y,z
-x,-y,-z
loop_
_atom_site_type_symbol
_atom_site_label
_atom_site_fract_x
_atom_site_fract_y
_atom_site_fract_z
Si Si1 0.114242 0.005591 0.202988
Si Si2 0.374251 0.113286 0.747616
Si Si3 0.057569 0.708473 0.850604
Si Si4 0.373045 0.317763 0.387804
Si Si5 0.195932 0.349783 0.505999
Si Si6 0.284500 0.657346 0.922751
Si Si7 0.536887 0.899160 0.585363
O O1 0.947766 0.837209 0.353148
O O2 0.261753 0.194295 0.244626
O O3 0.262128 0.007287 0.269243
O O4 0.000000 0.000000 0.000000
O O5 0.320491 0.195415 0.601228
O O6 0.455186 0.125263 0.599467
O O7 0.187261 0.904741 0.832982
O O8 0.534496 0.233788 0.911201
O O9 0.201967 0.713249 0.894729
O O10 0.937656 0.647478 0.641753
O O11 0.893751 0.553265 0.004835
O O12 0.290147 0.369950 0.367879
O O13 0.609311 0.487179 0.382876
O O14 0.362934 0.721275 0.724938
O O15 0.500000 0.000000 0.500000
#
# Coordination Sequence:
#
# PCOD9036975 Si02
#       7
#     2   2   2   2   2   2   2
#     4  11  25  41  65  96 135 170 223 276 324 402
#     4  11  22  43  67  94 132 173 216 271 333 385
#     4  11  22  39  67  98 126 168 224 272 317 403
#     4  10  23  39  67  92 125 174 216 270 332 387
#     4  11  21  42  67  91 131 174 219 271 332 391
#     4  11  24  42  66  97 133 169 224 269 330 390
#     4  11  23  43  68  96 135 175 216 270 335 391
#
# _framework density 21.978894
#
# number of rings (size 3 to 8) (size 9 to 14) (size 15 to 20)
#    0.000    1.143    5.714    0.857    2.000    0.571 
#    0.000    8.571    0.000    0.000    0.000    0.000 
#    0.000    0.000    0.000    0.000    0.000    0.000 
#
# Total GULP energy -78155.432903 kJ/mol
# GULP energy per Si atom -5582.530922 kJ/mol
# Density = 2.192887 g / cm^3
# Si number density = 21.978894 Si / 1000 Ang^3
#
#
#
# Elastic Constant Matrix: (Units=GPa)
#
#
# Indices 1 2 3 4 5 6 
#
# 1 56.1253 48.6692 52.9257 -9.7962 19.7737 4.2884
# 2 48.6692 -23.2546 -109.3621 51.4492 -37.9390 19.0721
# 3 52.9257 -109.3621 -20.4692 50.0965 -14.2762 17.2106
# 4 -9.7962 51.4492 50.0965 23.9531 28.4330 -6.7426
# 5 19.7737 -37.9390 -14.2762 28.4330 28.9070 0.9658
# 6 4.2884 19.0721 17.2106 -6.7426 0.9658 23.1724
#
#
#
# Elastic Compliance Matrix: (Units=1/GPa)
#
#
# Indices 1 2 3 4 5 6 
#
# 1 0.013649 0.002555 0.001456 -0.005585 0.000475 -0.007355
# 2 0.002555 0.005157 -0.005529 0.005152 -0.002812 0.001006
# 3 0.001456 -0.005529 0.008767 0.006832 -0.010649 0.000201
# 4 -0.005585 0.005152 0.006832 0.019354 -0.004998 -0.002442
# 5 0.000475 -0.002812 -0.010649 -0.004998 0.029987 0.007431
# 6 -0.007355 0.001006 0.000201 -0.002442 0.007431 0.042519
#
#
# Mechanical properties :
#
#
# Convention : Reuss Voigt Hill
#
# Bulk Modulus (GPa) = 40.75523 -0.34809 20.20357
# Shear Modulus (GPa) = 38.27090 16.55106 27.41098
#
# Velocity S-wave (km/s) = 4.17736 2.74714 3.53533
# Velocity P-wave (km/s) = 6.46918 3.14701 5.08694
#
# Compressibility (1/GPa) = 0.02453673
#
# Stress axis : x y z
#
# Youngs Moduli (GPa) = 73.26713 193.92087 114.06137
#
# Poissons Ratio (x) = -0.49546 -0.16606
# Poissons Ratio (y) = -0.18719 0.63062
# Poissons Ratio (z) = -0.10667 1.07214
#
# Static dielectric constant tensor:
#      x y z
#    x 1.871740 0.034990 0.081030 
#    y 0.034990 1.832750 0.054740 
#    z 0.081030 0.054740 1.933360 
# 
# From -- ./inp_files/267842.got.cif
#   From: 2010.05.17/outbox.cif.g08.bks.cpg/sg2_134_cif.got.tgz:267842.got - 2010.06.03 11:33:40.
