data_PCOD9036574
_publ_section_title
;
Structure prediction by ZEFSAII (Michael W. Deem and Ramdas Pophale) SiO2 
 PCOD9036574
Probable space group: P -1
;
_chemical_formula_sum "Si O2"
_cell_formula_units_Z 12
_cell_length_a 13.281362
_cell_length_b 5.444668
_cell_length_c 15.941605
_cell_angle_alpha 83.843778
_cell_angle_beta 29.056249
_cell_angle_gamma 98.437053
_cell_volume 482.706272
_symmetry_space_group_name_H-M "P -1"
_symmetry_group_IT_number 2
_symmetry_cell_setting 'triclinic'
loop_
_space_group_symop_operation_xyz
x,y,z
-x,-y,-z
loop_
_atom_site_type_symbol
_atom_site_label
_atom_site_fract_x
_atom_site_fract_y
_atom_site_fract_z
Si Si1 0.274217 0.401860 0.805961
Si Si2 0.947875 0.351877 0.453294
Si Si3 0.295491 0.177202 0.162548
Si Si4 0.029542 0.567705 0.836832
Si Si5 0.704637 0.166984 0.951444
Si Si6 0.568660 0.074148 0.605258
O O1 0.153347 0.430754 0.808159
O O2 0.393840 0.205879 0.715912
O O3 0.453941 0.734988 0.688651
O O4 0.074745 0.292139 0.028367
O O5 0.690179 0.193246 0.603336
O O6 0.000000 0.500000 0.500000
O O7 0.054669 0.140984 0.375342
O O8 0.117105 0.605977 0.256279
O O9 0.262523 0.094060 0.091496
O O10 0.500000 0.500000 0.000000
O O11 0.431552 0.064315 0.128111
O O12 0.222456 0.779518 0.622202
O O13 0.807432 0.316919 0.957604
#
# Coordination Sequence:
#
# PCOD9036574 Si02
#       6
#     2   2   2   2   2   2
#     4  11  26  47  70 108 135 186 237 284 349 415
#     4  10  23  38  61  94 129 176 217 281 337 410
#     4   9  19  37  59  88 122 164 218 262 336 400
#     4  10  24  45  73 100 139 185 229 294 344 413
#     4   9  20  40  62  91 127 175 218 279 339 404
#     4  11  26  46  71 104 143 181 231 291 348 410
#
# _framework density 24.859842
#
# number of rings (size 3 to 8) (size 9 to 14) (size 15 to 20)
#    0.000    2.000    0.000    1.000    7.000    8.667 
#    9.000    0.000    0.000    0.000    0.000    0.000 
#    0.000    0.000    0.000    0.000    0.000    0.000 
#
# Total GULP energy -67087.171478 kJ/mol
# GULP energy per Si atom -5590.597623 kJ/mol
# Density = 2.480326 g / cm^3
# Si number density = 24.859842 Si / 1000 Ang^3
#
#
#
# Elastic Constant Matrix: (Units=GPa)
#
#
# Indices 1 2 3 4 5 6 
#
# 1 116.8566 6.3982 24.2487 -11.3609 -0.2675 34.5672
# 2 6.3982 79.8758 22.3637 -8.6251 -6.7873 12.1579
# 3 24.2487 22.3637 86.6387 6.1863 -4.9056 -6.0930
# 4 -11.3609 -8.6251 6.1863 35.0568 0.6706 -6.4933
# 5 -0.2675 -6.7873 -4.9056 0.6706 47.8116 -2.9006
# 6 34.5672 12.1579 -6.0930 -6.4933 -2.9006 29.6355
#
#
#
# Elastic Compliance Matrix: (Units=1/GPa)
#
#
# Indices 1 2 3 4 5 6 
#
# 1 0.017023 0.004590 -0.007904 0.003872 -0.001493 -0.022661
# 2 0.004590 0.016460 -0.006673 0.004396 0.000862 -0.012431
# 3 -0.007904 -0.006673 0.016923 -0.004515 0.001695 0.014612
# 4 0.003872 0.004396 -0.004515 0.031598 -0.000282 -0.000352
# 5 -0.001493 0.000862 0.001695 -0.000282 0.021436 0.003773
# 6 -0.022661 -0.012431 0.014612 -0.000352 0.003773 0.068572
#
#
# Mechanical properties :
#
#
# Convention : Reuss Voigt Hill
#
# Bulk Modulus (GPa) = 32.85999 43.26581 38.06290
# Shear Modulus (GPa) = 24.73668 37.85815 31.29742
#
# Velocity S-wave (km/s) = 3.15786 3.90662 3.55202
# Velocity P-wave (km/s) = 5.15198 6.14741 5.67157
#
# Compressibility (1/GPa) = 0.03043214
#
# Stress axis : x y z
#
# Youngs Moduli (GPa) = 58.74499 60.75354 59.09223
#
# Poissons Ratio (x) = -0.27885 0.46705
# Poissons Ratio (y) = -0.26963 0.39430
# Poissons Ratio (z) = 0.46431 0.40539
#
# Static dielectric constant tensor:
#      x y z
#    x 2.022140 -0.101590 0.025080 
#    y -0.101590 2.185420 0.043010 
#    z 0.025080 0.043010 2.014900 
# 
# From -- ./inp_files/44532.got.cif
#   From: 2010.05.17/outbox.cif.g08.bks.cpg/sg2_23_cif.got.tgz:44532.got - 2010.06.03 11:33:40.
