data_PCOD9036127
_publ_section_title
;
Structure prediction by ZEFSAII (Michael W. Deem and Ramdas Pophale) SiO2 
 PCOD9036127
Probable space group: P -1
;
_chemical_formula_sum "Si O2"
_cell_formula_units_Z 14
_cell_length_a 13.353165
_cell_length_b 13.498271
_cell_length_c 8.896093
_cell_angle_alpha 43.025997
_cell_angle_beta 74.972040
_cell_angle_gamma 40.962836
_cell_volume 542.319792
_symmetry_space_group_name_H-M "P -1"
_symmetry_group_IT_number 2
_symmetry_cell_setting 'triclinic'
loop_
_space_group_symop_operation_xyz
x,y,z
-x,-y,-z
loop_
_atom_site_type_symbol
_atom_site_label
_atom_site_fract_x
_atom_site_fract_y
_atom_site_fract_z
Si Si1 0.244916 0.983985 0.975462
Si Si2 0.369856 0.291886 0.789382
Si Si3 0.752533 0.342895 0.790166
Si Si4 0.263363 0.102806 0.528877
Si Si5 0.373147 0.744447 0.660725
Si Si6 0.954017 0.919549 0.795940
Si Si7 0.739460 0.593174 0.962565
O O1 0.270172 0.785642 0.135733
O O2 0.461674 0.787998 0.153321
O O3 0.106374 0.142851 0.001760
O O4 0.180241 0.155538 0.665029
O O5 0.219119 0.552749 0.443666
O O6 0.257430 0.389382 0.879451
O O7 0.500000 0.000000 0.000000
O O8 0.543100 0.631946 0.633798
O O9 0.930571 0.114775 0.095858
O O10 0.204486 0.326384 0.234707
O O11 0.230608 0.018871 0.509579
O O12 0.507753 0.825072 0.761735
O O13 0.500000 0.500000 0.000000
O O14 0.252701 0.798433 0.522863
O O15 0.112601 0.698026 0.849226
#
# Coordination Sequence:
#
# PCOD9036127 Si02
#       7
#     2   2   2   2   2   2   2
#     4  11  25  47  74 112 151 201 251 310 379 443
#     4  11  25  48  81 107 154 206 249 307 385 448
#     4  12  25  50  74 110 157 199 251 314 373 454
#     4  10  22  47  75 104 153 200 243 313 377 444
#     4  12  25  47  75 106 151 196 247 313 382 445
#     4  12  28  45  77 114 148 197 259 308 376 450
#     4  10  24  45  76 112 147 197 253 306 377 447
#
# _framework density 25.815027000000001
#
# number of rings (size 3 to 8) (size 9 to 14) (size 15 to 20)
#    0.000    0.857    4.286    1.714    4.000    2.857 
#    2.571    0.000    0.000    0.000    0.000    0.000 
#    0.000    0.000    0.000    0.000    0.000    0.000 
#
# Total GULP energy -78422.478033 kJ/mol
# GULP energy per Si atom -5601.605574 kJ/mol
# Density = 2.575627 g / cm^3
# Si number density = 25.815027 Si / 1000 Ang^3
#
#
#
# Elastic Constant Matrix: (Units=GPa)
#
#
# Indices 1 2 3 4 5 6 
#
# 1 107.0160 23.7310 62.4049 11.3003 8.3041 5.0320
# 2 23.7310 183.3717 46.6576 30.2264 -13.8554 -11.0614
# 3 62.4049 46.6576 118.2439 32.1720 11.6840 6.5432
# 4 11.3003 30.2264 32.1720 45.0064 -5.7111 -4.7846
# 5 8.3041 -13.8554 11.6840 -5.7111 45.0677 6.7145
# 6 5.0320 -11.0614 6.5432 -4.7846 6.7145 40.3701
#
#
#
# Elastic Compliance Matrix: (Units=1/GPa)
#
#
# Indices 1 2 3 4 5 6 
#
# 1 0.013673 -0.000203 -0.007675 0.002130 -0.000290 -0.000215
# 2 -0.000203 0.006688 -0.002156 -0.002466 0.002107 0.001565
# 3 -0.007675 -0.002156 0.016431 -0.009198 -0.004275 -0.002676
# 4 0.002130 -0.002466 -0.009198 0.030869 0.004634 0.003437
# 5 -0.000290 0.002107 -0.004275 0.004634 0.024927 -0.002290
# 6 -0.000215 0.001565 -0.002676 0.003437 -0.002290 0.026448
#
#
# Mechanical properties :
#
#
# Convention : Reuss Voigt Hill
#
# Bulk Modulus (GPa) = 59.78891 74.91316 67.35104
# Shear Modulus (GPa) = 34.55944 44.47803 39.51874
#
# Velocity S-wave (km/s) = 3.66284 4.15535 3.91684
# Velocity P-wave (km/s) = 6.41087 7.21836 6.82657
#
# Compressibility (1/GPa) = 0.01672551
#
# Stress axis : x y z
#
# Youngs Moduli (GPa) = 73.13949 149.51538 60.85905
#
# Poissons Ratio (x) = 0.03028 0.46708
# Poissons Ratio (y) = 0.01481 0.13121
# Poissons Ratio (z) = 0.56133 0.32235
#
# Static dielectric constant tensor:
#      x y z
#    x 2.026190 0.000250 0.031910 
#    y 0.000250 2.054950 0.009810 
#    z 0.031910 0.009810 2.075330 
# 
# From -- ./inp_files/314618.got.cif
#   From: 2010.05.17/outbox.cif.g08.bks.cpg/sg2_158_cif.got.tgz:314618.got - 2010.06.03 11:33:40.
