data_PCOD9036835
_publ_section_title
;
Structure prediction by ZEFSAII (Michael W. Deem and Ramdas Pophale) SiO2 
 PCOD9036835
Probable space group: P -1
;
_chemical_formula_sum "Si O2"
_cell_formula_units_Z 16
_cell_length_a 17.002788
_cell_length_b 26.653415
_cell_length_c 19.176209
_cell_angle_alpha 18.046713
_cell_angle_beta 27.772340
_cell_angle_gamma 17.605816
_cell_volume 792.650208
_symmetry_space_group_name_H-M "P -1"
_symmetry_group_IT_number 2
_symmetry_cell_setting 'triclinic'
loop_
_space_group_symop_operation_xyz
x,y,z
-x,-y,-z
loop_
_atom_site_type_symbol
_atom_site_label
_atom_site_fract_x
_atom_site_fract_y
_atom_site_fract_z
Si Si1 0.158215 0.155175 0.783685
Si Si2 0.821999 0.226050 0.524579
Si Si3 0.580980 0.746181 0.477550
Si Si4 0.707190 0.338818 0.112484
Si Si5 0.757129 0.593723 0.837427
Si Si6 0.179810 0.116919 0.653561
Si Si7 0.204072 0.760680 0.315775
Si Si8 0.059735 0.133652 0.311320
O O1 0.367995 0.136811 0.668011
O O2 0.167937 0.104724 0.761478
O O3 0.867948 0.453676 0.625660
O O4 0.202570 0.958336 0.053297
O O5 0.501249 0.471240 0.450575
O O6 0.886188 0.235546 0.541502
O O7 0.928317 0.235546 0.358137
O O8 0.983019 0.935800 0.780354
O O9 0.407345 0.729709 0.666606
O O10 0.376892 0.939036 0.320605
O O11 0.500000 0.500000 0.000000
O O12 0.686582 0.518449 0.932685
O O13 0.892494 0.646976 0.624906
O O14 0.484092 0.856056 0.739318
O O15 0.922804 0.371601 0.057503
O O16 0.992134 0.144724 0.717097
O O17 0.000000 0.000000 0.500000
#
# Coordination Sequence:
#
# PCOD9036835 Si02
#       8
#     2   2   2   2   2   2   2   2
#     4  11  23  42  64  93 130 170 213 259 318 382
#     4  10  23  40  64  94 123 163 221 254 322 380
#     4  10  23  39  63  95 122 160 222 255 319 374
#     4  11  20  39  66  85 123 165 204 272 311 365
#     4  11  23  41  61  96 123 161 221 260 317 376
#     4  11  25  40  64  93 129 170 216 256 320 384
#     4  11  24  41  63  92 133 171 208 260 321 382
#     4  11  22  41  67  94 124 165 215 265 317 370
#
# _framework density 20.185448999999998
#
# number of rings (size 3 to 8) (size 9 to 14) (size 15 to 20)
#    0.000    1.250    2.500    4.125    1.750    6.000 
#    0.000    5.000    0.000    0.000    0.000    0.000 
#    0.000    0.000    0.000    0.000    0.000    0.000 
#
# Total GULP energy -89173.386549 kJ/mol
# GULP energy per Si atom -5573.336659 kJ/mol
# Density = 2.013951 g / cm^3
# Si number density = 20.185449 Si / 1000 Ang^3
#
#
#
# Elastic Constant Matrix: (Units=GPa)
#
#
# Indices 1 2 3 4 5 6 
#
# 1 112.0225 16.0925 42.3547 21.8853 26.6354 -11.6063
# 2 16.0925 44.0648 11.2257 -3.8680 7.6784 -0.0684
# 3 42.3547 11.2257 112.8226 8.8758 23.6183 -10.7609
# 4 21.8853 -3.8680 8.8758 35.6878 -2.9298 -4.8307
# 5 26.6354 7.6784 23.6183 -2.9298 50.9915 -9.5510
# 6 -11.6063 -0.0684 -10.7609 -4.8307 -9.5510 38.6290
#
#
#
# Elastic Compliance Matrix: (Units=1/GPa)
#
#
# Indices 1 2 3 4 5 6 
#
# 1 0.013619 -0.004034 -0.002808 -0.008424 -0.005524 0.000883
# 2 -0.004034 0.025132 -0.001304 0.005291 -0.000978 -0.001111
# 3 -0.002808 -0.001304 0.010942 -0.001239 -0.003243 0.001246
# 4 -0.008424 0.005291 -0.001239 0.035059 0.006790 0.003196
# 5 -0.005524 -0.000978 -0.003243 0.006790 0.025391 0.004562
# 6 0.000883 -0.001111 0.001246 0.003196 0.004562 0.028025
#
#
# Mechanical properties :
#
#
# Convention : Reuss Voigt Hill
#
# Bulk Modulus (GPa) = 29.93780 45.36174 37.64977
# Shear Modulus (GPa) = 30.19446 38.34412 34.26929
#
# Velocity S-wave (km/s) = 3.87182 4.36316 4.12481
# Velocity P-wave (km/s) = 5.90352 6.92128 6.43256
#
# Compressibility (1/GPa) = 0.03340259
#
# Stress axis : x y z
#
# Youngs Moduli (GPa) = 73.42833 39.78948 91.38727
#
# Poissons Ratio (x) = 0.16050 0.25659
# Poissons Ratio (y) = 0.29619 0.11916
# Poissons Ratio (z) = 0.20617 0.05188
#
# Static dielectric constant tensor:
#      x y z
#    x 1.852310 -0.108390 0.095290 
#    y -0.108390 1.837300 -0.092670 
#    z 0.095290 -0.092670 1.716480 
# 
# From -- ./inp_files/574402.got.cif
#   From: 2010.05.17/outbox.cif.g08.bks.cpg/sg2_288_cif.got.tgz:574402.got - 2010.06.03 11:33:40.
