data_PCOD9036009
_publ_section_title
;
Structure prediction by ZEFSAII (Michael W. Deem and Ramdas Pophale) SiO2 
 PCOD9036009
Probable space group: P -1
;
_chemical_formula_sum "Si O2"
_cell_formula_units_Z 16
_cell_length_a 8.871646
_cell_length_b 13.121872
_cell_length_c 7.463769
_cell_angle_alpha 62.923902
_cell_angle_beta 68.643419
_cell_angle_gamma 72.596155
_cell_volume 711.149311
_symmetry_space_group_name_H-M "P -1"
_symmetry_group_IT_number 2
_symmetry_cell_setting 'triclinic'
loop_
_space_group_symop_operation_xyz
x,y,z
-x,-y,-z
loop_
_atom_site_type_symbol
_atom_site_label
_atom_site_fract_x
_atom_site_fract_y
_atom_site_fract_z
Si Si1 0.431534 0.695004 0.236695
Si Si2 0.560393 0.716788 0.556322
Si Si3 0.615458 0.859216 0.868254
Si Si4 0.673758 0.483942 0.837311
Si Si5 0.196448 0.729786 0.850715
Si Si6 0.966522 0.872579 0.555433
Si Si7 0.331083 0.060036 0.813851
Si Si8 0.871692 0.124053 0.881486
O O1 0.505147 0.675250 0.417529
O O2 0.349972 0.593067 0.266786
O O3 0.567049 0.732031 0.013113
O O4 0.294968 0.810581 0.199221
O O5 0.688578 0.612845 0.668464
O O6 0.386179 0.742573 0.716725
O O7 0.642415 0.830260 0.402336
O O8 0.782809 0.862272 0.693620
O O9 0.469449 0.953434 0.778866
O O10 0.636387 0.899723 0.030980
O O11 0.500000 0.500000 0.000000
O O12 0.797499 0.402854 0.979703
O O13 0.126338 0.807756 0.988142
O O14 0.088169 0.776046 0.690810
O O15 0.999436 0.863460 0.338136
O O16 0.000000 0.000000 0.500000
O O17 0.166778 0.003641 0.953794
#
# Coordination Sequence:
#
# PCOD9036009 Si02
#       8
#     2   2   2   2   2   2   2   2
#     4   9  17  34  60  87 110 149 190 237 285 335
#     4  10  17  32  60  86 110 151 190 238 284 325
#     4   9  18  31  57  84 116 146 189 230 285 344
#     4   9  19  34  56  88 115 142 194 246 276 329
#     4  10  22  36  55  87 118 146 194 240 276 342
#     4  12  21  36  59  83 117 161 182 227 295 346
#     4   9  17  34  56  87 116 144 188 239 277 340
#     4  10  20  36  58  86 119 150 188 232 290 339
#
# _framework density 22.498788999999999
#
# number of rings (size 3 to 8) (size 9 to 14) (size 15 to 20)
#    0.000    2.250    2.500    1.875    0.000    1.000 
#    0.000    2.500   11.000    6.000    0.000    0.000 
#    0.000    0.000    0.000    0.000    0.000    0.000 
#
# Total GULP energy -89402.966441 kJ/mol
# GULP energy per Si atom -5587.685403 kJ/mol
# Density = 2.244758 g / cm^3
# Si number density = 22.498789 Si / 1000 Ang^3
#
#
#
# Elastic Constant Matrix: (Units=GPa)
#
#
# Indices 1 2 3 4 5 6 
#
# 1 57.0722 17.6344 49.5490 6.8311 2.1170 -10.7333
# 2 17.6344 82.3309 72.3124 -5.4658 3.5201 -9.8770
# 3 49.5490 72.3124 172.0154 -8.6834 3.4827 -21.2991
# 4 6.8311 -5.4658 -8.6834 43.7860 -11.0105 4.9009
# 5 2.1170 3.5201 3.4827 -11.0105 53.8707 6.8620
# 6 -10.7333 -9.8770 -21.2991 4.9009 6.8620 20.1136
#
#
#
# Elastic Compliance Matrix: (Units=1/GPa)
#
#
# Indices 1 2 3 4 5 6 
#
# 1 0.026256 0.001674 -0.007324 -0.007329 -0.003444 0.010038
# 2 0.001674 0.019434 -0.008396 0.000030 -0.001027 0.001889
# 3 -0.007324 -0.008396 0.012089 0.001986 -0.000089 0.004317
# 4 -0.007329 0.000030 0.001986 0.027397 0.007147 -0.010907
# 5 -0.003444 -0.001027 -0.000089 0.007147 0.021707 -0.011584
# 6 0.010038 0.001889 0.004317 -0.010907 -0.011584 0.067183
#
#
# Mechanical properties :
#
#
# Convention : Reuss Voigt Hill
#
# Bulk Modulus (GPa) = 33.68392 65.60111 49.64252
# Shear Modulus (GPa) = 23.57881 35.01558 29.29719
#
# Velocity S-wave (km/s) = 3.24080 3.94932 3.61247
# Velocity P-wave (km/s) = 5.38588 7.07227 6.28589
#
# Compressibility (1/GPa) = 0.02968775
#
# Stress axis : x y z
#
# Youngs Moduli (GPa) = 38.08669 51.45550 82.71866
#
# Poissons Ratio (x) = -0.08614 0.60583
# Poissons Ratio (y) = -0.06376 0.69449
# Poissons Ratio (z) = 0.27895 0.43201
#
# Static dielectric constant tensor:
#      x y z
#    x 1.862870 -0.025180 0.022620 
#    y -0.025180 1.841260 -0.013650 
#    z 0.022620 -0.013650 1.852180 
# 
# From -- ./inp_files/199774.got.cif
#   From: 2010.05.17/outbox.cif.g08.bks.cpg/sg2_100_cif.got.tgz:199774.got - 2010.06.03 11:33:40.
