data_PCOD9036712
_publ_section_title
;
Structure prediction by ZEFSAII (Michael W. Deem and Ramdas Pophale) SiO2 
 PCOD9036712
Probable space group: P -1
;
_chemical_formula_sum "Si O2"
_cell_formula_units_Z 16
_cell_length_a 14.592674
_cell_length_b 21.093524
_cell_length_c 6.625796
_cell_angle_alpha 111.268903
_cell_angle_beta 126.797015
_cell_angle_gamma 26.655151
_cell_volume 642.580920
_symmetry_space_group_name_H-M "P -1"
_symmetry_group_IT_number 2
_symmetry_cell_setting 'triclinic'
loop_
_space_group_symop_operation_xyz
x,y,z
-x,-y,-z
loop_
_atom_site_type_symbol
_atom_site_label
_atom_site_fract_x
_atom_site_fract_y
_atom_site_fract_z
Si Si1 0.145466 0.027132 0.629903
Si Si2 0.550624 0.059115 0.759882
Si Si3 0.937506 0.182244 0.128258
Si Si4 0.093001 0.526204 0.207277
Si Si5 0.511562 0.660647 0.134735
Si Si6 0.638395 0.228568 0.348657
Si Si7 0.781283 0.795553 0.856190
Si Si8 0.334519 0.557279 0.163538
O O1 0.051487 0.125997 0.440481
O O2 0.880658 0.152725 0.561868
O O3 0.245377 0.900368 0.536797
O O4 0.393742 0.924678 0.957693
O O5 0.561038 0.975558 0.764058
O O6 0.802378 0.945813 0.816637
O O7 0.294864 0.206082 0.446968
O O8 0.751649 0.214296 0.930007
O O9 0.727836 0.352167 0.979052
O O10 0.226010 0.461682 0.530028
O O11 0.355883 0.402097 0.272426
O O12 0.000000 0.500000 0.000000
O O13 0.857451 0.705787 0.038101
O O14 0.425275 0.757784 0.953857
O O15 0.561482 0.564863 0.959664
O O16 0.051782 0.690434 0.045600
O O17 0.500000 0.500000 0.500000
#
# Coordination Sequence:
#
# PCOD9036712 Si02
#       8
#     2   2   2   2   2   2   2   2
#     4  10  23  42  72  93 134 175 221 277 328 397
#     4  10  23  44  66  93 139 173 215 276 340 389
#     4  10  23  38  70 103 121 174 219 270 338 401
#     4  12  27  43  69  96 137 181 226 272 326 402
#     4  11  24  42  69 100 131 173 225 275 337 391
#     4  10  24  45  63 102 131 173 228 276 326 390
#     4  10  24  44  64  97 135 174 215 281 331 392
#     4  11  23  42  73  99 138 169 215 286 338 394
#
# _framework density 24.899585999999999
#
# number of rings (size 3 to 8) (size 9 to 14) (size 15 to 20)
#    0.000    1.500    1.250    1.875   12.250    1.500 
#    0.000    5.625    0.000    0.000    0.000    0.000 
#    0.000    0.000    0.000    0.000    0.000    0.000 
#
# Total GULP energy -89398.396676 kJ/mol
# GULP energy per Si atom -5587.399792 kJ/mol
# Density = 2.484291 g / cm^3
# Si number density = 24.899586 Si / 1000 Ang^3
#
#
#
# Elastic Constant Matrix: (Units=GPa)
#
#
# Indices 1 2 3 4 5 6 
#
# 1 78.4394 20.8907 44.9054 4.0665 -8.1653 0.6803
# 2 20.8907 48.8170 12.5847 -0.7765 -2.4817 -5.8728
# 3 44.9054 12.5847 220.5253 -8.4115 17.3335 17.4202
# 4 4.0665 -0.7765 -8.4115 29.2236 8.4555 -0.6029
# 5 -8.1653 -2.4817 17.3335 8.4555 35.9606 -9.0007
# 6 0.6803 -5.8728 17.4202 -0.6029 -9.0007 36.2041
#
#
#
# Elastic Compliance Matrix: (Units=1/GPa)
#
#
# Indices 1 2 3 4 5 6 
#
# 1 0.017954 -0.005929 -0.004384 -0.006147 0.007894 0.002670
# 2 -0.005929 0.023833 -0.000607 0.000934 0.001540 0.004668
# 3 -0.004384 -0.000607 0.006484 0.004189 -0.006307 -0.004634
# 4 -0.006147 0.000934 0.004189 0.040248 -0.013952 -0.004547
# 5 0.007894 0.001540 -0.006307 -0.013952 0.039193 0.012648
# 6 0.002670 0.004668 -0.004634 -0.004547 0.012648 0.033627
#
#
# Mechanical properties :
#
#
# Convention : Reuss Voigt Hill
#
# Bulk Modulus (GPa) = 37.83206 56.06035 46.94620
# Shear Modulus (GPa) = 26.04328 38.23774 32.14051
#
# Velocity S-wave (km/s) = 3.23760 3.92302 3.59668
# Velocity P-wave (km/s) = 5.40397 6.56381 6.01192
#
# Compressibility (1/GPa) = 0.02643261
#
# Stress axis : x y z
#
# Youngs Moduli (GPa) = 55.69642 41.95876 154.23721
#
# Poissons Ratio (x) = 0.24875 0.67612
# Poissons Ratio (y) = 0.33020 0.09362
# Poissons Ratio (z) = 0.24415 0.02547
#
# Static dielectric constant tensor:
#      x y z
#    x 2.000760 0.010960 -0.053070 
#    y 0.010960 2.054580 0.033120 
#    z -0.053070 0.033120 2.032690 
# 
# From -- ./inp_files/101251.got.cif
#   From: 2010.05.17/outbox.cif.g08.bks.cpg/sg2_51_cif.got.tgz:101251.got - 2010.06.03 11:33:40.
