data_PCOD9036106
_publ_section_title
;
Structure prediction by ZEFSAII (Michael W. Deem and Ramdas Pophale) SiO2 
 PCOD9036106
Probable space group: P -1
;
_chemical_formula_sum "Si O2"
_cell_formula_units_Z 16
_cell_length_a 9.427830
_cell_length_b 23.352152
_cell_length_c 9.954406
_cell_angle_alpha 27.481327
_cell_angle_beta 43.309609
_cell_angle_gamma 43.962989
_cell_volume 674.354442
_symmetry_space_group_name_H-M "P -1"
_symmetry_group_IT_number 2
_symmetry_cell_setting 'triclinic'
loop_
_space_group_symop_operation_xyz
x,y,z
-x,-y,-z
loop_
_atom_site_type_symbol
_atom_site_label
_atom_site_fract_x
_atom_site_fract_y
_atom_site_fract_z
Si Si1 0.853337 0.753609 0.563439
Si Si2 0.656707 0.593589 0.209503
Si Si3 0.714988 0.234212 0.734021
Si Si4 0.645414 0.275478 0.382288
Si Si5 0.752063 0.975028 0.382683
Si Si6 0.947411 0.858173 0.749126
Si Si7 0.985945 0.418065 0.810793
Si Si8 0.320052 0.131329 0.833337
O O1 0.842799 0.844693 0.511392
O O2 0.762299 0.840727 0.318682
O O3 0.103787 0.691173 0.507695
O O4 0.716819 0.652683 0.906197
O O5 0.500000 0.500000 0.500000
O O6 0.505887 0.706315 0.165606
O O7 0.878316 0.542986 0.242626
O O8 0.683846 0.233881 0.596906
O O9 0.804505 0.093342 0.023342
O O10 0.415270 0.254481 0.549284
O O11 0.801176 0.176699 0.379802
O O12 0.745021 0.400865 0.040469
O O13 0.832003 0.963377 0.504395
O O14 0.500000 0.000000 0.500000
O O15 0.895742 0.726687 0.007247
O O16 0.865072 0.877403 0.915971
O O17 0.000000 0.500000 0.500000
O O18 0.500000 0.000000 0.000000
#
# Coordination Sequence:
#
# PCOD9036106 Si02
#       8
#     2   2   2   2   2   2   2   2
#     4  12  25  45  66 112 138 178 236 285 350 412
#     4  12  27  47  70 102 143 178 232 300 347 403
#     4  12  24  44  78 100 135 187 234 283 348 421
#     4  10  23  45  69  96 136 176 235 273 336 412
#     4  12  20  41  76  98 137 183 229 281 339 416
#     4  10  23  45  66  98 138 176 234 270 334 420
#     4  10  22  47  73  94 132 181 237 279 339 408
#     4  12  27  41  65 106 148 178 219 281 354 408
#
# _framework density 23.726396000000001
#
# number of rings (size 3 to 8) (size 9 to 14) (size 15 to 20)
#    0.750    0.000    5.000    3.375    3.500    3.000 
#    2.250    1.250    0.000    0.000    0.000    0.000 
#    0.000    0.000    0.000    0.000    0.000    0.000 
#
# Total GULP energy -89406.709462 kJ/mol
# GULP energy per Si atom -5587.919341 kJ/mol
# Density = 2.367239 g / cm^3
# Si number density = 23.726396 Si / 1000 Ang^3
#
#
#
# Elastic Constant Matrix: (Units=GPa)
#
#
# Indices 1 2 3 4 5 6 
#
# 1 103.1333 10.4364 46.6982 9.2954 -3.9950 4.3335
# 2 10.4364 36.7285 11.9692 24.5053 2.2508 0.3711
# 3 46.6982 11.9692 157.6696 24.8607 10.3636 16.4026
# 4 9.2954 24.5053 24.8607 38.4504 8.5579 -9.0671
# 5 -3.9950 2.2508 10.3636 8.5579 52.2651 5.5445
# 6 4.3335 0.3711 16.4026 -9.0671 5.5445 24.7521
#
#
#
# Elastic Compliance Matrix: (Units=1/GPa)
#
#
# Indices 1 2 3 4 5 6 
#
# 1 0.011524 -0.003025 -0.003518 0.001203 0.001462 0.000473
# 2 -0.003025 0.056391 0.005676 -0.045412 0.005990 -0.022054
# 3 -0.003518 0.005676 0.009846 -0.011712 0.000556 -0.010409
# 4 0.001203 -0.045412 -0.011712 0.073775 -0.011729 0.037884
# 5 0.001462 0.005990 0.000556 -0.011729 0.021848 -0.009905
# 6 0.000473 -0.022054 -0.010409 0.037884 -0.009905 0.063642
#
#
# Mechanical properties :
#
#
# Convention : Reuss Voigt Hill
#
# Bulk Modulus (GPa) = 13.15317 48.41544 30.78431
# Shear Modulus (GPa) = 18.93196 38.32201 28.62699
#
# Velocity S-wave (km/s) = 2.82783 4.02327 3.47731
# Velocity P-wave (km/s) = 4.02714 6.48323 5.39677
#
# Compressibility (1/GPa) = 0.07602729
#
# Stress axis : x y z
#
# Youngs Moduli (GPa) = 86.77752 17.73323 101.55921
#
# Poissons Ratio (x) = 0.05364 0.35732
# Poissons Ratio (y) = 0.26248 -0.57645
# Poissons Ratio (z) = 0.30531 -0.10065
#
# Static dielectric constant tensor:
#      x y z
#    x 1.859960 0.003620 -0.070720 
#    y 0.003620 1.948010 -0.026440 
#    z -0.070720 -0.026440 1.922720 
# 
# From -- ./inp_files/225807.got.cif
#   From: 2010.05.17/outbox.cif.g08.bks.cpg/sg2_113_cif.got.tgz:225807.got - 2010.06.03 11:33:40.
