data_PCOD9036306
_publ_section_title
;
Structure prediction by ZEFSAII (Michael W. Deem and Ramdas Pophale) SiO2 
 PCOD9036306
Probable space group: P -1
;
_chemical_formula_sum "Si O2"
_cell_formula_units_Z 14
_cell_length_a 15.817485
_cell_length_b 5.200249
_cell_length_c 24.633292
_cell_angle_alpha 111.504897
_cell_angle_beta 161.535609
_cell_angle_gamma 69.724427
_cell_volume 597.052870
_symmetry_space_group_name_H-M "P -1"
_symmetry_group_IT_number 2
_symmetry_cell_setting 'triclinic'
loop_
_space_group_symop_operation_xyz
x,y,z
-x,-y,-z
loop_
_atom_site_type_symbol
_atom_site_label
_atom_site_fract_x
_atom_site_fract_y
_atom_site_fract_z
Si Si1 0.746585 0.043600 0.421301
Si Si2 0.233717 0.312839 0.688464
Si Si3 0.242383 0.029697 0.987011
Si Si4 0.551663 0.722201 0.976052
Si Si5 0.145612 0.208104 0.063238
Si Si6 0.921480 0.300851 0.653513
Si Si7 0.248811 0.118548 0.388130
O O1 0.458723 0.177039 0.264776
O O2 0.903758 0.092533 0.576207
O O3 0.931917 0.218741 0.507025
O O4 0.724441 0.741487 0.355346
O O5 0.287734 0.573668 0.780936
O O6 0.475192 0.120751 0.843498
O O7 0.302444 0.239285 0.990682
O O8 0.145672 0.136567 0.994021
O O9 0.993121 0.857440 0.800017
O O10 0.774915 0.593365 0.142008
O O11 0.500000 0.000000 0.000000
O O12 0.000000 0.500000 0.000000
O O13 0.000000 0.000000 0.000000
O O14 0.736714 0.571406 0.555241
O O15 0.825628 0.108957 0.629866
O O16 0.500000 0.000000 0.500000
#
# Coordination Sequence:
#
# PCOD9036306 Si02
#       7
#     2   2   2   2   2   2   2
#     4  10  25  45  74 108 139 196 242 309 369 434
#     4  10  22  49  71 102 151 182 249 307 373 440
#     4  10  24  44  70 107 141 192 247 297 372 432
#     4  11  24  43  76 107 148 198 239 309 380 448
#     4  11  28  48  75 103 148 198 246 301 366 447
#     4  11  25  44  69 107 142 185 249 292 363 436
#     4  11  25  43  70 100 146 193 238 300 355 432
#
# _framework density 23.448509000000001
#
# number of rings (size 3 to 8) (size 9 to 14) (size 15 to 20)
#    0.000    1.429    1.429    1.286   12.000    1.143 
#    5.143    2.857    0.000    0.000    0.000    0.000 
#    0.000    0.000    0.000    0.000    0.000    0.000 
#
# Total GULP energy -78036.900414 kJ/mol
# GULP energy per Si atom -5574.064315 kJ/mol
# Density = 2.339514 g / cm^3
# Si number density = 23.448509 Si / 1000 Ang^3
#
#
#
# Elastic Constant Matrix: (Units=GPa)
#
#
# Indices 1 2 3 4 5 6 
#
# 1 57.4071 14.5936 25.5111 9.3227 22.4165 0.4011
# 2 14.5936 118.7010 41.9584 -4.1113 21.9673 -9.0597
# 3 25.5111 41.9584 121.5531 9.3981 18.0161 -16.0106
# 4 9.3227 -4.1113 9.3981 39.0224 -24.4570 -8.2818
# 5 22.4165 21.9673 18.0161 -24.4570 22.4137 -3.7169
# 6 0.4011 -9.0597 -16.0106 -8.2818 -3.7169 25.7065
#
#
#
# Elastic Compliance Matrix: (Units=1/GPa)
#
#
# Indices 1 2 3 4 5 6 
#
# 1 0.000418 -0.003790 -0.005631 0.028354 0.040441 0.010133
# 2 -0.003790 0.009744 -0.003133 0.006239 0.004257 0.004168
# 3 -0.005631 -0.003133 0.010743 0.001939 0.003307 0.006778
# 4 0.028354 0.006239 0.001939 -0.026560 -0.067560 -0.015361
# 5 0.040441 0.004257 0.003307 -0.067560 -0.081458 -0.030615
# 6 0.010133 0.004168 0.006778 -0.015361 -0.030615 0.035057
#
#
# Mechanical properties :
#
#
# Convention : Reuss Voigt Hill
#
# Bulk Modulus (GPa) = -237.97836 51.30971 -93.33433
# Shear Modulus (GPa) = -176.37109 31.80172 -72.28469
#
# Velocity S-wave (km/s) = -8.68214 3.68671 -5.55823
# Velocity P-wave (km/s) = 14.22028 6.32865 9.00457
#
# Compressibility (1/GPa) = -0.00420206
#
# Stress axis : x y z
#
# Youngs Moduli (GPa) = 2390.59211 102.62617 93.08701
#
# Poissons Ratio (x) = 0.38892 0.52420
# Poissons Ratio (y) = 9.05962 0.29160
# Poissons Ratio (z) = 13.46213 0.32148
#
# Static dielectric constant tensor:
#      x y z
#    x 1.752380 0.068540 0.016680 
#    y 0.068540 1.969640 0.038230 
#    z 0.016680 0.038230 1.935770 
# 
# From -- ./inp_files/124221.got.cif
#   From: 2010.05.17/outbox.cif.g08.bks.cpg/sg2_63_cif.got.tgz:124221.got - 2010.06.03 11:33:40.
