data_PCOD9036526
_publ_section_title
;
Structure prediction by ZEFSAII (Michael W. Deem and Ramdas Pophale) SiO2 
 PCOD9036526
Probable space group: P -1
;
_chemical_formula_sum "Si O2"
_cell_formula_units_Z 15
_cell_length_a 9.822841
_cell_length_b 15.221000
_cell_length_c 8.045383
_cell_angle_alpha 85.741902
_cell_angle_beta 78.478655
_cell_angle_gamma 143.056200
_cell_volume 650.149342
_symmetry_space_group_name_H-M "P -1"
_symmetry_group_IT_number 2
_symmetry_cell_setting 'triclinic'
loop_
_space_group_symop_operation_xyz
x,y,z
-x,-y,-z
loop_
_atom_site_type_symbol
_atom_site_label
_atom_site_fract_x
_atom_site_fract_y
_atom_site_fract_z
Si Si1 0.203028 0.398257 0.265736
Si Si2 0.707507 0.237288 0.365742
Si Si3 0.077289 0.045933 0.235576
Si Si4 0.500000 0.500000 0.500000
Si Si5 0.767580 0.717182 0.014913
Si Si6 0.124341 0.872000 0.160987
Si Si7 0.510305 0.976682 0.243815
Si Si8 0.575710 0.739005 0.573072
O O1 0.274288 0.394381 0.425071
O O2 0.126551 0.285095 0.161586
O O3 0.993061 0.362259 0.321443
O O4 0.471073 0.570363 0.104436
O O5 0.537577 0.109028 0.574741
O O6 0.645148 0.306169 0.345110
O O7 0.626325 0.132369 0.246332
O O8 0.119005 0.126764 0.052059
O O9 0.271028 0.189817 0.301736
O O10 0.137021 0.974085 0.224772
O O11 0.790322 0.897113 0.383830
O O12 0.490817 0.602545 0.535035
O O13 0.842381 0.713016 0.175999
O O14 0.240915 0.857945 0.246290
O O15 0.306999 0.969032 0.942978
#
# Coordination Sequence:
#
# PCOD9036526 Si02
#       8
#     2   2   2   1   2   2   2   2
#     4  11  26  42  71  95 145 190 228 286 355 417
#     4  11  23  45  67 103 144 185 229 297 352 423
#     4  11  23  42  74 105 138 179 248 293 344 420
#     4  12  26  48  68 100 140 190 242 278 352 430
#     4  11  23  43  66 104 140 186 235 282 347 425
#     4  11  21  40  67 107 137 180 228 294 351 419
#     4  10  23  37  70 104 145 175 229 295 362 409
#     4  11  25  43  75 107 137 186 237 300 353 416
#
# _framework density 23.071622999999999
#
# number of rings (size 3 to 8) (size 9 to 14) (size 15 to 20)
#    0.000    1.067    4.000    2.000    5.600    1.600 
#    0.000    0.667    0.000    0.000    0.000    0.000 
#    0.000    0.000    0.000    0.000    0.000    0.000 
#
# Total GULP energy -83682.932369 kJ/mol
# GULP energy per Si atom -5578.862158 kJ/mol
# Density = 2.301911 g / cm^3
# Si number density = 23.071623 Si / 1000 Ang^3
#
#
#
# Elastic Constant Matrix: (Units=GPa)
#
#
# Indices 1 2 3 4 5 6 
#
# 1 155.3017 50.9725 11.3430 2.9874 -26.1218 6.2032
# 2 50.9725 88.7648 6.0384 26.4697 -3.7813 0.5594
# 3 11.3430 6.0384 37.0581 11.5364 -13.3730 -5.6143
# 4 2.9874 26.4697 11.5364 38.9695 0.4028 -6.6442
# 5 -26.1218 -3.7813 -13.3730 0.4028 39.8377 -2.4082
# 6 6.2032 0.5594 -5.6143 -6.6442 -2.4082 34.8375
#
#
#
# Elastic Compliance Matrix: (Units=1/GPa)
#
#
# Indices 1 2 3 4 5 6 
#
# 1 0.009363 -0.006166 -0.001299 0.003679 0.005037 -0.000728
# 2 -0.006166 0.018460 0.002135 -0.012925 -0.001530 -0.001425
# 3 -0.001299 0.002135 0.035399 -0.011170 0.011623 0.004575
# 4 0.003679 -0.012925 -0.011170 0.038324 -0.002657 0.004878
# 5 0.005037 -0.001530 0.011623 -0.002657 0.032353 0.002731
# 6 -0.000728 -0.001425 0.004575 0.004878 0.002731 0.030714
#
#
# Mechanical properties :
#
#
# Convention : Reuss Voigt Hill
#
# Bulk Modulus (GPa) = 19.02523 46.42581 32.72552
# Shear Modulus (GPa) = 25.93430 36.91366 31.42398
#
# Velocity S-wave (km/s) = 3.35636 4.00429 3.69456
# Velocity P-wave (km/s) = 4.82538 6.44556 5.69340
#
# Compressibility (1/GPa) = 0.05256179
#
# Stress axis : x y z
#
# Youngs Moduli (GPa) = 106.79852 54.17232 28.24902
#
# Poissons Ratio (x) = 0.33405 0.03670
# Poissons Ratio (y) = 0.65857 -0.06032
# Poissons Ratio (z) = 0.13875 -0.11567
#
# Static dielectric constant tensor:
#      x y z
#    x 1.823880 0.032440 0.032840 
#    y 0.032440 1.804590 0.136130 
#    z 0.032840 0.136130 1.749500 
# 
# From -- ./inp_files/207355.got.cif
#   From: 2010.05.17/outbox.cif.g08.bks.cpg/sg2_104_cif.got.tgz:207355.got - 2010.06.03 11:33:40.
