data_PCOD9036765
_publ_section_title
;
Structure prediction by ZEFSAII (Michael W. Deem and Ramdas Pophale) SiO2 
 PCOD9036765
Probable space group: P -1
;
_chemical_formula_sum "Si O2"
_cell_formula_units_Z 16
_cell_length_a 8.394770
_cell_length_b 12.480468
_cell_length_c 11.111554
_cell_angle_alpha 82.742811
_cell_angle_beta 44.322360
_cell_angle_gamma 60.025753
_cell_volume 651.214242
_symmetry_space_group_name_H-M "P -1"
_symmetry_group_IT_number 2
_symmetry_cell_setting 'triclinic'
loop_
_space_group_symop_operation_xyz
x,y,z
-x,-y,-z
loop_
_atom_site_type_symbol
_atom_site_label
_atom_site_fract_x
_atom_site_fract_y
_atom_site_fract_z
Si Si1 0.575484 0.207993 0.784588
Si Si2 0.699846 0.288817 0.142368
Si Si3 0.547622 0.155321 0.438871
Si Si4 0.478939 0.023646 0.148901
Si Si5 0.909804 0.780013 0.500929
Si Si6 0.241997 0.509503 0.203103
Si Si7 0.889410 0.639319 0.155740
Si Si8 0.858916 0.088362 0.887394
O O1 0.311559 0.343382 0.847304
O O2 0.616174 0.190193 0.909353
O O3 0.859131 0.192619 0.604923
O O4 0.564141 0.085680 0.765913
O O5 0.633173 0.240781 0.305978
O O6 0.393714 0.387248 0.230287
O O7 0.877192 0.176047 0.961380
O O8 0.876104 0.351057 0.039345
O O9 0.366513 0.131533 0.448383
O O10 0.345849 0.236587 0.648211
O O11 0.850201 0.017985 0.321660
O O12 0.240446 0.174983 0.295336
O O13 0.766138 0.007129 0.020561
O O14 0.500000 0.000000 0.000000
O O15 0.071320 0.639347 0.364073
O O16 0.048750 0.527983 0.191776
O O17 0.500000 0.500000 0.000000
#
# Coordination Sequence:
#
# PCOD9036765 Si02
#       8
#     2   2   2   2   2   2   2   2
#     4  11  24  40  63  92 135 177 203 266 342 387
#     4  11  22  45  70  93 129 172 217 280 331 370
#     4  11  24  39  66 101 131 163 226 274 329 393
#     4  10  23  39  60  97 134 172 211 264 334 399
#     4  11  23  41  63  97 129 172 218 271 318 399
#     4   9  21  45  68  95 126 170 229 274 319 384
#     4  10  24  40  64  99 127 170 221 268 328 395
#     4  11  23  41  64  97 131 171 217 272 327 401
#
# _framework density 24.569486000000001
#
# number of rings (size 3 to 8) (size 9 to 14) (size 15 to 20)
#    0.000    1.500    1.250    3.750    7.000    3.000 
#    0.000    5.625    0.000    1.500    0.000    0.000 
#    0.000    0.000    0.000    0.000    0.000    0.000 
#
# Total GULP energy -89177.257137 kJ/mol
# GULP energy per Si atom -5573.578571 kJ/mol
# Density = 2.451356 g / cm^3
# Si number density = 24.569486 Si / 1000 Ang^3
#
#
#
# Elastic Constant Matrix: (Units=GPa)
#
#
# Indices 1 2 3 4 5 6 
#
# 1 83.0667 38.7914 34.0131 2.7237 -12.0727 -37.5213
# 2 38.7914 67.7315 32.4358 -6.1294 -0.8577 -25.8432
# 3 34.0131 32.4358 135.8032 -3.7918 4.0900 -1.5623
# 4 2.7237 -6.1294 -3.7918 34.6412 7.4310 -3.6420
# 5 -12.0727 -0.8577 4.0900 7.4310 46.3339 -3.0250
# 6 -37.5213 -25.8432 -1.5623 -3.6420 -3.0250 50.5309
#
#
#
# Elastic Compliance Matrix: (Units=1/GPa)
#
#
# Indices 1 2 3 4 5 6 
#
# 1 0.025690 -0.006484 -0.005074 -0.003920 0.008685 0.015840
# 2 -0.006484 0.023565 -0.003731 0.005329 -0.001294 0.007428
# 3 -0.005074 -0.003731 0.009567 0.000793 -0.002721 -0.005486
# 4 -0.003920 0.005329 0.000793 0.031669 -0.005957 0.001765
# 5 0.008685 -0.001294 -0.002721 -0.005957 0.025461 0.006798
# 6 0.015840 0.007428 -0.005486 0.001765 0.006798 0.035715
#
#
# Mechanical properties :
#
#
# Convention : Reuss Voigt Hill
#
# Bulk Modulus (GPa) = 35.40790 55.23134 45.31962
# Shear Modulus (GPa) = 26.08790 38.39196 32.23993
#
# Velocity S-wave (km/s) = 3.26206 3.95725 3.62635
# Velocity P-wave (km/s) = 5.35077 6.58849 6.00162
#
# Compressibility (1/GPa) = 0.02824228
#
# Stress axis : x y z
#
# Youngs Moduli (GPa) = 38.92548 42.43619 104.52986
#
# Poissons Ratio (x) = 0.27516 0.53043
# Poissons Ratio (y) = 0.25240 0.39001
# Poissons Ratio (z) = 0.19752 0.15833
#
# Static dielectric constant tensor:
#      x y z
#    x 1.557450 -0.362180 -0.191300 
#    y -0.362180 1.809390 -0.196030 
#    z -0.191300 -0.196030 1.893520 
# 
# From -- ./inp_files/395902.got.cif
#   From: 2010.05.17/outbox.cif.g08.bks.cpg/sg2_198_cif.got.tgz:395902.got - 2010.06.03 11:33:40.
