data_PCOD9036505
_publ_section_title
;
Structure prediction by ZEFSAII (Michael W. Deem and Ramdas Pophale) SiO2 
 PCOD9036505
Probable space group: P -1
;
_chemical_formula_sum "Si O2"
_cell_formula_units_Z 14
_cell_length_a 10.186538
_cell_length_b 10.303704
_cell_length_c 28.748759
_cell_angle_alpha 156.224530
_cell_angle_beta 147.108903
_cell_angle_gamma 39.969411
_cell_volume 660.580070
_symmetry_space_group_name_H-M "P -1"
_symmetry_group_IT_number 2
_symmetry_cell_setting 'triclinic'
loop_
_space_group_symop_operation_xyz
x,y,z
-x,-y,-z
loop_
_atom_site_type_symbol
_atom_site_label
_atom_site_fract_x
_atom_site_fract_y
_atom_site_fract_z
Si Si1 0.611998 0.896470 0.949031
Si Si2 0.016503 0.666371 0.509466
Si Si3 0.149806 0.957191 0.787145
Si Si4 0.309755 0.732593 0.396516
Si Si5 0.297960 0.717985 0.285085
Si Si6 0.471044 0.303466 0.378970
Si Si7 0.069230 0.863263 0.124709
O O1 0.426647 0.066308 0.913795
O O2 0.617940 0.525214 0.810174
O O3 0.897426 0.956944 0.061169
O O4 0.500000 0.000000 0.000000
O O5 0.279277 0.691414 0.573105
O O6 0.000000 0.500000 0.500000
O O7 0.854444 0.412256 0.350080
O O8 0.902786 0.014816 0.589258
O O9 0.974692 0.169394 0.772182
O O10 0.016572 0.943285 0.792444
O O11 0.327671 0.571638 0.298001
O O12 0.283869 0.490041 0.351409
O O13 0.541478 0.956305 0.553752
O O14 0.500000 0.500000 0.500000
O O15 0.350323 0.950816 0.232338
O O16 0.000000 0.500000 0.000000
#
# Coordination Sequence:
#
# PCOD9036505 Si02
#       7
#     2   2   2   2   2   2   2
#     4  10  23  37  65  99 130 184 238 274 340 422
#     4  12  22  41  72 106 140 178 232 288 359 421
#     4  11  20  38  67  97 131 182 232 278 342 416
#     4  11  23  37  66 104 140 178 228 291 356 412
#     4  11  19  38  67  97 137 182 228 283 351 414
#     4  12  26  45  67 106 145 179 233 302 352 415
#     4  11  23  45  68  94 138 190 234 284 352 412
#
# _framework density 21.193494999999999
#
# number of rings (size 3 to 8) (size 9 to 14) (size 15 to 20)
#    0.000    0.857    7.143    0.857    0.000    0.571 
#    7.714    0.714    0.000    2.571    0.000    0.000 
#    0.000    0.000    0.000    0.000    0.000    0.000 
#
# Total GULP energy -77956.347498 kJ/mol
# GULP energy per Si atom -5568.310536 kJ/mol
# Density = 2.114526 g / cm^3
# Si number density = 21.193495 Si / 1000 Ang^3
#
#
#
# Elastic Constant Matrix: (Units=GPa)
#
#
# Indices 1 2 3 4 5 6 
#
# 1 94.3343 35.0947 54.4834 -4.4643 -2.3629 -6.3840
# 2 35.0947 103.4970 37.8543 -21.9987 4.6285 -4.2228
# 3 54.4834 37.8543 117.4920 -24.0547 -4.0395 3.2568
# 4 -4.4643 -21.9987 -24.0547 37.6479 -7.8421 -1.7281
# 5 -2.3629 4.6285 -4.0395 -7.8421 42.1835 -0.0718
# 6 -6.3840 -4.2228 3.2568 -1.7281 -0.0718 29.7767
#
#
#
# Elastic Compliance Matrix: (Units=1/GPa)
#
#
# Indices 1 2 3 4 5 6 
#
# 1 0.016283 -0.003670 -0.007478 -0.004894 -0.000305 0.003504
# 2 -0.003670 0.012750 -0.001197 0.006202 -0.000564 0.001511
# 3 -0.007478 -0.001197 0.014135 0.007839 0.002518 -0.002858
# 4 -0.004894 0.006202 0.007839 0.036016 0.006493 0.001079
# 5 -0.000305 -0.000564 0.002518 0.006493 0.025199 0.000017
# 6 0.003504 0.001511 -0.002858 0.001079 0.000017 0.034924
#
#
# Mechanical properties :
#
#
# Convention : Reuss Voigt Hill
#
# Bulk Modulus (GPa) = 54.12143 63.35423 58.73783
# Shear Modulus (GPa) = 29.38485 34.44766 31.91625
#
# Velocity S-wave (km/s) = 3.72762 4.03598 3.88486
# Velocity P-wave (km/s) = 6.64222 7.18867 6.92084
#
# Compressibility (1/GPa) = 0.01847697
#
# Stress axis : x y z
#
# Youngs Moduli (GPa) = 61.41522 78.43421 70.74488
#
# Poissons Ratio (x) = 0.28785 0.52902
# Poissons Ratio (y) = 0.22539 0.08472
# Poissons Ratio (z) = 0.45925 0.09392
#
# Static dielectric constant tensor:
#      x y z
#    x 1.749310 -0.008250 0.079500 
#    y -0.008250 1.850770 -0.021500 
#    z 0.079500 -0.021500 1.769100 
# 
# From -- ./inp_files/332977.got.cif
#   From: 2010.05.17/outbox.cif.g08.bks.cpg/sg2_167_cif.got.tgz:332977.got - 2010.06.03 11:33:40.
