data_PCOD9036889
_publ_section_title
;
Structure prediction by ZEFSAII (Michael W. Deem and Ramdas Pophale) SiO2 
 PCOD9036889
Probable space group: P -1
;
_chemical_formula_sum "Si O2"
_cell_formula_units_Z 16
_cell_length_a 9.132587
_cell_length_b 18.262988
_cell_length_c 11.584225
_cell_angle_alpha 40.183529
_cell_angle_beta 80.295692
_cell_angle_gamma 110.663268
_cell_volume 802.494116
_symmetry_space_group_name_H-M "P -1"
_symmetry_group_IT_number 2
_symmetry_cell_setting 'triclinic'
loop_
_space_group_symop_operation_xyz
x,y,z
-x,-y,-z
loop_
_atom_site_type_symbol
_atom_site_label
_atom_site_fract_x
_atom_site_fract_y
_atom_site_fract_z
Si Si1 0.005728 0.377929 0.098715
Si Si2 0.668972 0.166273 0.191249
Si Si3 0.971702 0.746180 0.556662
Si Si4 0.440715 0.653071 0.985573
Si Si5 0.977138 0.772945 0.047340
Si Si6 0.611095 0.516846 0.220089
Si Si7 0.906362 0.821005 0.249850
Si Si8 0.122425 0.073712 0.521196
O O1 0.872831 0.306301 0.084294
O O2 0.883271 0.230399 0.390807
O O3 0.000000 0.500000 0.000000
O O4 0.245842 0.458843 0.932004
O O5 0.500000 0.000000 0.500000
O O6 0.595821 0.249846 0.059481
O O7 0.789440 0.161708 0.082264
O O8 0.780530 0.539726 0.801787
O O9 0.043311 0.834121 0.316634
O O10 0.893541 0.814352 0.550646
O O11 0.570106 0.626657 0.066596
O O12 0.610652 0.791800 0.695861
O O13 0.764061 0.595833 0.219537
O O14 0.919042 0.758726 0.204781
O O15 0.020344 0.917993 0.803141
O O16 0.356974 0.322580 0.502087
O O17 0.000000 0.000000 0.000000
O O18 0.000000 0.000000 0.500000
#
# Coordination Sequence:
#
# PCOD9036889 Si02
#       8
#     2   2   2   2   2   2   2   2
#     4  11  22  39  64  94 128 157 198 268 322 366
#     4  11  23  37  62  96 127 158 203 263 319 366
#     4  11  23  38  60  93 125 161 211 253 317 368
#     4  11  21  36  61  99 122 161 202 263 319 368
#     4  11  22  41  61  93 129 160 209 255 316 371
#     4  10  23  39  65  92 122 164 213 255 313 366
#     4  11  24  40  65  89 125 171 213 255 298 381
#     4  12  20  35  65  95 124 152 209 270 310 364
#
# _framework density 19.937839
#
# number of rings (size 3 to 8) (size 9 to 14) (size 15 to 20)
#    0.000    1.000    6.250    1.500    1.750    1.000 
#    0.000    2.500    2.750    1.500    0.000    0.000 
#    0.000    0.000    0.000    0.000    0.000    0.000 
#
# Total GULP energy -89163.734843 kJ/mol
# GULP energy per Si atom -5572.733428 kJ/mol
# Density = 1.989246 g / cm^3
# Si number density = 19.937839 Si / 1000 Ang^3
#
#
#
# Elastic Constant Matrix: (Units=GPa)
#
#
# Indices 1 2 3 4 5 6 
#
# 1 92.5522 25.9235 23.8077 9.8648 14.6060 -30.0184
# 2 25.9235 87.8887 14.5552 20.4742 8.9003 -16.3150
# 3 23.8077 14.5552 85.0742 -2.1539 11.1189 -9.2746
# 4 9.8648 20.4742 -2.1539 34.8569 3.5174 11.2277
# 5 14.6060 8.9003 11.1189 3.5174 25.3143 1.5009
# 6 -30.0184 -16.3150 -9.2746 11.2277 1.5009 28.6406
#
#
#
# Elastic Compliance Matrix: (Units=1/GPa)
#
#
# Indices 1 2 3 4 5 6 
#
# 1 0.030232 0.008465 -0.003099 -0.027052 -0.018090 0.047058
# 2 0.008465 0.021403 -0.002026 -0.023835 -0.010003 0.030277
# 3 -0.003099 -0.002026 0.013420 0.003704 -0.003831 -0.001308
# 4 -0.027052 -0.023835 0.003704 0.071305 0.016578 -0.069553
# 5 -0.018090 -0.010003 -0.003831 0.016578 0.054929 -0.035276
# 6 0.047058 0.030277 -0.001308 -0.069553 -0.035276 0.130175
#
#
# Mechanical properties :
#
#
# Convention : Reuss Voigt Hill
#
# Bulk Modulus (GPa) = 13.94023 43.78755 28.86389
# Shear Modulus (GPa) = 14.76260 31.17762 22.97011
#
# Velocity S-wave (km/s) = 2.72404 3.95871 3.39792
# Velocity P-wave (km/s) = 4.11107 6.55018 5.46835
#
# Compressibility (1/GPa) = 0.07173481
#
# Stress axis : x y z
#
# Youngs Moduli (GPa) = 33.07798 46.72351 74.51401
#
# Poissons Ratio (x) = -0.39553 0.23092
# Poissons Ratio (y) = -0.28002 0.15098
# Poissons Ratio (z) = 0.10251 0.09467
#
# Static dielectric constant tensor:
#      x y z
#    x 1.817090 -0.043980 -0.031240 
#    y -0.043980 1.798210 0.002660 
#    z -0.031240 0.002660 1.732080 
# 
# From -- ./inp_files/175224.got.cif
#   From: 2010.05.17/outbox.cif.g08.bks.cpg/sg2_88_cif.got.tgz:175224.got - 2010.06.03 11:33:40.
