data_PCOD9036429
_publ_section_title
;
Structure prediction by ZEFSAII (Michael W. Deem and Ramdas Pophale) SiO2 
 PCOD9036429
Probable space group: P -1
;
_chemical_formula_sum "Si O2"
_cell_formula_units_Z 16
_cell_length_a 8.350648
_cell_length_b 8.140260
_cell_length_c 18.670623
_cell_angle_alpha 143.508756
_cell_angle_beta 121.617120
_cell_angle_gamma 70.909121
_cell_volume 631.476748
_symmetry_space_group_name_H-M "P -1"
_symmetry_group_IT_number 2
_symmetry_cell_setting 'triclinic'
loop_
_space_group_symop_operation_xyz
x,y,z
-x,-y,-z
loop_
_atom_site_type_symbol
_atom_site_label
_atom_site_fract_x
_atom_site_fract_y
_atom_site_fract_z
Si Si1 0.347169 0.111698 0.455744
Si Si2 0.406617 0.602366 0.201090
Si Si3 0.985266 0.073182 0.179241
Si Si4 0.791530 0.360519 0.979922
Si Si5 0.778286 0.970450 0.964729
Si Si6 0.919547 0.967216 0.287636
Si Si7 0.788818 0.972192 0.409735
Si Si8 0.374764 0.496630 0.399827
O O1 0.334821 0.892519 0.308394
O O2 0.127533 0.074543 0.408815
O O3 0.500000 0.000000 0.500000
O O4 0.449973 0.437960 0.591067
O O5 0.342441 0.560879 0.088007
O O6 0.320503 0.344648 0.143988
O O7 0.636127 0.689467 0.290430
O O8 0.189043 0.262386 0.273211
O O9 0.039775 0.769860 0.065670
O O10 0.929503 0.105923 0.259825
O O11 0.817838 0.124506 0.104771
O O12 0.692157 0.133748 0.937768
O O13 0.878365 0.636192 0.142573
O O14 0.000000 0.000000 0.000000
O O15 0.783072 0.015103 0.337330
O O16 0.712912 0.224487 0.518090
O O17 0.000000 0.000000 0.500000
O O18 0.500000 0.500000 0.500000
#
# Coordination Sequence:
#
# PCOD9036429 Si02
#       8
#     2   2   2   2   2   2   2   2
#     4  11  23  37  68 100 136 194 245 295 360 435
#     4  11  22  48  67 100 149 184 248 302 357 445
#     4  11  21  40  66 108 145 176 245 307 362 438
#     4  11  23  41  73 105 141 187 241 308 368 431
#     4  10  23  36  69 108 136 184 242 305 359 423
#     4  12  22  43  72  99 145 195 239 303 378 427
#     4  11  28  49  71 103 152 204 239 298 376 447
#     4  11  23  45  70 101 140 189 249 304 354 435
#
# _framework density 25.337432
#
# number of rings (size 3 to 8) (size 9 to 14) (size 15 to 20)
#    0.000    1.000    3.750    4.125    7.000    1.000 
#    0.000    1.875    0.000    0.000    0.000    0.000 
#    0.000    0.000    0.000    0.000    0.000    0.000 
#
# Total GULP energy -89199.889369 kJ/mol
# GULP energy per Si atom -5574.993086 kJ/mol
# Density = 2.527976 g / cm^3
# Si number density = 25.337432 Si / 1000 Ang^3
#
#
#
# Elastic Constant Matrix: (Units=GPa)
#
#
# Indices 1 2 3 4 5 6 
#
# 1 72.0692 25.7127 41.8192 6.8306 10.1878 29.3996
# 2 25.7127 133.5517 51.3689 -5.2427 20.0215 37.2619
# 3 41.8192 51.3689 131.8775 7.9235 32.0027 27.1230
# 4 6.8306 -5.2427 7.9235 48.2629 15.8317 3.3258
# 5 10.1878 20.0215 32.0027 15.8317 43.2632 2.0649
# 6 29.3996 37.2619 27.1230 3.3258 2.0649 44.4133
#
#
#
# Elastic Compliance Matrix: (Units=1/GPa)
#
#
# Indices 1 2 3 4 5 6 
#
# 1 0.021236 0.001174 -0.004240 -0.000837 -0.001513 -0.012319
# 2 0.001174 0.011505 -0.001931 0.003709 -0.005086 -0.009291
# 3 -0.004240 -0.001931 0.011878 0.000953 -0.007121 -0.002567
# 4 -0.000837 0.003709 0.000953 0.025062 -0.011181 -0.004497
# 5 -0.001513 -0.005086 -0.007121 -0.011181 0.034761 0.008838
# 6 -0.012319 -0.009291 -0.002567 -0.004497 0.008838 0.039960
#
#
# Mechanical properties :
#
#
# Convention : Reuss Voigt Hill
#
# Bulk Modulus (GPa) = 28.88186 63.92223 46.40204
# Shear Modulus (GPa) = 30.13149 41.76105 35.94627
#
# Velocity S-wave (km/s) = 3.45223 4.06420 3.77065
# Velocity P-wave (km/s) = 5.22630 6.87799 6.10823
#
# Compressibility (1/GPa) = 0.03462381
#
# Stress axis : x y z
#
# Youngs Moduli (GPa) = 47.09006 86.91823 84.18703
#
# Poissons Ratio (x) = -0.10200 0.35695
# Poissons Ratio (y) = -0.05526 0.16259
# Poissons Ratio (z) = 0.19966 0.16787
#
# Static dielectric constant tensor:
#      x y z
#    x 2.028760 0.200730 0.017070 
#    y 0.200730 2.072400 -0.021430 
#    z 0.017070 -0.021430 1.968140 
# 
# From -- ./inp_files/588223.got.cif
#   From: 2010.05.17/outbox.cif.g08.bks.cpg/sg2_295_cif.got.tgz:588223.got - 2010.06.03 11:33:40.
