data_PCOD9036871
_publ_section_title
;
Structure prediction by ZEFSAII (Michael W. Deem and Ramdas Pophale) SiO2 
 PCOD9036871
Probable space group: P -1
;
_chemical_formula_sum "Si O2"
_cell_formula_units_Z 14
_cell_length_a 13.764002
_cell_length_b 11.059305
_cell_length_c 14.712128
_cell_angle_alpha 123.136127
_cell_angle_beta 121.769063
_cell_angle_gamma 19.712565
_cell_volume 631.975614
_symmetry_space_group_name_H-M "P -1"
_symmetry_group_IT_number 2
_symmetry_cell_setting 'triclinic'
loop_
_space_group_symop_operation_xyz
x,y,z
-x,-y,-z
loop_
_atom_site_type_symbol
_atom_site_label
_atom_site_fract_x
_atom_site_fract_y
_atom_site_fract_z
Si Si1 0.302486 0.998680 0.240207
Si Si2 0.413594 0.726637 0.688128
Si Si3 0.210962 0.376816 0.458154
Si Si4 0.316804 0.554765 0.487625
Si Si5 0.173468 0.929569 0.006396
Si Si6 0.990460 0.135166 0.793067
Si Si7 0.042345 0.746686 0.684702
O O1 0.144155 0.323269 0.336003
O O2 0.214714 0.972532 0.255583
O O3 0.174550 0.084143 0.119782
O O4 0.646215 0.628576 0.264052
O O5 0.469442 0.490181 0.603878
O O6 0.478898 0.697597 0.604388
O O7 0.127881 0.062785 0.746856
O O8 0.648577 0.538375 0.784525
O O9 0.264633 0.458632 0.461373
O O10 0.004258 0.667866 0.557204
O O11 0.500000 0.000000 0.500000
O O12 0.000000 0.000000 0.500000
O O13 0.500000 0.500000 0.000000
O O14 0.094726 0.039983 0.907432
O O15 0.000000 0.000000 0.000000
O O16 0.054464 0.890945 0.707773
#
# Coordination Sequence:
#
# PCOD9036871 Si02
#       7
#     2   2   2   2   2   2   2
#     4  11  22  39  53  91 128 170 202 260 326 388
#     4  11  23  38  61  92 120 166 216 263 310 373
#     4  10  23  39  64  98 133 166 205 269 336 389
#     4  11  22  43  65  94 131 172 217 261 319 397
#     4  12  22  37  61  88 128 175 215 268 321 380
#     4  12  21  36  62  90 124 165 220 264 309 376
#     4  11  20  36  58  87 131 165 201 251 331 389
#
# _framework density 22.152753000000001
#
# number of rings (size 3 to 8) (size 9 to 14) (size 15 to 20)
#    0.000    0.857    5.714    2.143    2.000    0.000 
#   10.286    0.000    0.000    1.714    0.000    0.000 
#    0.000    0.000    0.000    0.000    0.000    0.000 
#
# Total GULP energy -78136.184741 kJ/mol
# GULP energy per Si atom -5581.156053 kJ/mol
# Density = 2.210233 g / cm^3
# Si number density = 22.152753 Si / 1000 Ang^3
#
#
#
# Elastic Constant Matrix: (Units=GPa)
#
#
# Indices 1 2 3 4 5 6 
#
# 1 106.4071 27.3043 31.8995 -5.9857 -10.7753 -13.1418
# 2 27.3043 54.0504 13.9437 -8.2371 2.8429 -19.1235
# 3 31.8995 13.9437 164.9417 -12.2798 12.0974 -9.2519
# 4 -5.9857 -8.2371 -12.2798 25.2335 0.1835 5.7535
# 5 -10.7753 2.8429 12.0974 0.1835 34.7447 1.3874
# 6 -13.1418 -19.1235 -9.2519 5.7535 1.3874 36.6915
#
#
#
# Elastic Compliance Matrix: (Units=1/GPa)
#
#
# Indices 1 2 3 4 5 6 
#
# 1 0.012061 -0.005567 -0.002201 -0.000225 0.004935 0.000712
# 2 -0.005567 0.026159 0.000167 0.004802 -0.004394 0.011095
# 3 -0.002201 0.000167 0.006954 0.002771 -0.003161 0.000737
# 4 -0.000225 0.004802 0.002771 0.043328 -0.001512 -0.003616
# 5 0.004935 -0.004394 -0.003161 -0.001512 0.031871 -0.002288
# 6 0.000712 0.011095 0.000737 -0.003616 -0.002288 0.034132
#
#
# Mechanical properties :
#
#
# Convention : Reuss Voigt Hill
#
# Bulk Modulus (GPa) = 33.36347 52.41049 42.88698
# Shear Modulus (GPa) = 27.82461 36.15072 31.98766
#
# Velocity S-wave (km/s) = 3.54790 4.04404 3.80407
# Velocity P-wave (km/s) = 5.64596 6.74653 6.22063
#
# Compressibility (1/GPa) = 0.02997290
#
# Stress axis : x y z
#
# Youngs Moduli (GPa) = 82.91057 38.22793 143.80639
#
# Poissons Ratio (x) = 0.21282 0.31649
# Poissons Ratio (y) = 0.46157 -0.02407
# Poissons Ratio (z) = 0.18247 -0.00640
#
# Static dielectric constant tensor:
#      x y z
#    x 1.832460 -0.012230 -0.009370 
#    y -0.012230 1.908610 -0.006330 
#    z -0.009370 -0.006330 1.889010 
# 
# From -- ./inp_files/531258.got.cif
#   From: 2010.05.17/outbox.cif.g08.bks.cpg/sg2_266_cif.got.tgz:531258.got - 2010.06.03 11:33:40.
