data_PCOD9036415
_publ_section_title
;
Structure prediction by ZEFSAII (Michael W. Deem and Ramdas Pophale) SiO2 
 PCOD9036415
Probable space group: P -1
;
_chemical_formula_sum "Si O2"
_cell_formula_units_Z 16
_cell_length_a 8.838790
_cell_length_b 12.183512
_cell_length_c 21.489151
_cell_angle_alpha 20.398219
_cell_angle_beta 62.338360
_cell_angle_gamma 60.831802
_cell_volume 704.078800
_symmetry_space_group_name_H-M "P -1"
_symmetry_group_IT_number 2
_symmetry_cell_setting 'triclinic'
loop_
_space_group_symop_operation_xyz
x,y,z
-x,-y,-z
loop_
_atom_site_type_symbol
_atom_site_label
_atom_site_fract_x
_atom_site_fract_y
_atom_site_fract_z
Si Si1 0.744908 0.660155 0.286830
Si Si2 0.362684 0.403886 0.357187
Si Si3 0.957547 0.344782 0.298275
Si Si4 0.861748 0.782541 0.907875
Si Si5 0.629272 0.428221 0.593244
Si Si6 0.181889 0.758973 0.084773
Si Si7 0.707678 0.294522 0.268328
Si Si8 0.089702 0.253865 0.666391
O O1 0.817143 0.516780 0.283315
O O2 0.571719 0.535441 0.405114
O O3 0.894426 0.624856 0.330089
O O4 0.694222 0.035649 0.081829
O O5 0.363179 0.586025 0.325044
O O6 0.250099 0.606600 0.217562
O O7 0.552230 0.346332 0.320416
O O8 0.298702 0.064909 0.562371
O O9 0.882288 0.316238 0.260550
O O10 0.129883 0.495258 0.189549
O O11 0.000000 0.000000 0.500000
O O12 0.753146 0.094270 0.726939
O O13 0.713812 0.588174 0.064825
O O14 0.987207 0.957280 0.836895
O O15 0.000000 0.500000 0.000000
O O16 0.710027 0.742225 0.392351
O O17 0.000000 0.000000 0.000000
O O18 0.000000 0.500000 0.500000
#
# Coordination Sequence:
#
# PCOD9036415 Si02
#       8
#     2   2   2   2   2   2   2   2
#     4  11  23  42  62  99 130 171 225 263 331 390
#     4  11  23  41  67 103 132 180 214 267 334 393
#     4  11  22  37  60  96 134 173 205 268 324 383
#     4  11  25  43  65  97 127 175 225 272 325 387
#     4  11  24  42  70  92 135 175 223 269 327 395
#     4  10  23  36  61  92 140 161 218 264 321 390
#     4  11  23  41  66  97 142 171 218 271 328 392
#     4  10  24  43  70  92 124 176 221 274 324 393
#
# _framework density 22.724730000000001
#
# number of rings (size 3 to 8) (size 9 to 14) (size 15 to 20)
#    0.000    1.250    2.500    2.625   10.500    3.000 
#    0.000    0.625    0.000    0.000    0.000    0.000 
#    0.000    0.000    0.000    0.000    0.000    0.000 
#
# Total GULP energy -89135.099889 kJ/mol
# GULP energy per Si atom -5570.943743 kJ/mol
# Density = 2.267301 g / cm^3
# Si number density = 22.724730 Si / 1000 Ang^3
#
#
#
# Elastic Constant Matrix: (Units=GPa)
#
#
# Indices 1 2 3 4 5 6 
#
# 1 81.8536 6.0547 17.4153 -5.7257 -12.7891 18.9111
# 2 6.0547 43.4810 2.6806 -6.0885 -9.0447 3.9684
# 3 17.4153 2.6806 117.3296 1.3786 -25.4557 -0.3236
# 4 -5.7257 -6.0885 1.3786 31.3557 -5.3739 -3.8523
# 5 -12.7891 -9.0447 -25.4557 -5.3739 44.3925 8.3160
# 6 18.9111 3.9684 -0.3236 -3.8523 8.3160 29.7970
#
#
#
# Elastic Compliance Matrix: (Units=1/GPa)
#
#
# Indices 1 2 3 4 5 6 
#
# 1 0.016464 0.000720 -0.001026 0.002889 0.006921 -0.012114
# 2 0.000720 0.025717 0.000879 0.005748 0.007633 -0.005260
# 3 -0.001026 0.000879 0.009903 0.000427 0.005786 -0.000918
# 4 0.002889 0.005748 0.000427 0.034629 0.006424 0.000090
# 5 0.006921 0.007633 0.005786 0.006424 0.032727 -0.013649
# 6 -0.012114 -0.005260 -0.000918 0.000090 -0.013649 0.045761
#
#
# Mechanical properties :
#
#
# Convention : Reuss Voigt Hill
#
# Bulk Modulus (GPa) = 18.78589 32.77393 25.77991
# Shear Modulus (GPa) = 27.50319 35.54328 31.52323
#
# Velocity S-wave (km/s) = 3.48268 3.95913 3.72852
# Velocity P-wave (km/s) = 4.94537 5.94585 5.46854
#
# Compressibility (1/GPa) = 0.05323144
#
# Stress axis : x y z
#
# Youngs Moduli (GPa) = 60.73771 38.88528 100.98008
#
# Poissons Ratio (x) = -0.02801 0.10362
# Poissons Ratio (y) = -0.04376 -0.08881
# Poissons Ratio (z) = 0.06232 -0.03420
#
# Static dielectric constant tensor:
#      x y z
#    x 1.884570 -0.013960 -0.074340 
#    y -0.013960 1.858880 0.175910 
#    z -0.074340 0.175910 1.520840 
# 
# From -- ./inp_files/589314.got.cif
#   From: 2010.05.17/outbox.cif.g08.bks.cpg/sg2_295_cif.got.tgz:589314.got - 2010.06.03 11:33:40.
