data_PCOD9036616
_publ_section_title
;
Structure prediction by ZEFSAII (Michael W. Deem and Ramdas Pophale) SiO2 
 PCOD9036616
Probable space group: P -1
;
_chemical_formula_sum "Si O2"
_cell_formula_units_Z 16
_cell_length_a 14.649256
_cell_length_b 5.324702
_cell_length_c 12.147441
_cell_angle_alpha 88.217400
_cell_angle_beta 133.723991
_cell_angle_gamma 109.402081
_cell_volume 617.882577
_symmetry_space_group_name_H-M "P -1"
_symmetry_group_IT_number 2
_symmetry_cell_setting 'triclinic'
loop_
_space_group_symop_operation_xyz
x,y,z
-x,-y,-z
loop_
_atom_site_type_symbol
_atom_site_label
_atom_site_fract_x
_atom_site_fract_y
_atom_site_fract_z
Si Si1 0.598252 0.517315 0.409954
Si Si2 0.656284 0.384417 0.697031
Si Si3 0.646791 0.007009 0.853244
Si Si4 0.061852 0.794602 0.604428
Si Si5 0.956760 0.724279 0.048641
Si Si6 0.045213 0.826959 0.843776
Si Si7 0.683659 0.715465 0.257748
Si Si8 0.400647 0.715334 0.980299
O O1 0.665695 0.461229 0.576975
O O2 0.480422 0.609018 0.359003
O O3 0.708874 0.704149 0.409099
O O4 0.507019 0.238294 0.268882
O O5 0.647797 0.083504 0.723105
O O6 0.796374 0.563843 0.878337
O O7 0.657522 0.222154 0.956147
O O8 0.789496 0.986050 0.994816
O O9 0.031558 0.740146 0.708205
O O10 0.000000 0.500000 0.500000
O O11 0.226863 0.977877 0.718227
O O12 0.000000 0.000000 0.500000
O O13 0.995619 0.458325 0.110921
O O14 0.006937 0.928275 0.193302
O O15 0.000000 0.000000 0.000000
O O16 0.517227 0.616592 0.117653
O O17 0.703153 0.509160 0.188081
O O18 0.500000 0.000000 0.000000
#
# Coordination Sequence:
#
# PCOD9036616 Si02
#       8
#     2   2   2   2   2   2   2   2
#     4  11  21  41  62  99 139 179 225 297 362 433
#     4  10  23  38  63  96 141 180 227 284 371 422
#     4  11  21  38  68 100 135 184 229 288 370 428
#     4  12  30  50  72 103 147 200 243 299 371 437
#     4  11  24  46  74 107 135 191 247 298 348 427
#     4  11  25  45  76  98 144 184 247 297 361 429
#     4  11  26  41  68 103 136 182 242 294 365 429
#     4  11  22  38  68 102 134 170 235 303 351 425
#
# _framework density 25.894891000000001
#
# number of rings (size 3 to 8) (size 9 to 14) (size 15 to 20)
#    0.000    1.000    3.750    2.250    8.750    2.000 
#    0.000    0.000    0.000    0.000    0.000    0.000 
#    0.000    0.000    0.000    0.000    0.000    0.000 
#
# Total GULP energy -89180.638793 kJ/mol
# GULP energy per Si atom -5573.789925 kJ/mol
# Density = 2.583595 g / cm^3
# Si number density = 25.894891 Si / 1000 Ang^3
#
#
#
# Elastic Constant Matrix: (Units=GPa)
#
#
# Indices 1 2 3 4 5 6 
#
# 1 33.6505 10.5559 15.0967 4.2836 0.6359 5.4422
# 2 10.5559 139.5952 40.5538 2.7582 -7.8396 7.7780
# 3 15.0967 40.5538 88.6487 -5.3536 -10.9245 -2.6592
# 4 4.2836 2.7582 -5.3536 55.5741 3.0982 -10.9290
# 5 0.6359 -7.8396 -10.9245 3.0982 27.1403 -7.3271
# 6 5.4422 7.7780 -2.6592 -10.9290 -7.3271 49.3958
#
#
#
# Elastic Compliance Matrix: (Units=1/GPa)
#
#
# Indices 1 2 3 4 5 6 
#
# 1 0.034376 -0.000549 -0.006598 -0.004110 -0.004678 -0.005659
# 2 -0.000549 0.008461 -0.003818 -0.001100 0.000605 -0.001631
# 3 -0.006598 -0.003818 0.015127 0.002532 0.005814 0.003565
# 4 -0.004110 -0.001100 0.002532 0.019614 -0.000066 0.005092
# 5 -0.004678 0.000605 0.005814 -0.000066 0.041327 0.006849
# 6 -0.005659 -0.001631 0.003565 0.005092 0.006849 0.023459
#
#
# Mechanical properties :
#
#
# Convention : Reuss Voigt Hill
#
# Bulk Modulus (GPa) = 27.75061 43.81190 35.78125
# Shear Modulus (GPa) = 28.35991 39.46790 33.91391
#
# Velocity S-wave (km/s) = 3.31296 3.90828 3.62287
# Velocity P-wave (km/s) = 5.03728 6.10918 5.59894
#
# Compressibility (1/GPa) = 0.03603525
#
# Stress axis : x y z
#
# Youngs Moduli (GPa) = 29.08983 118.19242 66.10739
#
# Poissons Ratio (x) = 0.06489 0.43615
# Poissons Ratio (y) = 0.01597 0.25238
# Poissons Ratio (z) = 0.19192 0.45123
#
# Static dielectric constant tensor:
#      x y z
#    x 2.635600 -0.028590 -0.177460 
#    y -0.028590 2.279610 -0.061270 
#    z -0.177460 -0.061270 2.235550 
# 
# From -- ./inp_files/72333.got.cif
#   From: 2010.05.17/outbox.cif.g08.bks.cpg/sg2_37_cif.got.tgz:72333.got - 2010.06.03 11:33:40.
