data_PCOD9036296
_publ_section_title
;
Structure prediction by ZEFSAII (Michael W. Deem and Ramdas Pophale) SiO2 
 PCOD9036296
Probable space group: P -1
;
_chemical_formula_sum "Si O2"
_cell_formula_units_Z 13
_cell_length_a 11.437865
_cell_length_b 9.218872
_cell_length_c 6.351481
_cell_angle_alpha 53.592682
_cell_angle_beta 84.354621
_cell_angle_gamma 101.504150
_cell_volume 507.841439
_symmetry_space_group_name_H-M "P -1"
_symmetry_group_IT_number 2
_symmetry_cell_setting 'triclinic'
loop_
_space_group_symop_operation_xyz
x,y,z
-x,-y,-z
loop_
_atom_site_type_symbol
_atom_site_label
_atom_site_fract_x
_atom_site_fract_y
_atom_site_fract_z
Si Si1 0.364391 0.143661 0.939012
Si Si2 0.933886 0.064193 0.149589
Si Si3 0.309653 0.630188 0.708153
Si Si4 0.500000 0.500000 0.500000
Si Si5 0.141373 0.636713 0.359243
Si Si6 0.624763 0.222904 0.004103
Si Si7 0.179940 0.206822 0.234255
O O1 0.368319 0.319932 0.641788
O O2 0.378222 0.962934 0.971595
O O3 0.494696 0.258066 0.942423
O O4 0.252208 0.102385 0.157653
O O5 0.043680 0.180010 0.185493
O O6 0.845404 0.894664 0.449226
O O7 0.866277 0.191515 0.934947
O O8 0.000000 0.000000 0.000000
O O9 0.423721 0.613930 0.564757
O O10 0.198251 0.662114 0.562345
O O11 0.359956 0.791011 0.738138
O O12 0.256415 0.426769 0.007070
O O13 0.000000 0.500000 0.500000
O O14 0.257439 0.604508 0.246285
#
# Coordination Sequence:
#
# PCOD9036296 Si02
#       7
#     2   2   2   1   2   2   2
#     4  10  23  51  77 114 155 198 263 322 387 465
#     4  11  25  47  76 109 154 208 260 316 388 462
#     4  11  25  48  81 116 153 206 261 318 391 461
#     4  10  22  48  82 112 158 196 258 318 392 466
#     4  12  26  49  74 114 158 203 258 325 383 462
#     4  11  26  47  76 115 153 204 252 327 389 460
#     4  10  24  47  76 113 151 208 258 319 388 465
#
# _framework density 25.598542999999999
#
# number of rings (size 3 to 8) (size 9 to 14) (size 15 to 20)
#    0.000    1.231    3.077    0.923    2.154    7.385 
#   11.077    0.000    0.000    0.000    0.000    0.000 
#    0.000    0.000    0.000    0.000    0.000    0.000 
#
# Total GULP energy -72419.788230 kJ/mol
# GULP energy per Si atom -5570.752941 kJ/mol
# Density = 2.554028 g / cm^3
# Si number density = 25.598543 Si / 1000 Ang^3
#
#
#
# Elastic Constant Matrix: (Units=GPa)
#
#
# Indices 1 2 3 4 5 6 
#
# 1 176.7197 50.3487 73.3774 17.4311 10.2527 14.4073
# 2 50.3487 90.1351 53.5047 19.6542 3.4953 -0.2828
# 3 73.3774 53.5047 184.3781 -0.3587 -3.4734 -3.0755
# 4 17.4311 19.6542 -0.3587 36.4911 3.9604 9.8527
# 5 10.2527 3.4953 -3.4734 3.9604 45.2352 -4.6233
# 6 14.4073 -0.2828 -3.0755 9.8527 -4.6233 33.2305
#
#
#
# Elastic Compliance Matrix: (Units=1/GPa)
#
#
# Indices 1 2 3 4 5 6 
#
# 1 0.007992 -0.002637 -0.002518 -0.001213 -0.002068 -0.003649
# 2 -0.002637 0.016710 -0.003755 -0.008753 0.000148 0.003554
# 3 -0.002518 -0.003755 0.007564 0.002863 0.001302 0.001092
# 4 -0.001213 -0.008753 0.002863 0.035844 -0.003023 -0.010332
# 5 -0.002068 0.000148 0.001302 -0.003023 0.023458 0.005178
# 6 -0.003649 0.003554 0.001092 -0.010332 0.005178 0.035590
#
#
# Mechanical properties :
#
#
# Convention : Reuss Voigt Hill
#
# Bulk Modulus (GPa) = 69.21548 89.52162 79.36855
# Shear Modulus (GPa) = 33.37964 41.25815 37.31890
#
# Velocity S-wave (km/s) = 3.61496 4.01900 3.82233
# Velocity P-wave (km/s) = 6.67244 7.52222 7.11004
#
# Compressibility (1/GPa) = 0.01444764
#
# Stress axis : x y z
#
# Youngs Moduli (GPa) = 125.11892 59.84369 132.21285
#
# Poissons Ratio (x) = 0.15779 0.33288
# Poissons Ratio (y) = 0.32990 0.49643
# Poissons Ratio (z) = 0.31502 0.22470
#
# Static dielectric constant tensor:
#      x y z
#    x -2.556040 2.970610 -2.968110 
#    y 2.970610 0.214890 1.893280 
#    z -2.968110 1.893280 -0.089540 
# 
# From -- ./inp_files/60142.got.cif
#   From: 2010.05.17/outbox.cif.g08.bks.cpg/sg2_31_cif.got.tgz:60142.got - 2010.06.03 11:33:40.
