data_PCOD9036566
_publ_section_title
;
Structure prediction by ZEFSAII (Michael W. Deem and Ramdas Pophale) SiO2 
 PCOD9036566
Probable space group: P -1
;
_chemical_formula_sum "Si O2"
_cell_formula_units_Z 16
_cell_length_a 25.584508
_cell_length_b 5.118137
_cell_length_c 12.439700
_cell_angle_alpha 83.654222
_cell_angle_beta 28.443001
_cell_angle_gamma 71.309406
_cell_volume 679.915321
_symmetry_space_group_name_H-M "P -1"
_symmetry_group_IT_number 2
_symmetry_cell_setting 'triclinic'
loop_
_space_group_symop_operation_xyz
x,y,z
-x,-y,-z
loop_
_atom_site_type_symbol
_atom_site_label
_atom_site_fract_x
_atom_site_fract_y
_atom_site_fract_z
Si Si1 0.205991 0.928291 0.683686
Si Si2 0.110273 0.415831 0.174445
Si Si3 0.288440 0.928712 0.152984
Si Si4 0.065685 0.010887 0.127204
Si Si5 0.813228 0.436260 0.760000
Si Si6 0.137046 0.530005 0.686251
Si Si7 0.627242 0.008603 0.778656
Si Si8 0.622069 0.897019 0.214143
O O1 0.116682 0.253971 0.777096
O O2 0.337384 0.856056 0.395745
O O3 0.163981 0.692697 0.729035
O O4 0.189519 0.955783 0.839237
O O5 0.052268 0.208097 0.247837
O O6 0.093759 0.584867 0.311547
O O7 0.075887 0.690100 0.143835
O O8 0.257210 0.174280 0.928132
O O9 0.195955 0.806171 0.285777
O O10 0.201714 0.284838 0.295129
O O11 0.353680 0.843844 0.154089
O O12 0.383738 0.893123 0.885115
O O13 0.957631 0.219891 0.232204
O O14 0.680383 0.576957 0.061611
O O15 0.267162 0.336028 0.398593
O O16 0.500000 0.000000 0.000000
O O17 0.500000 0.000000 0.500000
#
# Coordination Sequence:
#
# PCOD9036566 Si02
#       8
#     2   2   2   2   2   2   2   2
#     4  10  23  38  61  89 123 163 203 247 308 364
#     4   9  21  33  61  92 122 152 194 257 296 368
#     4   9  19  37  59  78 116 164 185 245 299 350
#     4  12  19  39  63  93 127 155 203 254 314 351
#     4   8  19  37  56  82 114 157 192 241 302 354
#     4  10  23  40  62  86 126 164 202 256 306 356
#     4  10  25  43  61  90 123 160 215 248 293 371
#     4   8  19  36  57  86 120 153 201 240 305 360
#
# _framework density 23.532340999999999
#
# number of rings (size 3 to 8) (size 9 to 14) (size 15 to 20)
#    2.250    0.000    0.000    3.750    1.750    2.000 
#    0.000    0.000    0.000   10.500    0.000    0.000 
#    0.000    0.000    0.000    0.000    0.000    0.000 
#
# Total GULP energy -89078.474387 kJ/mol
# GULP energy per Si atom -5567.404649 kJ/mol
# Density = 2.347878 g / cm^3
# Si number density = 23.532341 Si / 1000 Ang^3
#
#
#
# Elastic Constant Matrix: (Units=GPa)
#
#
# Indices 1 2 3 4 5 6 
#
# 1 98.4970 24.4862 29.8071 -5.3906 17.0734 25.8854
# 2 24.4862 85.5109 12.5504 -2.9601 12.9667 24.0698
# 3 29.8071 12.5504 87.4734 -13.3685 15.9236 3.5555
# 4 -5.3906 -2.9601 -13.3685 23.3742 0.2102 1.2760
# 5 17.0734 12.9667 15.9236 0.2102 25.6993 -1.1123
# 6 25.8854 24.0698 3.5555 1.2760 -1.1123 37.2179
#
#
#
# Elastic Compliance Matrix: (Units=1/GPa)
#
#
# Indices 1 2 3 4 5 6 
#
# 1 0.015638 0.000694 -0.002802 0.002802 -0.009521 -0.011437
# 2 0.000694 0.016164 0.000013 0.002914 -0.009138 -0.011310
# 3 -0.002802 0.000013 0.014967 0.007982 -0.007483 0.000013
# 4 0.002802 0.002914 0.007982 0.048800 -0.008959 -0.006537
# 5 -0.009521 -0.009138 -0.007483 -0.008959 0.055215 0.015204
# 6 -0.011437 -0.011310 0.000013 -0.006537 0.015204 0.042816
#
#
# Mechanical properties :
#
#
# Convention : Reuss Voigt Hill
#
# Bulk Modulus (GPa) = 23.48655 45.01873 34.25264
# Shear Modulus (GPa) = 23.58691 30.90079 27.24385
#
# Velocity S-wave (km/s) = 3.16938 3.62763 3.40622
# Velocity P-wave (km/s) = 4.83689 6.05957 5.48242
#
# Compressibility (1/GPa) = 0.04257755
#
# Stress axis : x y z
#
# Youngs Moduli (GPa) = 63.94871 61.86559 66.81582
#
# Poissons Ratio (x) = -0.04290 0.18721
# Poissons Ratio (y) = -0.04435 -0.00087
# Poissons Ratio (z) = 0.17918 -0.00081
#
# Static dielectric constant tensor:
#      x y z
#    x 1.903240 -0.040240 0.006870 
#    y -0.040240 1.886290 -0.009560 
#    z 0.006870 -0.009560 2.047270 
# 
# From -- ./inp_files/468140.got.cif
#   From: 2010.05.17/outbox.cif.g08.bks.cpg/sg2_235_cif.got.tgz:468140.got - 2010.06.03 11:33:40.
