data_PCOD9036252
_publ_section_title
;
Structure prediction by ZEFSAII (Michael W. Deem and Ramdas Pophale) SiO2 
 PCOD9036252
Probable space group: P -1
;
_chemical_formula_sum "Si O2"
_cell_formula_units_Z 14
_cell_length_a 6.393864
_cell_length_b 27.366139
_cell_length_c 8.476820
_cell_angle_alpha 151.664067
_cell_angle_beta 115.549466
_cell_angle_gamma 54.785514
_cell_volume 563.939311
_symmetry_space_group_name_H-M "P -1"
_symmetry_group_IT_number 2
_symmetry_cell_setting 'triclinic'
loop_
_space_group_symop_operation_xyz
x,y,z
-x,-y,-z
loop_
_atom_site_type_symbol
_atom_site_label
_atom_site_fract_x
_atom_site_fract_y
_atom_site_fract_z
Si Si1 0.177304 0.392082 0.135200
Si Si2 0.825881 0.829880 0.331887
Si Si3 0.878725 0.114269 0.880755
Si Si4 0.436475 0.063076 0.989784
Si Si5 0.258107 0.690301 0.818398
Si Si6 0.221537 0.608230 0.239235
Si Si7 0.260779 0.816833 0.655566
O O1 0.473602 0.378655 0.190586
O O2 0.000000 0.500000 0.500000
O O3 0.196515 0.273819 0.879349
O O4 0.011661 0.407931 0.965917
O O5 0.564700 0.952454 0.596260
O O6 0.016409 0.862140 0.590962
O O7 0.000378 0.766757 0.055241
O O8 0.687999 0.218608 0.009069
O O9 0.764007 0.102807 0.974622
O O10 0.000000 0.000000 0.500000
O O11 0.129900 0.131003 0.054727
O O12 0.500000 0.000000 0.000000
O O13 0.520739 0.165622 0.316145
O O14 0.196675 0.624875 0.469087
O O15 0.270967 0.704521 0.426674
O O16 0.500000 0.500000 0.000000
#
# Coordination Sequence:
#
# PCOD9036252 Si02
#       7
#     2   2   2   2   2   2   2
#     4  11  24  47  74 100 139 190 232 291 360 415
#     4  11  25  42  70 105 139 182 241 286 348 424
#     4  11  24  42  66 103 146 181 233 294 346 421
#     4  12  25  43  72 100 141 194 235 282 357 414
#     4  11  25  43  71 103 143 176 236 290 354 412
#     4  10  22  48  74 106 143 179 237 299 345 424
#     4  10  24  42  70 103 139 188 234 288 353 419
#
# _framework density 24.825365999999999
#
# number of rings (size 3 to 8) (size 9 to 14) (size 15 to 20)
#    0.000    1.143    2.857    2.143    4.000    5.143 
#    0.000    2.143    0.000    0.000    0.000    0.000 
#    0.000    0.000    0.000    0.000    0.000    0.000 
#
# Total GULP energy -78134.101860 kJ/mol
# GULP energy per Si atom -5581.007276 kJ/mol
# Density = 2.476886 g / cm^3
# Si number density = 24.825366 Si / 1000 Ang^3
#
#
#
# Elastic Constant Matrix: (Units=GPa)
#
#
# Indices 1 2 3 4 5 6 
#
# 1 69.0618 43.9219 21.9826 1.9245 -1.1892 -15.8901
# 2 43.9219 123.4332 37.0521 -21.6300 -7.5569 -26.9897
# 3 21.9826 37.0521 105.7533 -11.0373 -20.3925 -3.2742
# 4 1.9245 -21.6300 -11.0373 44.3683 4.0944 -7.3537
# 5 -1.1892 -7.5569 -20.3925 4.0944 53.8442 -2.5023
# 6 -15.8901 -26.9897 -3.2742 -7.3537 -2.5023 39.2691
#
#
#
# Elastic Compliance Matrix: (Units=1/GPa)
#
#
# Indices 1 2 3 4 5 6 
#
# 1 0.020194 -0.006726 -0.002394 -0.004248 -0.000966 0.002492
# 2 -0.006726 0.014612 -0.002453 0.008176 0.000756 0.008696
# 3 -0.002394 -0.002453 0.011651 0.001250 0.003865 -0.001203
# 4 -0.004248 0.008176 0.001250 0.028588 -0.000212 0.009345
# 5 -0.000966 0.000756 0.003865 -0.000212 0.020216 0.001699
# 6 0.002492 0.008696 -0.001203 0.009345 0.001699 0.034208
#
#
# Mechanical properties :
#
#
# Convention : Reuss Voigt Hill
#
# Bulk Modulus (GPa) = 42.89581 56.01794 49.45687
# Shear Modulus (GPa) = 31.17479 40.51578 35.84529
#
# Velocity S-wave (km/s) = 3.54752 4.04422 3.80399
# Velocity P-wave (km/s) = 5.83921 6.66494 6.26569
#
# Compressibility (1/GPa) = 0.02331230
#
# Stress axis : x y z
#
# Youngs Moduli (GPa) = 49.51856 68.43834 85.82611
#
# Poissons Ratio (x) = 0.46032 0.20544
# Poissons Ratio (y) = 0.33306 0.21053
# Poissons Ratio (z) = 0.11853 0.16788
#
# Static dielectric constant tensor:
#      x y z
#    x 2.005650 -0.006110 0.007370 
#    y -0.006110 1.906750 -0.058200 
#    z 0.007370 -0.058200 2.070030 
# 
# From -- ./inp_files/94869.got.cif
#   From: 2010.05.17/outbox.cif.g08.bks.cpg/sg2_48_cif.got.tgz:94869.got - 2010.06.03 11:33:40.
