data_PCOD9036468
_publ_section_title
;
Structure prediction by ZEFSAII (Michael W. Deem and Ramdas Pophale) SiO2 
 PCOD9036468
Probable space group: P -1
;
_chemical_formula_sum "Si O2"
_cell_formula_units_Z 16
_cell_length_a 8.932039
_cell_length_b 9.210260
_cell_length_c 10.810125
_cell_angle_alpha 72.597256
_cell_angle_beta 71.528039
_cell_angle_gamma 113.361679
_cell_volume 675.973285
_symmetry_space_group_name_H-M "P -1"
_symmetry_group_IT_number 2
_symmetry_cell_setting 'triclinic'
loop_
_space_group_symop_operation_xyz
x,y,z
-x,-y,-z
loop_
_atom_site_type_symbol
_atom_site_label
_atom_site_fract_x
_atom_site_fract_y
_atom_site_fract_z
Si Si1 0.271676 0.948784 0.333089
Si Si2 0.731326 0.709905 0.649923
Si Si3 0.373307 0.884072 0.946919
Si Si4 0.052284 0.804448 0.887849
Si Si5 0.697514 0.512479 0.938921
Si Si6 0.300302 0.806579 0.600804
Si Si7 0.620226 0.507757 0.348569
Si Si8 0.057159 0.151970 0.706558
O O1 0.201343 0.812744 0.500066
O O2 0.140132 0.872952 0.266810
O O3 0.274809 0.125750 0.330786
O O4 0.480210 0.007187 0.230126
O O5 0.797787 0.630427 0.758878
O O6 0.522834 0.542536 0.712838
O O7 0.842787 0.786733 0.471894
O O8 0.176825 0.858822 0.965944
O O9 0.339256 0.685325 0.011335
O O10 0.500000 0.000000 0.000000
O O11 0.176556 0.780077 0.759051
O O12 0.844238 0.623393 0.983093
O O13 0.034793 0.967973 0.803452
O O14 0.500000 0.500000 0.000000
O O15 0.341527 0.650905 0.618677
O O16 0.500000 0.000000 0.500000
O O17 0.500000 0.500000 0.500000
O O18 0.813016 0.697641 0.266026
#
# Coordination Sequence:
#
# PCOD9036468 Si02
#       8
#     2   2   2   2   2   2   2   2
#     4  12  22  43  70 102 137 173 232 278 344 412
#     4  11  20  41  71  98 133 173 225 280 338 414
#     4  12  29  46  64  98 141 186 228 284 333 397
#     4  12  24  46  75  99 135 180 236 286 338 411
#     4  12  26  47  69  97 133 188 237 271 329 419
#     4  12  21  39  74 104 134 176 224 291 347 404
#     4  10  23  37  61 103 140 173 209 273 354 409
#     4  11  23  41  70 110 132 168 220 293 363 397
#
# _framework density 23.669575999999999
#
# number of rings (size 3 to 8) (size 9 to 14) (size 15 to 20)
#    0.000    0.500    6.250    2.250    1.750    2.500 
#    2.250    1.250    0.000    0.000    0.000    0.000 
#    0.000    0.000    0.000    0.000    0.000    0.000 
#
# Total GULP energy -89550.150736 kJ/mol
# GULP energy per Si atom -5596.884421 kJ/mol
# Density = 2.361570 g / cm^3
# Si number density = 23.669576 Si / 1000 Ang^3
#
#
#
# Elastic Constant Matrix: (Units=GPa)
#
#
# Indices 1 2 3 4 5 6 
#
# 1 146.3085 38.5645 21.0105 -0.3652 -0.1395 43.4422
# 2 38.5645 110.7810 7.0335 -13.8461 -0.7428 32.6936
# 3 21.0105 7.0335 70.2078 8.3271 -4.0403 7.5882
# 4 -0.3652 -13.8461 8.3271 19.0240 11.3894 4.3781
# 5 -0.1395 -0.7428 -4.0403 11.3894 49.9932 -0.1256
# 6 43.4422 32.6936 7.5882 4.3781 -0.1256 47.9820
#
#
#
# Elastic Compliance Matrix: (Units=1/GPa)
#
#
# Indices 1 2 3 4 5 6 
#
# 1 0.009847 -0.000244 -0.002485 0.003729 -0.001048 -0.008700
# 2 -0.000244 0.014427 -0.002347 0.016203 -0.003694 -0.010726
# 3 -0.002485 -0.002347 0.016625 -0.011986 0.004038 0.002324
# 4 0.003729 0.016203 -0.011986 0.086672 -0.020514 -0.020483
# 5 -0.001048 -0.003694 0.004038 -0.020514 0.024957 0.004765
# 6 -0.008700 -0.010726 0.002324 -0.020483 0.004765 0.037540
#
#
# Mechanical properties :
#
#
# Convention : Reuss Voigt Hill
#
# Bulk Modulus (GPa) = 32.52374 51.16824 41.84599
# Shear Modulus (GPa) = 23.75654 40.77908 32.26781
#
# Velocity S-wave (km/s) = 3.17152 4.15522 3.69624
# Velocity P-wave (km/s) = 5.21363 6.68475 5.99449
#
# Compressibility (1/GPa) = 0.03074677
#
# Stress axis : x y z
#
# Youngs Moduli (GPa) = 101.54991 69.31670 60.15044
#
# Poissons Ratio (x) = 0.01690 0.14947
# Poissons Ratio (y) = 0.02476 0.14120
# Poissons Ratio (z) = 0.25234 0.16271
#
# Static dielectric constant tensor:
#      x y z
#    x 1.926480 0.063740 -0.042010 
#    y 0.063740 1.807700 -0.002020 
#    z -0.042010 -0.002020 1.908280 
# 
# From -- ./inp_files/381662.got.cif
#   From: 2010.05.17/outbox.cif.g08.bks.cpg/sg2_191_cif.got.tgz:381662.got - 2010.06.03 11:33:40.
