data_PCOD9036916
_publ_section_title
;
Structure prediction by ZEFSAII (Michael W. Deem and Ramdas Pophale) SiO2 
 PCOD9036916
Probable space group: P -1
;
_chemical_formula_sum "Si O2"
_cell_formula_units_Z 16
_cell_length_a 12.602903
_cell_length_b 11.238180
_cell_length_c 5.505267
_cell_angle_alpha 105.977862
_cell_angle_beta 77.798624
_cell_angle_gamma 104.913224
_cell_volume 716.026413
_symmetry_space_group_name_H-M "P -1"
_symmetry_group_IT_number 2
_symmetry_cell_setting 'triclinic'
loop_
_space_group_symop_operation_xyz
x,y,z
-x,-y,-z
loop_
_atom_site_type_symbol
_atom_site_label
_atom_site_fract_x
_atom_site_fract_y
_atom_site_fract_z
Si Si1 0.983064 0.596000 0.853053
Si Si2 0.620354 0.988561 0.333822
Si Si3 0.608787 0.696997 0.121256
Si Si4 0.800228 0.764965 0.458859
Si Si5 0.411405 0.519460 0.355564
Si Si6 0.993856 0.113509 0.879559
Si Si7 0.174191 0.492689 0.482078
Si Si8 0.746374 0.007879 0.795407
O O1 0.086170 0.578016 0.626530
O O2 0.856380 0.541461 0.800564
O O3 0.994278 0.745240 0.944769
O O4 0.000000 0.500000 0.000000
O O5 0.500000 0.000000 0.500000
O O6 0.605005 0.841920 0.188017
O O7 0.697473 0.022036 0.556817
O O8 0.676431 0.046827 0.082388
O O9 0.701080 0.702047 0.289638
O O10 0.484254 0.623809 0.208633
O O11 0.632668 0.613089 0.836655
O O12 0.849520 0.646964 0.462457
O O13 0.754052 0.858128 0.718283
O O14 0.899467 0.863575 0.334375
O O15 0.500000 0.500000 0.500000
O O16 0.299572 0.557568 0.518295
O O17 0.872994 0.082303 0.799021
O O18 0.000000 0.000000 0.000000
#
# Coordination Sequence:
#
# PCOD9036916 Si02
#       8
#     2   2   2   2   2   2   2   2
#     4  11  25  45  65  99 145 184 228 287 373 438
#     4  11  25  48  70  97 144 194 233 298 371 433
#     4  10  23  39  65  98 135 178 238 294 355 430
#     4  11  21  43  71 100 142 186 239 304 367 429
#     4  11  22  40  65 104 134 175 244 298 353 426
#     4  12  24  44  73 106 142 190 244 302 358 434
#     4  11  23  41  69  97 139 188 229 294 367 437
#     4  11  25  44  70 107 135 180 252 299 353 439
#
# _framework density 22.345545000000001
#
# number of rings (size 3 to 8) (size 9 to 14) (size 15 to 20)
#    0.000    1.000    2.500    4.500    1.750    2.000 
#    4.500    0.000    0.000    0.000    0.000    0.000 
#    0.000    0.000    0.000    0.000    0.000    0.000 
#
# Total GULP energy -89161.698776 kJ/mol
# GULP energy per Si atom -5572.606174 kJ/mol
# Density = 2.229469 g / cm^3
# Si number density = 22.345545 Si / 1000 Ang^3
#
#
#
# Elastic Constant Matrix: (Units=GPa)
#
#
# Indices 1 2 3 4 5 6 
#
# 1 143.4362 16.5167 49.9955 4.6754 -7.6952 18.6310
# 2 16.5167 43.6761 25.8797 -14.9369 6.2794 3.1259
# 3 49.9955 25.8797 103.2572 9.3133 -18.3759 7.4997
# 4 4.6754 -14.9369 9.3133 25.6962 4.4675 -2.4696
# 5 -7.6952 6.2794 -18.3759 4.4675 37.0355 7.3753
# 6 18.6310 3.1259 7.4997 -2.4696 7.3753 40.0336
#
#
#
# Elastic Compliance Matrix: (Units=1/GPa)
#
#
# Indices 1 2 3 4 5 6 
#
# 1 0.008981 -0.002981 -0.002611 -0.003208 0.002274 -0.004075
# 2 -0.002981 0.058857 -0.023929 0.049677 -0.030445 0.009948
# 3 -0.002611 -0.023929 0.023201 -0.025839 0.019425 -0.006435
# 4 -0.003208 0.049677 -0.025839 0.085189 -0.035006 0.014159
# 5 0.002274 -0.030445 0.019425 -0.035006 0.049193 -0.013542
# 6 -0.004075 0.009948 -0.006435 0.014159 -0.013542 0.030672
#
#
# Mechanical properties :
#
#
# Convention : Reuss Voigt Hill
#
# Bulk Modulus (GPa) = 31.25466 52.79483 42.02474
# Shear Modulus (GPa) = 15.34676 33.75156 24.54916
#
# Velocity S-wave (km/s) = 2.62352 3.89065 3.31813
# Velocity P-wave (km/s) = 4.81606 6.62274 5.79030
#
# Compressibility (1/GPa) = 0.03199523
#
# Stress axis : x y z
#
# Youngs Moduli (GPa) = 111.34588 16.99045 43.10123
#
# Poissons Ratio (x) = 0.05066 0.11255
# Poissons Ratio (y) = 0.33197 1.03137
# Poissons Ratio (z) = 0.29075 0.40657
#
# Static dielectric constant tensor:
#      x y z
#    x 1.897080 -0.078340 -0.114290 
#    y -0.078340 2.000740 0.109270 
#    z -0.114290 0.109270 2.153760 
# 
# From -- ./inp_files/71791.got.cif
#   From: 2010.05.17/outbox.cif.g08.bks.cpg/sg2_36_cif.got.tgz:71791.got - 2010.06.03 11:33:40.
