data_PCOD9036156
_publ_section_title
;
Structure prediction by ZEFSAII (Michael W. Deem and Ramdas Pophale) SiO2 
 PCOD9036156
Probable space group: P -1
;
_chemical_formula_sum "Si O2"
_cell_formula_units_Z 10
_cell_length_a 11.474753
_cell_length_b 13.486011
_cell_length_c 7.149889
_cell_angle_alpha 102.618684
_cell_angle_beta 85.407676
_cell_angle_gamma 158.111998
_cell_volume 378.943742
_symmetry_space_group_name_H-M "P -1"
_symmetry_group_IT_number 2
_symmetry_cell_setting 'triclinic'
loop_
_space_group_symop_operation_xyz
x,y,z
-x,-y,-z
loop_
_atom_site_type_symbol
_atom_site_label
_atom_site_fract_x
_atom_site_fract_y
_atom_site_fract_z
Si Si1 0.105778 0.674680 0.916423
Si Si2 0.150697 0.985949 0.765201
Si Si3 0.837817 0.231726 0.460013
Si Si4 0.585133 0.597109 0.242677
Si Si5 0.270843 0.503606 0.832383
O O1 0.027762 0.605358 0.678347
O O2 0.000000 0.500000 0.000000
O O3 0.944495 0.643572 0.016941
O O4 0.500000 0.000000 0.000000
O O5 0.248695 0.953902 0.671399
O O6 0.761095 0.675725 0.720668
O O7 0.247474 0.157271 0.686911
O O8 0.355509 0.173040 0.010141
O O9 0.131357 0.460179 0.667555
O O10 0.500000 0.000000 0.500000
O O11 0.773855 0.647760 0.293971
O O12 0.500000 0.500000 0.000000
#
# Coordination Sequence:
#
# PCOD9036156 Si02
#       5
#     2   2   2   2   2
#     4  12  27  51  73 110 159 202 258 322 381 468
#     4  11  25  49  76 117 160 199 264 323 389 473
#     4  12  27  51  81 121 155 214 268 319 399 473
#     4  10  22  47  77 112 155 209 251 322 400 462
#     4  11  25  49  83 113 161 208 258 330 397 460
#
# _framework density 26.389140000000001
#
# number of rings (size 3 to 8) (size 9 to 14) (size 15 to 20)
#    0.000    0.800    2.000    6.000    0.000    4.000 
#    3.600    0.000    0.000    1.200    0.000    0.000 
#    0.000    0.000    0.000    0.000    0.000    0.000 
#
# Total GULP energy -56110.095571 kJ/mol
# GULP energy per Si atom -5611.009557 kJ/mol
# Density = 2.632908 g / cm^3
# Si number density = 26.389140 Si / 1000 Ang^3
#
#
#
# Elastic Constant Matrix: (Units=GPa)
#
#
# Indices 1 2 3 4 5 6 
#
# 1 207.9598 101.6687 58.2279 -16.3761 -12.5186 -3.7095
# 2 101.6687 216.9118 40.5823 -22.2444 -15.3876 -16.2886
# 3 58.2279 40.5823 145.1905 -31.8399 5.3580 -13.9464
# 4 -16.3761 -22.2444 -31.8399 28.1512 -7.2984 -23.2848
# 5 -12.5186 -15.3876 5.3580 -7.2984 72.4029 -10.7596
# 6 -3.7095 -16.2886 -13.9464 -23.2848 -10.7596 35.0832
#
#
#
# Elastic Compliance Matrix: (Units=1/GPa)
#
#
# Indices 1 2 3 4 5 6 
#
# 1 0.006493 -0.001770 -0.000207 0.006852 0.002196 0.005004
# 2 -0.001770 0.002407 -0.007136 -0.024820 -0.004715 -0.019825
# 3 -0.000207 -0.007136 -0.003469 -0.042618 -0.010997 -0.036372
# 4 0.006852 -0.024820 -0.042618 -0.156954 -0.038097 -0.143595
# 5 0.002196 -0.004715 -0.010997 -0.038097 0.005726 -0.029857
# 6 0.005004 -0.019825 -0.036372 -0.143595 -0.029857 -0.099092
#
#
# Mechanical properties :
#
#
# Convention : Reuss Voigt Hill
#
# Bulk Modulus (GPa) = -78.15257 107.89108 14.86925
# Shear Modulus (GPa) = -21.65176 51.76635 15.05729
#
# Velocity S-wave (km/s) = -2.86751 4.43386 2.39129
# Velocity P-wave (km/s) = 6.37520 8.19668 3.64296
#
# Compressibility (1/GPa) = -0.01279548
#
# Stress axis : x y z
#
# Youngs Moduli (GPa) = 154.00850 415.52693 -288.28257
#
# Poissons Ratio (x) = 0.73567 -0.05964
# Poissons Ratio (y) = 0.27266 -2.05715
# Poissons Ratio (z) = 0.03186 2.96515
#
# Static dielectric constant tensor:
#      x y z
#    x 2.204030 -0.126080 -0.215380 
#    y -0.126080 2.162500 0.488470 
#    z -0.215380 0.488470 3.315310 
# 
# From -- ./inp_files/89650.got.cif
#   From: 2010.05.17/outbox.cif.g08.bks.cpg/sg2_45_cif.got.tgz:89650.got - 2010.06.03 11:33:40.
