data_PCOD9036729
_publ_section_title
;
Structure prediction by ZEFSAII (Michael W. Deem and Ramdas Pophale) SiO2 
 PCOD9036729
Probable space group: P -1
;
_chemical_formula_sum "Si O2"
_cell_formula_units_Z 14
_cell_length_a 5.604169
_cell_length_b 22.695488
_cell_length_c 6.666643
_cell_angle_alpha 66.790067
_cell_angle_beta 75.264139
_cell_angle_gamma 47.396505
_cell_volume 573.512329
_symmetry_space_group_name_H-M "P -1"
_symmetry_group_IT_number 2
_symmetry_cell_setting 'triclinic'
loop_
_space_group_symop_operation_xyz
x,y,z
-x,-y,-z
loop_
_atom_site_type_symbol
_atom_site_label
_atom_site_fract_x
_atom_site_fract_y
_atom_site_fract_z
Si Si1 0.251119 0.965658 0.781837
Si Si2 0.488819 0.939189 0.315012
Si Si3 0.095432 0.439864 0.250913
Si Si4 0.392050 0.191275 0.793363
Si Si5 0.884961 0.741483 0.851837
Si Si6 0.608349 0.242497 0.330845
Si Si7 0.395897 0.563227 0.754002
O O1 0.410796 0.942405 0.560292
O O2 0.402518 0.882969 0.988778
O O3 0.352939 0.016945 0.791125
O O4 0.870808 0.014384 0.764191
O O5 0.714562 0.846658 0.288388
O O6 0.363737 0.343507 0.250473
O O7 0.288107 0.450176 0.354288
O O8 0.786784 0.448756 0.353227
O O9 0.000000 0.500000 0.000000
O O10 0.580442 0.210017 0.590701
O O11 0.132454 0.268899 0.890926
O O12 0.040602 0.786636 0.745170
O O13 0.133292 0.655911 0.784954
O O14 0.541076 0.779946 0.773133
O O15 0.500000 0.500000 0.000000
#
# Coordination Sequence:
#
# PCOD9036729 Si02
#       7
#     2   2   2   2   2   2   2
#     4  10  23  42  63  88 118 158 204 246 300 366
#     4  10  23  42  63  88 118 158 204 246 300 366
#     4   8  14  29  54  77 107 154 194 234 292 347
#     4  12  24  40  66  92 124 160 202 256 308 358
#     4  10  23  39  58  89 124 159 200 249 306 361
#     4  10  23  39  58  89 124 159 200 249 306 361
#     4   8  14  29  54  77 107 154 194 234 292 347
#
# _framework density 24.410979999999999
#
# number of rings (size 3 to 8) (size 9 to 14) (size 15 to 20)
#    0.000    2.286    0.000    1.714    0.000    9.143 
#    0.000    0.000    0.000   27.429    0.000    0.000 
#    0.000    0.000    0.000    0.000    0.000    0.000 
#
# Total GULP energy -78092.445119 kJ/mol
# GULP energy per Si atom -5578.031794 kJ/mol
# Density = 2.435542 g / cm^3
# Si number density = 24.410980 Si / 1000 Ang^3
#
#
#
# Elastic Constant Matrix: (Units=GPa)
#
#
# Indices 1 2 3 4 5 6 
#
# 1 277.7950 38.2750 43.6165 12.8505 -16.8927 8.5368
# 2 38.2750 57.4787 26.4586 -4.6672 -3.7345 7.7345
# 3 43.6165 26.4586 105.9370 20.0074 -9.7941 14.3460
# 4 12.8505 -4.6672 20.0074 39.9519 1.2867 -1.2178
# 5 -16.8927 -3.7345 -9.7941 1.2867 22.8118 -2.4879
# 6 8.5368 7.7345 14.3460 -1.2178 -2.4879 29.0604
#
#
#
# Elastic Compliance Matrix: (Units=1/GPa)
#
#
# Indices 1 2 3 4 5 6 
#
# 1 0.004265 -0.002495 -0.000605 -0.001446 0.002557 -0.000132
# 2 -0.002495 0.022327 -0.005497 0.006129 -0.001153 -0.002338
# 3 -0.000605 -0.005497 0.013564 -0.007533 0.004355 -0.004998
# 4 -0.001446 0.006129 -0.007533 0.030236 -0.004638 0.003382
# 5 0.002557 -0.001153 0.004355 -0.004638 0.047816 0.001305
# 6 -0.000132 -0.002338 -0.004998 0.003382 0.001305 0.037793
#
#
# Mechanical properties :
#
#
# Convention : Reuss Voigt Hill
#
# Bulk Modulus (GPa) = 43.55141 73.10120 58.32630
# Shear Modulus (GPa) = 27.64755 40.55553 34.10154
#
# Velocity S-wave (km/s) = 3.36904 4.08041 3.74167
# Velocity P-wave (km/s) = 5.74574 7.22569 6.52780
#
# Compressibility (1/GPa) = 0.02296137
#
# Stress axis : x y z
#
# Youngs Moduli (GPa) = 234.46295 44.78935 73.72606
#
# Poissons Ratio (x) = 0.11175 0.04464
# Poissons Ratio (y) = 0.58499 0.40525
# Poissons Ratio (z) = 0.14195 0.24619
#
# Static dielectric constant tensor:
#      x y z
#    x 2.009840 -0.012480 0.007650 
#    y -0.012480 2.022810 0.023050 
#    z 0.007650 0.023050 1.937410 
# 
# From -- ./inp_files/14344.got.cif
#   From: 2010.05.17/outbox.cif.g08.bks.cpg/sg2_8_cif.got.tgz:14344.got - 2010.06.03 11:33:40.
