data_PCOD9036189
_publ_section_title
;
Structure prediction by ZEFSAII (Michael W. Deem and Ramdas Pophale) SiO2 
 PCOD9036189
Probable space group: P -1
;
_chemical_formula_sum "Si O2"
_cell_formula_units_Z 14
_cell_length_a 9.310456
_cell_length_b 16.988339
_cell_length_c 17.186825
_cell_angle_alpha 159.496455
_cell_angle_beta 139.876532
_cell_angle_gamma 41.727826
_cell_volume 608.134327
_symmetry_space_group_name_H-M "P -1"
_symmetry_group_IT_number 2
_symmetry_cell_setting 'triclinic'
loop_
_space_group_symop_operation_xyz
x,y,z
-x,-y,-z
loop_
_atom_site_type_symbol
_atom_site_label
_atom_site_fract_x
_atom_site_fract_y
_atom_site_fract_z
Si Si1 0.584089 0.598810 0.323406
Si Si2 0.993772 0.808369 0.141518
Si Si3 0.818536 0.821314 0.495279
Si Si4 0.248391 0.365232 0.867418
Si Si5 0.245554 0.952892 0.858162
Si Si6 0.674647 0.019746 0.338329
Si Si7 0.775594 0.161032 0.077804
O O1 0.703479 0.778167 0.488960
O O2 0.399257 0.730620 0.426791
O O3 0.753926 0.416975 0.273182
O O4 0.461736 0.458629 0.079810
O O5 0.215861 0.922998 0.317862
O O6 0.910004 0.206371 0.401691
O O7 0.045018 0.567495 0.979337
O O8 0.880954 0.810442 0.011234
O O9 0.743975 0.675227 0.258873
O O10 0.222938 0.140464 0.697136
O O11 0.162461 0.031232 0.715064
O O12 0.231673 0.861809 0.854191
O O13 0.500000 0.000000 0.000000
O O14 0.440640 0.938524 0.138674
O O15 0.000000 0.000000 0.000000
#
# Coordination Sequence:
#
# PCOD9036189 Si02
#       7
#     2   2   2   2   2   2   2
#     4  11  26  44  69 104 139 177 225 282 338 405
#     4  10  24  44  69  99 139 177 228 277 336 401
#     4  10  24  42  68 100 134 179 220 283 338 400
#     4  11  24  42  72 101 137 178 231 277 343 396
#     4  10  22  48  68  98 135 175 229 281 334 404
#     4  11  24  45  68 101 137 181 224 287 336 403
#     4  11  24  44  71  99 137 178 229 279 338 405
#
# _framework density 23.021229999999999
#
# number of rings (size 3 to 8) (size 9 to 14) (size 15 to 20)
#    0.857    0.571    1.429    2.571    2.000   10.286 
#    0.000    1.429    0.000    0.000    0.000    0.000 
#    0.000    0.000    0.000    0.000    0.000    0.000 
#
# Total GULP energy -78023.122846 kJ/mol
# GULP energy per Si atom -5573.080203 kJ/mol
# Density = 2.296883 g / cm^3
# Si number density = 23.021230 Si / 1000 Ang^3
#
#
#
# Elastic Constant Matrix: (Units=GPa)
#
#
# Indices 1 2 3 4 5 6 
#
# 1 101.8957 58.0652 17.2278 14.5768 -5.3119 19.4713
# 2 58.0652 177.3893 44.2905 8.7601 -11.7836 17.8662
# 3 17.2278 44.2905 57.4996 -7.3228 -7.3310 -0.4758
# 4 14.5768 8.7601 -7.3228 44.4288 -1.3845 -2.7268
# 5 -5.3119 -11.7836 -7.3310 -1.3845 28.6151 -4.4400
# 6 19.4713 17.8662 -0.4758 -2.7268 -4.4400 33.4979
#
#
#
# Elastic Compliance Matrix: (Units=1/GPa)
#
#
# Indices 1 2 3 4 5 6 
#
# 1 0.013987 -0.003014 -0.002632 -0.004881 -0.000648 -0.007043
# 2 -0.003014 0.008510 -0.005786 -0.001791 0.000927 -0.002892
# 3 -0.002632 -0.005786 0.024095 0.006492 0.004561 0.006091
# 4 -0.004881 -0.001791 0.006492 0.025989 0.002254 0.006299
# 5 -0.000648 0.000927 0.004561 0.002254 0.037272 0.005071
# 6 -0.007043 -0.002892 0.006091 0.006299 0.005071 0.036760
#
#
# Mechanical properties :
#
#
# Convention : Reuss Voigt Hill
#
# Bulk Modulus (GPa) = 42.14214 63.99462 53.06838
# Shear Modulus (GPa) = 28.18716 35.78843 31.98780
#
# Velocity S-wave (km/s) = 3.50294 3.94710 3.73163
# Velocity P-wave (km/s) = 5.89120 6.97361 6.45513
#
# Compressibility (1/GPa) = 0.02372922
#
# Stress axis : x y z
#
# Youngs Moduli (GPa) = 71.49658 117.51251 41.50216
#
# Poissons Ratio (x) = 0.35417 0.10922
# Poissons Ratio (y) = 0.21548 0.24012
# Poissons Ratio (z) = 0.18815 0.67989
#
# Static dielectric constant tensor:
#      x y z
#    x 1.862210 -0.006800 0.017080 
#    y -0.006800 1.907890 0.025400 
#    z 0.017080 0.025400 1.962440 
# 
# From -- ./inp_files/505958.got.cif
#   From: 2010.05.17/outbox.cif.g08.bks.cpg/sg2_253_cif.got.tgz:505958.got - 2010.06.03 11:33:40.
