data_PCOD9036003
_publ_section_title
;
Structure prediction by ZEFSAII (Michael W. Deem and Ramdas Pophale) SiO2 
 PCOD9036003
Probable space group: P -1
;
_chemical_formula_sum "Si O2"
_cell_formula_units_Z 16
_cell_length_a 15.524269
_cell_length_b 14.570036
_cell_length_c 8.448514
_cell_angle_alpha 42.419503
_cell_angle_beta 133.176885
_cell_angle_gamma 150.133464
_cell_volume 636.372240
_symmetry_space_group_name_H-M "P -1"
_symmetry_group_IT_number 2
_symmetry_cell_setting 'triclinic'
loop_
_space_group_symop_operation_xyz
x,y,z
-x,-y,-z
loop_
_atom_site_type_symbol
_atom_site_label
_atom_site_fract_x
_atom_site_fract_y
_atom_site_fract_z
Si Si1 0.409110 0.600657 0.626283
Si Si2 0.383712 0.769438 0.685341
Si Si3 0.912446 0.441713 0.204044
Si Si4 0.363490 0.101863 0.913129
Si Si5 0.242972 0.152934 0.393148
Si Si6 0.040758 0.183530 0.743370
Si Si7 0.730874 0.272498 0.861542
Si Si8 0.003248 0.798728 0.993922
O O1 0.397165 0.676145 0.677107
O O2 0.593772 0.683973 0.726739
O O3 0.236645 0.362332 0.697798
O O4 0.399405 0.712906 0.340337
O O5 0.197487 0.671650 0.630177
O O6 0.500000 0.000000 0.500000
O O7 0.458343 0.749663 0.954890
O O8 0.101634 0.541922 0.272007
O O9 0.795203 0.309537 0.073093
O O10 0.954530 0.637790 0.018219
O O11 0.207256 0.996944 0.974354
O O12 0.322524 0.171798 0.633769
O O13 0.342287 0.929981 0.039273
O O14 0.121022 0.180114 0.227513
O O15 0.111764 0.930065 0.433186
O O16 0.025343 0.261766 0.781246
O O17 0.000000 0.000000 0.000000
#
# Coordination Sequence:
#
# PCOD9036003 Si02
#       8
#     2   2   2   2   2   2   2   2
#     4  12  25  45  71 107 140 186 241 282 364 417
#     4  12  25  43  69 104 144 184 228 294 352 429
#     4  10  23  43  68  97 142 176 235 290 351 414
#     4  11  24  45  69 104 142 183 235 290 353 417
#     4  11  26  45  75 102 144 188 234 294 348 422
#     4  10  24  46  72 100 138 188 231 294 345 417
#     4  10  24  42  69 101 136 185 229 294 348 422
#     4  10  22  47  68  99 136 186 235 287 351 412
#
# _framework density 25.142517999999999
#
# number of rings (size 3 to 8) (size 9 to 14) (size 15 to 20)
#    0.000    1.250    2.500    1.875    7.000    4.500 
#    4.500    1.250    0.000    0.000    0.000    0.000 
#    0.000    0.000    0.000    0.000    0.000    0.000 
#
# Total GULP energy -89581.178990 kJ/mol
# GULP energy per Si atom -5598.823687 kJ/mol
# Density = 2.508529 g / cm^3
# Si number density = 25.142518 Si / 1000 Ang^3
#
#
#
# Elastic Constant Matrix: (Units=GPa)
#
#
# Indices 1 2 3 4 5 6 
#
# 1 55.3332 16.3017 -1.6456 -6.1944 17.0059 19.1572
# 2 16.3017 91.7911 1.5936 -0.7732 2.0393 16.0055
# 3 -1.6456 1.5936 71.4238 14.5428 14.9163 -7.2004
# 4 -6.1944 -0.7732 14.5428 36.1620 6.3472 -12.3373
# 5 17.0059 2.0393 14.9163 6.3472 41.7588 6.7270
# 6 19.1572 16.0055 -7.2004 -12.3373 6.7270 51.5060
#
#
#
# Elastic Compliance Matrix: (Units=1/GPa)
#
#
# Indices 1 2 3 4 5 6 
#
# 1 0.024459 -0.003100 0.001437 0.003281 -0.009878 -0.005857
# 2 -0.003100 0.011970 -0.000731 -0.001370 0.001665 -0.003214
# 3 0.001437 -0.000731 0.016430 -0.004778 -0.005954 0.001623
# 4 0.003281 -0.001370 -0.004778 0.033649 -0.005863 0.007363
# 5 -0.009878 0.001665 -0.005954 -0.005863 0.031419 -0.003184
# 6 -0.005857 -0.003214 0.001623 0.007363 -0.003184 0.024999
#
#
# Mechanical properties :
#
#
# Convention : Reuss Voigt Hill
#
# Bulk Modulus (GPa) = 20.80306 27.89416 24.34861
# Shear Modulus (GPa) = 30.53643 39.37194 34.95419
#
# Velocity S-wave (km/s) = 3.48880 3.96150 3.73264
# Velocity P-wave (km/s) = 4.95186 5.66067 5.31809
#
# Compressibility (1/GPa) = 0.04806986
#
# Stress axis : x y z
#
# Youngs Moduli (GPa) = 40.88391 83.54530 60.86335
#
# Poissons Ratio (x) = 0.25903 -0.08747
# Poissons Ratio (y) = 0.12676 0.04451
# Poissons Ratio (z) = -0.05876 0.06110
#
# Static dielectric constant tensor:
#      x y z
#    x 1.976070 -0.000040 -0.022960 
#    y -0.000040 2.030010 -0.010090 
#    z -0.022960 -0.010090 2.021760 
# 
# From -- ./inp_files/314751.got.cif
#   From: 2010.05.17/outbox.cif.g08.bks.cpg/sg2_158_cif.got.tgz:314751.got - 2010.06.03 11:33:40.
