data_PCOD9036442
_publ_section_title
;
Structure prediction by ZEFSAII (Michael W. Deem and Ramdas Pophale) SiO2 
 PCOD9036442
Probable space group: P -1
;
_chemical_formula_sum "Si O2"
_cell_formula_units_Z 16
_cell_length_a 12.894886
_cell_length_b 9.226430
_cell_length_c 13.632726
_cell_angle_alpha 70.712426
_cell_angle_beta 42.083478
_cell_angle_gamma 48.252272
_cell_volume 766.239335
_symmetry_space_group_name_H-M "P -1"
_symmetry_group_IT_number 2
_symmetry_cell_setting 'triclinic'
loop_
_space_group_symop_operation_xyz
x,y,z
-x,-y,-z
loop_
_atom_site_type_symbol
_atom_site_label
_atom_site_fract_x
_atom_site_fract_y
_atom_site_fract_z
Si Si1 0.147568 0.552213 0.876490
Si Si2 0.376021 0.280871 0.942100
Si Si3 0.053336 0.858419 0.336877
Si Si4 0.327394 0.239028 0.347027
Si Si5 0.634180 0.561156 0.879395
Si Si6 0.042021 0.646366 0.560274
Si Si7 0.119910 0.146121 0.163969
Si Si8 0.419918 0.850084 0.365371
O O1 0.224550 0.506266 0.945086
O O2 0.368523 0.377051 0.706133
O O3 0.020492 0.757137 0.856983
O O4 0.000000 0.500000 0.000000
O O5 0.572084 0.157753 0.758662
O O6 0.378354 0.327603 0.041139
O O7 0.297526 0.156430 0.019110
O O8 0.138280 0.658286 0.257980
O O9 0.098897 0.765816 0.435481
O O10 0.805777 0.049145 0.461770
O O11 0.163372 0.942197 0.208249
O O12 0.445898 0.287006 0.189891
O O13 0.217981 0.403154 0.474109
O O14 0.151953 0.292129 0.380976
O O15 0.448685 0.007750 0.342160
O O16 0.500000 0.500000 0.000000
O O17 0.994982 0.709696 0.691411
#
# Coordination Sequence:
#
# PCOD9036442 Si02
#       8
#     2   2   2   2   2   2   2   2
#     4   8  19  38  60  84 112 154 202 241 272 342
#     4   9  21  39  59  83 116 155 197 236 282 348
#     4  10  23  37  57  90 122 145 193 249 287 348
#     4   9  18  34  54  82 119 150 178 242 297 342
#     4  11  23  36  58  89 122 153 189 238 301 347
#     4   9  18  34  56  85 118 148 185 237 301 338
#     4  11  19  36  66  83 113 161 198 232 290 345
#     4   9  20  38  61  81 121 148 199 237 287 339
#
# _framework density 20.881204
#
# number of rings (size 3 to 8) (size 9 to 14) (size 15 to 20)
#    0.750    1.750    1.250    1.125    1.750    5.000 
#    0.000    1.250    0.000    0.000    0.000    0.000 
#    0.000    0.000    0.000    0.000    0.000    0.000 
#
# Total GULP energy -89068.268926 kJ/mol
# GULP energy per Si atom -5566.766808 kJ/mol
# Density = 2.083368 g / cm^3
# Si number density = 20.881204 Si / 1000 Ang^3
#
#
#
# Elastic Constant Matrix: (Units=GPa)
#
#
# Indices 1 2 3 4 5 6 
#
# 1 21.7145 18.9738 17.7615 4.8019 -1.9905 -0.3860
# 2 18.9738 56.5041 20.6974 -10.5024 -0.8529 11.0389
# 3 17.7615 20.6974 77.1118 -0.4129 -7.0779 -1.2889
# 4 4.8019 -10.5024 -0.4129 38.8189 4.5273 -1.2070
# 5 -1.9905 -0.8529 -7.0779 4.5273 26.4388 -1.6617
# 6 -0.3860 11.0389 -1.2889 -1.2070 -1.6617 21.8483
#
#
#
# Elastic Compliance Matrix: (Units=1/GPa)
#
#
# Indices 1 2 3 4 5 6 
#
# 1 0.089261 -0.033012 -0.010852 -0.020412 0.007316 0.017045
# 2 -0.033012 0.035919 -0.002788 0.013849 -0.005611 -0.018558
# 3 -0.010852 -0.002788 0.016592 0.000420 0.003620 0.002494
# 4 -0.020412 0.013849 0.000420 0.032659 -0.006951 -0.006057
# 5 0.007316 -0.005611 0.003620 -0.006951 0.040723 0.005891
# 6 0.017045 -0.018558 0.002494 -0.006057 0.005891 0.055708
#
#
# Mechanical properties :
#
#
# Convention : Reuss Voigt Hill
#
# Bulk Modulus (GPa) = 20.63198 30.02176 25.32687
# Shear Modulus (GPa) = 13.14671 23.94773 18.54722
#
# Velocity S-wave (km/s) = 2.51190 3.39020 2.98354
# Velocity P-wave (km/s) = 4.27959 5.45282 4.90144
#
# Compressibility (1/GPa) = 0.04846845
#
# Stress axis : x y z
#
# Youngs Moduli (GPa) = 11.20307 27.84019 60.26843
#
# Poissons Ratio (x) = 0.91905 0.65405
# Poissons Ratio (y) = 0.36983 0.16804
# Poissons Ratio (z) = 0.12158 0.07763
#
# Static dielectric constant tensor:
#      x y z
#    x 1.759060 -0.009850 -0.048500 
#    y -0.009850 1.793630 0.006070 
#    z -0.048500 0.006070 1.825170 
# 
# From -- ./inp_files/528371.got.cif
#   From: 2010.05.17/outbox.cif.g08.bks.cpg/sg2_265_cif.got.tgz:528371.got - 2010.06.03 11:33:40.
