data_PCOD9036935
_publ_section_title
;
Structure prediction by ZEFSAII (Michael W. Deem and Ramdas Pophale) SiO2 
 PCOD9036935
Probable space group: P -1
;
_chemical_formula_sum "Si O2"
_cell_formula_units_Z 14
_cell_length_a 11.789642
_cell_length_b 12.152796
_cell_length_c 5.189712
_cell_angle_alpha 55.684549
_cell_angle_beta 63.745036
_cell_angle_gamma 61.837673
_cell_volume 525.332101
_symmetry_space_group_name_H-M "P -1"
_symmetry_group_IT_number 2
_symmetry_cell_setting 'triclinic'
loop_
_space_group_symop_operation_xyz
x,y,z
-x,-y,-z
loop_
_atom_site_type_symbol
_atom_site_label
_atom_site_fract_x
_atom_site_fract_y
_atom_site_fract_z
Si Si1 0.280114 0.823736 0.449619
Si Si2 0.641502 0.974400 0.518061
Si Si3 0.090683 0.050399 0.041277
Si Si4 0.419739 0.614960 0.223389
Si Si5 0.217125 0.314981 0.025955
Si Si6 0.689652 0.484111 0.953325
Si Si7 0.924561 0.662511 0.378074
O O1 0.351344 0.900767 0.468594
O O2 0.365374 0.769487 0.178860
O O3 0.282317 0.671851 0.750554
O O4 0.141864 0.937831 0.365153
O O5 0.500000 0.000000 0.500000
O O6 0.767748 0.948693 0.230993
O O7 0.673199 0.831595 0.840782
O O8 0.022364 0.214395 0.949015
O O9 0.000000 0.000000 0.000000
O O10 0.500000 0.500000 0.500000
O O11 0.541602 0.597600 0.929195
O O12 0.300215 0.566580 0.287478
O O13 0.092881 0.304814 0.340768
O O14 0.244765 0.435531 0.017758
O O15 0.192072 0.330464 0.726307
O O16 0.000000 0.500000 0.500000
#
# Coordination Sequence:
#
# PCOD9036935 Si02
#       7
#     2   2   2   2   2   2   2
#     4  11  23  44  69 105 146 195 253 310 378 461
#     4  11  27  47  73 111 154 200 246 319 393 461
#     4  11  27  49  74 106 147 201 258 312 380 463
#     4   9  21  37  62  97 144 188 244 296 366 442
#     4  11  26  46  74 112 149 195 258 317 389 464
#     4  10  23  39  66 104 145 194 250 302 374 456
#     4  11  26  50  74 108 146 200 257 323 386 455
#
# _framework density 26.649809000000001
#
# number of rings (size 3 to 8) (size 9 to 14) (size 15 to 20)
#    0.000    1.429    1.429    1.286   14.000    3.429 
#    0.000    0.000    0.000    0.000    0.000    0.000 
#    0.000    0.000    0.000    0.000    0.000    0.000 
#
# Total GULP energy -78073.528625 kJ/mol
# GULP energy per Si atom -5576.680616 kJ/mol
# Density = 2.658915 g / cm^3
# Si number density = 26.649809 Si / 1000 Ang^3
#
#
#
# Elastic Constant Matrix: (Units=GPa)
#
#
# Indices 1 2 3 4 5 6 
#
# 1 135.4790 43.9146 39.1944 -18.3961 20.9953 21.3986
# 2 43.9146 175.4962 33.0674 -32.2015 12.3822 24.3724
# 3 39.1944 33.0674 72.7915 -17.5042 30.0201 8.7166
# 4 -18.3961 -32.2015 -17.5042 65.8665 -3.8161 1.5347
# 5 20.9953 12.3822 30.0201 -3.8161 42.3100 0.3345
# 6 21.3986 24.3724 8.7166 1.5347 0.3345 64.2029
#
#
#
# Elastic Compliance Matrix: (Units=1/GPa)
#
#
# Indices 1 2 3 4 5 6 
#
# 1 0.009509 -0.001084 -0.003246 0.001204 -0.001972 -0.002336
# 2 -0.001084 0.007102 -0.001685 0.002768 -0.000079 -0.002172
# 3 -0.003246 -0.001685 0.023019 0.003615 -0.013892 -0.001418
# 4 0.001204 0.002768 0.003615 0.017751 -0.002353 -0.002355
# 5 -0.001972 -0.000079 -0.013892 -0.002353 0.034262 0.002451
# 6 -0.002336 -0.002172 -0.001418 -0.002355 0.002451 0.017415
#
#
# Mechanical properties :
#
#
# Convention : Reuss Voigt Hill
#
# Bulk Modulus (GPa) = 36.22883 68.45772 52.34328
# Shear Modulus (GPa) = 38.37707 52.31522 45.34614
#
# Velocity S-wave (km/s) = 3.79892 4.43545 4.12947
# Velocity P-wave (km/s) = 5.73291 7.20934 6.51310
#
# Compressibility (1/GPa) = 0.02760233
#
# Stress axis : x y z
#
# Youngs Moduli (GPa) = 105.15883 140.81154 43.44204
#
# Poissons Ratio (x) = 0.15258 0.14100
# Poissons Ratio (y) = 0.11395 0.07319
# Poissons Ratio (z) = 0.34131 0.23723
#
# Static dielectric constant tensor:
#      x y z
#    x 2.555130 0.046760 -0.415600 
#    y 0.046760 2.132540 0.063650 
#    z -0.415600 0.063650 2.533070 
# 
# From -- ./inp_files/65454.got.cif
#   From: 2010.05.17/outbox.cif.g08.bks.cpg/sg2_33_cif.got.tgz:65454.got - 2010.06.03 11:33:40.
