data_PCOD9036671
_publ_section_title
;
Structure prediction by ZEFSAII (Michael W. Deem and Ramdas Pophale) SiO2 
 PCOD9036671
Probable space group: P -1
;
_chemical_formula_sum "Si O2"
_cell_formula_units_Z 16
_cell_length_a 18.505571
_cell_length_b 7.865857
_cell_length_c 17.554053
_cell_angle_alpha 51.116720
_cell_angle_beta 153.271603
_cell_angle_gamma 145.485626
_cell_volume 589.559090
_symmetry_space_group_name_H-M "P -1"
_symmetry_group_IT_number 2
_symmetry_cell_setting 'triclinic'
loop_
_space_group_symop_operation_xyz
x,y,z
-x,-y,-z
loop_
_atom_site_type_symbol
_atom_site_label
_atom_site_fract_x
_atom_site_fract_y
_atom_site_fract_z
Si Si1 0.616240 0.448173 0.943078
Si Si2 0.451929 0.178964 0.623246
Si Si3 0.987167 0.632259 0.048750
Si Si4 0.488859 0.190397 0.292346
Si Si5 0.064358 0.382222 0.314459
Si Si6 0.031275 0.851958 0.443633
Si Si7 0.660838 0.179578 0.197230
Si Si8 0.880885 0.101423 0.741472
O O1 0.472183 0.522182 0.776685
O O2 0.565630 0.219628 0.891846
O O3 0.568889 0.257192 0.026244
O O4 0.896962 0.808691 0.106874
O O5 0.737836 0.490439 0.825384
O O6 0.425316 0.891158 0.667354
O O7 0.247166 0.056099 0.523935
O O8 0.365308 0.171539 0.459884
O O9 0.889022 0.103306 0.839260
O O10 0.972408 0.377105 0.147604
O O11 0.206592 0.844894 0.136119
O O12 0.641558 0.323440 0.477549
O O13 0.017436 0.545680 0.277363
O O14 0.977088 0.052138 0.345958
O O15 0.140507 0.815527 0.624902
O O16 0.799316 0.483364 0.298365
#
# Coordination Sequence:
#
# PCOD9036671 Si02
#       8
#     2   2   2   2   2   2   2   2
#     4  11  21  43  64  94 126 169 216 265 321 373
#     4  11  23  41  66  98 131 166 219 263 308 402
#     4  10  23  42  67  95 137 164 215 258 324 380
#     4  11  23  43  67  94 130 175 208 264 321 384
#     4   9  22  40  66  89 130 173 201 265 319 376
#     4  11  21  45  63  93 129 168 210 271 327 367
#     4  10  23  38  67  91 125 167 216 270 317 380
#     4   9  22  42  66  94 134 166 215 263 311 392
#
# _framework density 27.138926999999999
#
# number of rings (size 3 to 8) (size 9 to 14) (size 15 to 20)
#    0.750    1.000    2.500    1.500    1.750    0.500 
#    0.000    8.750    0.000    0.000    0.000    0.000 
#    0.000    0.000    0.000    0.000    0.000    0.000 
#
# Total GULP energy -89190.555214 kJ/mol
# GULP energy per Si atom -5574.409701 kJ/mol
# Density = 2.707716 g / cm^3
# Si number density = 27.138927 Si / 1000 Ang^3
#
#
#
# Elastic Constant Matrix: (Units=GPa)
#
#
# Indices 1 2 3 4 5 6 
#
# 1 49.6720 8.2092 12.3976 2.9019 2.4715 -5.2877
# 2 8.2092 129.2164 29.6813 -4.2914 8.7756 -35.2481
# 3 12.3976 29.6813 182.1399 18.5061 -8.1847 -8.0221
# 4 2.9019 -4.2914 18.5061 58.7305 -3.4525 10.0066
# 5 2.4715 8.7756 -8.1847 -3.4525 24.1475 -2.5835
# 6 -5.2877 -35.2481 -8.0221 10.0066 -2.5835 23.2355
#
#
#
# Elastic Compliance Matrix: (Units=1/GPa)
#
#
# Indices 1 2 3 4 5 6 
#
# 1 0.021178 0.000638 -0.001219 -0.001756 -0.002438 0.005852
# 2 0.000638 0.014095 -0.001291 -0.002517 -0.003657 0.021759
# 3 -0.001219 -0.001291 0.006144 -0.001998 0.002500 0.001024
# 4 -0.001756 -0.002517 -0.001998 0.019931 0.001846 -0.013286
# 5 -0.002438 -0.003657 0.002500 0.001846 0.043980 -0.001144
# 6 0.005852 0.021759 0.001024 -0.013286 -0.001144 0.083326
#
#
# Mechanical properties :
#
#
# Convention : Reuss Voigt Hill
#
# Bulk Modulus (GPa) = 26.54354 51.28940 38.91647
# Shear Modulus (GPa) = 24.39560 41.93872 33.16716
#
# Velocity S-wave (km/s) = 3.00144 3.93534 3.49968
# Velocity P-wave (km/s) = 4.67048 6.29198 5.54087
#
# Compressibility (1/GPa) = 0.03767395
#
# Stress axis : x y z
#
# Youngs Moduli (GPa) = 47.21962 70.94599 162.76073
#
# Poissons Ratio (x) = -0.04526 0.19838
# Poissons Ratio (y) = -0.03012 0.21005
# Poissons Ratio (z) = 0.05755 0.09156
#
# Static dielectric constant tensor:
#      x y z
#    x 2.168000 -0.009210 -0.048170 
#    y -0.009210 2.140680 0.022700 
#    z -0.048170 0.022700 2.217580 
# 
# From -- ./inp_files/601938.got.cif
#   From: 2010.05.17/outbox.cif.g08.bks.cpg/sg2_301_cif.got.tgz:601938.got - 2010.06.03 11:33:40.
