data_PCOD9036964
_publ_section_title
;
Structure prediction by ZEFSAII (Michael W. Deem and Ramdas Pophale) SiO2 
 PCOD9036964
Probable space group: P -1
;
_chemical_formula_sum "Si O2"
_cell_formula_units_Z 14
_cell_length_a 12.378974
_cell_length_b 20.720918
_cell_length_c 5.992668
_cell_angle_alpha 55.966784
_cell_angle_beta 118.952948
_cell_angle_gamma 153.897258
_cell_volume 559.749248
_symmetry_space_group_name_H-M "P -1"
_symmetry_group_IT_number 2
_symmetry_cell_setting 'triclinic'
loop_
_space_group_symop_operation_xyz
x,y,z
-x,-y,-z
loop_
_atom_site_type_symbol
_atom_site_label
_atom_site_fract_x
_atom_site_fract_y
_atom_site_fract_z
Si Si1 0.982041 0.078369 0.915873
Si Si2 0.250163 0.593618 0.122889
Si Si3 0.102081 0.316920 0.016378
Si Si4 0.404226 0.164831 0.629185
Si Si5 0.623247 0.679583 0.866603
Si Si6 0.946616 0.278031 0.430043
Si Si7 0.483005 0.127850 0.374761
O O1 0.823686 0.986108 0.160305
O O2 0.796488 0.029156 0.681132
O O3 0.249871 0.259482 0.879997
O O4 0.000000 0.000000 0.000000
O O5 0.357158 0.679296 0.297446
O O6 0.178409 0.465009 0.298106
O O7 0.438930 0.739770 0.864010
O O8 0.000000 0.500000 0.000000
O O9 0.337838 0.503828 0.901270
O O10 0.978181 0.258298 0.755341
O O11 0.229367 0.301151 0.176172
O O12 0.959464 0.254599 0.228131
O O13 0.323631 0.202658 0.370175
O O14 0.480703 0.131666 0.628286
O O15 0.683262 0.179374 0.376377
#
# Coordination Sequence:
#
# PCOD9036964 Si02
#       7
#     2   2   2   2   2   2   2
#     4  11  24  40  66 102 133 170 222 284 347 397
#     4   9  20  34  61  95 133 168 209 280 336 397
#     4  11  27  45  70  98 134 193 220 280 325 405
#     4  11  21  40  64 100 128 170 218 286 345 393
#     4  11  24  45  66  97 136 175 235 271 335 405
#     4  11  24  44  67  98 139 174 233 269 339 405
#     4  10  23  39  66  99 131 173 219 284 347 399
#
# _framework density 25.011199000000001
#
# number of rings (size 3 to 8) (size 9 to 14) (size 15 to 20)
#    0.000    1.429    2.857    1.286    8.000    4.571 
#    0.000    1.429    0.000    0.000    0.000    0.000 
#    0.000    0.000    0.000    0.000    0.000    0.000 
#
# Total GULP energy -78062.707183 kJ/mol
# GULP energy per Si atom -5575.907656 kJ/mol
# Density = 2.495427 g / cm^3
# Si number density = 25.011199 Si / 1000 Ang^3
#
#
#
# Elastic Constant Matrix: (Units=GPa)
#
#
# Indices 1 2 3 4 5 6 
#
# 1 138.2227 0.0271 67.7398 -5.3792 -33.7657 20.1251
# 2 0.0271 70.7527 28.0023 23.1583 10.5651 -1.1393
# 3 67.7398 28.0023 101.9699 7.8860 -7.0107 2.1388
# 4 -5.3792 23.1583 7.8860 46.8877 -2.8093 6.8180
# 5 -33.7657 10.5651 -7.0107 -2.8093 35.2939 6.4563
# 6 20.1251 -1.1393 2.1388 6.8180 6.4563 29.9103
#
#
#
# Elastic Compliance Matrix: (Units=1/GPa)
#
#
# Indices 1 2 3 4 5 6 
#
# 1 0.024912 -0.002615 -0.014361 0.011736 0.027156 -0.024372
# 2 -0.002615 0.021891 -0.004351 -0.012348 -0.012439 0.008404
# 3 -0.014361 -0.004351 0.019943 -0.005205 -0.011018 0.011635
# 4 0.011736 -0.012348 -0.005205 0.033779 0.020249 -0.020065
# 5 0.027156 -0.012439 -0.011018 0.020249 0.064121 -0.036414
# 6 -0.024372 0.008404 0.011635 -0.020065 -0.036414 0.061754
#
#
# Mechanical properties :
#
#
# Convention : Reuss Voigt Hill
#
# Bulk Modulus (GPa) = 41.50628 55.83152 48.66890
# Shear Modulus (GPa) = 18.04505 36.76345 27.40425
#
# Velocity S-wave (km/s) = 2.68895 3.83806 3.31370
# Velocity P-wave (km/s) = 5.12559 6.48167 5.84310
#
# Compressibility (1/GPa) = 0.02409274
#
# Stress axis : x y z
#
# Youngs Moduli (GPa) = 40.14123 45.68054 50.14364
#
# Poissons Ratio (x) = 0.11943 0.72010
# Poissons Ratio (y) = 0.10495 0.21819
# Poissons Ratio (z) = 0.57646 0.19877
#
# Static dielectric constant tensor:
#      x y z
#    x 1.882520 -0.127740 -0.111230 
#    y -0.127740 2.035620 0.013010 
#    z -0.111230 0.013010 2.089980 
# 
# From -- ./inp_files/66889.got.cif
#   From: 2010.05.17/outbox.cif.g08.bks.cpg/sg2_34_cif.got.tgz:66889.got - 2010.06.03 11:33:40.
