data_PCOD9036058
_publ_section_title
;
Structure prediction by ZEFSAII (Michael W. Deem and Ramdas Pophale) SiO2 
 PCOD9036058
Probable space group: P -1
;
_chemical_formula_sum "Si O2"
_cell_formula_units_Z 15
_cell_length_a 10.950199
_cell_length_b 9.174346
_cell_length_c 8.556545
_cell_angle_alpha 48.664519
_cell_angle_beta 101.920802
_cell_angle_gamma 102.091286
_cell_volume 628.385401
_symmetry_space_group_name_H-M "P -1"
_symmetry_group_IT_number 2
_symmetry_cell_setting 'triclinic'
loop_
_space_group_symop_operation_xyz
x,y,z
-x,-y,-z
loop_
_atom_site_type_symbol
_atom_site_label
_atom_site_fract_x
_atom_site_fract_y
_atom_site_fract_z
Si Si1 0.364909 0.048785 0.365383
Si Si2 0.752179 0.363448 0.468908
Si Si3 0.925196 0.676685 0.172165
Si Si4 0.000000 0.000000 0.500000
Si Si5 0.683748 0.309201 0.848834
Si Si6 0.442274 0.374872 0.924488
Si Si7 0.174702 0.335097 0.198873
Si Si8 0.861786 0.031030 0.106922
O O1 0.287452 0.193668 0.343413
O O2 0.500000 0.000000 0.500000
O O3 0.272192 0.853341 0.454682
O O4 0.391369 0.166242 0.128964
O O5 0.889677 0.468600 0.393029
O O6 0.707305 0.353654 0.642237
O O7 0.660224 0.498464 0.262034
O O8 0.862010 0.834743 0.148201
O O9 0.864778 0.656893 0.997512
O O10 0.062600 0.791136 0.098477
O O11 0.065052 0.987191 0.700422
O O12 0.940500 0.771302 0.663038
O O13 0.546878 0.343084 0.847378
O O14 0.776473 0.456755 0.871231
O O15 0.723785 0.095660 0.048454
O O16 0.500000 0.500000 0.000000
#
# Coordination Sequence:
#
# PCOD9036058 Si02
#       8
#     2   2   2   1   2   2   2   2
#     4  12  25  42  72  99 132 190 230 272 349 409
#     4  12  25  44  71 102 136 183 229 287 342 402
#     4  10  22  47  71  95 142 180 224 281 341 415
#     4  10  24  40  66 100 138 172 220 292 336 400
#     4  12  26  42  69 104 135 181 233 284 344 399
#     4  12  24  48  67  98 144 180 231 286 332 416
#     4  11  23  43  66  98 141 177 228 285 338 410
#     4  10  24  45  71 104 138 183 226 284 347 404
#
# _framework density 23.870699999999999
#
# number of rings (size 3 to 8) (size 9 to 14) (size 15 to 20)
#    0.000    0.800    4.000    2.000    1.867    4.267 
#    2.400    0.000    0.000    0.000    0.000    0.000 
#    0.000    0.000    0.000    0.000    0.000    0.000 
#
# Total GULP energy -83738.233279 kJ/mol
# GULP energy per Si atom -5582.548885 kJ/mol
# Density = 2.381637 g / cm^3
# Si number density = 23.870700 Si / 1000 Ang^3
#
#
#
# Elastic Constant Matrix: (Units=GPa)
#
#
# Indices 1 2 3 4 5 6 
#
# 1 37.4097 20.6828 15.0546 -4.7851 2.9243 -1.8693
# 2 20.6828 75.6235 23.1142 -8.1496 8.6914 -1.4238
# 3 15.0546 23.1142 124.0156 2.2663 -10.8658 3.7153
# 4 -4.7851 -8.1496 2.2663 39.1867 10.5477 -4.1152
# 5 2.9243 8.6914 -10.8658 10.5477 38.1299 -6.3655
# 6 -1.8693 -1.4238 3.7153 -4.1152 -6.3655 37.0052
#
#
#
# Elastic Compliance Matrix: (Units=1/GPa)
#
#
# Indices 1 2 3 4 5 6 
#
# 1 0.032684 -0.007384 -0.002907 0.003421 -0.002325 0.001639
# 2 -0.007384 0.017194 -0.002858 0.004288 -0.005331 0.000135
# 3 -0.002907 -0.002858 0.009387 -0.002695 0.004164 -0.000783
# 4 0.003421 0.004288 -0.002695 0.029884 -0.009903 0.002228
# 5 -0.002325 -0.005331 0.004164 -0.009903 0.032162 0.003691
# 6 0.001639 0.000135 -0.000783 0.002228 0.003691 0.028072
#
#
# Mechanical properties :
#
#
# Convention : Reuss Voigt Hill
#
# Bulk Modulus (GPa) = 30.33253 39.41690 34.87471
# Shear Modulus (GPa) = 26.78541 34.74416 30.76478
#
# Velocity S-wave (km/s) = 3.35342 3.81926 3.59389
# Velocity P-wave (km/s) = 5.26578 5.99979 5.64473
#
# Compressibility (1/GPa) = 0.03296791
#
# Stress axis : x y z
#
# Youngs Moduli (GPa) = 30.59557 58.16071 106.53558
#
# Poissons Ratio (x) = 0.42945 0.30967
# Poissons Ratio (y) = 0.22591 0.30445
# Poissons Ratio (z) = 0.08893 0.16621
#
# Static dielectric constant tensor:
#      x y z
#    x 2.000760 0.025950 -0.018790 
#    y 0.025950 1.867010 -0.003960 
#    z -0.018790 -0.003960 1.867350 
# 
# From -- ./inp_files/236810.got.cif
#   From: 2010.05.17/outbox.cif.g08.bks.cpg/sg2_119_cif.got.tgz:236810.got - 2010.06.03 11:33:40.
