data_PCOD9036844
_publ_section_title
;
Structure prediction by ZEFSAII (Michael W. Deem and Ramdas Pophale) SiO2 
 PCOD9036844
Probable space group: P -1
;
_chemical_formula_sum "Si O2"
_cell_formula_units_Z 12
_cell_length_a 26.604012
_cell_length_b 26.718377
_cell_length_c 8.765771
_cell_angle_alpha 29.210439
_cell_angle_beta 150.999583
_cell_angle_gamma 168.969024
_cell_volume 571.018401
_symmetry_space_group_name_H-M "P -1"
_symmetry_group_IT_number 2
_symmetry_cell_setting 'triclinic'
loop_
_space_group_symop_operation_xyz
x,y,z
-x,-y,-z
loop_
_atom_site_type_symbol
_atom_site_label
_atom_site_fract_x
_atom_site_fract_y
_atom_site_fract_z
Si Si1 0.277855 0.219050 0.723364
Si Si2 0.015798 0.633828 0.648187
Si Si3 0.462766 0.163778 0.262263
Si Si4 0.406623 0.190212 0.712222
Si Si5 0.916774 0.691225 0.516079
Si Si6 0.419385 0.433222 0.137085
O O1 0.500000 0.500000 0.500000
O O2 0.324451 0.286734 0.843242
O O3 0.342349 0.160582 0.015900
O O4 0.000000 0.000000 0.500000
O O5 0.765616 0.433907 0.407120
O O6 0.990681 0.673930 0.632928
O O7 0.285487 0.912875 0.534503
O O8 0.000000 0.500000 0.000000
O O9 0.441617 0.149235 0.061162
O O10 0.669296 0.433121 0.655662
O O11 0.360632 0.261472 0.475210
O O12 0.159930 0.938735 0.616362
O O13 0.816309 0.698596 0.132589
O O14 0.500000 0.500000 0.000000
#
# Coordination Sequence:
#
# PCOD9036844 Si02
#       6
#     2   2   2   2   2   2
#     4  12  25  39  64 101 142 177 219 266 328 410
#     4  12  27  49  73  96 127 178 239 294 339 385
#     4  12  25  45  70 100 138 175 227 283 336 400
#     4  11  24  41  67 101 140 178 213 265 340 415
#     4  11  24  44  65  98 138 180 222 272 329 399
#     4  10  23  39  63  98 144 178 217 253 333 406
#
# _framework density 21.015083000000001
#
# number of rings (size 3 to 8) (size 9 to 14) (size 15 to 20)
#    0.000    0.667    3.333    4.000    7.000    0.000 
#    0.000    5.000    0.000    0.000    0.000    0.000 
#    0.000    0.000    0.000    0.000    0.000    0.000 
#
# Total GULP energy -67129.404426 kJ/mol
# GULP energy per Si atom -5594.117035 kJ/mol
# Density = 2.096725 g / cm^3
# Si number density = 21.015083 Si / 1000 Ang^3
#
#
#
# Elastic Constant Matrix: (Units=GPa)
#
#
# Indices 1 2 3 4 5 6 
#
# 1 93.2282 33.4557 28.9040 3.1066 -17.0273 -19.3390
# 2 33.4557 148.5353 3.8407 6.8438 -20.5224 -24.3942
# 3 28.9040 3.8407 66.1819 -10.5574 -7.5200 -16.1483
# 4 3.1066 6.8438 -10.5574 47.1736 -3.1778 -17.1682
# 5 -17.0273 -20.5224 -7.5200 -3.1778 32.7278 3.9258
# 6 -19.3390 -24.3942 -16.1483 -17.1682 3.9258 39.0422
#
#
#
# Elastic Compliance Matrix: (Units=1/GPa)
#
#
# Indices 1 2 3 4 5 6 
#
# 1 0.014517 -0.001912 -0.004888 -0.000212 0.004802 0.003398
# 2 -0.001912 0.008590 0.002578 0.001894 0.004464 0.005870
# 3 -0.004888 0.002578 0.021973 0.009511 0.003594 0.012098
# 4 -0.000212 0.001894 0.009511 0.029780 0.004030 0.017702
# 5 0.004802 0.004464 0.003594 0.004030 0.036499 0.004757
# 6 0.003398 0.005870 0.012098 0.017702 0.004757 0.043274
#
#
# Mechanical properties :
#
#
# Convention : Reuss Voigt Hill
#
# Bulk Modulus (GPa) = 27.29583 48.92737 38.11160
# Shear Modulus (GPa) = 28.52430 39.90505 34.21468
#
# Velocity S-wave (km/s) = 3.68819 4.36234 4.03935
# Velocity P-wave (km/s) = 5.58156 6.97896 6.31901
#
# Compressibility (1/GPa) = 0.03663563
#
# Stress axis : x y z
#
# Youngs Moduli (GPa) = 68.88411 116.41453 45.51110
#
# Poissons Ratio (x) = 0.22259 0.22247
# Poissons Ratio (y) = 0.13171 -0.11734
# Poissons Ratio (z) = 0.33673 -0.30014
#
# Static dielectric constant tensor:
#      x y z
#    x 1.717680 -0.017370 -0.061620 
#    y -0.017370 1.660930 -0.070770 
#    z -0.061620 -0.070770 1.768140 
# 
# From -- ./inp_files/59373.got.cif
#   From: 2010.05.17/outbox.cif.g08.bks.cpg/sg2_30_cif.got.tgz:59373.got - 2010.06.03 11:33:40.
