data_PCOD9036254
_publ_section_title
;
Structure prediction by ZEFSAII (Michael W. Deem and Ramdas Pophale) SiO2 
 PCOD9036254
Probable space group: P -1
;
_chemical_formula_sum "Si O2"
_cell_formula_units_Z 16
_cell_length_a 5.896987
_cell_length_b 5.252310
_cell_length_c 27.501257
_cell_angle_alpha 81.147148
_cell_angle_beta 48.040449
_cell_angle_gamma 80.250219
_cell_volume 623.295802
_symmetry_space_group_name_H-M "P -1"
_symmetry_group_IT_number 2
_symmetry_cell_setting 'triclinic'
loop_
_space_group_symop_operation_xyz
x,y,z
-x,-y,-z
loop_
_atom_site_type_symbol
_atom_site_label
_atom_site_fract_x
_atom_site_fract_y
_atom_site_fract_z
Si Si1 0.819836 0.221395 0.278855
Si Si2 0.473524 0.374050 0.148833
Si Si3 0.352913 0.246665 0.749917
Si Si4 0.970286 0.888408 0.351413
Si Si5 0.731513 0.365606 0.011076
Si Si6 0.513960 0.472695 0.439503
Si Si7 0.187694 0.153968 0.876511
Si Si8 0.960309 0.832249 0.465044
O O1 0.607636 0.477919 0.288564
O O2 0.148963 0.320978 0.217880
O O3 0.761432 0.971205 0.262488
O O4 0.800550 0.126234 0.339434
O O5 0.571233 0.657720 0.140276
O O6 0.710022 0.142972 0.142217
O O7 0.506969 0.307772 0.088719
O O8 0.696130 0.150694 0.719967
O O9 0.131143 0.279850 0.827684
O O10 0.015368 0.937613 0.400519
O O11 0.800093 0.627095 0.379614
O O12 0.924522 0.159159 0.954921
O O13 0.500000 0.500000 0.000000
O O14 0.000000 0.500000 0.000000
O O15 0.500000 0.500000 0.500000
O O16 0.234253 0.603151 0.441811
O O17 0.396287 0.194173 0.470948
O O18 0.000000 0.000000 0.500000
#
# Coordination Sequence:
#
# PCOD9036254 Si02
#       8
#     2   2   2   2   2   2   2   2
#     4  12  27  49  73 107 150 203 250 318 378 454
#     4  11  23  46  74 108 149 201 256 321 390 454
#     4  12  27  49  73 109 150 199 259 310 378 459
#     4  11  25  49  69 109 148 190 243 303 378 455
#     4  10  23  44  72 113 152 207 269 331 401 470
#     4   9  21  46  69 101 139 177 228 294 362 436
#     4  11  23  46  75 106 150 199 257 324 384 457
#     4  10  22  48  74 107 136 183 239 297 371 442
#
# _framework density 25.669996000000001
#
# number of rings (size 3 to 8) (size 9 to 14) (size 15 to 20)
#    0.000    1.250    1.250    3.375    0.000    4.000 
#   29.250    5.625    0.000    0.000    0.000    0.000 
#    0.000    0.000    0.000    0.000    0.000    0.000 
#
# Total GULP energy -89182.751679 kJ/mol
# GULP energy per Si atom -5573.921980 kJ/mol
# Density = 2.561157 g / cm^3
# Si number density = 25.669996 Si / 1000 Ang^3
#
#
#
# Elastic Constant Matrix: (Units=GPa)
#
#
# Indices 1 2 3 4 5 6 
#
# 1 77.6885 9.0428 18.9084 -14.9453 23.0778 -1.3850
# 2 9.0428 68.2588 -5.8979 -14.5957 18.5904 1.5948
# 3 18.9084 -5.8979 131.3130 -15.5345 24.6560 1.5871
# 4 -14.9453 -14.5957 -15.5345 32.8415 -11.7110 2.3050
# 5 23.0778 18.5904 24.6560 -11.7110 53.6040 -9.0062
# 6 -1.3850 1.5948 1.5871 2.3050 -9.0062 55.7365
#
#
#
# Elastic Compliance Matrix: (Units=1/GPa)
#
#
# Indices 1 2 3 4 5 6 
#
# 1 0.015592 0.000538 -0.000545 0.005112 -0.005656 -0.000738
# 2 0.000538 0.018279 0.002895 0.007526 -0.006589 -0.001968
# 3 -0.000545 0.002895 0.009109 0.003895 -0.004312 -0.001214
# 4 0.005112 0.007526 0.003895 0.038634 0.001579 -0.001542
# 5 -0.005656 -0.006589 -0.004312 0.001579 0.026439 0.004378
# 6 -0.000738 -0.001968 -0.001214 -0.001542 0.004378 0.018785
#
#
# Mechanical properties :
#
#
# Convention : Reuss Voigt Hill
#
# Bulk Modulus (GPa) = 20.51095 35.70741 28.10918
# Shear Modulus (GPa) = 36.41249 45.45019 40.93134
#
# Velocity S-wave (km/s) = 3.77036 4.21236 3.99748
# Velocity P-wave (km/s) = 5.19247 6.13181 5.68159
#
# Compressibility (1/GPa) = 0.04875444
#
# Stress axis : x y z
#
# Youngs Moduli (GPa) = 64.13407 54.70828 109.78143
#
# Poissons Ratio (x) = -0.02942 0.05988
# Poissons Ratio (y) = -0.03449 -0.31780
# Poissons Ratio (z) = 0.03498 -0.15837
#
# Static dielectric constant tensor:
#      x y z
#    x 1.910150 -0.120080 0.024230 
#    y -0.120080 1.979370 -0.014420 
#    z 0.024230 -0.014420 2.058970 
# 
# From -- ./inp_files/13988.got.cif
#   From: 2010.05.17/outbox.cif.g08.bks.cpg/sg2_7_cif.got.tgz:13988.got - 2010.06.03 11:33:40.
