data_PCOD9036096
_publ_section_title
;
Structure prediction by ZEFSAII (Michael W. Deem and Ramdas Pophale) SiO2 
 PCOD9036096
Probable space group: P -1
;
_chemical_formula_sum "Si O2"
_cell_formula_units_Z 16
_cell_length_a 8.842594
_cell_length_b 22.986822
_cell_length_c 7.788335
_cell_angle_alpha 124.736881
_cell_angle_beta 51.083218
_cell_angle_gamma 146.614457
_cell_volume 673.983967
_symmetry_space_group_name_H-M "P -1"
_symmetry_group_IT_number 2
_symmetry_cell_setting 'triclinic'
loop_
_space_group_symop_operation_xyz
x,y,z
-x,-y,-z
loop_
_atom_site_type_symbol
_atom_site_label
_atom_site_fract_x
_atom_site_fract_y
_atom_site_fract_z
Si Si1 0.659535 0.641960 0.005145
Si Si2 0.141574 0.155665 0.934879
Si Si3 0.235098 0.725588 0.802641
Si Si4 0.627423 0.957351 0.789800
Si Si5 0.311767 0.895919 0.574908
Si Si6 0.299163 0.510859 0.711335
Si Si7 0.774918 0.278504 0.797396
Si Si8 0.666299 0.401666 0.515701
O O1 0.411244 0.565457 0.909750
O O2 0.470914 0.395136 0.772569
O O3 0.794104 0.755976 0.069931
O O4 0.927683 0.660254 0.820379
O O5 0.936841 0.126469 0.188493
O O6 0.439679 0.204701 0.873851
O O7 0.959126 0.052370 0.772885
O O8 0.451109 0.849780 0.835108
O O9 0.392760 0.697410 0.581830
O O10 0.162910 0.697067 0.005337
O O11 0.535781 0.925387 0.605050
O O12 0.500000 0.000000 0.000000
O O13 0.171009 0.788683 0.405827
O O14 0.500000 0.000000 0.500000
O O15 0.500000 0.500000 0.500000
O O16 0.348875 0.581099 0.643745
O O17 0.024420 0.609355 0.252339
O O18 0.000000 0.500000 0.500000
#
# Coordination Sequence:
#
# PCOD9036096 Si02
#       8
#     2   2   2   2   2   2   2   2
#     4  12  26  49  78 105 152 204 248 311 386 438
#     4  11  25  47  73 108 148 193 246 310 376 460
#     4  12  26  48  75 108 149 195 255 310 379 453
#     4  10  22  47  73 105 150 189 244 311 373 458
#     4  11  25  46  78 108 149 194 246 309 385 453
#     4  12  27  51  78 111 156 205 259 314 380 453
#     4  12  27  46  76 109 147 195 251 314 377 446
#     4  12  28  47  75 111 151 197 258 315 374 450
#
# _framework density 23.739436999999999
#
# number of rings (size 3 to 8) (size 9 to 14) (size 15 to 20)
#    0.000    0.500    2.500    6.000    3.500    6.500 
#    0.000    2.500    0.000    0.000    0.000    0.000 
#    0.000    0.000    0.000    0.000    0.000    0.000 
#
# Total GULP energy -89681.408800 kJ/mol
# GULP energy per Si atom -5605.088050 kJ/mol
# Density = 2.368541 g / cm^3
# Si number density = 23.739437 Si / 1000 Ang^3
#
#
#
# Elastic Constant Matrix: (Units=GPa)
#
#
# Indices 1 2 3 4 5 6 
#
# 1 96.3562 28.5736 25.6424 -6.5495 -6.4471 7.2928
# 2 28.5736 141.4428 32.8451 -1.6284 -6.2072 -2.7355
# 3 25.6424 32.8451 93.5260 2.4086 3.1231 2.6213
# 4 -6.5495 -1.6284 2.4086 35.9591 -7.4603 0.6275
# 5 -6.4471 -6.2072 3.1231 -7.4603 34.7406 1.8170
# 6 7.2928 -2.7355 2.6213 0.6275 1.8170 47.6666
#
#
#
# Elastic Compliance Matrix: (Units=1/GPa)
#
#
# Indices 1 2 3 4 5 6 
#
# 1 0.012188 -0.001667 -0.002877 0.002987 0.002966 -0.001954
# 2 -0.001667 0.008061 -0.002456 0.000506 0.001419 0.000792
# 3 -0.002877 -0.002456 0.012486 -0.001987 -0.002508 -0.000266
# 4 0.002987 0.000506 -0.001987 0.030047 0.007328 -0.000993
# 5 0.002966 0.001419 -0.002508 0.007328 0.031468 -0.001530
# 6 -0.001954 0.000792 -0.000266 -0.000993 -0.001530 0.021410
#
#
# Mechanical properties :
#
#
# Convention : Reuss Voigt Hill
#
# Bulk Modulus (GPa) = 53.38209 56.16081 54.77145
# Shear Modulus (GPa) = 36.79059 39.95753 38.37406
#
# Velocity S-wave (km/s) = 3.94098 4.10710 4.02489
# Velocity P-wave (km/s) = 6.57601 6.79702 6.68743
#
# Compressibility (1/GPa) = 0.01873287
#
# Stress axis : x y z
#
# Youngs Moduli (GPa) = 82.05046 124.06022 80.08930
#
# Poissons Ratio (x) = 0.20683 0.23043
# Poissons Ratio (y) = 0.13680 0.19672
# Poissons Ratio (z) = 0.23608 0.30473
#
# Static dielectric constant tensor:
#      x y z
#    x 1.886710 -0.000480 0.003030 
#    y -0.000480 1.812350 -0.013510 
#    z 0.003030 -0.013510 1.930250 
# 
# From -- ./inp_files/224021.got.cif
#   From: 2010.05.17/outbox.cif.g08.bks.cpg/sg2_113_cif.got.tgz:224021.got - 2010.06.03 11:33:40.
