data_PCOD9036998
_publ_section_title
;
Structure prediction by ZEFSAII (Michael W. Deem and Ramdas Pophale) SiO2 
 PCOD9036998
Probable space group: P -1
;
_chemical_formula_sum "Si O2"
_cell_formula_units_Z 14
_cell_length_a 9.472007
_cell_length_b 10.367675
_cell_length_c 8.417324
_cell_angle_alpha 55.196458
_cell_angle_beta 72.982241
_cell_angle_gamma 68.664273
_cell_volume 628.301573
_symmetry_space_group_name_H-M "P -1"
_symmetry_group_IT_number 2
_symmetry_cell_setting 'triclinic'
loop_
_space_group_symop_operation_xyz
x,y,z
-x,-y,-z
loop_
_atom_site_type_symbol
_atom_site_label
_atom_site_fract_x
_atom_site_fract_y
_atom_site_fract_z
Si Si1 0.301832 0.127486 0.862043
Si Si2 0.532761 0.632512 0.008838
Si Si3 0.334203 0.481725 0.627269
Si Si4 0.128725 0.012450 0.575644
Si Si5 0.806970 0.158305 0.001514
Si Si6 0.956467 0.334479 0.579348
Si Si7 0.605929 0.939997 0.750675
O O1 0.285190 0.317345 0.709056
O O2 0.182120 0.019360 0.951448
O O3 0.436656 0.051111 0.746734
O O4 0.345323 0.093030 0.057428
O O5 0.639737 0.542467 0.176936
O O6 0.500000 0.500000 0.000000
O O7 0.368088 0.740654 0.044711
O O8 0.605218 0.763714 0.808157
O O9 0.500000 0.500000 0.500000
O O10 0.195104 0.622703 0.512039
O O11 0.283361 0.987971 0.442012
O O12 0.079444 0.191707 0.548332
O O13 0.154221 0.878712 0.800930
O O14 0.000000 0.000000 0.500000
O O15 0.907188 0.258148 0.808840
O O16 0.000000 0.500000 0.500000
#
# Coordination Sequence:
#
# PCOD9036998 Si02
#       7
#     2   2   2   2   2   2   2
#     4   9  20  43  74  98 136 176 240 287 347 416
#     4  10  23  39  68 102 139 168 230 302 344 401
#     4  11  23  42  74 102 134 185 234 289 346 420
#     4  12  28  43  69 100 145 187 238 284 353 439
#     4  11  24  46  69  98 136 191 234 290 348 425
#     4  12  28  48  72 104 146 193 232 291 366 431
#     4   9  21  41  68 101 132 183 228 289 342 412
#
# _framework density 22.282291000000001
#
# number of rings (size 3 to 8) (size 9 to 14) (size 15 to 20)
#    0.000    1.429    1.429    3.000    6.000    5.714 
#    0.000    3.571    0.000    0.000    0.000    0.000 
#    0.000    0.000    0.000    0.000    0.000    0.000 
#
# Total GULP energy -78182.826063 kJ/mol
# GULP energy per Si atom -5584.487576 kJ/mol
# Density = 2.223158 g / cm^3
# Si number density = 22.282291 Si / 1000 Ang^3
#
#
#
# Elastic Constant Matrix: (Units=GPa)
#
#
# Indices 1 2 3 4 5 6 
#
# 1 83.2496 25.8541 54.7484 -9.9176 6.1910 6.5794
# 2 25.8541 77.9749 41.9160 -8.7792 -3.4801 14.4797
# 3 54.7484 41.9160 144.3119 -9.1528 -13.5399 -2.0122
# 4 -9.9176 -8.7792 -9.1528 21.6902 -2.9095 -3.7638
# 5 6.1910 -3.4801 -13.5399 -2.9095 50.5174 -10.3286
# 6 6.5794 14.4797 -2.0122 -3.7638 -10.3286 47.3975
#
#
#
# Elastic Compliance Matrix: (Units=1/GPa)
#
#
# Indices 1 2 3 4 5 6 
#
# 1 0.017787 -0.001655 -0.006493 0.003624 -0.004421 -0.002915
# 2 -0.001655 0.016904 -0.004191 0.003377 -0.000578 -0.004970
# 3 -0.006493 -0.004191 0.011147 0.001260 0.004323 0.003697
# 4 0.003624 0.003377 0.001260 0.050744 0.003736 0.003363
# 5 -0.004421 -0.000578 0.004323 0.003736 0.022954 0.006272
# 6 -0.002915 -0.004970 0.003697 0.003363 0.006272 0.024812
#
#
# Mechanical properties :
#
#
# Convention : Reuss Voigt Hill
#
# Bulk Modulus (GPa) = 47.26057 61.17481 54.21769
# Shear Modulus (GPa) = 28.39640 36.12221 32.25931
#
# Velocity S-wave (km/s) = 3.57374 4.03068 3.80907
# Velocity P-wave (km/s) = 6.18747 7.01255 6.61289
#
# Compressibility (1/GPa) = 0.02115929
#
# Stress axis : x y z
#
# Youngs Moduli (GPa) = 56.22093 59.15848 89.71020
#
# Poissons Ratio (x) = 0.09793 0.58246
# Poissons Ratio (y) = 0.09307 0.37598
# Poissons Ratio (z) = 0.36503 0.24794
#
# Static dielectric constant tensor:
#      x y z
#    x 2.064010 -0.153510 0.066740 
#    y -0.153510 1.953050 -0.061500 
#    z 0.066740 -0.061500 1.811010 
# 
# From -- ./inp_files/174040.got.cif
#   From: 2010.05.17/outbox.cif.g08.bks.cpg/sg2_88_cif.got.tgz:174040.got - 2010.06.03 11:33:40.
