data_PCOD9036578
_publ_section_title
;
Structure prediction by ZEFSAII (Michael W. Deem and Ramdas Pophale) SiO2 
 PCOD9036578
Probable space group: P -1
;
_chemical_formula_sum "Si O2"
_cell_formula_units_Z 14
_cell_length_a 10.365065
_cell_length_b 13.732725
_cell_length_c 13.220312
_cell_angle_alpha 127.552588
_cell_angle_beta 20.702478
_cell_angle_gamma 121.523808
_cell_volume 519.839760
_symmetry_space_group_name_H-M "P -1"
_symmetry_group_IT_number 2
_symmetry_cell_setting 'triclinic'
loop_
_space_group_symop_operation_xyz
x,y,z
-x,-y,-z
loop_
_atom_site_type_symbol
_atom_site_label
_atom_site_fract_x
_atom_site_fract_y
_atom_site_fract_z
Si Si1 0.287923 0.255817 0.242124
Si Si2 0.456028 0.255866 0.769648
Si Si3 0.574703 0.715779 0.627855
Si Si4 0.294205 0.411418 0.161437
Si Si5 0.428437 0.997876 0.914311
Si Si6 0.571589 0.997930 0.583283
Si Si7 0.708785 0.715795 0.304344
O O1 0.258087 0.331156 0.416174
O O2 0.491767 0.321840 0.048004
O O3 0.497141 0.112285 0.007314
O O4 0.875309 0.249049 0.499192
O O5 0.390082 0.112388 0.717683
O O6 0.410890 0.331207 0.745987
O O7 0.186029 0.322030 0.095927
O O8 0.668654 0.661959 0.412279
O O9 0.141455 0.716429 0.966752
O O10 0.656156 0.858563 0.656459
O O11 0.000000 0.500000 0.500000
O O12 0.500000 0.500000 0.000000
O O13 0.006884 0.984567 0.235604
O O14 0.474080 0.047452 0.799130
O O15 0.483963 0.858554 0.561588
#
# Coordination Sequence:
#
# PCOD9036578 Si02
#       7
#     2   2   2   2   2   2   2
#     4  11  23  41  68  94 125 168 217 263 313 370
#     4  11  23  41  68  94 125 168 217 263 313 370
#     4  10  23  38  61  96 139 170 199 246 316 391
#     4  12  26  44  66  96 122 160 220 284 318 352
#     4   9  18  34  56  92 130 168 204 245 303 380
#     4   9  18  34  56  92 130 168 204 245 303 380
#     4  10  23  38  61  96 139 170 199 246 316 391
#
# _framework density 26.931376
#
# number of rings (size 3 to 8) (size 9 to 14) (size 15 to 20)
#    0.000    1.714    2.857    0.857    4.000    0.000 
#    0.000   11.429    0.000    5.143    0.000    0.000 
#    0.000    0.000    0.000    0.000    0.000    0.000 
#
# Total GULP energy -78210.725217 kJ/mol
# GULP energy per Si atom -5586.480373 kJ/mol
# Density = 2.687008 g / cm^3
# Si number density = 26.931376 Si / 1000 Ang^3
#
#
#
# Elastic Constant Matrix: (Units=GPa)
#
#
# Indices 1 2 3 4 5 6 
#
# 1 191.1668 1.1286 43.0554 -22.7818 28.4031 -39.6012
# 2 1.1286 58.7031 17.5344 -12.5399 -2.3220 -13.2675
# 3 43.0554 17.5344 124.9091 -36.2419 21.5333 0.8125
# 4 -22.7818 -12.5399 -36.2419 37.9214 -7.1753 22.6802
# 5 28.4031 -2.3220 21.5333 -7.1753 47.6869 -15.9742
# 6 -39.6012 -13.2675 0.8125 22.6802 -15.9742 26.8425
#
#
#
# Elastic Compliance Matrix: (Units=1/GPa)
#
#
# Indices 1 2 3 4 5 6 
#
# 1 -0.001556 -0.008693 0.016322 0.038436 -0.017905 -0.050217
# 2 -0.008693 0.007592 0.019228 0.048741 -0.016026 -0.060374
# 3 0.016322 0.019228 -0.027039 -0.071437 0.030499 0.112912
# 4 0.038436 0.048741 -0.071437 -0.129623 0.070832 0.234634
# 5 -0.017905 -0.016026 0.030499 0.070832 -0.005145 -0.098170
# 6 -0.050217 -0.060374 0.112912 0.234634 -0.098170 -0.326762
#
#
# Mechanical properties :
#
#
# Convention : Reuss Voigt Hill
#
# Bulk Modulus (GPa) = 30.57016 55.35728 42.96372
# Shear Modulus (GPa) = -9.51760 43.36086 16.92163
#
# Velocity S-wave (km/s) = -1.88194 4.01690 2.50936
# Velocity P-wave (km/s) = 2.57944 6.48949 4.93797
#
# Compressibility (1/GPa) = 0.03271164
#
# Stress axis : x y z
#
# Youngs Moduli (GPa) = -642.86518 131.72533 -36.98388
#
# Poissons Ratio (x) = 1.14503 0.60364
# Poissons Ratio (y) = -5.58813 0.71113
# Poissons Ratio (z) = 10.49269 -2.53281
#
# Static dielectric constant tensor:
#      x y z
#    x 2.314300 0.007980 -0.060290 
#    y 0.007980 2.180580 0.038460 
#    z -0.060290 0.038460 2.132280 
# 
# From -- ./inp_files/399226.got.cif
#   From: 2010.05.17/outbox.cif.g08.bks.cpg/sg2_200_cif.got.tgz:399226.got - 2010.06.03 11:33:40.
