data_PCOD9036273
_publ_section_title
;
Structure prediction by ZEFSAII (Michael W. Deem and Ramdas Pophale) SiO2 
 PCOD9036273
Probable space group: P -1
;
_chemical_formula_sum "Si O2"
_cell_formula_units_Z 15
_cell_length_a 6.947050
_cell_length_b 7.839347
_cell_length_c 22.593735
_cell_angle_alpha 36.502474
_cell_angle_beta 50.169045
_cell_angle_gamma 63.653677
_cell_volume 555.245992
_symmetry_space_group_name_H-M "P -1"
_symmetry_group_IT_number 2
_symmetry_cell_setting 'triclinic'
loop_
_space_group_symop_operation_xyz
x,y,z
-x,-y,-z
loop_
_atom_site_type_symbol
_atom_site_label
_atom_site_fract_x
_atom_site_fract_y
_atom_site_fract_z
Si Si1 0.152098 0.788989 0.414618
Si Si2 0.980123 0.516438 0.358479
Si Si3 0.500000 0.000000 0.000000
Si Si4 0.751745 0.231110 0.369146
Si Si5 0.381827 0.889540 0.798904
Si Si6 0.336040 0.581871 0.073281
Si Si7 0.551944 0.476741 0.223663
Si Si8 0.117632 0.169522 0.135750
O O1 0.000000 0.500000 0.500000
O O2 0.159432 0.709239 0.504101
O O3 0.421684 0.820084 0.319691
O O4 0.990535 0.052121 0.363675
O O5 0.265850 0.461917 0.307248
O O6 0.824705 0.445186 0.349486
O O7 0.015997 0.859824 0.272136
O O8 0.256391 0.731062 0.105662
O O9 0.621280 0.757571 0.089407
O O10 0.706614 0.413301 0.268951
O O11 0.500000 0.000000 0.500000
O O12 0.515533 0.688478 0.871456
O O13 0.428569 0.783528 0.752828
O O14 0.082143 0.832403 0.877386
O O15 0.152457 0.450953 0.093527
O O16 0.599930 0.830325 0.947579
#
# Coordination Sequence:
#
# PCOD9036273 Si02
#       8
#     2   2   1   2   2   2   2   2
#     4  12  27  46  74 108 155 193 249 314 369 450
#     4  12  25  48  71 108 152 194 242 308 369 449
#     4  10  22  48  76 110 144 194 244 320 360 444
#     4  12  26  46  74 105 145 203 248 297 375 445
#     4  11  25  44  69 104 145 191 242 308 368 437
#     4  10  23  47  72 100 145 185 250 304 370 436
#     4  11  24  46  75 104 147 192 250 303 372 439
#     4  11  25  44  74 103 143 192 243 305 375 437
#
# _framework density 27.015055
#
# number of rings (size 3 to 8) (size 9 to 14) (size 15 to 20)
#    0.000    0.800    4.000    2.400    5.600    1.600 
#    2.400    2.000    0.000    0.000    0.000    0.000 
#    0.000    0.000    0.000    0.000    0.000    0.000 
#
# Total GULP energy -83639.700095 kJ/mol
# GULP energy per Si atom -5575.980006 kJ/mol
# Density = 2.695357 g / cm^3
# Si number density = 27.015055 Si / 1000 Ang^3
#
#
#
# Elastic Constant Matrix: (Units=GPa)
#
#
# Indices 1 2 3 4 5 6 
#
# 1 145.4756 15.9775 78.0943 -4.3505 11.8014 7.0148
# 2 15.9775 58.9763 35.1685 -4.5777 -7.0205 -13.4202
# 3 78.0943 35.1685 161.9384 -4.7767 -5.4891 2.1936
# 4 -4.3505 -4.5777 -4.7767 39.0015 4.1415 -3.7027
# 5 11.8014 -7.0205 -5.4891 4.1415 61.3207 4.4069
# 6 7.0148 -13.4202 2.1936 -3.7027 4.4069 38.6629
#
#
#
# Elastic Compliance Matrix: (Units=1/GPa)
#
#
# Indices 1 2 3 4 5 6 
#
# 1 0.009658 -0.000387 -0.004615 0.000582 -0.002261 -0.001311
# 2 -0.000387 0.021990 -0.004573 0.002590 0.001429 0.008048
# 3 -0.004615 -0.004573 0.009454 -0.000173 0.001327 -0.001454
# 4 0.000582 0.002590 -0.000173 0.026525 -0.001878 0.003557
# 5 -0.002261 0.001429 0.001327 -0.001878 0.017247 -0.001315
# 6 -0.001311 0.008048 -0.001454 0.003557 -0.001315 0.029469
#
#
# Mechanical properties :
#
#
# Convention : Reuss Voigt Hill
#
# Bulk Modulus (GPa) = 45.55509 69.43010 57.49260
# Shear Modulus (GPa) = 35.50862 43.60702 39.55782
#
# Velocity S-wave (km/s) = 3.62940 4.02204 3.83075
# Velocity P-wave (km/s) = 5.87051 6.87934 6.39485
#
# Compressibility (1/GPa) = 0.02195144
#
# Stress axis : x y z
#
# Youngs Moduli (GPa) = 103.53920 45.47444 105.77830
#
# Poissons Ratio (x) = 0.01758 0.48821
# Poissons Ratio (y) = 0.04004 0.48377
# Poissons Ratio (z) = 0.47787 0.20797
#
# Static dielectric constant tensor:
#      x y z
#    x 2.282800 -0.158880 -0.007060 
#    y -0.158880 0.951370 -0.087390 
#    z -0.007060 -0.087390 2.270720 
# 
# From -- ./inp_files/340368.got.cif
#   From: 2010.05.17/outbox.cif.g08.bks.cpg/sg2_171_cif.got.tgz:340368.got - 2010.06.03 11:33:40.
