data_PCOD9036745
_publ_section_title
;
Structure prediction by ZEFSAII (Michael W. Deem and Ramdas Pophale) SiO2 
 PCOD9036745
Probable space group: P -1
;
_chemical_formula_sum "Si O2"
_cell_formula_units_Z 16
_cell_length_a 6.330950
_cell_length_b 9.084507
_cell_length_c 25.197856
_cell_angle_alpha 149.629613
_cell_angle_beta 94.570860
_cell_angle_gamma 83.580896
_cell_volume 727.708185
_symmetry_space_group_name_H-M "P -1"
_symmetry_group_IT_number 2
_symmetry_cell_setting 'triclinic'
loop_
_space_group_symop_operation_xyz
x,y,z
-x,-y,-z
loop_
_atom_site_type_symbol
_atom_site_label
_atom_site_fract_x
_atom_site_fract_y
_atom_site_fract_z
Si Si1 0.988451 0.151842 0.958013
Si Si2 0.707352 0.899446 0.306494
Si Si3 0.412834 0.439636 0.617244
Si Si4 0.203658 0.033619 0.551641
Si Si5 0.053616 0.655081 0.603193
Si Si6 0.706641 0.372811 0.931585
Si Si7 0.624118 0.890880 0.708916
Si Si8 0.307684 0.778315 0.921605
O O1 0.837895 0.133394 0.897646
O O2 0.824857 0.224129 0.026310
O O3 0.150236 0.903697 0.910309
O O4 0.140899 0.390559 0.013288
O O5 0.808732 0.973267 0.387661
O O6 0.496362 0.103068 0.348085
O O7 0.649749 0.566512 0.198300
O O8 0.871453 0.019953 0.304808
O O9 0.296490 0.342613 0.636499
O O10 0.236410 0.448374 0.570573
O O11 0.492821 0.755941 0.711591
O O12 0.611922 0.210913 0.538114
O O13 0.000000 0.000000 0.500000
O O14 0.000000 0.500000 0.500000
O O15 0.846195 0.704685 0.650069
O O16 0.640901 0.216948 0.828651
O O17 0.500000 0.500000 0.000000
O O18 0.500000 0.000000 0.000000
#
# Coordination Sequence:
#
# PCOD9036745 Si02
#       8
#     2   2   2   2   2   2   2   2
#     4  10  23  40  64  91 125 167 214 260 322 384
#     4  11  24  39  64  93 122 164 216 256 315 388
#     4  10  23  39  60  89 122 159 207 256 312 381
#     4  11  23  41  61  89 128 166 206 263 320 378
#     4  11  22  41  65  90 124 164 209 266 319 376
#     4  11  23  42  65  92 126 167 213 272 327 379
#     4  11  23  40  64  92 122 163 213 261 319 386
#     4  11  23  42  63  93 132 170 211 266 319 383
#
# _framework density 21.986834999999999
#
# number of rings (size 3 to 8) (size 9 to 14) (size 15 to 20)
#    0.000    1.250    0.000    6.000    0.000   11.000 
#    0.000    0.000    0.000    0.000    0.000    0.000 
#    0.000    0.000    0.000    0.000    0.000    0.000 
#
# Total GULP energy -89167.163280 kJ/mol
# GULP energy per Si atom -5572.947705 kJ/mol
# Density = 2.193679 g / cm^3
# Si number density = 21.986835 Si / 1000 Ang^3
#
#
#
# Elastic Constant Matrix: (Units=GPa)
#
#
# Indices 1 2 3 4 5 6 
#
# 1 124.5225 51.6732 29.8931 2.6422 6.6062 -9.4046
# 2 51.6732 137.1430 12.3312 8.3323 6.4260 -10.6556
# 3 29.8931 12.3312 51.4837 5.1044 11.8848 0.4591
# 4 2.6422 8.3323 5.1044 29.6209 4.1291 6.3508
# 5 6.6062 6.4260 11.8848 4.1291 23.3158 6.6455
# 6 -9.4046 -10.6556 0.4591 6.3508 6.6455 56.1563
#
#
#
# Elastic Compliance Matrix: (Units=1/GPa)
#
#
# Indices 1 2 3 4 5 6 
#
# 1 0.010920 -0.003584 -0.005641 0.000730 0.000334 0.001073
# 2 -0.003584 0.008940 0.000569 -0.002384 -0.001764 0.001570
# 3 -0.005641 0.000569 0.025403 -0.002595 -0.011212 0.000576
# 4 0.000730 -0.002384 -0.002595 0.036154 -0.003494 -0.003984
# 5 0.000334 -0.001764 -0.011212 -0.003494 0.051285 -0.005861
# 6 0.001073 0.001570 0.000576 -0.003984 -0.005861 0.019424
#
#
# Mechanical properties :
#
#
# Convention : Reuss Voigt Hill
#
# Bulk Modulus (GPa) = 35.77620 55.66047 45.71834
# Shear Modulus (GPa) = 27.97115 36.43537 32.20326
#
# Velocity S-wave (km/s) = 3.57063 4.07522 3.83124
# Velocity P-wave (km/s) = 5.77115 6.89301 6.35687
#
# Compressibility (1/GPa) = 0.02795154
#
# Stress axis : x y z
#
# Youngs Moduli (GPa) = 91.57598 111.85316 39.36538
#
# Poissons Ratio (x) = 0.40086 0.22206
# Poissons Ratio (y) = 0.32819 -0.02240
# Poissons Ratio (z) = 0.51659 -0.06366
#
# Static dielectric constant tensor:
#      x y z
#    x 1.747540 0.123830 0.051330 
#    y 0.123830 1.691650 0.040250 
#    z 0.051330 0.040250 1.800940 
# 
# From -- ./inp_files/40015.got.cif
#   From: 2010.05.17/outbox.cif.g08.bks.cpg/sg2_21_cif.got.tgz:40015.got - 2010.06.03 11:33:40.
