data_PCOD9036020
_publ_section_title
;
Structure prediction by ZEFSAII (Michael W. Deem and Ramdas Pophale) SiO2 
 PCOD9036020
Probable space group: P -1
;
_chemical_formula_sum "Si O2"
_cell_formula_units_Z 15
_cell_length_a 8.463049
_cell_length_b 8.699362
_cell_length_c 14.012734
_cell_angle_alpha 113.849755
_cell_angle_beta 139.262716
_cell_angle_gamma 64.869913
_cell_volume 603.547060
_symmetry_space_group_name_H-M "P -1"
_symmetry_group_IT_number 2
_symmetry_cell_setting 'triclinic'
loop_
_space_group_symop_operation_xyz
x,y,z
-x,-y,-z
loop_
_atom_site_type_symbol
_atom_site_label
_atom_site_fract_x
_atom_site_fract_y
_atom_site_fract_z
Si Si1 0.503542 0.804177 0.427783
Si Si2 0.795939 0.442810 0.822974
Si Si3 0.256932 0.292842 0.292323
Si Si4 0.875991 0.751333 0.406930
Si Si5 0.723898 0.224584 0.034198
Si Si6 0.500000 0.000000 0.000000
Si Si7 0.556071 0.521229 0.169720
Si Si8 0.332552 0.898629 0.709045
O O1 0.245562 0.749974 0.265149
O O2 0.600516 0.700784 0.542007
O O3 0.699944 0.768633 0.423291
O O4 0.500000 0.000000 0.500000
O O5 0.818146 0.528965 0.753609
O O6 0.542402 0.518662 0.782471
O O7 0.000000 0.500000 0.000000
O O8 0.430048 0.171254 0.265513
O O9 0.009195 0.221487 0.177740
O O10 0.823522 0.571983 0.298320
O O11 0.143777 0.775233 0.563418
O O12 0.780628 0.907792 0.330482
O O13 0.551446 0.364138 0.058702
O O14 0.652180 0.048830 0.987536
O O15 0.635725 0.308684 0.912631
O O16 0.338466 0.908935 0.828670
#
# Coordination Sequence:
#
# PCOD9036020 Si02
#       8
#     2   2   2   2   2   1   2   2
#     4  11  24  46  70 105 148 191 243 296 363 429
#     4  11  24  46  70 105 148 191 243 296 363 429
#     4  12  25  47  70 110 139 190 237 304 353 430
#     4  10  22  47  69  97 139 191 233 288 352 428
#     4  11  24  43  70 103 141 181 238 290 362 420
#     4  12  24  46  66 112 136 184 236 296 360 438
#     4  10  22  47  69  97 139 191 233 288 352 428
#     4  11  24  43  70 103 141 181 238 290 362 420
#
# _framework density 24.853073999999999
#
# number of rings (size 3 to 8) (size 9 to 14) (size 15 to 20)
#    0.000    1.067    4.000    2.000    0.000    2.667 
#    9.600    3.333    0.000    0.000    0.000    0.000 
#    0.000    0.000    0.000    0.000    0.000    0.000 
#
# Total GULP energy -83615.644551 kJ/mol
# GULP energy per Si atom -5574.376303 kJ/mol
# Density = 2.479651 g / cm^3
# Si number density = 24.853074 Si / 1000 Ang^3
#
#
#
# Elastic Constant Matrix: (Units=GPa)
#
#
# Indices 1 2 3 4 5 6 
#
# 1 77.4879 19.2485 20.2722 -4.8318 -3.7298 24.8403
# 2 19.2485 52.1952 34.7705 -1.0741 5.8472 27.6923
# 3 20.2722 34.7705 130.4117 1.7995 -0.2825 14.9620
# 4 -4.8318 -1.0741 1.7995 34.8044 17.2109 -1.7199
# 5 -3.7298 5.8472 -0.2825 17.2109 53.4982 1.4832
# 6 24.8403 27.6923 14.9620 -1.7199 1.4832 40.0654
#
#
#
# Elastic Compliance Matrix: (Units=1/GPa)
#
#
# Indices 1 2 3 4 5 6 
#
# 1 0.016526 -0.000110 -0.001455 0.001413 0.000968 -0.009602
# 2 -0.000110 0.036135 -0.007138 0.002446 -0.004172 -0.021982
# 3 -0.001455 -0.007138 0.009570 -0.001357 0.001106 0.002163
# 4 0.001413 0.002446 -0.001357 0.034666 -0.011324 -0.000152
# 5 0.000968 -0.004172 0.001106 -0.011324 0.022850 0.000539
# 6 -0.009602 -0.021982 0.002163 -0.000152 0.000539 0.045272
#
#
# Mechanical properties :
#
#
# Convention : Reuss Voigt Hill
#
# Bulk Modulus (GPa) = 22.30928 45.40856 33.85892
# Shear Modulus (GPa) = 25.33342 38.06052 31.69697
#
# Velocity S-wave (km/s) = 3.19615 3.91758 3.57511
# Velocity P-wave (km/s) = 4.75568 6.22686 5.54032
#
# Compressibility (1/GPa) = 0.04482440
#
# Stress axis : x y z
#
# Youngs Moduli (GPa) = 60.51060 27.67390 104.48896
#
# Poissons Ratio (x) = 0.00305 0.15207
# Poissons Ratio (y) = 0.00667 0.74584
# Poissons Ratio (z) = 0.08807 0.19754
#
# Static dielectric constant tensor:
#      x y z
#    x 1.908350 -0.030180 -0.043190 
#    y -0.030180 2.145380 0.080990 
#    z -0.043190 0.080990 2.109550 
# 
# From -- ./inp_files/238425.got.cif
#   From: 2010.05.17/outbox.cif.g08.bks.cpg/sg2_120_cif.got.tgz:238425.got - 2010.06.03 11:33:40.
