data_PCOD9036863
_publ_section_title
;
Structure prediction by ZEFSAII (Michael W. Deem and Ramdas Pophale) SiO2 
 PCOD9036863
Probable space group: P -1
;
_chemical_formula_sum "Si O2"
_cell_formula_units_Z 14
_cell_length_a 12.832134
_cell_length_b 23.865686
_cell_length_c 8.075929
_cell_angle_alpha 45.925527
_cell_angle_beta 27.955338
_cell_angle_gamma 29.604811
_cell_volume 544.051084
_symmetry_space_group_name_H-M "P -1"
_symmetry_group_IT_number 2
_symmetry_cell_setting 'triclinic'
loop_
_space_group_symop_operation_xyz
x,y,z
-x,-y,-z
loop_
_atom_site_type_symbol
_atom_site_label
_atom_site_fract_x
_atom_site_fract_y
_atom_site_fract_z
Si Si1 0.783758 0.122971 0.767554
Si Si2 0.913628 0.761158 0.153028
Si Si3 0.276488 0.818353 0.921142
Si Si4 0.170490 0.591550 0.895527
Si Si5 0.149881 0.374904 0.025729
Si Si6 0.820871 0.957440 0.951279
Si Si7 0.648014 0.377225 0.870739
O O1 0.063690 0.052875 0.375607
O O2 0.595543 0.089512 0.061998
O O3 0.920564 0.099312 0.808080
O O4 0.515824 0.261561 0.819051
O O5 0.634652 0.767258 0.545942
O O6 0.241055 0.666912 0.006428
O O7 0.734349 0.889772 0.189744
O O8 0.064065 0.704701 0.875703
O O9 0.104405 0.883939 0.851651
O O10 0.311084 0.715993 0.086568
O O11 0.500000 0.500000 0.500000
O O12 0.282350 0.509394 0.063677
O O13 0.863316 0.638938 0.123068
O O14 0.910299 0.374136 0.449737
O O15 0.000000 0.500000 0.000000
#
# Coordination Sequence:
#
# PCOD9036863 Si02
#       7
#     2   2   2   2   2   2   2
#     4  11  23  47  70  99 143 176 230 281 341 397
#     4  11  23  44  68  97 138 175 230 280 338 411
#     4  11  23  45  70 100 137 178 228 280 343 403
#     4  10  23  39  64  96 132 177 223 278 334 399
#     4  11  23  41  70  99 128 178 229 274 338 406
#     4  10  26  44  69 104 135 182 225 286 332 408
#     4  10  23  42  65 100 133 176 219 283 340 392
#
# _framework density 25.732876000000001
#
# number of rings (size 3 to 8) (size 9 to 14) (size 15 to 20)
#    0.000    1.429    1.429    2.571    8.000    1.143 
#    2.571    2.143    0.000    0.000    0.000    0.000 
#    0.000    0.000    0.000    0.000    0.000    0.000 
#
# Total GULP energy -78255.856201 kJ/mol
# GULP energy per Si atom -5589.704014 kJ/mol
# Density = 2.567431 g / cm^3
# Si number density = 25.732876 Si / 1000 Ang^3
#
#
#
# Elastic Constant Matrix: (Units=GPa)
#
#
# Indices 1 2 3 4 5 6 
#
# 1 168.2266 54.8404 32.7162 -6.1618 -9.1047 30.1018
# 2 54.8404 140.3411 38.2285 -35.2949 -7.0208 29.1201
# 3 32.7162 38.2285 80.1678 -23.0415 -5.5681 22.0620
# 4 -6.1618 -35.2949 -23.0415 38.3545 10.2901 -16.1597
# 5 -9.1047 -7.0208 -5.5681 10.2901 25.9667 -0.6686
# 6 30.1018 29.1201 22.0620 -16.1597 -0.6686 56.9827
#
#
#
# Elastic Compliance Matrix: (Units=1/GPa)
#
#
# Indices 1 2 3 4 5 6 
#
# 1 0.007887 -0.002910 -0.002135 -0.004964 0.003405 -0.003220
# 2 -0.002910 0.010991 -0.001333 0.008907 -0.001891 -0.001060
# 3 -0.002135 -0.001333 0.016834 0.007625 -0.000587 -0.002553
# 4 -0.004964 0.008907 0.007625 0.045527 -0.015537 0.007847
# 5 0.003405 -0.001891 -0.000587 -0.015537 0.045109 -0.004482
# 6 -0.003220 -0.001060 -0.002553 0.007847 -0.004482 0.022953
#
#
# Mechanical properties :
#
#
# Convention : Reuss Voigt Hill
#
# Bulk Modulus (GPa) = 43.56254 71.14507 57.35380
# Shear Modulus (GPa) = 29.46207 41.79081 35.62644
#
# Velocity S-wave (km/s) = 3.38734 4.03429 3.72489
# Velocity P-wave (km/s) = 5.68016 7.02910 6.39032
#
# Compressibility (1/GPa) = 0.02295550
#
# Stress axis : x y z
#
# Youngs Moduli (GPa) = 126.79147 90.98211 59.40267
#
# Poissons Ratio (x) = 0.26478 0.12681
# Poissons Ratio (y) = 0.36900 0.07920
# Poissons Ratio (z) = 0.27068 0.12131
#
# Static dielectric constant tensor:
#      x y z
#    x 2.080150 -0.012120 0.071870 
#    y -0.012120 2.084280 -0.035440 
#    z 0.071870 -0.035440 2.152100 
# 
# From -- ./inp_files/281573.got.cif
#   From: 2010.05.17/outbox.cif.g08.bks.cpg/sg2_141_cif.got.tgz:281573.got - 2010.06.03 11:33:40.
