data_PCOD9036636
_publ_section_title
;
Structure prediction by ZEFSAII (Michael W. Deem and Ramdas Pophale) SiO2 
 PCOD9036636
Probable space group: P -1
;
_chemical_formula_sum "Si O2"
_cell_formula_units_Z 12
_cell_length_a 12.778110
_cell_length_b 18.213853
_cell_length_c 5.074311
_cell_angle_alpha 100.743482
_cell_angle_beta 91.724650
_cell_angle_gamma 30.178534
_cell_volume 562.363529
_symmetry_space_group_name_H-M "P -1"
_symmetry_group_IT_number 2
_symmetry_cell_setting 'triclinic'
loop_
_space_group_symop_operation_xyz
x,y,z
-x,-y,-z
loop_
_atom_site_type_symbol
_atom_site_label
_atom_site_fract_x
_atom_site_fract_y
_atom_site_fract_z
Si Si1 0.628951 0.113267 0.077901
Si Si2 0.395174 0.636339 0.941308
Si Si3 0.133009 0.443736 0.222142
Si Si4 0.179373 0.589932 0.411138
Si Si5 0.006347 0.778516 0.011970
Si Si6 0.751943 0.130763 0.601878
O O1 0.666034 0.152189 0.334748
O O2 0.375009 0.260304 0.121888
O O3 0.724582 0.084562 0.792019
O O4 0.763250 0.957424 0.075964
O O5 0.843540 0.243140 0.065766
O O6 0.500000 0.500000 0.000000
O O7 0.375294 0.718929 0.189339
O O8 0.153988 0.520188 0.282088
O O9 0.000000 0.500000 0.500000
O O10 0.000000 0.500000 0.000000
O O11 0.076999 0.671476 0.739122
O O12 0.064684 0.713680 0.264634
O O13 0.434502 0.450315 0.330635
O O14 0.000000 0.000000 0.500000
#
# Coordination Sequence:
#
# PCOD9036636 Si02
#       6
#     2   2   2   2   2   2
#     4  12  26  44  69  98 140 177 229 283 333 400
#     4  10  23  38  65 100 146 176 217 252 339 411
#     4  12  27  49  73  97 126 178 242 295 338 382
#     4  11  24  44  67  98 139 178 222 275 332 399
#     4  11  24  42  66 103 140 179 211 265 342 421
#     4  12  24  40  65 103 144 181 218 266 331 416
#
# _framework density 21.338508000000001
#
# number of rings (size 3 to 8) (size 9 to 14) (size 15 to 20)
#    0.000    0.667    3.333    4.000    7.000    0.000 
#    0.000    5.000    0.000    0.000    0.000    0.000 
#    0.000    0.000    0.000    0.000    0.000    0.000 
#
# Total GULP energy -67190.733781 kJ/mol
# GULP energy per Si atom -5599.227815 kJ/mol
# Density = 2.128994 g / cm^3
# Si number density = 21.338508 Si / 1000 Ang^3
#
#
#
# Elastic Constant Matrix: (Units=GPa)
#
#
# Indices 1 2 3 4 5 6 
#
# 1 58.9551 12.7849 -1.1384 -0.7242 -6.1915 -16.0546
# 2 12.7849 94.7449 27.1147 7.4059 -18.1115 -21.2073
# 3 -1.1384 27.1147 80.7699 -4.0716 -6.4139 -18.9267
# 4 -0.7242 7.4059 -4.0716 44.3736 1.6748 3.6372
# 5 -6.1915 -18.1115 -6.4139 1.6748 47.5541 1.7110
# 6 -16.0546 -21.2073 -18.9267 3.6372 1.7110 43.3004
#
#
#
# Elastic Compliance Matrix: (Units=1/GPa)
#
#
# Indices 1 2 3 4 5 6 
#
# 1 0.019625 -0.001282 0.002694 0.000066 0.002150 0.007736
# 2 -0.001282 0.013931 -0.003323 -0.003234 0.004625 0.004984
# 3 0.002694 -0.003323 0.015032 0.001471 0.000853 0.005784
# 4 0.000066 -0.003234 0.001471 0.023509 -0.001751 -0.002822
# 5 0.002150 0.004625 0.000853 -0.001751 0.023151 0.002667
# 6 0.007736 0.004984 0.005784 -0.002822 0.002667 0.031064
#
#
# Mechanical properties :
#
#
# Convention : Reuss Voigt Hill
#
# Bulk Modulus (GPa) = 22.33824 34.66583 28.50203
# Shear Modulus (GPa) = 34.46957 40.09285 37.28121
#
# Velocity S-wave (km/s) = 4.02353 4.33933 4.18441
# Velocity P-wave (km/s) = 5.66359 6.43329 6.06067
#
# Compressibility (1/GPa) = 0.04476629
#
# Stress axis : x y z
#
# Youngs Moduli (GPa) = 50.95502 71.78146 66.52667
#
# Poissons Ratio (x) = 0.09201 -0.17920
# Poissons Ratio (y) = 0.06532 0.22104
# Poissons Ratio (z) = -0.13725 0.23850
#
# Static dielectric constant tensor:
#      x y z
#    x 1.762970 0.003620 -0.010410 
#    y 0.003620 1.776470 0.013870 
#    z -0.010410 0.013870 1.757570 
# 
# From -- ./inp_files/98866.got.cif
#   From: 2010.05.17/outbox.cif.g08.bks.cpg/sg2_50_cif.got.tgz:98866.got - 2010.06.03 11:33:40.
