data_PCOD9036132
_publ_section_title
;
Structure prediction by ZEFSAII (Michael W. Deem and Ramdas Pophale) SiO2 
 PCOD9036132
Probable space group: P -1
;
_chemical_formula_sum "Si O2"
_cell_formula_units_Z 15
_cell_length_a 17.807279
_cell_length_b 5.361881
_cell_length_c 17.467475
_cell_angle_alpha 80.758904
_cell_angle_beta 24.900423
_cell_angle_gamma 71.176987
_cell_volume 627.105971
_symmetry_space_group_name_H-M "P -1"
_symmetry_group_IT_number 2
_symmetry_cell_setting 'triclinic'
loop_
_space_group_symop_operation_xyz
x,y,z
-x,-y,-z
loop_
_atom_site_type_symbol
_atom_site_label
_atom_site_fract_x
_atom_site_fract_y
_atom_site_fract_z
Si Si1 0.500000 0.500000 0.000000
Si Si2 0.292531 0.604383 0.585951
Si Si3 0.189263 0.065670 0.323805
Si Si4 0.369159 0.249140 0.665430
Si Si5 0.972315 0.646198 0.686342
Si Si6 0.362302 0.270604 0.283819
Si Si7 0.931276 0.116086 0.820221
Si Si8 0.420753 0.864809 0.765957
O O1 0.485626 0.344859 0.103176
O O2 0.375123 0.798183 0.139479
O O3 0.226019 0.482084 0.728090
O O4 0.478597 0.651448 0.441045
O O5 0.394159 0.365332 0.439763
O O6 0.122180 0.888054 0.698589
O O7 0.149403 0.299067 0.283506
O O8 0.229018 0.159111 0.364200
O O9 0.000000 0.000000 0.500000
O O10 0.500000 0.000000 0.500000
O O11 0.304426 0.113708 0.802133
O O12 0.959447 0.384781 0.752816
O O13 0.200547 0.550947 0.457938
O O14 0.904960 0.925404 0.785516
O O15 0.485841 0.068390 0.247324
O O16 0.739982 0.227884 0.046179
#
# Coordination Sequence:
#
# PCOD9036132 Si02
#       8
#     1   2   2   2   2   2   2   2
#     4  12  28  46  72 108 138 192 252 308 382 438
#     4  10  22  47  75 109 151 195 245 305 383 449
#     4  12  27  51  73 106 147 200 254 318 382 448
#     4   9  21  43  76 109 149 192 243 309 374 452
#     4  12  27  50  73 108 153 199 256 312 379 445
#     4  12  26  46  76 103 150 198 249 322 373 452
#     4  12  28  47  78 110 152 203 250 313 371 460
#     4  11  25  46  72 111 147 196 252 308 380 443
#
# _framework density 23.919402999999999
#
# number of rings (size 3 to 8) (size 9 to 14) (size 15 to 20)
#    0.000    0.800    2.667    3.200    7.467    1.600 
#    2.400    6.000    0.000    0.000    0.000    0.000 
#    0.000    0.000    0.000    0.000    0.000    0.000 
#
# Total GULP energy -83650.392715 kJ/mol
# GULP energy per Si atom -5576.692848 kJ/mol
# Density = 2.386496 g / cm^3
# Si number density = 23.919403 Si / 1000 Ang^3
#
#
#
# Elastic Constant Matrix: (Units=GPa)
#
#
# Indices 1 2 3 4 5 6 
#
# 1 126.8997 39.2832 29.7598 -12.5857 20.2784 -11.3674
# 2 39.2832 100.8666 13.7143 -18.5895 6.5927 -10.3978
# 3 29.7598 13.7143 55.2958 -19.2535 13.3362 -9.7360
# 4 -12.5857 -18.5895 -19.2535 37.3114 -13.1564 7.6254
# 5 20.2784 6.5927 13.3362 -13.1564 28.2064 4.2761
# 6 -11.3674 -10.3978 -9.7360 7.6254 4.2761 20.7995
#
#
#
# Elastic Compliance Matrix: (Units=1/GPa)
#
#
# Indices 1 2 3 4 5 6 
#
# 1 0.011250 -0.003467 -0.003496 -0.003884 -0.008333 0.005916
# 2 -0.003467 0.012301 0.000759 0.005365 0.001404 0.002354
# 3 -0.003496 0.000759 0.026059 0.008057 -0.007634 0.009282
# 4 -0.003884 0.005365 0.008057 0.042451 0.019851 -0.015314
# 5 -0.008333 0.001404 -0.007634 0.019851 0.058022 -0.026632
# 6 0.005916 0.002354 0.009282 -0.015314 -0.026632 0.067922
#
#
# Mechanical properties :
#
#
# Convention : Reuss Voigt Hill
#
# Bulk Modulus (GPa) = 26.88072 49.84186 38.36129
# Shear Modulus (GPa) = 20.59200 30.61712 25.60456
#
# Velocity S-wave (km/s) = 2.93728 3.58161 3.27532
# Velocity P-wave (km/s) = 4.77136 6.16332 5.51146
#
# Compressibility (1/GPa) = 0.03720138
#
# Stress axis : x y z
#
# Youngs Moduli (GPa) = 88.89160 81.29513 38.37513
#
# Poissons Ratio (x) = 0.28188 0.13414
# Poissons Ratio (y) = 0.30822 -0.02913
# Poissons Ratio (z) = 0.31073 -0.06171
#
# Static dielectric constant tensor:
#      x y z
#    x 2.002330 0.005410 0.039850 
#    y 0.005410 1.968570 -0.012690 
#    z 0.039850 -0.012690 1.972960 
# 
# From -- ./inp_files/536303.got.cif
#   From: 2010.05.17/outbox.cif.g08.bks.cpg/sg2_269_cif.got.tgz:536303.got - 2010.06.03 11:33:40.
