data_PCOD9036956
_publ_section_title
;
Structure prediction by ZEFSAII (Michael W. Deem and Ramdas Pophale) SiO2 
 PCOD9036956
Probable space group: P -1
;
_chemical_formula_sum "Si O2"
_cell_formula_units_Z 16
_cell_length_a 8.752251
_cell_length_b 23.695799
_cell_length_c 18.470906
_cell_angle_alpha 23.778136
_cell_angle_beta 40.460482
_cell_angle_gamma 26.842588
_cell_volume 664.029033
_symmetry_space_group_name_H-M "P -1"
_symmetry_group_IT_number 2
_symmetry_cell_setting 'triclinic'
loop_
_space_group_symop_operation_xyz
x,y,z
-x,-y,-z
loop_
_atom_site_type_symbol
_atom_site_label
_atom_site_fract_x
_atom_site_fract_y
_atom_site_fract_z
Si Si1 0.224792 0.519002 0.115521
Si Si2 0.855391 0.926694 0.827910
Si Si3 0.362704 0.861901 0.488675
Si Si4 0.373548 0.689075 0.039582
Si Si5 0.896077 0.409306 0.290668
Si Si6 0.826812 0.911070 0.323161
Si Si7 0.190538 0.768369 0.219567
Si Si8 0.126051 0.286218 0.715433
O O1 0.380882 0.377851 0.297409
O O2 0.147480 0.427162 0.196539
O O3 0.500000 0.500000 0.000000
O O4 0.878769 0.762584 0.975958
O O5 0.237532 0.767219 0.915523
O O6 0.751091 0.078038 0.624004
O O7 0.546346 0.086215 0.810716
O O8 0.551777 0.920370 0.379047
O O9 0.000000 0.000000 0.500000
O O10 0.326230 0.865547 0.882059
O O11 0.755874 0.469174 0.188953
O O12 0.103973 0.697601 0.163138
O O13 0.562165 0.588077 0.255670
O O14 0.064175 0.192580 0.515261
O O15 0.167366 0.760758 0.323065
O O16 0.949713 0.756707 0.283020
O O17 0.000000 0.000000 0.000000
O O18 0.000000 0.500000 0.500000
#
# Coordination Sequence:
#
# PCOD9036956 Si02
#       8
#     2   2   2   2   2   2   2   2
#     4  11  24  44  75  99 129 181 238 294 343 400
#     4  12  25  44  69  98 142 182 224 286 355 408
#     4  11  24  44  74 102 129 174 245 294 336 409
#     4  11  26  42  65  99 144 181 217 279 356 424
#     4  10  23  39  66  96 134 170 234 277 340 409
#     4  11  22  41  68  95 133 179 231 285 340 407
#     4  11  19  39  67  97 131 184 225 281 341 411
#     4  11  25  42  68 104 148 184 227 280 350 425
#
# _framework density 24.095330000000001
#
# number of rings (size 3 to 8) (size 9 to 14) (size 15 to 20)
#    0.000    1.000    5.000    2.250    5.250    0.000 
#    0.000    1.250    0.000    0.000    0.000    0.000 
#    0.000    0.000    0.000    0.000    0.000    0.000 
#
# Total GULP energy -89492.141664 kJ/mol
# GULP energy per Si atom -5593.258854 kJ/mol
# Density = 2.404049 g / cm^3
# Si number density = 24.095330 Si / 1000 Ang^3
#
#
#
# Elastic Constant Matrix: (Units=GPa)
#
#
# Indices 1 2 3 4 5 6 
#
# 1 86.7347 -0.1134 54.7301 13.3010 29.8559 -6.7661
# 2 -0.1134 62.8222 24.5468 9.9095 -6.6495 -9.0920
# 3 54.7301 24.5468 178.3074 0.0517 9.5310 -11.3155
# 4 13.3010 9.9095 0.0517 31.4246 -0.2871 -4.4115
# 5 29.8559 -6.6495 9.5310 -0.2871 54.7481 -7.4997
# 6 -6.7661 -9.0920 -11.3155 -4.4115 -7.4997 18.5928
#
#
#
# Elastic Compliance Matrix: (Units=1/GPa)
#
#
# Indices 1 2 3 4 5 6 
#
# 1 0.020151 0.002718 -0.006115 -0.009650 -0.009824 -0.001312
# 2 0.002718 0.019577 -0.003142 -0.006142 0.002536 0.008216
# 3 -0.006115 -0.003142 0.007991 0.003983 0.001972 0.002842
# 4 -0.009650 -0.006142 0.003983 0.038887 0.005007 0.007155
# 5 -0.009824 0.002536 0.001972 0.005007 0.025003 0.010138
# 6 -0.001312 0.008216 0.002842 0.007155 0.010138 0.064841
#
#
# Mechanical properties :
#
#
# Convention : Reuss Voigt Hill
#
# Bulk Modulus (GPa) = 28.86646 54.02126 41.44386
# Shear Modulus (GPa) = 24.86647 37.53315 31.19981
#
# Velocity S-wave (km/s) = 3.21597 3.95104 3.60230
# Velocity P-wave (km/s) = 5.07898 6.57897 5.87703
#
# Compressibility (1/GPa) = 0.03464228
#
# Stress axis : x y z
#
# Youngs Moduli (GPa) = 49.62631 51.08121 125.13407
#
# Poissons Ratio (x) = -0.13884 0.76514
# Poissons Ratio (y) = -0.13489 0.39313
# Poissons Ratio (z) = 0.30344 0.16048
#
# Static dielectric constant tensor:
#      x y z
#    x 1.987080 0.005290 0.036020 
#    y 0.005290 1.945400 0.019830 
#    z 0.036020 0.019830 1.898140 
# 
# From -- ./inp_files/592077.got.cif
#   From: 2010.05.17/outbox.cif.g08.bks.cpg/sg2_297_cif.got.tgz:592077.got - 2010.06.03 11:33:40.
