data_PCOD9036523
_publ_section_title
;
Structure prediction by ZEFSAII (Michael W. Deem and Ramdas Pophale) SiO2 
 PCOD9036523
Probable space group: P -1
;
_chemical_formula_sum "Si O2"
_cell_formula_units_Z 12
_cell_length_a 9.262709
_cell_length_b 8.915012
_cell_length_c 6.828774
_cell_angle_alpha 122.859945
_cell_angle_beta 82.129131
_cell_angle_gamma 77.108522
_cell_volume 438.218667
_symmetry_space_group_name_H-M "P -1"
_symmetry_group_IT_number 2
_symmetry_cell_setting 'triclinic'
loop_
_space_group_symop_operation_xyz
x,y,z
-x,-y,-z
loop_
_atom_site_type_symbol
_atom_site_label
_atom_site_fract_x
_atom_site_fract_y
_atom_site_fract_z
Si Si1 0.720522 0.484615 0.322608
Si Si2 0.135154 0.254437 0.350425
Si Si3 0.449323 0.854880 0.535569
Si Si4 0.695286 0.582069 0.838175
Si Si5 0.127431 0.820920 0.456912
Si Si6 0.625512 0.147466 0.003079
O O1 0.853809 0.579176 0.388186
O O2 0.582096 0.644198 0.345047
O O3 0.666427 0.500949 0.572788
O O4 0.732062 0.275734 0.109261
O O5 0.190796 0.305164 0.165610
O O6 0.972246 0.226321 0.381540
O O7 0.266579 0.054886 0.242858
O O8 0.275235 0.873639 0.522858
O O9 0.437039 0.887299 0.796996
O O10 0.500000 0.000000 0.500000
O O11 0.791791 0.392534 0.805596
O O12 0.521577 0.727540 0.011430
O O13 0.000000 0.000000 0.500000
#
# Coordination Sequence:
#
# PCOD9036523 Si02
#       6
#     2   2   2   2   2   2
#     4   9  19  40  67  89 120 164 214 252 304 371
#     4  10  23  37  68 100 118 159 213 262 317 359
#     4  11  21  38  62  92 124 168 205 253 311 373
#     4   9  19  39  61  92 119 163 212 247 302 377
#     4  12  23  40  59  95 134 165 199 261 326 366
#     4  11  19  41  71  94 118 161 223 259 293 376
#
# _framework density 27.383589000000001
#
# number of rings (size 3 to 8) (size 9 to 14) (size 15 to 20)
#    1.000    0.667    3.333    3.000    0.000    0.667 
#    0.000    2.500    0.000    6.000    0.000    0.000 
#    0.000    0.000    0.000    0.000    0.000    0.000 
#
# Total GULP energy -67107.259556 kJ/mol
# GULP energy per Si atom -5592.271630 kJ/mol
# Density = 2.732126 g / cm^3
# Si number density = 27.383589 Si / 1000 Ang^3
#
#
#
# Elastic Constant Matrix: (Units=GPa)
#
#
# Indices 1 2 3 4 5 6 
#
# 1 178.5219 50.6583 26.8317 18.3163 -19.3518 20.0620
# 2 50.6583 180.5753 49.8868 26.3652 1.0682 0.2986
# 3 26.8317 49.8868 60.7891 29.9253 -6.9520 3.8249
# 4 18.3163 26.3652 29.9253 58.2686 -6.1521 -14.4023
# 5 -19.3518 1.0682 -6.9520 -6.1521 31.3199 13.4387
# 6 20.0620 0.2986 3.8249 -14.4023 13.4387 65.1604
#
#
#
# Elastic Compliance Matrix: (Units=1/GPa)
#
#
# Indices 1 2 3 4 5 6 
#
# 1 0.007393 -0.001861 0.000121 -0.001883 0.005971 -0.003922
# 2 -0.001861 0.007741 -0.006183 0.000309 -0.003446 0.001680
# 3 0.000121 -0.006183 0.028948 -0.012865 0.006733 -0.005940
# 4 -0.001883 0.000309 -0.012865 0.025844 -0.002168 0.007493
# 5 0.005971 -0.003446 0.006733 -0.002168 0.041647 -0.011286
# 6 -0.003922 0.001680 -0.005940 0.007493 -0.011286 0.020879
#
#
# Mechanical properties :
#
#
# Convention : Reuss Voigt Hill
#
# Bulk Modulus (GPa) = 35.41750 74.95999 55.18874
# Shear Modulus (GPa) = 31.70394 50.45044 41.07719
#
# Velocity S-wave (km/s) = 3.40630 4.29693 3.87727
# Velocity P-wave (km/s) = 5.33220 7.21468 6.34366
#
# Compressibility (1/GPa) = 0.02823463
#
# Stress axis : x y z
#
# Youngs Moduli (GPa) = 135.26644 129.18915 34.54510
#
# Poissons Ratio (x) = 0.24046 -0.00418
# Poissons Ratio (y) = 0.25177 0.21359
# Poissons Ratio (z) = -0.01636 0.79876
#
# Static dielectric constant tensor:
#      x y z
#    x 2.135960 0.017010 0.033730 
#    y 0.017010 2.204060 -0.022050 
#    z 0.033730 -0.022050 2.225180 
# 
# From -- ./inp_files/156118.got.cif
#   From: 2010.05.17/outbox.cif.g08.bks.cpg/sg2_79_cif.got.tgz:156118.got - 2010.06.03 11:33:40.
