data_PCOD9036351
_publ_section_title
;
Structure prediction by ZEFSAII (Michael W. Deem and Ramdas Pophale) SiO2 
 PCOD9036351
Probable space group: P -1
;
_chemical_formula_sum "Si O2"
_cell_formula_units_Z 12
_cell_length_a 6.409342
_cell_length_b 7.578487
_cell_length_c 12.196237
_cell_angle_alpha 130.172537
_cell_angle_beta 86.600475
_cell_angle_gamma 85.520811
_cell_volume 446.578606
_symmetry_space_group_name_H-M "P -1"
_symmetry_group_IT_number 2
_symmetry_cell_setting 'triclinic'
loop_
_space_group_symop_operation_xyz
x,y,z
-x,-y,-z
loop_
_atom_site_type_symbol
_atom_site_label
_atom_site_fract_x
_atom_site_fract_y
_atom_site_fract_z
Si Si1 0.626677 0.192073 0.882099
Si Si2 0.210606 0.374611 0.885185
Si Si3 0.757059 0.912123 0.452599
Si Si4 0.350893 0.511483 0.614099
Si Si5 0.046026 0.178181 0.164413
Si Si6 0.728618 0.391990 0.721236
O O1 0.374514 0.206949 0.890277
O O2 0.688268 0.277598 0.793940
O O3 0.768811 0.957115 0.819764
O O4 0.676765 0.396175 0.043305
O O5 0.187418 0.221896 0.717664
O O6 0.000000 0.500000 0.000000
O O7 0.837764 0.160887 0.559945
O O8 0.500000 0.000000 0.500000
O O9 0.767706 0.715816 0.467636
O O10 0.500000 0.500000 0.500000
O O11 0.516538 0.490270 0.701025
O O12 0.165869 0.728272 0.723542
O O13 0.131504 0.402194 0.199765
O O14 0.000000 0.000000 0.000000
#
# Coordination Sequence:
#
# PCOD9036351 Si02
#       6
#     2   2   2   2   2   2
#     4  11  27  51  84 122 162 218 285 336 416 501
#     4  11  25  49  86 123 160 216 276 339 418 496
#     4  10  22  51  82 117 166 215 272 339 413 494
#     4  11  27  54  80 124 171 216 274 348 418 493
#     4  12  31  54  83 123 166 222 282 346 418 493
#     4  11  28  53  87 117 165 221 284 342 415 501
#
# _framework density 26.870968000000001
#
# number of rings (size 3 to 8) (size 9 to 14) (size 15 to 20)
#    0.000    1.000    3.333    1.000    9.333    6.000 
#    3.000    0.000    0.000    0.000    0.000    0.000 
#    0.000    0.000    0.000    0.000    0.000    0.000 
#
# Total GULP energy -67247.543664 kJ/mol
# GULP energy per Si atom -5603.961972 kJ/mol
# Density = 2.680981 g / cm^3
# Si number density = 26.870968 Si / 1000 Ang^3
#
#
#
# Elastic Constant Matrix: (Units=GPa)
#
#
# Indices 1 2 3 4 5 6 
#
# 1 167.0670 93.9873 96.7775 7.5170 -37.1186 -8.4073
# 2 93.9873 164.5126 92.6387 11.3026 -23.5110 -10.4714
# 3 96.7775 92.6387 231.1727 7.6353 -17.0736 11.9828
# 4 7.5170 11.3026 7.6353 55.0763 5.1806 -5.4406
# 5 -37.1186 -23.5110 -17.0736 5.1806 73.8396 19.9709
# 6 -8.4073 -10.4714 11.9828 -5.4406 19.9709 67.3174
#
#
#
# Elastic Compliance Matrix: (Units=1/GPa)
#
#
# Indices 1 2 3 4 5 6 
#
# 1 0.010514 -0.004062 -0.002504 -0.000571 0.003436 0.000061
# 2 -0.004062 0.009870 -0.002261 -0.001064 0.000314 0.001251
# 3 -0.002504 -0.002261 0.006384 -0.000260 0.000009 -0.001825
# 4 -0.000571 -0.001064 -0.000260 0.018940 -0.002585 0.002107
# 5 0.003436 0.000314 0.000009 -0.002585 0.016832 -0.004726
# 6 0.000061 0.001251 -0.001825 0.002107 -0.004726 0.016954
#
#
# Mechanical properties :
#
#
# Convention : Reuss Voigt Hill
#
# Bulk Modulus (GPa) = 109.73502 125.50658 117.62080
# Shear Modulus (GPa) = 49.90636 57.86992 53.88814
#
# Velocity S-wave (km/s) = 4.31427 4.64575 4.48307
# Velocity P-wave (km/s) = 8.10825 8.69401 8.40623
#
# Compressibility (1/GPa) = 0.00911286
#
# Stress axis : x y z
#
# Youngs Moduli (GPa) = 95.11374 101.31378 156.63916
#
# Poissons Ratio (x) = 0.41156 0.39224
# Poissons Ratio (y) = 0.38638 0.35421
# Poissons Ratio (z) = 0.23817 0.22910
#
# Static dielectric constant tensor:
#      x y z
#    x 2.442500 -0.021260 0.048400 
#    y -0.021260 2.083450 -0.003840 
#    z 0.048400 -0.003840 2.149570 
# 
# From -- ./inp_files/479507.got.cif
#   From: 2010.05.17/outbox.cif.g08.bks.cpg/sg2_240_cif.got.tgz:479507.got - 2010.06.03 11:33:40.
