data_PCOD9036567
_publ_section_title
;
Structure prediction by ZEFSAII (Michael W. Deem and Ramdas Pophale) SiO2 
 PCOD9036567
Probable space group: P -1
;
_chemical_formula_sum "Si O2"
_cell_formula_units_Z 14
_cell_length_a 6.783139
_cell_length_b 13.405577
_cell_length_c 14.605109
_cell_angle_alpha 150.657344
_cell_angle_beta 72.460080
_cell_angle_gamma 95.687818
_cell_volume 581.259606
_symmetry_space_group_name_H-M "P -1"
_symmetry_group_IT_number 2
_symmetry_cell_setting 'triclinic'
loop_
_space_group_symop_operation_xyz
x,y,z
-x,-y,-z
loop_
_atom_site_type_symbol
_atom_site_label
_atom_site_fract_x
_atom_site_fract_y
_atom_site_fract_z
Si Si1 0.708588 0.653535 0.256159
Si Si2 0.129056 0.585993 0.442282
Si Si3 0.830983 0.023642 0.126516
Si Si4 0.222168 0.804255 0.434009
Si Si5 0.869355 0.417376 0.227932
Si Si6 0.890530 0.232955 0.788647
Si Si7 0.502811 0.695018 0.721209
O O1 0.461420 0.821386 0.431866
O O2 0.808749 0.580977 0.283674
O O3 0.879895 0.728751 0.235208
O O4 0.723980 0.427298 0.024724
O O5 0.141543 0.791054 0.662240
O O6 0.223366 0.615434 0.352820
O O7 0.272448 0.374262 0.309792
O O8 0.904717 0.549302 0.416970
O O9 0.594861 0.100447 0.168917
O O10 0.000000 0.000000 0.000000
O O11 0.908113 0.792803 0.981385
O O12 0.211750 0.772486 0.300967
O O13 0.991879 0.003648 0.642953
O O14 0.679253 0.315534 0.187222
O O15 0.500000 0.500000 0.500000
#
# Coordination Sequence:
#
# PCOD9036567 Si02
#       7
#     2   2   2   2   2   2   2
#     4  11  21  39  62  88 124 159 200 252 301 360
#     4  11  21  38  63  86 119 159 199 249 303 362
#     4   9  21  38  59  86 117 153 198 250 301 356
#     4  11  21  39  62  88 122 160 202 249 304 359
#     4  11  21  38  62  87 119 158 197 248 303 358
#     4  10  23  38  61  90 120 161 203 246 305 359
#     4   9  20  38  59  84 115 153 195 247 301 356
#
# _framework density 24.085621
#
# number of rings (size 3 to 8) (size 9 to 14) (size 15 to 20)
#    0.000    1.714    2.857    1.714    0.000    5.714 
#    0.000    4.286    0.000    0.000    0.000    0.000 
#    0.000    0.000    0.000    0.000    0.000    0.000 
#
# Total GULP energy -78137.321077 kJ/mol
# GULP energy per Si atom -5581.237220 kJ/mol
# Density = 2.403080 g / cm^3
# Si number density = 24.085621 Si / 1000 Ang^3
#
#
#
# Elastic Constant Matrix: (Units=GPa)
#
#
# Indices 1 2 3 4 5 6 
#
# 1 56.3604 39.7129 5.4616 -1.7835 0.2854 -22.4134
# 2 39.7129 95.3828 33.0250 7.4641 -4.2544 -37.9939
# 3 5.4616 33.0250 72.7525 10.6653 8.3117 -25.7774
# 4 -1.7835 7.4641 10.6653 27.4427 -5.5808 -0.3234
# 5 0.2854 -4.2544 8.3117 -5.5808 26.7659 2.0031
# 6 -22.4134 -37.9939 -25.7774 -0.3234 2.0031 47.5146
#
#
#
# Elastic Compliance Matrix: (Units=1/GPa)
#
#
# Indices 1 2 3 4 5 6 
#
# 1 0.028055 -0.010881 0.005825 0.001787 -0.004054 0.007877
# 2 -0.010881 0.020625 -0.005634 -0.003247 0.003859 0.008118
# 3 0.005825 -0.005634 0.022082 -0.008664 -0.010415 0.010603
# 4 0.001787 -0.003247 -0.008664 0.043094 0.011639 -0.006651
# 5 -0.004054 0.003859 -0.010415 0.011639 0.044147 -0.006259
# 6 0.007877 0.008118 0.010603 -0.006651 -0.006259 0.037224
#
#
# Mechanical properties :
#
#
# Convention : Reuss Voigt Hill
#
# Bulk Modulus (GPa) = 20.25021 42.32165 31.28593
# Shear Modulus (GPa) = 21.45302 30.09771 25.77537
#
# Velocity S-wave (km/s) = 2.98769 3.53882 3.27487
# Velocity P-wave (km/s) = 4.50861 5.85723 5.22660
#
# Compressibility (1/GPa) = 0.04938221
#
# Stress axis : x y z
#
# Youngs Moduli (GPa) = 35.64460 48.48486 45.28554
#
# Poissons Ratio (x) = 0.52755 -0.26379
# Poissons Ratio (y) = 0.38784 0.25515
# Poissons Ratio (z) = -0.20763 0.27317
#
# Static dielectric constant tensor:
#      x y z
#    x 1.964930 0.007250 -0.011950 
#    y 0.007250 1.908730 0.037340 
#    z -0.011950 0.037340 2.004440 
# 
# From -- ./inp_files/44339.got.cif
#   From: 2010.05.17/outbox.cif.g08.bks.cpg/sg2_23_cif.got.tgz:44339.got - 2010.06.03 11:33:40.
