data_PCOD9036996
_publ_section_title
;
Structure prediction by ZEFSAII (Michael W. Deem and Ramdas Pophale) SiO2 
 PCOD9036996
Probable space group: P -1
;
_chemical_formula_sum "Si O2"
_cell_formula_units_Z 10
_cell_length_a 5.008264
_cell_length_b 12.273817
_cell_length_c 11.456415
_cell_angle_alpha 55.634332
_cell_angle_beta 78.275771
_cell_angle_gamma 46.142150
_cell_volume 397.723215
_symmetry_space_group_name_H-M "P -1"
_symmetry_group_IT_number 2
_symmetry_cell_setting 'triclinic'
loop_
_space_group_symop_operation_xyz
x,y,z
-x,-y,-z
loop_
_atom_site_type_symbol
_atom_site_label
_atom_site_fract_x
_atom_site_fract_y
_atom_site_fract_z
Si Si1 0.052834 0.168648 0.681136
Si Si2 0.589089 0.362474 0.978161
Si Si3 0.853661 0.439684 0.711562
Si Si4 0.396013 0.168746 0.018260
Si Si5 0.644018 0.142833 0.534900
O O1 0.432309 0.080835 0.626141
O O2 0.881184 0.364916 0.627656
O O3 0.796436 0.167606 0.621095
O O4 0.198743 0.039744 0.861708
O O5 0.372923 0.299352 0.031071
O O6 0.054909 0.180145 0.059765
O O7 0.500000 0.500000 0.000000
O O8 0.557342 0.450896 0.805603
O O9 0.687960 0.643048 0.613460
O O10 0.267433 0.275875 0.841248
O O11 0.000000 0.000000 0.500000
#
# Coordination Sequence:
#
# PCOD9036996 Si02
#       5
#     2   2   2   2   2
#     4  12  26  46  70 101 137 178 226 280 337 400
#     4  10  23  39  68 101 139 170 222 274 339 387
#     4  10  27  43  74  98 139 178 227 274 339 400
#     4  10  24  40  72  97 134 170 231 268 336 392
#     4  12  29  46  69  98 140 180 227 277 342 400
#
# _framework density 25.14311
#
# number of rings (size 3 to 8) (size 9 to 14) (size 15 to 20)
#    1.200    0.000    0.000    4.200   11.200    0.800 
#    0.000    0.000    0.000    0.000    0.000    0.000 
#    0.000    0.000    0.000    0.000    0.000    0.000 
#
# Total GULP energy -55855.243800 kJ/mol
# GULP energy per Si atom -5585.524380 kJ/mol
# Density = 2.508588 g / cm^3
# Si number density = 25.143110 Si / 1000 Ang^3
#
#
#
# Elastic Constant Matrix: (Units=GPa)
#
#
# Indices 1 2 3 4 5 6 
#
# 1 115.7736 4.7076 20.2272 3.0809 10.3836 17.2392
# 2 4.7076 106.0746 35.1865 13.5035 4.8139 13.4472
# 3 20.2272 35.1865 68.2242 -24.8087 9.6878 -12.6102
# 4 3.0809 13.5035 -24.8087 44.9771 -1.1168 1.2540
# 5 10.3836 4.8139 9.6878 -1.1168 39.2747 4.2549
# 6 17.2392 13.4472 -12.6102 1.2540 4.2549 35.1508
#
#
#
# Elastic Compliance Matrix: (Units=1/GPa)
#
#
# Indices 1 2 3 4 5 6 
#
# 1 0.013037 0.006999 -0.013747 -0.010189 0.000278 -0.013673
# 2 0.006999 0.022913 -0.025921 -0.020981 0.003431 -0.021164
# 3 -0.013747 -0.025921 0.053435 0.036977 -0.009176 0.035619
# 4 -0.010189 -0.020981 0.036977 0.048796 -0.005196 0.025177
# 5 0.000278 0.003431 -0.009176 -0.005196 0.027943 -0.007938
# 6 -0.013673 -0.021164 0.035619 0.025177 -0.007938 0.056092
#
#
# Mechanical properties :
#
#
# Convention : Reuss Voigt Hill
#
# Bulk Modulus (GPa) = 41.58427 45.59056 43.58742
# Shear Modulus (GPa) = 16.91647 39.21059 28.06353
#
# Velocity S-wave (km/s) = 2.59667 3.95333 3.34451
# Velocity P-wave (km/s) = 5.05620 6.24582 5.68223
#
# Compressibility (1/GPa) = 0.02404755
#
# Stress axis : x y z
#
# Youngs Moduli (GPa) = 76.70558 43.64246 18.71437
#
# Poissons Ratio (x) = -0.30546 0.25726
# Poissons Ratio (y) = -0.53688 0.48510
# Poissons Ratio (z) = 1.05444 1.13127
#
# Static dielectric constant tensor:
#      x y z
#    x 1.944810 -0.038010 -0.021590 
#    y -0.038010 2.003930 -0.015740 
#    z -0.021590 -0.015740 2.060550 
# 
# From -- ./inp_files/25616.got.cif
#   From: 2010.05.17/outbox.cif.g08.bks.cpg/sg2_13_cif.got.tgz:25616.got - 2010.06.03 11:33:40.
