data_PCOD9036379
_publ_section_title
;
Structure prediction by ZEFSAII (Michael W. Deem and Ramdas Pophale) SiO2 
 PCOD9036379
Probable space group: P -1
;
_chemical_formula_sum "Si O2"
_cell_formula_units_Z 16
_cell_length_a 9.381403
_cell_length_b 15.870555
_cell_length_c 9.491542
_cell_angle_alpha 81.146774
_cell_angle_beta 73.011246
_cell_angle_gamma 33.689370
_cell_volume 738.992420
_symmetry_space_group_name_H-M "P -1"
_symmetry_group_IT_number 2
_symmetry_cell_setting 'triclinic'
loop_
_space_group_symop_operation_xyz
x,y,z
-x,-y,-z
loop_
_atom_site_type_symbol
_atom_site_label
_atom_site_fract_x
_atom_site_fract_y
_atom_site_fract_z
Si Si1 0.538684 0.424137 0.368624
Si Si2 0.535269 0.737510 0.598205
Si Si3 0.972859 0.253845 0.630530
Si Si4 0.155121 0.361800 0.190287
Si Si5 0.038261 0.942992 0.346229
Si Si6 0.128252 0.188542 0.289201
Si Si7 0.381168 0.163892 0.701986
Si Si8 0.645824 0.678662 0.142931
O O1 0.500000 0.500000 0.500000
O O2 0.466750 0.359320 0.427936
O O3 0.317044 0.569838 0.291819
O O4 0.851344 0.286668 0.276414
O O5 0.750429 0.649606 0.682295
O O6 0.579587 0.785738 0.448813
O O7 0.229051 0.899516 0.698708
O O8 0.965231 0.157436 0.629451
O O9 0.061427 0.248126 0.454381
O O10 0.193490 0.178372 0.696214
O O11 0.234732 0.225101 0.183447
O O12 0.835001 0.521456 0.210714
O O13 0.295219 0.350902 0.031234
O O14 0.331466 0.825382 0.232477
O O15 0.000000 0.000000 0.500000
O O16 0.343056 0.011108 0.284083
O O17 0.255772 0.277519 0.835031
#
# Coordination Sequence:
#
# PCOD9036379 Si02
#       8
#     2   2   2   2   2   2   2   2
#     4  10  23  35  57  98 129 164 208 267 322 376
#     4  12  23  41  67  97 131 169 218 268 326 383
#     4  11  21  36  60  98 129 159 212 274 320 369
#     4  11  26  45  65  93 135 179 213 264 320 401
#     4  12  22  42  68  98 133 169 214 274 327 379
#     4  11  21  39  62  94 131 163 212 265 326 377
#     4  12  23  39  65  98 125 168 216 273 317 380
#     4  11  26  45  65  93 132 180 219 257 330 389
#
# _framework density 21.651101000000001
#
# number of rings (size 3 to 8) (size 9 to 14) (size 15 to 20)
#    0.000    0.750    3.750    4.875    3.500    2.000 
#    0.000    1.250    0.000    4.500    0.000    0.000 
#    0.000    0.000    0.000    0.000    0.000    0.000 
#
# Total GULP energy -89415.345496 kJ/mol
# GULP energy per Si atom -5588.459094 kJ/mol
# Density = 2.160182 g / cm^3
# Si number density = 21.651101 Si / 1000 Ang^3
#
#
#
# Elastic Constant Matrix: (Units=GPa)
#
#
# Indices 1 2 3 4 5 6 
#
# 1 117.8680 45.9798 19.1404 -7.5984 -8.2736 21.6448
# 2 45.9798 143.1705 20.3678 -7.7253 -0.0214 8.5363
# 3 19.1404 20.3678 49.8773 -3.8081 1.7369 -0.9069
# 4 -7.5984 -7.7253 -3.8081 21.5256 -1.8348 -4.5594
# 5 -8.2736 -0.0214 1.7369 -1.8348 11.8199 -0.6914
# 6 21.6448 8.5363 -0.9069 -4.5594 -0.6914 35.8143
#
#
#
# Elastic Compliance Matrix: (Units=1/GPa)
#
#
# Indices 1 2 3 4 5 6 
#
# 1 0.012136 -0.002877 -0.003756 0.002016 0.008986 -0.006314
# 2 -0.002877 0.008296 -0.002126 0.001431 -0.001472 -0.000139
# 3 -0.003756 -0.002126 0.022782 0.002227 -0.005429 0.003533
# 4 0.002016 0.001431 0.002227 0.049919 0.009129 0.005028
# 5 0.008986 -0.001472 -0.005429 0.009129 0.092972 -0.002260
# 6 -0.006314 -0.000139 0.003533 0.005028 -0.002260 0.032457
#
#
# Mechanical properties :
#
#
# Convention : Reuss Voigt Hill
#
# Bulk Modulus (GPa) = 38.91543 53.54354 46.22948
# Shear Modulus (GPa) = 20.43765 28.86048 24.64907
#
# Velocity S-wave (km/s) = 3.07572 3.65496 3.37778
# Velocity P-wave (km/s) = 5.53410 6.52652 6.05069
#
# Compressibility (1/GPa) = 0.02569675
#
# Stress axis : x y z
#
# Youngs Moduli (GPa) = 82.39653 120.53638 43.89389
#
# Poissons Ratio (x) = 0.34675 0.16489
# Poissons Ratio (y) = 0.23703 0.09331
# Poissons Ratio (z) = 0.30952 0.25625
#
# Static dielectric constant tensor:
#      x y z
#    x 1.814280 -0.035680 -0.043060 
#    y -0.035680 1.850250 -0.002680 
#    z -0.043060 -0.002680 1.798060 
# 
# From -- ./inp_files/206815.got.cif
#   From: 2010.05.17/outbox.cif.g08.bks.cpg/sg2_104_cif.got.tgz:206815.got - 2010.06.03 11:33:40.
