data_PCOD9036317
_publ_section_title
;
Structure prediction by ZEFSAII (Michael W. Deem and Ramdas Pophale) SiO2 
 PCOD9036317
Probable space group: P -1
;
_chemical_formula_sum "Si O2"
_cell_formula_units_Z 16
_cell_length_a 11.750271
_cell_length_b 11.605397
_cell_length_c 11.671848
_cell_angle_alpha 39.031200
_cell_angle_beta 103.898329
_cell_angle_gamma 74.702866
_cell_volume 657.843279
_symmetry_space_group_name_H-M "P -1"
_symmetry_group_IT_number 2
_symmetry_cell_setting 'triclinic'
loop_
_space_group_symop_operation_xyz
x,y,z
-x,-y,-z
loop_
_atom_site_type_symbol
_atom_site_label
_atom_site_fract_x
_atom_site_fract_y
_atom_site_fract_z
Si Si1 0.748916 0.003590 0.537527
Si Si2 0.487589 0.570564 0.129111
Si Si3 0.522324 0.886647 0.768156
Si Si4 0.071960 0.618236 0.744322
Si Si5 0.033614 0.259736 0.984146
Si Si6 0.883489 0.094679 0.178832
Si Si7 0.209269 0.893840 0.097536
Si Si8 0.480815 0.321658 0.537116
O O1 0.810111 0.902325 0.761005
O O2 0.929701 0.801304 0.668959
O O3 0.628727 0.319318 0.274624
O O4 0.616689 0.011417 0.441318
O O5 0.511032 0.452612 0.351199
O O6 0.496210 0.775724 0.953543
O O7 0.291816 0.735817 0.924604
O O8 0.478717 0.137540 0.609736
O O9 0.725658 0.628986 0.983321
O O10 0.007684 0.501011 0.760177
O O11 0.040694 0.827328 0.492978
O O12 0.899219 0.288757 0.998947
O O13 0.078776 0.083653 0.021936
O O14 0.865575 0.002257 0.127447
O O15 0.306984 0.584994 0.356525
O O16 0.363283 0.856493 0.197360
#
# Coordination Sequence:
#
# PCOD9036317 Si02
#       8
#     2   2   2   2   2   2   2   2
#     4  12  27  48  77 109 152 193 247 304 367 442
#     4  11  24  46  72 108 144 197 241 294 375 427
#     4  12  26  48  77 109 149 194 241 310 366 438
#     4  12  28  47  71 115 148 190 252 294 368 446
#     4  12  26  50  72 112 146 194 248 302 369 438
#     4  11  27  45  76 104 152 194 240 310 363 432
#     4  10  22  49  75 106 145 196 247 305 364 435
#     4  10  23  47  74 106 146 190 255 298 364 440
#
# _framework density 24.321901
#
# number of rings (size 3 to 8) (size 9 to 14) (size 15 to 20)
#    0.000    0.750    3.750    1.875    5.250    3.500 
#    0.000    8.125    0.000    0.000    0.000    0.000 
#    0.000    0.000    0.000    0.000    0.000    0.000 
#
# Total GULP energy -89409.324111 kJ/mol
# GULP energy per Si atom -5588.082757 kJ/mol
# Density = 2.426654 g / cm^3
# Si number density = 24.321901 Si / 1000 Ang^3
#
#
#
# Elastic Constant Matrix: (Units=GPa)
#
#
# Indices 1 2 3 4 5 6 
#
# 1 125.7276 44.2823 50.2169 -6.7512 5.2703 -8.5303
# 2 44.2823 141.8814 42.2246 -10.8799 15.2678 8.0453
# 3 50.2169 42.2246 81.2340 -7.9680 15.4902 9.5654
# 4 -6.7512 -10.8799 -7.9680 37.5877 1.2950 18.9882
# 5 5.2703 15.2678 15.4902 1.2950 43.9412 -1.1691
# 6 -8.5303 8.0453 9.5654 18.9882 -1.1691 31.1217
#
#
#
# Elastic Compliance Matrix: (Units=1/GPa)
#
#
# Indices 1 2 3 4 5 6 
#
# 1 0.012714 -0.002703 -0.008835 -0.005805 0.002981 0.010553
# 2 -0.002703 0.009334 -0.001504 0.004916 -0.002688 -0.005792
# 3 -0.008835 -0.001504 0.022967 0.011317 -0.007281 -0.016270
# 4 -0.005805 0.004916 0.011317 0.047673 -0.007356 -0.035704
# 5 0.002981 -0.002688 -0.007281 -0.007356 0.026363 0.009228
# 6 0.010553 -0.005792 -0.016270 -0.035704 0.009228 0.063653
#
#
# Mechanical properties :
#
#
# Convention : Reuss Voigt Hill
#
# Bulk Modulus (GPa) = 52.82199 69.14340 60.98270
# Shear Modulus (GPa) = 23.24515 36.67140 29.95828
#
# Velocity S-wave (km/s) = 3.09484 3.88719 3.51342
# Velocity P-wave (km/s) = 5.87671 6.97404 6.44876
#
# Compressibility (1/GPa) = 0.01893151
#
# Stress axis : x y z
#
# Youngs Moduli (GPa) = 78.65507 107.13468 43.54000
#
# Poissons Ratio (x) = 0.28960 0.38466
# Poissons Ratio (y) = 0.21262 0.06548
# Poissons Ratio (z) = 0.69489 0.16113
#
# Static dielectric constant tensor:
#      x y z
#    x 2.024410 -0.015480 0.021340 
#    y -0.015480 1.922990 0.006230 
#    z 0.021340 0.006230 1.987030 
# 
# From -- ./inp_files/427417.got.cif
#   From: 2010.05.17/outbox.cif.g08.bks.cpg/sg2_214_cif.got.tgz:427417.got - 2010.06.03 11:33:40.
