data_PCOD9036362
_publ_section_title
;
Structure prediction by ZEFSAII (Michael W. Deem and Ramdas Pophale) SiO2 
 PCOD9036362
Probable space group: P -1
;
_chemical_formula_sum "Si O2"
_cell_formula_units_Z 14
_cell_length_a 11.688675
_cell_length_b 8.816453
_cell_length_c 27.676251
_cell_angle_alpha 32.181863
_cell_angle_beta 152.239478
_cell_angle_gamma 130.786797
_cell_volume 652.774377
_symmetry_space_group_name_H-M "P -1"
_symmetry_group_IT_number 2
_symmetry_cell_setting 'triclinic'
loop_
_space_group_symop_operation_xyz
x,y,z
-x,-y,-z
loop_
_atom_site_type_symbol
_atom_site_label
_atom_site_fract_x
_atom_site_fract_y
_atom_site_fract_z
Si Si1 0.282021 0.186432 0.939582
Si Si2 0.265525 0.692242 0.508838
Si Si3 0.676194 0.906837 0.250128
Si Si4 0.950718 0.346996 0.907014
Si Si5 0.510453 0.351307 0.151852
Si Si6 0.257252 0.330909 0.356651
Si Si7 0.273612 0.532333 0.107470
O O1 0.439399 0.105476 0.072058
O O2 0.269799 0.868818 0.003294
O O3 0.439697 0.342115 0.924455
O O4 0.976868 0.428578 0.764506
O O5 0.353513 0.385545 0.656710
O O6 0.458065 0.638596 0.548751
O O7 0.952632 0.789207 0.355773
O O8 0.289694 0.980291 0.468656
O O9 0.703851 0.102138 0.254135
O O10 0.852665 0.572726 0.764682
O O11 0.743149 0.464494 0.841871
O O12 0.226561 0.355462 0.026832
O O13 0.000000 0.000000 0.000000
O O14 0.504078 0.306147 0.219533
O O15 0.000000 0.500000 0.000000
#
# Coordination Sequence:
#
# PCOD9036362 Si02
#       7
#     2   2   2   2   2   2   2
#     4  12  21  38  65  91 116 155 205 252 290 349
#     4  10  23  34  54  94 125 151 192 251 300 346
#     4  11  21  38  61  91 119 157 199 248 293 350
#     4  11  19  36  61  90 117 152 198 248 290 348
#     4  11  21  35  59  92 124 151 196 252 301 345
#     4  11  20  36  60  91 119 152 197 251 293 345
#     4  10  23  35  55  96 122 149 190 258 306 344
#
# _framework density 21.446921
#
# number of rings (size 3 to 8) (size 9 to 14) (size 15 to 20)
#    0.000    1.143    4.286    3.429    2.000    0.000 
#    0.000    0.000    0.000    8.571    7.429    0.000 
#    0.000    0.000    0.000    0.000    0.000    0.000 
#
# Total GULP energy -78051.602625 kJ/mol
# GULP energy per Si atom -5575.114473 kJ/mol
# Density = 2.139811 g / cm^3
# Si number density = 21.446921 Si / 1000 Ang^3
#
#
#
# Elastic Constant Matrix: (Units=GPa)
#
#
# Indices 1 2 3 4 5 6 
#
# 1 110.3596 29.7939 11.2910 -3.9529 16.1687 6.1745
# 2 29.7939 100.4018 9.6026 -9.6949 2.4246 20.8436
# 3 11.2910 9.6026 58.0408 -6.9977 11.7677 3.8120
# 4 -3.9529 -9.6949 -6.9977 19.3815 10.2220 1.1309
# 5 16.1687 2.4246 11.7677 10.2220 25.9286 -4.6384
# 6 6.1745 20.8436 3.8120 1.1309 -4.6384 40.4125
#
#
#
# Elastic Compliance Matrix: (Units=1/GPa)
#
#
# Indices 1 2 3 4 5 6 
#
# 1 0.011516 -0.002035 0.001475 0.007907 -0.011198 -0.002355
# 2 -0.002035 0.013121 0.001086 0.010003 -0.005735 -0.007497
# 3 0.001475 0.001086 0.024044 0.021147 -0.021361 -0.006097
# 4 0.007907 0.010003 0.021147 0.096819 -0.056779 -0.017588
# 5 -0.011198 -0.005735 -0.021361 -0.056779 0.081316 0.017606
# 6 -0.002355 -0.007497 -0.006097 -0.017588 0.017606 0.032059
#
#
# Mechanical properties :
#
#
# Convention : Reuss Voigt Hill
#
# Bulk Modulus (GPa) = 20.10784 41.13080 30.61932
# Shear Modulus (GPa) = 18.22161 31.68550 24.95355
#
# Velocity S-wave (km/s) = 2.91798 3.84786 3.41472
# Velocity P-wave (km/s) = 4.55508 6.24187 5.46396
#
# Compressibility (1/GPa) = 0.04973184
#
# Stress axis : x y z
#
# Youngs Moduli (GPa) = 86.83917 76.21474 41.59113
#
# Poissons Ratio (x) = 0.15513 -0.06135
# Poissons Ratio (y) = 0.17675 -0.04518
# Poissons Ratio (z) = -0.12809 -0.08280
#
# Static dielectric constant tensor:
#      x y z
#    x 1.848180 0.023040 0.069300 
#    y 0.023040 1.807980 -0.002610 
#    z 0.069300 -0.002610 1.814590 
# 
# From -- ./inp_files/286034.got.cif
#   From: 2010.05.17/outbox.cif.g08.bks.cpg/sg2_144_cif.got.tgz:286034.got - 2010.06.03 11:33:40.
