data_PCOD9036829
_publ_section_title
;
Structure prediction by ZEFSAII (Michael W. Deem and Ramdas Pophale) SiO2 
 PCOD9036829
Probable space group: P -1
;
_chemical_formula_sum "Si O2"
_cell_formula_units_Z 16
_cell_length_a 11.948087
_cell_length_b 14.325261
_cell_length_c 10.749354
_cell_angle_alpha 148.335414
_cell_angle_beta 63.782480
_cell_angle_gamma 124.150987
_cell_volume 796.524540
_symmetry_space_group_name_H-M "P -1"
_symmetry_group_IT_number 2
_symmetry_cell_setting 'triclinic'
loop_
_space_group_symop_operation_xyz
x,y,z
-x,-y,-z
loop_
_atom_site_type_symbol
_atom_site_label
_atom_site_fract_x
_atom_site_fract_y
_atom_site_fract_z
Si Si1 0.688615 0.774869 0.739854
Si Si2 0.430196 0.466547 0.862650
Si Si3 0.883322 0.714456 0.156527
Si Si4 0.162473 0.716831 0.376523
Si Si5 0.341277 0.896754 0.733359
Si Si6 0.577763 0.361409 0.444412
Si Si7 0.582797 0.125113 0.717606
Si Si8 0.960895 0.880707 0.576987
O O1 0.664930 0.567835 0.575469
O O2 0.548420 0.746131 0.706405
O O3 0.813206 0.836639 0.654386
O O4 0.710753 0.937837 0.017029
O O5 0.274934 0.322121 0.793045
O O6 0.512724 0.398771 0.646490
O O7 0.500000 0.500000 0.000000
O O8 0.428930 0.668421 0.043477
O O9 0.946974 0.776127 0.331634
O O10 0.886635 0.511741 0.881514
O O11 0.958267 0.891522 0.228375
O O12 0.255305 0.776356 0.522147
O O13 0.261032 0.825768 0.335179
O O14 0.043539 0.793204 0.525142
O O15 0.336686 0.762174 0.699521
O O16 0.500227 0.004906 0.738519
O O17 0.500000 0.000000 0.500000
#
# Coordination Sequence:
#
# PCOD9036829 Si02
#       8
#     2   2   2   2   2   2   2   2
#     4  11  25  44  62  94 131 174 216 252 324 392
#     4  11  20  36  66  94 129 158 208 275 317 365
#     4  10  23  41  61  98 124 167 219 258 321 374
#     4  10  23  39  63  93 128 165 212 268 319 370
#     4  11  23  40  63  95 125 168 216 267 320 374
#     4  11  23  41  65  92 128 168 215 268 317 377
#     4   9  19  35  57  96 127 154 208 267 317 362
#     4  11  24  42  66  90 133 175 210 257 315 399
#
# _framework density 20.087264999999999
#
# number of rings (size 3 to 8) (size 9 to 14) (size 15 to 20)
#    0.000    1.500    2.500    3.000    5.250    2.500 
#    0.000    1.250    0.000    0.000    0.000    0.000 
#    0.000    0.000    0.000    0.000    0.000    0.000 
#
# Total GULP energy -89395.834399 kJ/mol
# GULP energy per Si atom -5587.239650 kJ/mol
# Density = 2.004155 g / cm^3
# Si number density = 20.087265 Si / 1000 Ang^3
#
#
#
# Elastic Constant Matrix: (Units=GPa)
#
#
# Indices 1 2 3 4 5 6 
#
# 1 60.0825 19.6229 7.1136 23.6402 5.8986 -1.3390
# 2 19.6229 90.2665 42.3943 25.6862 3.7691 1.2591
# 3 7.1136 42.3943 98.3617 20.9687 7.5497 8.8823
# 4 23.6402 25.6862 20.9687 29.2119 1.1669 2.0995
# 5 5.8986 3.7691 7.5497 1.1669 17.7368 -4.9919
# 6 -1.3390 1.2591 8.8823 2.0995 -4.9919 22.2399
#
#
#
# Elastic Compliance Matrix: (Units=1/GPa)
#
#
# Indices 1 2 3 4 5 6 
#
# 1 0.026438 -0.000597 0.003978 -0.023398 -0.008740 0.000284
# 2 -0.000597 0.016556 -0.005021 -0.010622 0.000095 0.002056
# 3 0.003978 -0.005021 0.015129 -0.008883 -0.007929 -0.006460
# 4 -0.023398 -0.010622 -0.008883 0.068659 0.008806 -0.001765
# 5 -0.008740 0.000095 -0.007929 0.008806 0.066789 0.016795
# 6 0.000284 0.002056 -0.006460 -0.001765 0.016795 0.051381
#
#
# Mechanical properties :
#
#
# Convention : Reuss Voigt Hill
#
# Bulk Modulus (GPa) = 18.23371 42.99692 30.61532
# Shear Modulus (GPa) = 18.76086 25.80972 22.28529
#
# Velocity S-wave (km/s) = 3.05940 3.58841 3.33441
# Velocity P-wave (km/s) = 4.64509 6.21454 5.48623
#
# Compressibility (1/GPa) = 0.05484347
#
# Stress axis : x y z
#
# Youngs Moduli (GPa) = 37.82428 60.39984 66.10033
#
# Poissons Ratio (x) = 0.03605 -0.26296
# Poissons Ratio (y) = 0.02257 0.33190
# Poissons Ratio (z) = -0.15047 0.30328
#
# Static dielectric constant tensor:
#      x y z
#    x 1.712790 -0.008790 -0.004430 
#    y -0.008790 1.706330 0.003120 
#    z -0.004430 0.003120 1.704950 
# 
# From -- ./inp_files/429033.got.cif
#   From: 2010.05.17/outbox.cif.g08.bks.cpg/sg2_215_cif.got.tgz:429033.got - 2010.06.03 11:33:40.
