data_PCOD9036478
_publ_section_title
;
Structure prediction by ZEFSAII (Michael W. Deem and Ramdas Pophale) SiO2 
 PCOD9036478
Probable space group: P -1
;
_chemical_formula_sum "Si O2"
_cell_formula_units_Z 12
_cell_length_a 13.057907
_cell_length_b 11.539615
_cell_length_c 12.515463
_cell_angle_alpha 47.215386
_cell_angle_beta 31.155783
_cell_angle_gamma 32.751437
_cell_volume 522.293938
_symmetry_space_group_name_H-M "P -1"
_symmetry_group_IT_number 2
_symmetry_cell_setting 'triclinic'
loop_
_space_group_symop_operation_xyz
x,y,z
-x,-y,-z
loop_
_atom_site_type_symbol
_atom_site_label
_atom_site_fract_x
_atom_site_fract_y
_atom_site_fract_z
Si Si1 0.319351 0.222781 0.957426
Si Si2 0.247210 0.334426 0.515035
Si Si3 0.558539 0.200509 0.532782
Si Si4 0.871540 0.343312 0.135612
Si Si5 0.226257 0.936455 0.921117
Si Si6 0.083304 0.719468 0.288079
O O1 0.469076 0.191681 0.733842
O O2 0.251665 0.427449 0.944618
O O3 0.036664 0.299841 0.122463
O O4 0.500000 0.000000 0.000000
O O5 0.513453 0.147814 0.322854
O O6 0.171622 0.550050 0.406193
O O7 0.332219 0.296991 0.584535
O O8 0.015225 0.337932 0.686161
O O9 0.645982 0.335623 0.366235
O O10 0.822159 0.958305 0.412783
O O11 0.087097 0.140171 0.993187
O O12 0.289991 0.744134 0.053301
O O13 0.000000 0.000000 0.000000
#
# Coordination Sequence:
#
# PCOD9036478 Si02
#       6
#     2   2   2   2   2   2
#     4  11  26  46  67  94 127 171 226 276 322 379
#     4  11  22  39  63  98 135 171 213 260 323 391
#     4  11  23  42  67  93 130 172 217 273 322 384
#     4  10  24  44  67  96 126 175 217 265 329 382
#     4  11  21  41  67  96 135 169 207 264 325 392
#     4  10  23  37  62 101 132 175 209 258 326 390
#
# _framework density 22.975567999999999
#
# number of rings (size 3 to 8) (size 9 to 14) (size 15 to 20)
#    0.000    1.333    3.333    2.500    2.333    6.000 
#    6.000    0.000    0.000    0.000    0.000    0.000 
#    0.000    0.000    0.000    0.000    0.000    0.000 
#
# Total GULP energy -67203.636767 kJ/mol
# GULP energy per Si atom -5600.303064 kJ/mol
# Density = 2.292327 g / cm^3
# Si number density = 22.975568 Si / 1000 Ang^3
#
#
#
# Elastic Constant Matrix: (Units=GPa)
#
#
# Indices 1 2 3 4 5 6 
#
# 1 76.7094 57.5297 44.9478 -20.5292 4.4303 2.6678
# 2 57.5297 164.7631 39.5752 -44.7044 14.0072 -1.7772
# 3 44.9478 39.5752 133.1746 -33.5747 -2.0006 5.1847
# 4 -20.5292 -44.7044 -33.5747 38.9485 3.3290 -0.7518
# 5 4.4303 14.0072 -2.0006 3.3290 29.4361 -3.1109
# 6 2.6678 -1.7772 5.1847 -0.7518 -3.1109 37.2698
#
#
#
# Elastic Compliance Matrix: (Units=1/GPa)
#
#
# Indices 1 2 3 4 5 6 
#
# 1 0.020561 -0.006034 -0.005263 -0.000592 -0.000629 -0.001092
# 2 -0.006034 0.011524 0.001488 0.011831 -0.005756 0.000533
# 3 -0.005263 0.001488 0.010997 0.008414 -0.000218 -0.000931
# 4 -0.000592 0.011831 0.008414 0.047071 -0.010343 -0.000478
# 5 -0.000629 -0.005756 -0.000218 -0.010343 0.038255 0.002785
# 6 -0.001092 0.000533 -0.000931 -0.000478 0.002785 0.027287
#
#
# Mechanical properties :
#
#
# Convention : Reuss Voigt Hill
#
# Bulk Modulus (GPa) = 42.61834 73.19473 57.90653
# Shear Modulus (GPa) = 27.30222 36.63719 31.96970
#
# Velocity S-wave (km/s) = 3.45093 3.99760 3.73428
# Velocity P-wave (km/s) = 5.87097 7.29620 6.62204
#
# Compressibility (1/GPa) = 0.02346408
#
# Stress axis : x y z
#
# Youngs Moduli (GPa) = 48.63553 86.77414 90.93092
#
# Poissons Ratio (x) = 0.52361 0.47854
# Poissons Ratio (y) = 0.29347 -0.13526
# Poissons Ratio (z) = 0.25595 -0.12908
#
# Static dielectric constant tensor:
#      x y z
#    x 1.835900 0.006600 0.010040 
#    y 0.006600 1.898690 -0.008240 
#    z 0.010040 -0.008240 1.907380 
# 
# From -- ./inp_files/456249.got.cif
#   From: 2010.05.17/outbox.cif.g08.bks.cpg/sg2_229_cif.got.tgz:456249.got - 2010.06.03 11:33:40.
