data_PCOD9036466
_publ_section_title
;
Structure prediction by ZEFSAII (Michael W. Deem and Ramdas Pophale) SiO2 
 PCOD9036466
Probable space group: P -1
;
_chemical_formula_sum "Si O2"
_cell_formula_units_Z 12
_cell_length_a 9.967866
_cell_length_b 12.974263
_cell_length_c 9.483248
_cell_angle_alpha 136.426858
_cell_angle_beta 136.141367
_cell_angle_gamma 33.097077
_cell_volume 439.887706
_symmetry_space_group_name_H-M "P -1"
_symmetry_group_IT_number 2
_symmetry_cell_setting 'triclinic'
loop_
_space_group_symop_operation_xyz
x,y,z
-x,-y,-z
loop_
_atom_site_type_symbol
_atom_site_label
_atom_site_fract_x
_atom_site_fract_y
_atom_site_fract_z
Si Si1 0.388634 0.130800 0.365026
Si Si2 0.103011 0.785596 0.906821
Si Si3 0.222583 0.801283 0.561283
Si Si4 0.582078 0.373173 0.749775
Si Si5 0.722599 0.730398 0.884887
Si Si6 0.108688 0.277122 0.685710
O O1 0.473931 0.259070 0.578909
O O2 0.362610 0.129303 0.173647
O O3 0.111897 0.226292 0.307538
O O4 0.613276 0.898110 0.343805
O O5 0.376848 0.599953 0.866740
O O6 0.162860 0.748038 0.082292
O O7 0.000000 0.000000 0.000000
O O8 0.358647 0.635826 0.377555
O O9 0.459114 0.777582 0.773694
O O10 0.069582 0.776222 0.528043
O O11 0.000000 0.000000 0.500000
O O12 0.939079 0.509411 0.761633
O O13 0.844712 0.737839 0.123966
#
# Coordination Sequence:
#
# PCOD9036466 Si02
#       6
#     2   2   2   2   2   2
#     4  11  23  41  66  90 129 166 211 266 318 373
#     4  11  26  44  67  91 123 170 217 267 316 372
#     4  11  21  40  66  93 131 168 202 258 318 376
#     4  10  24  44  64  94 128 166 214 261 316 375
#     4  10  23  37  60  96 132 166 209 255 313 381
#     4  11  22  37  62  98 128 170 206 253 317 381
#
# _framework density 27.279691
#
# number of rings (size 3 to 8) (size 9 to 14) (size 15 to 20)
#    0.000    1.333    3.333    2.500    2.333    8.667 
#    0.000    0.000    0.000    0.000    0.000    0.000 
#    0.000    0.000    0.000    0.000    0.000    0.000 
#
# Total GULP energy -67314.168426 kJ/mol
# GULP energy per Si atom -5609.514035 kJ/mol
# Density = 2.721760 g / cm^3
# Si number density = 27.279691 Si / 1000 Ang^3
#
#
#
# Elastic Constant Matrix: (Units=GPa)
#
#
# Indices 1 2 3 4 5 6 
#
# 1 56.2795 15.9281 10.7466 -5.5003 18.3440 -9.3673
# 2 15.9281 189.6424 40.2319 6.9048 15.3328 -8.4434
# 3 10.7466 40.2319 108.5990 -20.7886 8.1417 -0.6949
# 4 -5.5003 6.9048 -20.7886 58.8667 -5.7254 -8.4367
# 5 18.3440 15.3328 8.1417 -5.7254 40.2835 -12.3000
# 6 -9.3673 -8.4434 -0.6949 -8.4367 -12.3000 38.4998
#
#
#
# Elastic Compliance Matrix: (Units=1/GPa)
#
#
# Indices 1 2 3 4 5 6 
#
# 1 0.021455 -0.000875 -0.000901 0.001371 -0.008242 0.002679
# 2 -0.000875 0.006052 -0.002370 -0.001763 -0.001626 0.000166
# 3 -0.000901 -0.002370 0.010978 0.004087 -0.000240 0.000278
# 4 0.001371 -0.001763 0.004087 0.019933 0.003760 0.005590
# 5 -0.008242 -0.001626 -0.000240 0.003760 0.032476 0.008833
# 6 0.002679 0.000166 0.000278 0.005590 0.008833 0.030715
#
#
# Mechanical properties :
#
#
# Convention : Reuss Voigt Hill
#
# Bulk Modulus (GPa) = 33.12196 54.25934 43.69065
# Shear Modulus (GPa) = 35.72325 46.70429 41.21377
#
# Velocity S-wave (km/s) = 3.62265 4.14219 3.89110
# Velocity P-wave (km/s) = 5.44666 6.54294 6.01981
#
# Compressibility (1/GPa) = 0.03019145
#
# Stress axis : x y z
#
# Youngs Moduli (GPa) = 46.61021 165.22249 91.09487
#
# Poissons Ratio (x) = 0.14458 0.08211
# Poissons Ratio (y) = 0.04079 0.21591
# Poissons Ratio (z) = 0.04201 0.39160
#
# Static dielectric constant tensor:
#      x y z
#    x 2.117720 -0.000030 -0.045620 
#    y -0.000030 2.092220 0.022710 
#    z -0.045620 0.022710 2.114700 
# 
# From -- ./inp_files/168161.got.cif
#   From: 2010.05.17/outbox.cif.g08.bks.cpg/sg2_85_cif.got.tgz:168161.got - 2010.06.03 11:33:40.
