data_PCOD9036627
_publ_section_title
;
Structure prediction by ZEFSAII (Michael W. Deem and Ramdas Pophale) SiO2 
 PCOD9036627
Probable space group: P -1
;
_chemical_formula_sum "Si O2"
_cell_formula_units_Z 16
_cell_length_a 11.472972
_cell_length_b 13.819563
_cell_length_c 8.832817
_cell_angle_alpha 77.423470
_cell_angle_beta 87.849245
_cell_angle_gamma 145.865030
_cell_volume 703.768633
_symmetry_space_group_name_H-M "P -1"
_symmetry_group_IT_number 2
_symmetry_cell_setting 'triclinic'
loop_
_space_group_symop_operation_xyz
x,y,z
-x,-y,-z
loop_
_atom_site_type_symbol
_atom_site_label
_atom_site_fract_x
_atom_site_fract_y
_atom_site_fract_z
Si Si1 0.316581 0.267569 0.389347
Si Si2 0.063710 0.890549 0.016492
Si Si3 0.366501 0.962091 0.647293
Si Si4 0.264133 0.706082 0.945560
Si Si5 0.026670 0.032692 0.739503
Si Si6 0.843501 0.631418 0.709786
Si Si7 0.280576 0.507611 0.899615
Si Si8 0.574741 0.252698 0.767446
O O1 0.265756 0.195374 0.586538
O O2 0.228548 0.316042 0.370368
O O3 0.559418 0.431072 0.247838
O O4 0.156025 0.090514 0.341866
O O5 0.986195 0.884360 0.177100
O O6 0.969777 0.711102 0.065065
O O7 0.967673 0.892150 0.887598
O O8 0.330547 0.096007 0.909417
O O9 0.340731 0.863803 0.816738
O O10 0.114236 0.814260 0.659700
O O11 0.500000 0.000000 0.500000
O O12 0.515931 0.158501 0.644261
O O13 0.353243 0.674842 0.857632
O O14 0.310945 0.731131 0.112712
O O15 0.000000 0.500000 0.000000
O O16 0.738332 0.465976 0.673256
O O17 0.718832 0.528702 0.913958
#
# Coordination Sequence:
#
# PCOD9036627 Si02
#       8
#     2   2   2   2   2   2   2   2
#     4  11  23  42  65 102 139 183 223 287 342 400
#     4  11  22  41  63  99 133 188 229 268 345 414
#     4  12  26  46  72 104 138 177 230 299 345 402
#     4  11  22  46  71  99 133 181 239 278 339 416
#     4  10  23  38  64  93 144 178 232 272 333 413
#     4  11  23  44  69 101 141 182 234 278 349 417
#     4  11  22  39  71  95 140 181 227 286 335 407
#     4  11  23  43  75  96 133 187 228 281 348 411
#
# _framework density 22.734743999999999
#
# number of rings (size 3 to 8) (size 9 to 14) (size 15 to 20)
#    0.000    1.000    5.000    2.250    3.500    5.000 
#    2.250    0.000    0.000    0.000    0.000    0.000 
#    0.000    0.000    0.000    0.000    0.000    0.000 
#
# Total GULP energy -89415.137128 kJ/mol
# GULP energy per Si atom -5588.446071 kJ/mol
# Density = 2.268300 g / cm^3
# Si number density = 22.734744 Si / 1000 Ang^3
#
#
#
# Elastic Constant Matrix: (Units=GPa)
#
#
# Indices 1 2 3 4 5 6 
#
# 1 80.8452 34.0991 28.3743 3.9346 -15.3981 -14.9754
# 2 34.0991 130.4914 25.2652 13.4681 -15.8712 -18.7371
# 3 28.3743 25.2652 91.7576 10.4606 -35.6688 -3.4401
# 4 3.9346 13.4681 10.4606 22.4598 -5.6141 -5.2915
# 5 -15.3981 -15.8712 -35.6688 -5.6141 33.4463 -3.1187
# 6 -14.9754 -18.7371 -3.4401 -5.2915 -3.1187 37.3939
#
#
#
# Elastic Compliance Matrix: (Units=1/GPa)
#
#
# Indices 1 2 3 4 5 6 
#
# 1 0.016147 -0.002625 -0.002678 0.002374 0.004252 0.005595
# 2 -0.002625 0.009610 -0.000164 -0.003690 0.002881 0.003467
# 3 -0.002678 -0.000164 0.019744 -0.003368 0.019347 0.001799
# 4 0.002374 -0.003690 -0.003368 0.050595 0.004835 0.006355
# 5 0.004252 0.002881 0.019347 0.004835 0.055624 0.010250
# 6 0.005595 0.003467 0.001799 0.006355 0.010250 0.032640
#
#
# Mechanical properties :
#
#
# Convention : Reuss Voigt Hill
#
# Bulk Modulus (GPa) = 28.92975 53.17459 41.05217
# Shear Modulus (GPa) = 24.17588 33.01705 28.59646
#
# Velocity S-wave (km/s) = 3.26450 3.81500 3.55044
# Velocity P-wave (km/s) = 5.19248 6.54565 5.90794
#
# Compressibility (1/GPa) = 0.03456650
#
# Stress axis : x y z
#
# Youngs Moduli (GPa) = 61.92913 104.05690 50.64841
#
# Poissons Ratio (x) = 0.27319 0.13565
# Poissons Ratio (y) = 0.16259 0.00829
# Poissons Ratio (z) = 0.16587 0.01704
#
# Static dielectric constant tensor:
#      x y z
#    x 2.131060 -0.030950 0.046050 
#    y -0.030950 1.888050 -0.015080 
#    z 0.046050 -0.015080 1.870760 
# 
# From -- ./inp_files/272932.got.cif
#   From: 2010.05.17/outbox.cif.g08.bks.cpg/sg2_137_cif.got.tgz:272932.got - 2010.06.03 11:33:40.
