data_PCOD9036867
_publ_section_title
;
Structure prediction by ZEFSAII (Michael W. Deem and Ramdas Pophale) SiO2 
 PCOD9036867
Probable space group: P -1
;
_chemical_formula_sum "Si O2"
_cell_formula_units_Z 12
_cell_length_a 14.617859
_cell_length_b 5.400417
_cell_length_c 9.482486
_cell_angle_alpha 102.998471
_cell_angle_beta 48.734599
_cell_angle_gamma 116.649361
_cell_volume 500.090800
_symmetry_space_group_name_H-M "P -1"
_symmetry_group_IT_number 2
_symmetry_cell_setting 'triclinic'
loop_
_space_group_symop_operation_xyz
x,y,z
-x,-y,-z
loop_
_atom_site_type_symbol
_atom_site_label
_atom_site_fract_x
_atom_site_fract_y
_atom_site_fract_z
Si Si1 0.121770 0.210531 0.496249
Si Si2 0.923217 0.703697 0.118067
Si Si3 0.306684 0.662883 0.900926
Si Si4 0.244389 0.774413 0.274354
Si Si5 0.433865 0.850948 0.308344
Si Si6 0.558536 0.617192 0.604615
O O1 0.089818 0.228996 0.695877
O O2 0.157719 0.512615 0.426939
O O3 0.222986 0.056727 0.352819
O O4 0.000000 0.000000 0.500000
O O5 0.783968 0.531529 0.153794
O O6 0.000000 0.500000 0.000000
O O7 0.000000 0.000000 0.000000
O O8 0.423482 0.571263 0.822509
O O9 0.410014 0.976887 0.791939
O O10 0.223567 0.683947 0.121533
O O11 0.392240 0.818086 0.184108
O O12 0.377312 0.563720 0.409002
O O13 0.365841 0.054819 0.454160
O O14 0.500000 0.500000 0.500000
#
# Coordination Sequence:
#
# PCOD9036867 Si02
#       6
#     2   2   2   2   2   2
#     4  12  27  47  72  98 135 177 227 278 334 395
#     4  12  27  47  71  98 131 176 228 277 335 396
#     4  10  27  41  71  96 143 172 225 276 335 393
#     4  12  25  43  71 102 136 177 223 275 336 400
#     4  10  24  39  67  97 138 174 221 262 341 390
#     4  10  23  39  64  96 141 173 222 268 335 389
#
# _framework density 23.995643999999999
#
# number of rings (size 3 to 8) (size 9 to 14) (size 15 to 20)
#    1.000    0.000    0.000    5.500    9.333    0.667 
#    0.000    0.000    0.000    0.000    0.000    0.000 
#    0.000    0.000    0.000    0.000    0.000    0.000 
#
# Total GULP energy -66914.268282 kJ/mol
# GULP energy per Si atom -5576.189023 kJ/mol
# Density = 2.394103 g / cm^3
# Si number density = 23.995644 Si / 1000 Ang^3
#
#
#
# Elastic Constant Matrix: (Units=GPa)
#
#
# Indices 1 2 3 4 5 6 
#
# 1 91.2704 48.7004 17.3196 7.3984 11.3526 10.4827
# 2 48.7004 187.4958 52.0823 -3.3538 15.6129 -9.9431
# 3 17.3196 52.0823 129.0646 14.6151 34.9798 7.7788
# 4 7.3984 -3.3538 14.6151 37.2691 11.6804 0.4024
# 5 11.3526 15.6129 34.9798 11.6804 35.8394 9.4955
# 6 10.4827 -9.9431 7.7788 0.4024 9.4955 59.5306
#
#
#
# Elastic Compliance Matrix: (Units=1/GPa)
#
#
# Indices 1 2 3 4 5 6 
#
# 1 0.013598 -0.003767 0.000617 -0.002740 -0.001627 -0.002826
# 2 -0.003767 0.007294 -0.002638 0.002699 -0.000913 0.002354
# 3 0.000617 -0.002638 0.011574 -0.001887 -0.009590 -0.000519
# 4 -0.002740 0.002699 -0.001887 0.031247 -0.009299 0.002452
# 5 -0.001627 -0.000913 -0.009590 -0.009299 0.042623 -0.005349
# 6 -0.002826 0.002354 -0.000519 0.002452 -0.005349 0.018593
#
#
# Mechanical properties :
#
#
# Convention : Reuss Voigt Hill
#
# Bulk Modulus (GPa) = 47.86982 71.55947 59.71465
# Shear Modulus (GPa) = 34.85092 45.84304 40.34698
#
# Velocity S-wave (km/s) = 3.81515 4.37564 4.10497
# Velocity P-wave (km/s) = 6.27693 7.44412 6.88530
#
# Compressibility (1/GPa) = 0.02088999
#
# Stress axis : x y z
#
# Youngs Moduli (GPa) = 73.53818 137.10438 86.40130
#
# Poissons Ratio (x) = 0.51645 -0.05328
# Poissons Ratio (y) = 0.27700 0.22792
# Poissons Ratio (z) = -0.04535 0.36167
#
# Static dielectric constant tensor:
#      x y z
#    x 2.032000 0.007990 -0.049560 
#    y 0.007990 1.996070 0.032970 
#    z -0.049560 0.032970 1.927390 
# 
# From -- ./inp_files/84037.got.cif
#   From: 2010.05.17/outbox.cif.g08.bks.cpg/sg2_43_cif.got.tgz:84037.got - 2010.06.03 11:33:40.
