data_PCOD9036227
_publ_section_title
;
Structure prediction by ZEFSAII (Michael W. Deem and Ramdas Pophale) SiO2 
 PCOD9036227
Probable space group: P -1
;
_chemical_formula_sum "Si O2"
_cell_formula_units_Z 16
_cell_length_a 8.262686
_cell_length_b 23.340385
_cell_length_c 18.357549
_cell_angle_alpha 13.071754
_cell_angle_beta 122.449273
_cell_angle_gamma 122.850767
_cell_volume 672.054528
_symmetry_space_group_name_H-M "P -1"
_symmetry_group_IT_number 2
_symmetry_cell_setting 'triclinic'
loop_
_space_group_symop_operation_xyz
x,y,z
-x,-y,-z
loop_
_atom_site_type_symbol
_atom_site_label
_atom_site_fract_x
_atom_site_fract_y
_atom_site_fract_z
Si Si1 0.193301 0.027983 0.652102
Si Si2 0.859199 0.129487 0.362281
Si Si3 0.177934 0.493557 0.237778
Si Si4 0.153961 0.973412 0.265628
Si Si5 0.466061 0.198852 0.371210
Si Si6 0.877489 0.361706 0.707411
Si Si7 0.210038 0.108949 0.943035
Si Si8 0.585940 0.917382 0.209799
O O1 0.298029 0.073326 0.697121
O O2 0.342691 0.140680 0.486938
O O3 0.159294 0.727349 0.997852
O O4 0.991692 0.149990 0.440140
O O5 0.666382 0.936804 0.556441
O O6 0.812439 0.380327 0.997134
O O7 0.000000 0.000000 0.500000
O O8 0.996160 0.280578 0.462577
O O9 0.368439 0.354447 0.472969
O O10 0.334728 0.920384 0.422967
O O11 0.223181 0.049305 0.106224
O O12 0.036190 0.203077 0.980455
O O13 0.500000 0.500000 0.000000
O O14 0.782570 0.588142 0.443243
O O15 0.000000 0.500000 0.500000
O O16 0.705354 0.147166 0.910072
O O17 0.375521 0.980321 0.101159
O O18 0.000000 0.000000 0.000000
#
# Coordination Sequence:
#
# PCOD9036227 Si02
#       8
#     2   2   2   2   2   2   2   2
#     4  10  20  36  61  90 121 165 207 246 308 365
#     4   8  17  33  53  90 119 160 201 245 291 367
#     4   9  20  37  61  88 122 163 204 248 305 369
#     4  10  19  38  60  88 118 163 203 248 311 364
#     4  10  17  32  61  89 124 162 201 242 307 369
#     4   9  22  43  63  85 120 160 208 257 313 371
#     4  11  24  40  58  92 122 154 209 263 312 363
#     4  11  22  41  64  90 121 164 202 262 315 364
#
# _framework density 23.807594000000002
#
# number of rings (size 3 to 8) (size 9 to 14) (size 15 to 20)
#    0.000    2.500    1.250    2.625    1.750    2.500 
#    2.250    3.125    0.000    6.000    0.000    0.000 
#    0.000    0.000    0.000    0.000    0.000    0.000 
#
# Total GULP energy -89463.698918 kJ/mol
# GULP energy per Si atom -5591.481182 kJ/mol
# Density = 2.375341 g / cm^3
# Si number density = 23.807594 Si / 1000 Ang^3
#
#
#
# Elastic Constant Matrix: (Units=GPa)
#
#
# Indices 1 2 3 4 5 6 
#
# 1 113.6876 30.9061 41.5661 14.0350 7.7412 26.2936
# 2 30.9061 89.0239 31.8148 21.4182 14.8890 11.1002
# 3 41.5661 31.8148 166.0709 10.5903 8.4791 21.5249
# 4 14.0350 21.4182 10.5903 30.6917 12.0043 10.8490
# 5 7.7412 14.8890 8.4791 12.0043 37.8195 9.2207
# 6 26.2936 11.1002 21.5249 10.8490 9.2207 42.8092
#
#
#
# Elastic Compliance Matrix: (Units=1/GPa)
#
#
# Indices 1 2 3 4 5 6 
#
# 1 0.011434 -0.002528 -0.001636 -0.001289 0.000742 -0.005378
# 2 -0.002528 0.014976 -0.001736 -0.008044 -0.002720 0.001167
# 3 -0.001636 -0.001736 0.007025 0.000347 -0.000147 -0.002134
# 4 -0.001289 -0.008044 0.000347 0.044600 -0.009189 -0.006620
# 5 0.000742 -0.002720 -0.000147 -0.009189 0.031308 -0.004091
# 6 -0.005378 0.001167 -0.002134 -0.006620 -0.004091 0.029992
#
#
# Mechanical properties :
#
#
# Convention : Reuss Voigt Hill
#
# Bulk Modulus (GPa) = 46.22066 64.15070 55.18568
# Shear Modulus (GPa) = 31.57641 39.89709 35.73675
#
# Velocity S-wave (km/s) = 3.64581 4.09811 3.87856
# Velocity P-wave (km/s) = 6.09746 7.02828 6.57935
#
# Compressibility (1/GPa) = 0.02163535
#
# Stress axis : x y z
#
# Youngs Moduli (GPa) = 87.45936 66.77472 142.33928
#
# Poissons Ratio (x) = 0.16882 0.23289
# Poissons Ratio (y) = 0.22111 0.24704
# Poissons Ratio (z) = 0.14310 0.11589
#
# Static dielectric constant tensor:
#      x y z
#    x 1.941800 -0.053370 -0.005710 
#    y -0.053370 1.980420 0.028680 
#    z -0.005710 0.028680 1.915760 
# 
# From -- ./inp_files/608864.got.cif
#   From: 2010.05.17/outbox.cif.g08.bks.cpg/sg2_305_cif.got.tgz:608864.got - 2010.06.03 11:33:40.
