data_PCOD9036573
_publ_section_title
;
Structure prediction by ZEFSAII (Michael W. Deem and Ramdas Pophale) SiO2 
 PCOD9036573
Probable space group: P -1
;
_chemical_formula_sum "Si O2"
_cell_formula_units_Z 16
_cell_length_a 7.935616
_cell_length_b 14.675964
_cell_length_c 15.285189
_cell_angle_alpha 150.198326
_cell_angle_beta 79.127549
_cell_angle_gamma 121.499567
_cell_volume 588.993695
_symmetry_space_group_name_H-M "P -1"
_symmetry_group_IT_number 2
_symmetry_cell_setting 'triclinic'
loop_
_space_group_symop_operation_xyz
x,y,z
-x,-y,-z
loop_
_atom_site_type_symbol
_atom_site_label
_atom_site_fract_x
_atom_site_fract_y
_atom_site_fract_z
Si Si1 0.419470 0.740288 0.989953
Si Si2 0.733780 0.182278 0.195418
Si Si3 0.624642 0.307552 0.843357
Si Si4 0.074951 0.504251 0.198107
Si Si5 0.261859 0.129418 0.315294
Si Si6 0.158933 0.348983 0.371088
Si Si7 0.473493 0.586946 0.307218
Si Si8 0.778600 0.823086 0.304806
O O1 0.560084 0.659203 0.886221
O O2 0.359440 0.738122 0.095114
O O3 0.144461 0.518344 0.785606
O O4 0.593855 0.032584 0.175781
O O5 0.863111 0.480176 0.429569
O O6 0.951912 0.199394 0.189154
O O7 0.500000 0.000000 0.000000
O O8 0.321765 0.099941 0.686234
O O9 0.760433 0.612706 0.086929
O O10 0.770848 0.322634 0.762445
O O11 0.893235 0.180422 0.936639
O O12 0.264827 0.585888 0.324273
O O13 0.131704 0.164238 0.288043
O O14 0.558015 0.406479 0.491648
O O15 0.290638 0.186609 0.463558
O O16 0.544756 0.649290 0.250592
O O17 0.000000 0.000000 0.500000
#
# Coordination Sequence:
#
# PCOD9036573 Si02
#       8
#     2   2   2   2   2   2   2   2
#     4  11  22  41  64  93 124 168 207 253 318 364
#     4  11  23  42  63  93 124 162 209 261 313 371
#     4   9  20  36  59  90 126 160 205 255 299 377
#     4  11  22  41  65  93 128 166 208 254 314 374
#     4  11  22  42  64  91 125 165 207 263 313 369
#     4  10  24  40  63  91 122 161 213 258 315 373
#     4  10  23  38  61  93 124 163 209 255 308 374
#     4   9  17  34  58  87 121 162 205 249 306 361
#
# _framework density 27.16498
#
# number of rings (size 3 to 8) (size 9 to 14) (size 15 to 20)
#    0.000    1.750    1.250    3.375    1.750    1.000 
#    0.000    6.875    0.000    9.000    0.000    0.000 
#    0.000    0.000    0.000    0.000    0.000    0.000 
#
# Total GULP energy -89248.482620 kJ/mol
# GULP energy per Si atom -5578.030164 kJ/mol
# Density = 2.710315 g / cm^3
# Si number density = 27.164980 Si / 1000 Ang^3
#
#
#
# Elastic Constant Matrix: (Units=GPa)
#
#
# Indices 1 2 3 4 5 6 
#
# 1 121.5545 17.2325 35.9131 -6.9744 45.1594 -17.4805
# 2 17.2325 92.2836 10.3325 -1.1214 9.8134 -12.6040
# 3 35.9131 10.3325 117.5055 -3.9254 40.7250 -12.5770
# 4 -6.9744 -1.1214 -3.9254 33.2291 -0.1661 7.8036
# 5 45.1594 9.8134 40.7250 -0.1661 37.0938 -7.1321
# 6 -17.4805 -12.6040 -12.5770 7.8036 -7.1321 29.6396
#
#
#
# Elastic Compliance Matrix: (Units=1/GPa)
#
#
# Indices 1 2 3 4 5 6 
#
# 1 0.016708 -0.000344 0.003593 0.002642 -0.023232 0.004946
# 2 -0.000344 0.011710 0.000267 -0.000731 -0.002096 0.004578
# 3 0.003593 0.000267 0.014709 0.001640 -0.019964 0.003239
# 4 0.002642 -0.000731 0.001640 0.032705 -0.006249 -0.008171
# 5 -0.023232 -0.002096 -0.019964 -0.006249 0.077137 -0.002857
# 6 0.004946 0.004578 0.003239 -0.008171 -0.002857 0.041441
#
#
# Mechanical properties :
#
#
# Convention : Reuss Voigt Hill
#
# Bulk Modulus (GPa) = 19.93635 50.92220 35.42927
# Shear Modulus (GPa) = 24.49813 37.85021 31.17417
#
# Velocity S-wave (km/s) = 3.00630 3.73680 3.39128
# Velocity P-wave (km/s) = 4.40516 6.11592 5.32963
#
# Compressibility (1/GPa) = 0.05015963
#
# Stress axis : x y z
#
# Youngs Moduli (GPa) = 59.85230 85.39911 67.98472
#
# Poissons Ratio (x) = 0.02939 -0.24428
# Poissons Ratio (y) = 0.02060 -0.01818
# Poissons Ratio (z) = -0.21506 -0.02283
#
# Static dielectric constant tensor:
#      x y z
#    x 2.495200 0.162590 0.121860 
#    y 0.162590 2.200500 0.019750 
#    z 0.121860 0.019750 2.119130 
# 
# From -- ./inp_files/314978.got.cif
#   From: 2010.05.17/outbox.cif.g08.bks.cpg/sg2_158_cif.got.tgz:314978.got - 2010.06.03 11:33:40.
