data_PCOD9036640
_publ_section_title
;
Structure prediction by ZEFSAII (Michael W. Deem and Ramdas Pophale) SiO2 
 PCOD9036640
Probable space group: P -1
;
_chemical_formula_sum "Si O2"
_cell_formula_units_Z 16
_cell_length_a 11.548797
_cell_length_b 14.465074
_cell_length_c 6.935184
_cell_angle_alpha 94.572498
_cell_angle_beta 69.598927
_cell_angle_gamma 42.404651
_cell_volume 619.423935
_symmetry_space_group_name_H-M "P -1"
_symmetry_group_IT_number 2
_symmetry_cell_setting 'triclinic'
loop_
_space_group_symop_operation_xyz
x,y,z
-x,-y,-z
loop_
_atom_site_type_symbol
_atom_site_label
_atom_site_fract_x
_atom_site_fract_y
_atom_site_fract_z
Si Si1 0.268113 0.544613 0.686066
Si Si2 0.343211 0.097731 0.894392
Si Si3 0.083272 0.469730 0.664501
Si Si4 0.266369 0.748635 0.783401
Si Si5 0.233652 0.482135 0.095737
Si Si6 0.427454 0.202707 0.164456
Si Si7 0.178649 0.153677 0.586089
Si Si8 0.045481 0.026304 0.671788
O O1 0.117813 0.554489 0.705956
O O2 0.174537 0.704973 0.765949
O O3 0.478044 0.416722 0.409620
O O4 0.330442 0.478305 0.859385
O O5 0.350527 0.989565 0.964150
O O6 0.593966 0.961101 0.662480
O O7 0.205170 0.174710 0.793777
O O8 0.310591 0.201036 0.083932
O O9 0.324441 0.280532 0.451945
O O10 0.000000 0.500000 0.500000
O O11 0.923024 0.504782 0.885167
O O12 0.176356 0.820991 0.058871
O O13 0.189329 0.876294 0.707273
O O14 0.404489 0.317522 0.095077
O O15 0.048177 0.662482 0.327817
O O16 0.153336 0.059204 0.580498
O O17 0.000000 0.000000 0.500000
#
# Coordination Sequence:
#
# PCOD9036640 Si02
#       8
#     2   2   2   2   2   2   2   2
#     4  11  24  46  73  99 143 183 241 299 345 431
#     4  10  24  42  64 105 146 181 227 289 374 435
#     4  10  23  38  65 107 142 176 223 288 361 430
#     4  10  26  51  72 104 136 193 247 300 359 410
#     4  11  23  40  69 101 139 183 229 280 363 429
#     4  10  23  40  60 104 145 180 227 283 349 441
#     4  11  24  42  71  98 140 188 233 292 360 439
#     4  11  26  50  75 101 140 190 249 300 360 423
#
# _framework density 25.830452000000001
#
# number of rings (size 3 to 8) (size 9 to 14) (size 15 to 20)
#    0.000    1.500    2.500    0.375    8.750    3.000 
#    9.000    1.250    0.000    0.000    0.000    0.000 
#    0.000    0.000    0.000    0.000    0.000    0.000 
#
# Total GULP energy -89418.681620 kJ/mol
# GULP energy per Si atom -5588.667601 kJ/mol
# Density = 2.577166 g / cm^3
# Si number density = 25.830452 Si / 1000 Ang^3
#
#
#
# Elastic Constant Matrix: (Units=GPa)
#
#
# Indices 1 2 3 4 5 6 
#
# 1 109.5155 34.5351 36.7550 7.3947 6.7514 33.5554
# 2 34.5351 157.8411 17.3333 -2.1981 -3.1075 35.7178
# 3 36.7550 17.3333 109.7527 15.9912 7.4913 8.5370
# 4 7.3947 -2.1981 15.9912 33.9310 7.3162 3.2666
# 5 6.7514 -3.1075 7.4913 7.3162 34.5909 1.8987
# 6 33.5554 35.7178 8.5370 3.2666 1.8987 43.2012
#
#
#
# Elastic Compliance Matrix: (Units=1/GPa)
#
#
# Indices 1 2 3 4 5 6 
#
# 1 0.013409 -0.000475 -0.003592 -0.000077 -0.001358 -0.009247
# 2 -0.000475 0.007983 -0.000897 0.001415 0.001045 -0.006207
# 3 -0.003592 -0.000897 0.011032 -0.004441 -0.000924 0.001728
# 4 -0.000077 0.001415 -0.004441 0.033157 -0.005772 -0.002486
# 5 -0.001358 0.001045 -0.000924 -0.005772 0.030719 -0.000541
# 6 -0.009247 -0.006207 0.001728 -0.002486 -0.000541 0.035332
#
#
# Mechanical properties :
#
#
# Convention : Reuss Voigt Hill
#
# Bulk Modulus (GPa) = 44.45178 61.59513 53.02346
# Shear Modulus (GPa) = 33.54426 41.57701 37.56063
#
# Velocity S-wave (km/s) = 3.60756 4.01635 3.81743
# Velocity P-wave (km/s) = 5.88210 6.73838 6.32475
#
# Compressibility (1/GPa) = 0.02249629
#
# Stress axis : x y z
#
# Youngs Moduli (GPa) = 74.57915 125.27155 90.64709
#
# Poissons Ratio (x) = 0.05945 0.32563
# Poissons Ratio (y) = 0.03539 0.08127
# Poissons Ratio (z) = 0.26791 0.11231
#
# Static dielectric constant tensor:
#      x y z
#    x 2.028080 -0.034570 -0.055850 
#    y -0.034570 2.135490 0.039460 
#    z -0.055850 0.039460 2.225560 
# 
# From -- ./inp_files/262493.got.cif
#   From: 2010.05.17/outbox.cif.g08.bks.cpg/sg2_132_cif.got.tgz:262493.got - 2010.06.03 11:33:40.
