data_PCOD9036843
_publ_section_title
;
Structure prediction by ZEFSAII (Michael W. Deem and Ramdas Pophale) SiO2 
 PCOD9036843
Probable space group: P -1
;
_chemical_formula_sum "Si O2"
_cell_formula_units_Z 14
_cell_length_a 10.950956
_cell_length_b 11.738531
_cell_length_c 14.614576
_cell_angle_alpha 30.817247
_cell_angle_beta 48.113681
_cell_angle_gamma 39.827828
_cell_volume 616.243174
_symmetry_space_group_name_H-M "P -1"
_symmetry_group_IT_number 2
_symmetry_cell_setting 'triclinic'
loop_
_space_group_symop_operation_xyz
x,y,z
-x,-y,-z
loop_
_atom_site_type_symbol
_atom_site_label
_atom_site_fract_x
_atom_site_fract_y
_atom_site_fract_z
Si Si1 0.964873 0.854602 0.701262
Si Si2 0.658357 0.371044 0.587810
Si Si3 0.639097 0.118477 0.113995
Si Si4 0.053641 0.444124 0.618329
Si Si5 0.941400 0.351535 0.015800
Si Si6 0.302362 0.436357 0.178661
Si Si7 0.378666 0.926681 0.046678
O O1 0.101885 0.729087 0.808315
O O2 0.782157 0.083188 0.684357
O O3 0.000000 0.000000 0.500000
O O4 0.941725 0.619091 0.840865
O O5 0.500000 0.500000 0.500000
O O6 0.797921 0.479855 0.465686
O O7 0.583708 0.341375 0.744051
O O8 0.491084 0.180145 0.227809
O O9 0.840734 0.864649 0.207705
O O10 0.654930 0.372082 0.917969
O O11 0.563359 0.080637 0.081694
O O12 0.000000 0.500000 0.500000
O O13 0.858920 0.592071 0.671045
O O14 0.151983 0.136113 0.023314
O O15 0.789385 0.402146 0.980059
O O16 0.500000 0.000000 0.000000
#
# Coordination Sequence:
#
# PCOD9036843 Si02
#       7
#     2   2   2   2   2   2   2
#     4  10  23  39  63  98 140 182 233 293 351 428
#     4  11  26  43  67 105 141 184 236 296 370 423
#     4  11  26  45  73 102 139 186 241 297 349 443
#     4  12  26  46  74 102 146 187 237 303 362 435
#     4  10  23  41  67  99 137 187 237 288 361 426
#     4  11  25  46  72 102 137 189 243 287 369 427
#     4  11  24  44  71  99 139 189 239 293 360 433
#
# _framework density 22.718304
#
# number of rings (size 3 to 8) (size 9 to 14) (size 15 to 20)
#    0.000    1.143    1.429    3.000   14.000    0.571 
#    0.000    0.000    0.000    0.000    0.000    0.000 
#    0.000    0.000    0.000    0.000    0.000    0.000 
#
# Total GULP energy -78207.360017 kJ/mol
# GULP energy per Si atom -5586.240001 kJ/mol
# Density = 2.266660 g / cm^3
# Si number density = 22.718304 Si / 1000 Ang^3
#
#
#
# Elastic Constant Matrix: (Units=GPa)
#
#
# Indices 1 2 3 4 5 6 
#
# 1 107.5562 8.4471 16.3480 6.2208 6.5946 14.9601
# 2 8.4471 67.8537 19.6740 8.2611 1.7537 6.0711
# 3 16.3480 19.6740 95.7555 18.5565 13.1688 9.7178
# 4 6.2208 8.2611 18.5565 34.1192 -1.3750 0.2148
# 5 6.5946 1.7537 13.1688 -1.3750 38.0232 8.5357
# 6 14.9601 6.0711 9.7178 0.2148 8.5357 29.9337
#
#
#
# Elastic Compliance Matrix: (Units=1/GPa)
#
#
# Indices 1 2 3 4 5 6 
#
# 1 0.010205 -0.000440 -0.000878 -0.001267 -0.000462 -0.004585
# 2 -0.000440 0.016030 -0.002622 -0.002332 0.000690 -0.002360
# 3 -0.000878 -0.002622 0.013165 -0.006515 -0.004050 -0.002102
# 4 -0.001267 -0.002332 -0.006515 0.033770 0.003351 0.002023
# 5 -0.000462 0.000690 -0.004050 0.003351 0.029447 -0.007015
# 6 -0.004585 -0.002360 -0.002102 0.002023 -0.007015 0.038846
#
#
# Mechanical properties :
#
#
# Convention : Reuss Voigt Hill
#
# Bulk Modulus (GPa) = 31.72463 40.01149 35.86806
# Shear Modulus (GPa) = 31.27996 35.52830 33.40413
#
# Velocity S-wave (km/s) = 3.71463 3.95886 3.83869
# Velocity P-wave (km/s) = 5.69146 6.20862 5.95566
#
# Compressibility (1/GPa) = 0.03152125
#
# Stress axis : x y z
#
# Youngs Moduli (GPa) = 97.99391 62.38371 75.96123
#
# Poissons Ratio (x) = 0.02742 0.06666
# Poissons Ratio (y) = 0.04307 0.19916
# Poissons Ratio (z) = 0.08600 0.16356
#
# Static dielectric constant tensor:
#      x y z
#    x 2.002210 0.135580 0.175840 
#    y 0.135580 2.038510 0.248290 
#    z 0.175840 0.248290 2.273080 
# 
# From -- ./inp_files/518534.got.cif
#   From: 2010.05.17/outbox.cif.g08.bks.cpg/sg2_260_cif.got.tgz:518534.got - 2010.06.03 11:33:40.
