data_PCOD9036752
_publ_section_title
;
Structure prediction by ZEFSAII (Michael W. Deem and Ramdas Pophale) SiO2 
 PCOD9036752
Probable space group: P -1
;
_chemical_formula_sum "Si O2"
_cell_formula_units_Z 15
_cell_length_a 11.277318
_cell_length_b 11.155054
_cell_length_c 13.308480
_cell_angle_alpha 114.273628
_cell_angle_beta 34.247812
_cell_angle_gamma 88.798386
_cell_volume 610.617343
_symmetry_space_group_name_H-M "P -1"
_symmetry_group_IT_number 2
_symmetry_cell_setting 'triclinic'
loop_
_space_group_symop_operation_xyz
x,y,z
-x,-y,-z
loop_
_atom_site_type_symbol
_atom_site_label
_atom_site_fract_x
_atom_site_fract_y
_atom_site_fract_z
Si Si1 0.072348 0.121087 0.496095
Si Si2 0.500000 0.500000 0.500000
Si Si3 0.331625 0.459535 0.822260
Si Si4 0.722021 0.447917 0.703163
Si Si5 0.179387 0.134954 0.656879
Si Si6 0.877213 0.159133 0.063398
Si Si7 0.221685 0.235473 0.923833
Si Si8 0.683706 0.760211 0.906700
O O1 0.100636 0.139596 0.599530
O O2 0.832392 0.315750 0.676042
O O3 0.000000 0.000000 0.500000
O O4 0.401373 0.980114 0.168227
O O5 0.482645 0.423385 0.598582
O O6 0.530172 0.335057 0.358262
O O7 0.492725 0.472332 0.801630
O O8 0.313815 0.319703 0.824738
O O9 0.992719 0.658751 0.122939
O O10 0.622931 0.637801 0.870038
O O11 0.023007 0.326765 0.386043
O O12 0.533860 0.980370 0.354113
O O13 0.042072 0.090598 0.817795
O O14 0.914172 0.294253 0.135170
O O15 0.000000 0.000000 0.000000
O O16 0.247883 0.262954 0.030177
#
# Coordination Sequence:
#
# PCOD9036752 Si02
#       8
#     2   1   2   2   2   2   2   2
#     4  11  22  38  62  91 123 161 206 254 306 367
#     4  10  24  42  64  96 124 160 206 256 310 366
#     4  11  23  41  65  92 124 163 206 255 309 367
#     4  11  22  41  63  87 126 165 202 252 310 368
#     4  10  23  39  60  93 123 159 208 257 307 365
#     4  11  24  43  65  91 126 165 206 257 313 367
#     4  11  23  41  65  92 124 163 207 255 309 369
#     4  10  23  39  61  94 124 161 208 253 305 365
#
# _framework density 24.565304999999999
#
# number of rings (size 3 to 8) (size 9 to 14) (size 15 to 20)
#    0.000    1.333    0.000    5.600    0.000    5.867 
#    0.000   13.333    0.000    0.000    0.000    0.000 
#    0.000    0.000    0.000    0.000    0.000    0.000 
#
# Total GULP energy -83778.504436 kJ/mol
# GULP energy per Si atom -5585.233629 kJ/mol
# Density = 2.450939 g / cm^3
# Si number density = 24.565305 Si / 1000 Ang^3
#
#
#
# Elastic Constant Matrix: (Units=GPa)
#
#
# Indices 1 2 3 4 5 6 
#
# 1 129.8760 24.9967 31.6120 -14.5724 10.7185 -4.5047
# 2 24.9967 114.5082 35.2170 -8.4354 -1.8806 -24.6792
# 3 31.6120 35.2170 173.7053 -3.4264 6.0186 -14.4425
# 4 -14.5724 -8.4354 -3.4264 44.1916 -12.8560 5.9404
# 5 10.7185 -1.8806 6.0186 -12.8560 39.8559 -5.9621
# 6 -4.5047 -24.6792 -14.4425 5.9404 -5.9621 36.7968
#
#
#
# Elastic Compliance Matrix: (Units=1/GPa)
#
#
# Indices 1 2 3 4 5 6 
#
# 1 0.008651 -0.001625 -0.001239 0.002102 -0.001708 -0.001133
# 2 -0.001625 0.011172 -0.001458 0.001322 0.002648 0.006938
# 3 -0.001239 -0.001458 0.006404 -0.000573 -0.000683 0.001366
# 4 0.002102 0.001322 -0.000573 0.026037 0.007677 -0.002041
# 5 -0.001708 0.002648 -0.000683 0.007677 0.028965 0.004753
# 6 -0.001133 0.006938 0.001366 -0.002041 0.004753 0.033326
#
#
# Mechanical properties :
#
#
# Convention : Reuss Voigt Hill
#
# Bulk Modulus (GPa) = 56.87005 66.86010 61.86508
# Shear Modulus (GPa) = 38.74142 45.91979 42.33061
#
# Velocity S-wave (km/s) = 3.97555 4.32822 4.15563
# Velocity P-wave (km/s) = 6.65388 7.22872 6.94725
#
# Compressibility (1/GPa) = 0.01758395
#
# Stress axis : x y z
#
# Youngs Moduli (GPa) = 115.58862 89.50721 156.15658
#
# Poissons Ratio (x) = 0.14545 0.19341
# Poissons Ratio (y) = 0.18783 0.22771
# Poissons Ratio (z) = 0.14316 0.13052
#
# Static dielectric constant tensor:
#      x y z
#    x 1.937620 -0.045300 -0.056720 
#    y -0.045300 1.954920 0.016500 
#    z -0.056720 0.016500 2.082240 
# 
# From -- ./inp_files/428524.got.cif
#   From: 2010.05.17/outbox.cif.g08.bks.cpg/sg2_215_cif.got.tgz:428524.got - 2010.06.03 11:33:40.
