data_PCOD9036543
_publ_section_title
;
Structure prediction by ZEFSAII (Michael W. Deem and Ramdas Pophale) SiO2 
 PCOD9036543
Probable space group: P -1
;
_chemical_formula_sum "Si O2"
_cell_formula_units_Z 12
_cell_length_a 7.241814
_cell_length_b 10.358790
_cell_length_c 9.516331
_cell_angle_alpha 122.150540
_cell_angle_beta 64.102500
_cell_angle_gamma 129.377866
_cell_volume 461.802554
_symmetry_space_group_name_H-M "P -1"
_symmetry_group_IT_number 2
_symmetry_cell_setting 'triclinic'
loop_
_space_group_symop_operation_xyz
x,y,z
-x,-y,-z
loop_
_atom_site_type_symbol
_atom_site_label
_atom_site_fract_x
_atom_site_fract_y
_atom_site_fract_z
Si Si1 0.789577 0.467856 0.399821
Si Si2 0.019047 0.330627 0.044250
Si Si3 0.370882 0.602249 0.891728
Si Si4 0.947199 0.123146 0.396291
Si Si5 0.625806 0.908624 0.633393
Si Si6 0.278439 0.019329 0.912172
O O1 0.990358 0.429994 0.246793
O O2 0.925137 0.662502 0.533269
O O3 0.587639 0.295211 0.452193
O O4 0.649097 0.463575 0.299572
O O5 0.268607 0.441225 0.942865
O O6 0.926507 0.132047 0.008754
O O7 0.822369 0.332718 0.006998
O O8 0.617825 0.779324 0.954572
O O9 0.158803 0.092816 0.359379
O O10 0.748104 0.040749 0.538674
O O11 0.813423 0.025962 0.242575
O O12 0.488102 0.972386 0.816576
#
# Coordination Sequence:
#
# PCOD9036543 Si02
#       6
#     2   2   2   2   2   2
#     4   9  19  36  59  80 114 152 184 228 287 330
#     4   8  18  32  59  84 110 148 188 225 285 334
#     4   9  18  35  59  87 111 149 188 230 285 336
#     4  11  23  38  57  87 114 148 193 232 272 340
#     4  10  23  38  58  82 119 152 182 232 289 326
#     4  11  21  36  63  85 111 148 192 231 279 335
#
# _framework density 25.985130000000002
#
# number of rings (size 3 to 8) (size 9 to 14) (size 15 to 20)
#    1.000    1.333    0.000    2.500    0.000    4.000 
#    0.000    0.833    0.000    5.000    0.000    0.000 
#    0.000    0.000    0.000    0.000    0.000    0.000 
#
# Total GULP energy -67188.779812 kJ/mol
# GULP energy per Si atom -5599.064984 kJ/mol
# Density = 2.592599 g / cm^3
# Si number density = 25.985130 Si / 1000 Ang^3
#
#
#
# Elastic Constant Matrix: (Units=GPa)
#
#
# Indices 1 2 3 4 5 6 
#
# 1 55.1437 19.5184 20.7301 4.4336 -0.7946 23.0928
# 2 19.5184 175.4569 71.4818 -21.7435 17.8697 11.3781
# 3 20.7301 71.4818 94.9387 20.3997 15.3979 2.0010
# 4 4.4336 -21.7435 20.3997 41.0199 3.1029 0.4362
# 5 -0.7946 17.8697 15.3979 3.1029 42.1709 2.0176
# 6 23.0928 11.3781 2.0010 0.4362 2.0176 17.3304
#
#
#
# Elastic Compliance Matrix: (Units=1/GPa)
#
#
# Indices 1 2 3 4 5 6 
#
# 1 0.052558 0.005564 -0.016619 0.005721 0.007764 -0.072816
# 2 0.005564 0.013449 -0.013818 0.013621 -0.000838 -0.014894
# 3 -0.016619 -0.013818 0.029040 -0.019901 -0.004982 0.028945
# 4 0.005721 0.013621 -0.019901 0.041092 -0.000693 -0.015222
# 5 0.007764 -0.000838 -0.004982 -0.000693 0.026673 -0.012307
# 6 -0.072816 -0.014894 0.028945 -0.015222 -0.012307 0.162982
#
#
# Mechanical properties :
#
#
# Convention : Reuss Voigt Hill
#
# Bulk Modulus (GPa) = 22.07460 61.00000 41.53730
# Shear Modulus (GPa) = 12.79944 34.35818 23.57881
#
# Velocity S-wave (km/s) = 2.22179 3.64019 3.01557
# Velocity P-wave (km/s) = 3.88527 6.41824 5.30515
#
# Compressibility (1/GPa) = 0.04530093
#
# Stress axis : x y z
#
# Youngs Moduli (GPa) = 19.02659 74.35313 34.43487
#
# Poissons Ratio (x) = -0.41372 0.57229
# Poissons Ratio (y) = -0.10587 0.47583
# Poissons Ratio (z) = 0.31621 1.02743
#
# Static dielectric constant tensor:
#      x y z
#    x 2.111980 0.021580 -0.015260 
#    y 0.021580 2.024420 -0.008800 
#    z -0.015260 -0.008800 2.006580 
# 
# From -- ./inp_files/181514.got.cif
#   From: 2010.05.17/outbox.cif.g08.bks.cpg/sg2_91_cif.got.tgz:181514.got - 2010.06.03 11:33:40.
