data_PCOD9036012
_publ_section_title
;
Structure prediction by ZEFSAII (Michael W. Deem and Ramdas Pophale) SiO2 
 PCOD9036012
Probable space group: P -1
;
_chemical_formula_sum "Si O2"
_cell_formula_units_Z 14
_cell_length_a 12.425029
_cell_length_b 18.626123
_cell_length_c 11.915296
_cell_angle_alpha 150.200458
_cell_angle_beta 35.423319
_cell_angle_gamma 153.218750
_cell_volume 607.454689
_symmetry_space_group_name_H-M "P -1"
_symmetry_group_IT_number 2
_symmetry_cell_setting 'triclinic'
loop_
_space_group_symop_operation_xyz
x,y,z
-x,-y,-z
loop_
_atom_site_type_symbol
_atom_site_label
_atom_site_fract_x
_atom_site_fract_y
_atom_site_fract_z
Si Si1 0.911962 0.798294 0.835482
Si Si2 0.559944 0.339641 0.273289
Si Si3 0.388380 0.421514 0.756163
Si Si4 0.300071 0.089273 0.499049
Si Si5 0.141601 0.773387 0.045454
Si Si6 0.157820 0.721050 0.696161
Si Si7 0.104438 0.242526 0.446885
O O1 0.623310 0.633367 0.875058
O O2 0.972580 0.747781 0.598674
O O3 0.047295 0.796058 0.821142
O O4 0.000000 0.000000 0.000000
O O5 0.468119 0.366008 0.504580
O O6 0.328837 0.240207 0.253669
O O7 0.768947 0.549334 0.332850
O O8 0.677872 0.245862 0.071057
O O9 0.320087 0.269287 0.702811
O O10 0.141592 0.385362 0.899213
O O11 0.564025 0.170140 0.422294
O O12 0.222069 0.971503 0.289077
O O13 0.104072 0.934863 0.544810
O O14 0.159200 0.755175 0.873587
O O15 0.000000 0.500000 0.500000
#
# Coordination Sequence:
#
# PCOD9036012 Si02
#       7
#     2   2   2   2   2   2   2
#     4  11  27  46  69 103 149 207 238 292 375 445
#     4  10  22  47  69 105 150 181 233 309 370 417
#     4  11  24  47  71 110 146 183 250 307 363 428
#     4  12  25  43  77 113 141 188 253 307 364 429
#     4  12  26  42  83 111 137 194 251 303 369 428
#     4  12  26  49  72 105 155 194 245 304 358 440
#     4  10  24  45  70 102 154 184 233 313 362 430
#
# _framework density 23.046986
#
# number of rings (size 3 to 8) (size 9 to 14) (size 15 to 20)
#    0.000    0.857    4.286    1.714    4.000    4.000 
#    0.000    0.000    0.000    0.000    0.000    0.000 
#    0.000    0.000    0.000    0.000    0.000    0.000 
#
# Total GULP energy -78318.433511 kJ/mol
# GULP energy per Si atom -5594.173822 kJ/mol
# Density = 2.299453 g / cm^3
# Si number density = 23.046986 Si / 1000 Ang^3
#
#
#
# Elastic Constant Matrix: (Units=GPa)
#
#
# Indices 1 2 3 4 5 6 
#
# 1 109.2047 32.9997 19.4133 7.6002 -9.9703 -1.0386
# 2 32.9997 165.7800 28.8455 18.9776 -3.7098 -1.3420
# 3 19.4133 28.8455 44.9566 13.9999 -13.8116 2.6692
# 4 7.6002 18.9776 13.9999 36.8912 3.7507 -1.4166
# 5 -9.9703 -3.7098 -13.8116 3.7507 30.5342 0.2050
# 6 -1.0386 -1.3420 2.6692 -1.4166 0.2050 45.2462
#
#
#
# Elastic Compliance Matrix: (Units=1/GPa)
#
#
# Indices 1 2 3 4 5 6 
#
# 1 0.010312 -0.001467 -0.002755 -0.000515 0.002004 0.000331
# 2 -0.001467 0.007165 -0.003742 -0.001840 -0.001077 0.000347
# 3 -0.002755 -0.003742 0.034746 -0.012413 0.015905 -0.002685
# 4 -0.000515 -0.001840 -0.012413 0.033975 -0.010192 0.001776
# 5 0.002004 -0.001077 0.015905 -0.010192 0.041729 -0.001432
# 6 0.000331 0.000347 -0.002685 0.001776 -0.001432 0.022340
#
#
# Mechanical properties :
#
#
# Convention : Reuss Voigt Hill
#
# Bulk Modulus (GPa) = 27.55275 53.60647 40.57961
# Shear Modulus (GPa) = 28.04372 38.44652 33.24512
#
# Velocity S-wave (km/s) = 3.49206 4.08877 3.80214
# Velocity P-wave (km/s) = 5.31416 6.75284 6.07623
#
# Compressibility (1/GPa) = 0.03629402
#
# Stress axis : x y z
#
# Youngs Moduli (GPa) = 96.97318 139.57593 28.78035
#
# Poissons Ratio (x) = 0.20472 0.07930
# Poissons Ratio (y) = 0.14224 0.10770
# Poissons Ratio (z) = 0.26721 0.52230
#
# Static dielectric constant tensor:
#      x y z
#    x 1.928200 -0.002350 0.078140 
#    y -0.002350 1.861600 0.016240 
#    z 0.078140 0.016240 1.970290 
# 
# From -- ./inp_files/437426.got.cif
#   From: 2010.05.17/outbox.cif.g08.bks.cpg/sg2_219_cif.got.tgz:437426.got - 2010.06.03 11:33:40.
