data_PCOD9036783
_publ_section_title
;
Structure prediction by ZEFSAII (Michael W. Deem and Ramdas Pophale) SiO2 
 PCOD9036783
Probable space group: P -1
;
_chemical_formula_sum "Si O2"
_cell_formula_units_Z 15
_cell_length_a 12.939487
_cell_length_b 11.367238
_cell_length_c 10.953975
_cell_angle_alpha 91.259532
_cell_angle_beta 115.427913
_cell_angle_gamma 34.588140
_cell_volume 630.106637
_symmetry_space_group_name_H-M "P -1"
_symmetry_group_IT_number 2
_symmetry_cell_setting 'triclinic'
loop_
_space_group_symop_operation_xyz
x,y,z
-x,-y,-z
loop_
_atom_site_type_symbol
_atom_site_label
_atom_site_fract_x
_atom_site_fract_y
_atom_site_fract_z
Si Si1 0.133516 0.069791 0.063064
Si Si2 0.909122 0.796375 0.571185
Si Si3 0.816942 0.183087 0.769174
Si Si4 0.500000 0.000000 0.500000
Si Si5 0.437840 0.230941 0.879933
Si Si6 0.251856 0.792011 0.537329
Si Si7 0.786408 0.608114 0.842348
Si Si8 0.729072 0.876640 0.244111
O O1 0.070883 0.017514 0.942426
O O2 0.899808 0.375782 0.923748
O O3 0.152761 0.984904 0.198279
O O4 0.399543 0.892849 0.162939
O O5 0.739650 0.862076 0.565862
O O6 0.951721 0.705883 0.450998
O O7 0.198172 0.544229 0.772170
O O8 0.756177 0.060295 0.482193
O O9 0.549646 0.472880 0.710759
O O10 0.793679 0.228508 0.615954
O O11 0.716241 0.710489 0.672131
O O12 0.289740 0.242598 0.803727
O O13 0.662735 0.014562 0.093707
O O14 0.000000 0.000000 0.500000
O O15 0.528866 0.867205 0.797549
O O16 0.000000 0.500000 0.000000
#
# Coordination Sequence:
#
# PCOD9036783 Si02
#       8
#     2   2   2   1   2   2   2   2
#     4  11  24  45  69  99 141 184 230 295 355 420
#     4  11  24  42  68 101 136 184 236 285 356 428
#     4  10  25  47  70 104 139 184 242 295 354 420
#     4  10  24  38  64  98 132 176 222 276 346 414
#     4  11  23  41  64 100 138 183 223 285 352 418
#     4  11  25  48  73 104 137 187 245 297 357 416
#     4  11  21  41  65  95 135 180 223 273 349 421
#     4  10  23  39  61  97 138 174 229 277 340 427
#
# _framework density 23.805495000000001
#
# number of rings (size 3 to 8) (size 9 to 14) (size 15 to 20)
#    0.000    1.333    1.333    3.600    7.467    0.000 
#    0.000    2.000    0.000    0.000    0.000    0.000 
#    0.000    0.000    0.000    0.000    0.000    0.000 
#
# Total GULP energy -83515.147395 kJ/mol
# GULP energy per Si atom -5567.676493 kJ/mol
# Density = 2.375131 g / cm^3
# Si number density = 23.805495 Si / 1000 Ang^3
#
#
#
# Elastic Constant Matrix: (Units=GPa)
#
#
# Indices 1 2 3 4 5 6 
#
# 1 83.6002 21.4522 26.3557 -14.0786 -21.2736 -1.8029
# 2 21.4522 60.4163 15.2339 -23.5882 -10.6380 -5.7515
# 3 26.3557 15.2339 103.4144 -29.4880 -12.2391 5.4382
# 4 -14.0786 -23.5882 -29.4880 41.0570 10.7550 -1.7933
# 5 -21.2736 -10.6380 -12.2391 10.7550 39.0275 -11.3484
# 6 -1.8029 -5.7515 5.4382 -1.7933 -11.3484 30.5333
#
#
#
# Elastic Compliance Matrix: (Units=1/GPa)
#
#
# Indices 1 2 3 4 5 6 
#
# 1 0.015765 -0.003292 -0.002933 -0.000528 0.008022 0.003784
# 2 -0.003292 0.023485 0.001013 0.012510 0.003216 0.005979
# 3 -0.002933 0.001013 0.012840 0.008784 -0.000254 -0.001848
# 4 -0.000528 0.012510 0.008784 0.038894 -0.004435 0.001397
# 5 0.008022 0.003216 -0.000254 -0.004435 0.036176 0.014310
# 6 0.003784 0.005979 -0.001848 0.001397 0.014310 0.039831
#
#
# Mechanical properties :
#
#
# Convention : Reuss Voigt Hill
#
# Bulk Modulus (GPa) = 24.00032 41.50162 32.75097
# Shear Modulus (GPa) = 26.13654 34.41617 30.27636
#
# Velocity S-wave (km/s) = 3.31708 3.80639 3.57013
# Velocity P-wave (km/s) = 4.97739 6.06545 5.54816
#
# Compressibility (1/GPa) = 0.04166611
#
# Stress axis : x y z
#
# Youngs Moduli (GPa) = 63.43136 42.58052 77.88228
#
# Poissons Ratio (x) = 0.14015 0.22843
# Poissons Ratio (y) = 0.20879 -0.07887
# Poissons Ratio (z) = 0.18605 -0.04312
#
# Static dielectric constant tensor:
#      x y z
#    x 1.949150 0.053700 -0.067990 
#    y 0.053700 1.959100 0.033520 
#    z -0.067990 0.033520 2.109560 
# 
# From -- ./inp_files/428015.got.cif
#   From: 2010.05.17/outbox.cif.g08.bks.cpg/sg2_215_cif.got.tgz:428015.got - 2010.06.03 11:33:40.
