data_PCOD9036828
_publ_section_title
;
Structure prediction by ZEFSAII (Michael W. Deem and Ramdas Pophale) SiO2 
 PCOD9036828
Probable space group: P -1
;
_chemical_formula_sum "Si O2"
_cell_formula_units_Z 16
_cell_length_a 9.765712
_cell_length_b 15.151114
_cell_length_c 9.901985
_cell_angle_alpha 55.817436
_cell_angle_beta 52.391627
_cell_angle_gamma 95.583841
_cell_volume 711.350918
_symmetry_space_group_name_H-M "P -1"
_symmetry_group_IT_number 2
_symmetry_cell_setting 'triclinic'
loop_
_space_group_symop_operation_xyz
x,y,z
-x,-y,-z
loop_
_atom_site_type_symbol
_atom_site_label
_atom_site_fract_x
_atom_site_fract_y
_atom_site_fract_z
Si Si1 0.651871 0.152395 0.345597
Si Si2 0.307862 0.718563 0.066184
Si Si3 0.194618 0.423953 0.395179
Si Si4 0.098798 0.201327 0.106068
Si Si5 0.628246 0.253339 0.540116
Si Si6 0.290654 0.058945 0.162345
Si Si7 0.575051 0.611734 0.476348
Si Si8 0.049100 0.285791 0.319766
O O1 0.541448 0.161212 0.534971
O O2 0.870569 0.176455 0.246147
O O3 0.500000 0.000000 0.500000
O O4 0.704982 0.257932 0.104348
O O5 0.296310 0.585993 0.202363
O O6 0.077766 0.673973 0.312544
O O7 0.539616 0.859839 0.879180
O O8 0.326747 0.402163 0.438362
O O9 0.193334 0.372479 0.291542
O O10 0.112478 0.084526 0.240842
O O11 0.203018 0.309168 0.080057
O O12 0.208464 0.244262 0.855158
O O13 0.614358 0.373378 0.416310
O O14 0.890798 0.323419 0.350448
O O15 0.468559 0.150320 0.850748
O O16 0.141484 0.888682 0.392378
O O17 0.500000 0.500000 0.500000
#
# Coordination Sequence:
#
# PCOD9036828 Si02
#       8
#     2   2   2   2   2   2   2   2
#     4  11  24  42  67  96 135 173 219 272 330 388
#     4  11  23  42  64  95 132 171 217 268 328 390
#     4  11  24  40  65  96 128 171 219 271 323 388
#     4  10  23  41  62  96 129 172 219 274 327 387
#     4  10  23  39  63  93 125 172 218 267 325 388
#     4  11  22  42  68  92 134 175 221 267 330 392
#     4  11  24  44  66  91 132 176 218 269 335 392
#     4  11  23  40  67  97 130 173 222 270 326 390
#
# _framework density 22.492415000000001
#
# number of rings (size 3 to 8) (size 9 to 14) (size 15 to 20)
#    0.000    1.250    2.500    3.750    3.500    3.000 
#    0.000    6.875    0.000    0.000    0.000    0.000 
#    0.000    0.000    0.000    0.000    0.000    0.000 
#
# Total GULP energy -89407.378362 kJ/mol
# GULP energy per Si atom -5587.961148 kJ/mol
# Density = 2.244122 g / cm^3
# Si number density = 22.492415 Si / 1000 Ang^3
#
#
#
# Elastic Constant Matrix: (Units=GPa)
#
#
# Indices 1 2 3 4 5 6 
#
# 1 168.3695 73.5645 36.3927 2.3614 21.0930 -13.6413
# 2 73.5645 114.4582 2.2894 7.5805 11.0171 7.0064
# 3 36.3927 2.2894 50.5447 7.5619 16.9696 3.9558
# 4 2.3614 7.5805 7.5619 34.7367 12.9709 6.2257
# 5 21.0930 11.0171 16.9696 12.9709 22.3131 2.7328
# 6 -13.6413 7.0064 3.9558 6.2257 2.7328 49.3095
#
#
#
# Elastic Compliance Matrix: (Units=1/GPa)
#
#
# Indices 1 2 3 4 5 6 
#
# 1 0.011675 -0.007464 -0.007564 0.003127 -0.003994 0.004724
# 2 -0.007464 0.014091 0.006395 -0.002078 -0.003050 -0.004149
# 3 -0.007564 0.006395 0.031945 0.000444 -0.020007 -0.004511
# 4 0.003127 -0.002078 0.000444 0.038441 -0.024322 -0.002381
# 5 -0.003994 -0.003050 -0.020007 -0.024322 0.079502 -0.000402
# 6 0.004724 -0.004149 -0.004511 -0.002381 -0.000402 0.022861
#
#
# Mechanical properties :
#
#
# Convention : Reuss Voigt Hill
#
# Bulk Modulus (GPa) = 24.72494 61.98505 43.35499
# Shear Modulus (GPa) = 21.80895 36.01360 28.91128
#
# Velocity S-wave (km/s) = 3.11724 4.00577 3.58911
# Velocity P-wave (km/s) = 4.89619 7.00093 6.04093
#
# Compressibility (1/GPa) = 0.04044499
#
# Stress axis : x y z
#
# Youngs Moduli (GPa) = 85.65402 70.96557 31.30370
#
# Poissons Ratio (x) = 0.52970 0.23679
# Poissons Ratio (y) = 0.63933 -0.20020
# Poissons Ratio (z) = 0.64792 -0.45385
#
# Static dielectric constant tensor:
#      x y z
#    x 1.855560 -0.007880 0.058110 
#    y -0.007880 1.822620 0.007980 
#    z 0.058110 0.007980 2.108250 
# 
# From -- ./inp_files/205860.got.cif
#   From: 2010.05.17/outbox.cif.g08.bks.cpg/sg2_103_cif.got.tgz:205860.got - 2010.06.03 11:33:40.
