data_PCOD9036221
_publ_section_title
;
Structure prediction by ZEFSAII (Michael W. Deem and Ramdas Pophale) SiO2 
 PCOD9036221
Probable space group: P -1
;
_chemical_formula_sum "Si O2"
_cell_formula_units_Z 16
_cell_length_a 7.823379
_cell_length_b 13.450555
_cell_length_c 7.629602
_cell_angle_alpha 83.788273
_cell_angle_beta 119.547315
_cell_angle_gamma 94.272576
_cell_volume 694.133480
_symmetry_space_group_name_H-M "P -1"
_symmetry_group_IT_number 2
_symmetry_cell_setting 'triclinic'
loop_
_space_group_symop_operation_xyz
x,y,z
-x,-y,-z
loop_
_atom_site_type_symbol
_atom_site_label
_atom_site_fract_x
_atom_site_fract_y
_atom_site_fract_z
Si Si1 0.371436 0.069816 0.296594
Si Si2 0.090969 0.390133 0.212491
Si Si3 0.155924 0.879145 0.291417
Si Si4 0.810185 0.115616 0.289383
Si Si5 0.321170 0.526848 0.035714
Si Si6 0.755427 0.792619 0.508566
Si Si7 0.717632 0.895862 0.132203
Si Si8 0.250711 0.733485 0.073344
O O1 0.184096 0.991874 0.211650
O O2 0.411755 0.091038 0.109386
O O3 0.500000 0.000000 0.500000
O O4 0.343345 0.170574 0.370313
O O5 0.255273 0.450590 0.172598
O O6 0.185054 0.321882 0.422312
O O7 0.899012 0.453386 0.164760
O O8 0.974495 0.312306 0.040010
O O9 0.235862 0.873324 0.531091
O O10 0.262107 0.801729 0.235649
O O11 0.924964 0.853455 0.183288
O O12 0.045365 0.138537 0.405377
O O13 0.765620 0.005241 0.215413
O O14 0.732857 0.198843 0.103773
O O15 0.373565 0.633776 0.132689
O O16 0.500000 0.500000 0.000000
O O17 0.646620 0.826112 0.270297
#
# Coordination Sequence:
#
# PCOD9036221 Si02
#       8
#     2   2   2   2   2   2   2   2
#     4  12  24  35  53  90 136 175 209 275 327 379
#     4   8  18  36  63  98 130 165 228 278 328 403
#     4  11  19  34  61  87 121 170 224 260 311 394
#     4  10  17  32  61  89 115 167 229 261 302 388
#     4   9  18  37  67  97 127 175 214 282 350 401
#     4  10  19  37  57  89 125 170 219 272 314 388
#     4  11  19  34  62  85 121 175 229 258 311 397
#     4   9  18  33  61  90 123 166 217 270 324 384
#
# _framework density 23.050321
#
# number of rings (size 3 to 8) (size 9 to 14) (size 15 to 20)
#    0.750    1.250    3.750    2.625    0.000    0.500 
#    2.250    0.000    5.500   14.250    0.000    0.000 
#    0.000    0.000    0.000    0.000    0.000    0.000 
#
# Total GULP energy -89259.892064 kJ/mol
# GULP energy per Si atom -5578.743254 kJ/mol
# Density = 2.299786 g / cm^3
# Si number density = 23.050321 Si / 1000 Ang^3
#
#
#
# Elastic Constant Matrix: (Units=GPa)
#
#
# Indices 1 2 3 4 5 6 
#
# 1 137.2655 49.0377 49.7140 -2.6603 -24.8835 -15.6022
# 2 49.0377 96.1149 62.5886 -20.2041 -28.8197 -7.3394
# 3 49.7140 62.5886 171.9781 -8.5237 -11.4791 -3.9861
# 4 -2.6603 -20.2041 -8.5237 33.3529 -1.1001 -6.4131
# 5 -24.8835 -28.8197 -11.4791 -1.1001 41.0630 0.1516
# 6 -15.6022 -7.3394 -3.9861 -6.4131 0.1516 32.2061
#
#
#
# Elastic Compliance Matrix: (Units=1/GPa)
#
#
# Indices 1 2 3 4 5 6 
#
# 1 0.009922 -0.002752 -0.001555 -0.000406 0.003621 0.003889
# 2 -0.002752 0.022851 -0.005834 0.013681 0.013084 0.005815
# 3 -0.001555 -0.005834 0.008067 -0.001971 -0.002829 -0.001464
# 4 -0.000406 0.013681 -0.001971 0.040100 0.009840 0.010616
# 5 0.003621 0.013084 -0.002829 0.009840 0.035180 0.006179
# 6 0.003889 0.005815 -0.001464 0.010616 0.006179 0.036163
#
#
# Mechanical properties :
#
#
# Convention : Reuss Voigt Hill
#
# Bulk Modulus (GPa) = 48.64579 80.89323 64.76951
# Shear Modulus (GPa) = 27.86793 37.59227 32.73010
#
# Velocity S-wave (km/s) = 3.48085 4.04279 3.77230
# Velocity P-wave (km/s) = 6.10778 7.54736 6.86541
#
# Compressibility (1/GPa) = 0.02055676
#
# Stress axis : x y z
#
# Youngs Moduli (GPa) = 100.78434 43.76212 123.96205
#
# Poissons Ratio (x) = 0.12045 0.19274
# Poissons Ratio (y) = 0.27740 0.72324
# Poissons Ratio (z) = 0.15670 0.25532
#
# Static dielectric constant tensor:
#      x y z
#    x 2.072400 0.026110 0.088840 
#    y 0.026110 1.848090 -0.005390 
#    z 0.088840 -0.005390 1.889870 
# 
# From -- ./inp_files/196606.got.cif
#   From: 2010.05.17/outbox.cif.g08.bks.cpg/sg2_99_cif.got.tgz:196606.got - 2010.06.03 11:33:40.
