data_PCOD9036806
_publ_section_title
;
Structure prediction by ZEFSAII (Michael W. Deem and Ramdas Pophale) SiO2 
 PCOD9036806
Probable space group: P -1
;
_chemical_formula_sum "Si O2"
_cell_formula_units_Z 16
_cell_length_a 5.449671
_cell_length_b 7.458277
_cell_length_c 19.901989
_cell_angle_alpha 95.424827
_cell_angle_beta 105.653577
_cell_angle_gamma 71.791573
_cell_volume 739.867499
_symmetry_space_group_name_H-M "P -1"
_symmetry_group_IT_number 2
_symmetry_cell_setting 'triclinic'
loop_
_space_group_symop_operation_xyz
x,y,z
-x,-y,-z
loop_
_atom_site_type_symbol
_atom_site_label
_atom_site_fract_x
_atom_site_fract_y
_atom_site_fract_z
Si Si1 0.795099 0.486199 0.780301
Si Si2 0.636327 0.191106 0.849493
Si Si3 0.202525 0.281972 0.714048
Si Si4 0.339348 0.104373 0.572163
Si Si5 0.306533 0.876643 0.000491
Si Si6 0.255877 0.698043 0.716256
Si Si7 0.078548 0.786416 0.851003
Si Si8 0.061690 0.117094 0.430196
O O1 0.714777 0.366737 0.829337
O O2 0.572426 0.650368 0.730105
O O3 0.975892 0.602940 0.831028
O O4 0.910969 0.327126 0.726142
O O5 0.394329 0.178445 0.784151
O O6 0.580150 0.227387 0.925468
O O7 0.854375 0.986546 0.852374
O O8 0.274354 0.190675 0.644121
O O9 0.228857 0.490488 0.716763
O O10 0.174296 0.223784 0.501363
O O11 0.654514 0.036941 0.576120
O O12 0.189674 0.941411 0.559538
O O13 0.279175 0.762928 0.927483
O O14 0.500000 0.000000 0.000000
O O15 0.000000 0.000000 0.000000
O O16 0.193745 0.801950 0.786326
O O17 0.065070 0.788226 0.644897
#
# Coordination Sequence:
#
# PCOD9036806 Si02
#       8
#     2   2   2   2   2   2   2   2
#     4  10  24  41  59 102 128 172 232 260 327 403
#     4  10  23  41  67  93 129 174 216 279 328 390
#     4  10  23  39  62  93 128 168 220 265 326 390
#     4  10  23  41  65  96 126 166 217 266 324 389
#     4  10  24  41  67 101 128 167 227 267 331 398
#     4  10  23  39  62  93 128 168 220 265 326 390
#     4  10  23  41  67  93 129 174 216 279 328 390
#     4  10  23  41  65  96 126 166 217 266 324 389
#
# _framework density 21.625495999999998
#
# number of rings (size 3 to 8) (size 9 to 14) (size 15 to 20)
#    0.000    2.000    0.000    0.750   17.500    1.000 
#    0.000    6.250    0.000    0.000    0.000    0.000 
#    0.000    0.000    0.000    0.000    0.000    0.000 
#
# Total GULP energy -89069.845881 kJ/mol
# GULP energy per Si atom -5566.865368 kJ/mol
# Density = 2.157628 g / cm^3
# Si number density = 21.625496 Si / 1000 Ang^3
#
#
#
# Elastic Constant Matrix: (Units=GPa)
#
#
# Indices 1 2 3 4 5 6 
#
# 1 99.1208 28.3758 44.8155 62.1680 -39.5930 -8.2864
# 2 28.3758 50.5172 34.6179 80.9942 -42.9259 -8.5372
# 3 44.8155 34.6179 230.1637 -24.4558 15.6540 -21.1869
# 4 62.1680 80.9942 -24.4558 1270.1870 -693.8794 -103.6868
# 5 -39.5930 -42.9259 15.6540 -693.8794 410.3099 57.5083
# 6 -8.2864 -8.5372 -21.1869 -103.6868 57.5083 37.3696
#
#
#
# Elastic Compliance Matrix: (Units=1/GPa)
#
#
# Indices 1 2 3 4 5 6 
#
# 1 0.012813 -0.005592 -0.001757 0.001127 0.002686 -0.000439
# 2 -0.005592 0.027746 -0.003375 -0.002710 -0.001892 -0.001423
# 3 -0.001757 -0.003375 0.005662 0.000363 -0.000705 0.004142
# 4 0.001127 -0.002710 0.000363 0.010787 0.017698 0.002530
# 5 0.002686 -0.001892 -0.000705 0.017698 0.032647 -0.001371
# 6 -0.000439 -0.001423 0.004142 0.002530 -0.001371 0.037815
#
#
# Mechanical properties :
#
#
# Convention : Reuss Voigt Hill
#
# Bulk Modulus (GPa) = 40.36482 66.15780 53.26131
# Shear Modulus (GPa) = 31.81148 361.70613 196.75881
#
# Velocity S-wave (km/s) = 3.83955 12.94690 9.54894
# Velocity P-wave (km/s) = 6.19371 15.94225 12.09374
#
# Compressibility (1/GPa) = 0.02477405
#
# Stress axis : x y z
#
# Youngs Moduli (GPa) = 78.04370 36.04117 176.60745
#
# Poissons Ratio (x) = 0.20155 0.31032
# Poissons Ratio (y) = 0.43643 0.59598
# Poissons Ratio (z) = 0.13713 0.12162
#
# Static dielectric constant tensor:
#      x y z
#    x 1.990050 -0.051330 0.003330 
#    y -0.051330 1.801440 -0.006780 
#    z 0.003330 -0.006780 1.843490 
# 
# From -- ./inp_files/50985.got.cif
#   From: 2010.05.17/outbox.cif.g08.bks.cpg/sg2_26_cif.got.tgz:50985.got - 2010.06.03 11:33:40.
