data_PCOD9036610
_publ_section_title
;
Structure prediction by ZEFSAII (Michael W. Deem and Ramdas Pophale) SiO2 
 PCOD9036610
Probable space group: P -1
;
_chemical_formula_sum "Si O2"
_cell_formula_units_Z 16
_cell_length_a 13.877248
_cell_length_b 11.945171
_cell_length_c 19.628396
_cell_angle_alpha 152.374657
_cell_angle_beta 34.632031
_cell_angle_gamma 127.602872
_cell_volume 765.279434
_symmetry_space_group_name_H-M "P -1"
_symmetry_group_IT_number 2
_symmetry_cell_setting 'triclinic'
loop_
_space_group_symop_operation_xyz
x,y,z
-x,-y,-z
loop_
_atom_site_type_symbol
_atom_site_label
_atom_site_fract_x
_atom_site_fract_y
_atom_site_fract_z
Si Si1 0.793683 0.386640 0.262137
Si Si2 0.904520 0.562918 0.982601
Si Si3 0.993951 0.219681 0.340940
Si Si4 0.193101 0.064546 0.627407
Si Si5 0.757185 0.297734 0.385316
Si Si6 0.568655 0.099800 0.079711
Si Si7 0.439955 0.953402 0.796931
Si Si8 0.391283 0.153438 0.793156
O O1 0.853175 0.321093 0.271210
O O2 0.634059 0.698294 0.522445
O O3 0.700198 0.188331 0.193442
O O4 0.950521 0.362565 0.104264
O O5 0.028743 0.271721 0.785797
O O6 0.814897 0.767982 0.208560
O O7 0.744321 0.594980 0.038598
O O8 0.000000 0.500000 0.500000
O O9 0.901908 0.236261 0.329561
O O10 0.858381 0.170313 0.445901
O O11 0.207962 0.983739 0.099700
O O12 0.395396 0.956675 0.416292
O O13 0.570360 0.582290 0.659097
O O14 0.681318 0.074252 0.301624
O O15 0.544552 0.964193 0.090818
O O16 0.500000 0.000000 0.000000
O O17 0.380295 0.178090 0.894569
#
# Coordination Sequence:
#
# PCOD9036610 Si02
#       8
#     2   2   2   2   2   2   2   2
#     4   9  18  36  58  94 127 158 197 258 321 366
#     4  11  22  35  61  94 129 166 193 253 326 371
#     4  12  25  43  64  90 118 170 219 256 295 376
#     4  11  25  39  58  94 135 160 204 255 319 378
#     4  10  23  38  63  94 130 158 207 259 313 368
#     4  11  23  40  62  91 123 165 210 261 302 352
#     4   9  19  34  61  90 129 160 202 257 309 370
#     4  11  22  38  62  98 130 164 195 259 323 379
#
# _framework density 20.907397
#
# number of rings (size 3 to 8) (size 9 to 14) (size 15 to 20)
#    0.000    1.500    3.750    1.875    5.250    1.000 
#    0.000    0.000    0.000    3.750    0.000    0.000 
#    0.000    0.000    0.000    0.000    0.000    0.000 
#
# Total GULP energy -89436.029234 kJ/mol
# GULP energy per Si atom -5589.751827 kJ/mol
# Density = 2.085981 g / cm^3
# Si number density = 20.907397 Si / 1000 Ang^3
#
#
#
# Elastic Constant Matrix: (Units=GPa)
#
#
# Indices 1 2 3 4 5 6 
#
# 1 145.1026 45.4028 24.9337 -3.4503 -13.4278 -36.3279
# 2 45.4028 68.7256 -3.1300 -4.4517 -0.8233 -26.5512
# 3 24.9337 -3.1300 45.3622 -7.4923 -13.9223 -12.4813
# 4 -3.4503 -4.4517 -7.4923 28.4967 -5.8274 0.6018
# 5 -13.4278 -0.8233 -13.9223 -5.8274 31.1754 2.3252
# 6 -36.3279 -26.5512 -12.4813 0.6018 2.3252 31.0699
#
#
#
# Elastic Compliance Matrix: (Units=1/GPa)
#
#
# Indices 1 2 3 4 5 6 
#
# 1 0.011002 -0.004563 -0.003576 0.000031 0.002480 0.007342
# 2 -0.004563 0.027741 0.013501 0.007761 0.004509 0.023307
# 3 -0.003576 0.013501 0.038534 0.014880 0.017221 0.021259
# 4 0.000031 0.007761 0.014880 0.042871 0.014074 0.010762
# 5 0.002480 0.004509 0.017221 0.014074 0.042825 0.010193
# 6 0.007342 0.023307 0.021259 0.010762 0.010193 0.068256
#
#
# Mechanical properties :
#
#
# Convention : Reuss Voigt Hill
#
# Bulk Modulus (GPa) = 11.36360 43.73371 27.54865
# Shear Modulus (GPa) = 20.01280 30.94732 25.48006
#
# Velocity S-wave (km/s) = 3.09724 3.85152 3.49479
# Velocity P-wave (km/s) = 4.27054 6.38296 5.43046
#
# Compressibility (1/GPa) = 0.08800030
#
# Stress axis : x y z
#
# Youngs Moduli (GPa) = 90.88956 36.04761 25.95089
#
# Poissons Ratio (x) = 0.16450 0.09280
# Poissons Ratio (y) = 0.41476 -0.35036
# Poissons Ratio (z) = 0.32504 -0.48667
#
# Static dielectric constant tensor:
#      x y z
#    x 1.787150 -0.035570 -0.021220 
#    y -0.035570 1.728410 0.015580 
#    z -0.021220 0.015580 1.783770 
# 
# From -- ./inp_files/457715.got.cif
#   From: 2010.05.17/outbox.cif.g08.bks.cpg/sg2_229_cif.got.tgz:457715.got - 2010.06.03 11:33:40.
