data_PCOD9036826
_publ_section_title
;
Structure prediction by ZEFSAII (Michael W. Deem and Ramdas Pophale) SiO2 
 PCOD9036826
Probable space group: P -1
;
_chemical_formula_sum "Si O2"
_cell_formula_units_Z 16
_cell_length_a 9.440444
_cell_length_b 16.708384
_cell_length_c 9.727146
_cell_angle_alpha 150.104476
_cell_angle_beta 95.841141
_cell_angle_gamma 79.198730
_cell_volume 745.385851
_symmetry_space_group_name_H-M "P -1"
_symmetry_group_IT_number 2
_symmetry_cell_setting 'triclinic'
loop_
_space_group_symop_operation_xyz
x,y,z
-x,-y,-z
loop_
_atom_site_type_symbol
_atom_site_label
_atom_site_fract_x
_atom_site_fract_y
_atom_site_fract_z
Si Si1 0.939400 0.381775 0.921310
Si Si2 0.917439 0.020793 0.383768
Si Si3 0.414329 0.901695 0.448321
Si Si4 0.078423 0.506654 0.373719
Si Si5 0.599782 0.958356 0.076998
Si Si6 0.940618 0.871547 0.896515
Si Si7 0.383586 0.405673 0.405362
Si Si8 0.393198 0.537399 0.910150
O O1 0.934962 0.199157 0.595987
O O2 0.770230 0.451255 0.036055
O O3 0.000000 0.500000 0.000000
O O4 0.034522 0.383975 0.073407
O O5 0.753294 0.015951 0.407455
O O6 0.000000 0.000000 0.500000
O O7 0.989892 0.888025 0.083112
O O8 0.414629 0.716980 0.128114
O O9 0.500000 0.000000 0.500000
O O10 0.467001 0.901070 0.610102
O O11 0.243185 0.471043 0.391348
O O12 0.000000 0.500000 0.500000
O O13 0.007936 0.688755 0.582123
O O14 0.766351 0.927813 0.989437
O O15 0.585302 0.789372 0.896162
O O16 0.500000 0.000000 0.000000
O O17 0.000000 0.000000 0.000000
O O18 0.500000 0.500000 0.500000
O O19 0.390430 0.433605 0.614090
O O20 0.500000 0.500000 0.000000
#
# Coordination Sequence:
#
# PCOD9036826 Si02
#       8
#     2   2   2   2   2   2   2   2
#     4  11  24  41  66  96 129 171 212 264 324 383
#     4  10  23  39  63  92 125 160 208 262 311 371
#     4  10  23  41  63  90 125 164 210 255 313 375
#     4  12  23  45  69  93 134 170 222 274 320 387
#     4  11  24  43  64  95 133 169 212 265 321 387
#     4  11  24  41  66  96 129 171 212 264 324 383
#     4  12  27  43  69  99 128 174 220 271 330 383
#     4  11  24  43  64  95 133 169 212 265 321 387
#
# _framework density 21.465392000000001
#
# number of rings (size 3 to 8) (size 9 to 14) (size 15 to 20)
#    0.000    1.000    2.500    3.000    7.000    2.000 
#    0.000    0.000    0.000    0.000    0.000    0.000 
#    0.000    0.000    0.000    0.000    0.000    0.000 
#
# Total GULP energy -89145.978648 kJ/mol
# GULP energy per Si atom -5571.623665 kJ/mol
# Density = 2.141654 g / cm^3
# Si number density = 21.465392 Si / 1000 Ang^3
#
#
#
# Elastic Constant Matrix: (Units=GPa)
#
#
# Indices 1 2 3 4 5 6 
#
# 1 105.4279 44.3182 5.2637 1.6873 25.7824 10.6638
# 2 44.3182 91.0150 -2.2815 0.3324 9.6063 19.5291
# 3 5.2637 -2.2815 90.8531 -5.7336 10.2802 -1.2787
# 4 1.6873 0.3324 -5.7336 48.4009 -6.8598 19.1723
# 5 25.7824 9.6063 10.2802 -6.8598 23.8801 2.8350
# 6 10.6638 19.5291 -1.2787 19.1723 2.8350 39.1398
#
#
#
# Elastic Compliance Matrix: (Units=1/GPa)
#
#
# Indices 1 2 3 4 5 6 
#
# 1 0.015968 -0.006418 0.000541 -0.003399 -0.016070 0.001698
# 2 -0.006418 0.015573 0.000611 0.003694 0.002411 -0.007986
# 3 0.000541 0.000611 0.011671 0.000513 -0.005718 0.000092
# 4 -0.003399 0.003694 0.000513 0.028834 0.012133 -0.015903
# 5 -0.016070 0.002411 -0.005718 0.012133 0.065114 -0.007671
# 6 0.001698 -0.007986 0.000092 -0.015903 -0.007671 0.037420
#
#
# Mechanical properties :
#
#
# Convention : Reuss Voigt Hill
#
# Bulk Modulus (GPa) = 30.59788 42.43297 36.51543
# Shear Modulus (GPa) = 25.50943 38.28387 31.89665
#
# Velocity S-wave (km/s) = 3.45105 4.22775 3.85899
# Velocity P-wave (km/s) = 5.49228 6.60627 6.07487
#
# Compressibility (1/GPa) = 0.03268200
#
# Stress axis : x y z
#
# Youngs Moduli (GPa) = 62.62349 64.21307 85.67920
#
# Poissons Ratio (x) = 0.41211 -0.04639
# Poissons Ratio (y) = 0.40190 -0.05234
# Poissons Ratio (z) = -0.03391 -0.03923
#
# Static dielectric constant tensor:
#      x y z
#    x 4.473920 -2.023600 -1.238020 
#    y -2.023600 3.312860 0.896290 
#    z -1.238020 0.896290 2.437690 
# 
# From -- ./inp_files/219035.got.cif
#   From: 2010.05.17/outbox.cif.g08.bks.cpg/sg2_110_cif.got.tgz:219035.got - 2010.06.03 11:33:40.
