data_PCOD9036966
_publ_section_title
;
Structure prediction by ZEFSAII (Michael W. Deem and Ramdas Pophale) SiO2 
 PCOD9036966
Probable space group: P -1
;
_chemical_formula_sum "Si O2"
_cell_formula_units_Z 14
_cell_length_a 23.366623
_cell_length_b 17.329170
_cell_length_c 8.808895
_cell_angle_alpha 144.627735
_cell_angle_beta 148.495553
_cell_angle_gamma 19.781679
_cell_volume 629.092590
_symmetry_space_group_name_H-M "P -1"
_symmetry_group_IT_number 2
_symmetry_cell_setting 'triclinic'
loop_
_space_group_symop_operation_xyz
x,y,z
-x,-y,-z
loop_
_atom_site_type_symbol
_atom_site_label
_atom_site_fract_x
_atom_site_fract_y
_atom_site_fract_z
Si Si1 0.944917 0.458741 0.168056
Si Si2 0.157651 0.736970 0.989692
Si Si3 0.473715 0.038317 0.264114
Si Si4 0.993079 0.901474 0.188973
Si Si5 0.802139 0.608457 0.539433
Si Si6 0.617565 0.343039 0.867668
Si Si7 0.507966 0.814280 0.733792
O O1 0.035410 0.444544 0.207148
O O2 0.000000 0.500000 0.500000
O O3 0.022200 0.233080 0.999515
O O4 0.722915 0.650859 0.967172
O O5 0.122969 0.614689 0.680285
O O6 0.336753 0.597193 0.066105
O O7 0.161614 0.745265 0.195009
O O8 0.000000 0.000000 0.000000
O O9 0.306462 0.267747 0.349642
O O10 0.558121 0.066653 0.388165
O O11 0.635623 0.814019 0.374260
O O12 0.404302 0.989641 0.918005
O O13 0.000000 0.000000 0.500000
O O14 0.812883 0.106543 0.006492
O O15 0.517609 0.315586 0.524440
O O16 0.500000 0.500000 0.000000
#
# Coordination Sequence:
#
# PCOD9036966 Si02
#       7
#     2   2   2   2   2   2   2
#     4  12  23  42  72  97 135 177 223 282 333 407
#     4  10  23  42  69  95 138 181 230 275 340 401
#     4  10  23  39  66  99 135 165 222 285 340 396
#     4  11  24  44  70 101 134 181 229 274 345 407
#     4  11  22  43  68 101 133 177 229 282 334 404
#     4  11  24  43  68  97 139 177 225 280 335 411
#     4  11  23  41  65 100 135 175 222 273 352 394
#
# _framework density 22.254275
#
# number of rings (size 3 to 8) (size 9 to 14) (size 15 to 20)
#    0.000    1.143    2.857    2.571    2.000    4.000 
#    0.000    6.429    0.000    0.000    0.000    0.000 
#    0.000    0.000    0.000    0.000    0.000    0.000 
#
# Total GULP energy -78204.321831 kJ/mol
# GULP energy per Si atom -5586.022988 kJ/mol
# Density = 2.220362 g / cm^3
# Si number density = 22.254275 Si / 1000 Ang^3
#
#
#
# Elastic Constant Matrix: (Units=GPa)
#
#
# Indices 1 2 3 4 5 6 
#
# 1 137.4859 27.0961 69.7921 16.7218 5.0734 -14.7482
# 2 27.0961 82.2186 37.5037 10.0381 -2.0842 2.0119
# 3 69.7921 37.5037 139.7851 19.5407 8.0542 -2.8800
# 4 16.7218 10.0381 19.5407 38.6381 -1.8969 -3.1934
# 5 5.0734 -2.0842 8.0542 -1.8969 41.9475 11.3763
# 6 -14.7482 2.0119 -2.8800 -3.1934 11.3763 36.0698
#
#
#
# Elastic Compliance Matrix: (Units=1/GPa)
#
#
# Indices 1 2 3 4 5 6 
#
# 1 0.010565 -0.001391 -0.004475 -0.001667 -0.001770 0.004451
# 2 -0.001391 0.014344 -0.003090 -0.001660 0.002053 -0.002410
# 3 -0.004475 -0.003090 0.010691 -0.002792 -0.001647 -0.000531
# 4 -0.001667 -0.001660 -0.002792 0.028626 0.001621 0.001211
# 5 -0.001770 0.002053 -0.001647 0.001621 0.027086 -0.009369
# 6 0.004451 -0.002410 -0.000531 0.001211 -0.009369 0.032698
#
#
# Mechanical properties :
#
#
# Convention : Reuss Voigt Hill
#
# Bulk Modulus (GPa) = 56.53202 69.80817 63.17010
# Shear Modulus (GPa) = 33.82547 38.33760 36.08153
#
# Velocity S-wave (km/s) = 3.90289 4.15505 4.03094
# Velocity P-wave (km/s) = 6.76520 7.37942 7.07898
#
# Compressibility (1/GPa) = 0.01768909
#
# Stress axis : x y z
#
# Youngs Moduli (GPa) = 94.65543 69.71447 93.53301
#
# Poissons Ratio (x) = 0.09696 0.41855
# Poissons Ratio (y) = 0.13164 0.28901
# Poissons Ratio (z) = 0.42357 0.21541
#
# Static dielectric constant tensor:
#      x y z
#    x 1.876700 -0.015920 -0.031410 
#    y -0.015920 1.895810 -0.010080 
#    z -0.031410 -0.010080 1.782350 
# 
# From -- ./inp_files/242534.got.cif
#   From: 2010.05.17/outbox.cif.g08.bks.cpg/sg2_122_cif.got.tgz:242534.got - 2010.06.03 11:33:40.
