data_PCOD9036310
_publ_section_title
;
Structure prediction by ZEFSAII (Michael W. Deem and Ramdas Pophale) SiO2 
 PCOD9036310
Probable space group: P -1
;
_chemical_formula_sum "Si O2"
_cell_formula_units_Z 15
_cell_length_a 20.123539
_cell_length_b 5.601996
_cell_length_c 4.982049
_cell_angle_alpha 90.861445
_cell_angle_beta 78.220060
_cell_angle_gamma 105.972124
_cell_volume 528.077361
_symmetry_space_group_name_H-M "P -1"
_symmetry_group_IT_number 2
_symmetry_cell_setting 'triclinic'
loop_
_space_group_symop_operation_xyz
x,y,z
-x,-y,-z
loop_
_atom_site_type_symbol
_atom_site_label
_atom_site_fract_x
_atom_site_fract_y
_atom_site_fract_z
Si Si1 0.386932 0.342898 0.124118
Si Si2 0.316945 0.663444 0.820014
Si Si3 0.172932 0.494162 0.153050
Si Si4 0.064419 0.740483 0.407970
Si Si5 0.888023 0.947198 0.146961
Si Si6 0.747513 0.785679 0.535138
Si Si7 0.500000 0.500000 0.500000
Si Si8 0.462028 0.032779 0.740845
O O1 0.316277 0.129849 0.272149
O O2 0.432260 0.429791 0.348389
O O3 0.353226 0.541561 0.021437
O O4 0.442711 0.306325 0.849913
O O5 0.293902 0.459303 0.601987
O O6 0.378846 0.908711 0.725339
O O7 0.241743 0.684752 0.978230
O O8 0.132343 0.633663 0.379604
O O9 0.204533 0.298377 0.282920
O O10 0.121751 0.328730 0.967530
O O11 0.067476 0.958958 0.621155
O O12 0.000000 0.500000 0.500000
O O13 0.075446 0.858468 0.106610
O O14 0.807223 0.942935 0.289268
O O15 0.489947 0.800779 0.552567
O O16 0.500000 0.000000 0.000000
#
# Coordination Sequence:
#
# PCOD9036310 Si02
#       8
#     2   2   2   2   2   2   1   2
#     4  11  25  46  68 101 140 188 244 314 376 459
#     4  10  25  45  71 102 139 186 254 312 383 447
#     4  10  25  47  75 110 151 199 262 320 382 458
#     4  12  28  47  77 119 161 209 258 306 385 464
#     4  11  25  48  75 112 159 206 254 324 375 450
#     4  10  22  49  72 105 142 193 254 319 384 440
#     4  12  28  44  66  96 144 186 242 302 384 454
#     4  12  26  44  68 102 137 186 237 308 377 458
#
# _framework density 28.404924999999999
#
# number of rings (size 3 to 8) (size 9 to 14) (size 15 to 20)
#    0.000    1.067    1.333    3.200    5.600    6.400 
#    0.000    0.000    0.000    0.000    0.000    0.000 
#    0.000    0.000    0.000    0.000    0.000    0.000 
#
# Total GULP energy -83942.017733 kJ/mol
# GULP energy per Si atom -5596.134516 kJ/mol
# Density = 2.834027 g / cm^3
# Si number density = 28.404925 Si / 1000 Ang^3
#
#
#
# Elastic Constant Matrix: (Units=GPa)
#
#
# Indices 1 2 3 4 5 6 
#
# 1 105.8816 35.8704 43.9253 9.3101 -31.6184 20.4898
# 2 35.8704 136.7685 40.3088 17.8267 -7.0051 23.3263
# 3 43.9253 40.3088 193.9699 16.4455 0.3899 13.9237
# 4 9.3101 17.8267 16.4455 51.7157 12.9170 9.0500
# 5 -31.6184 -7.0051 0.3899 12.9170 57.6281 -13.6682
# 6 20.4898 23.3263 13.9237 9.0500 -13.6682 67.7524
#
#
#
# Elastic Compliance Matrix: (Units=1/GPa)
#
#
# Indices 1 2 3 4 5 6 
#
# 1 0.013904 -0.001981 -0.002438 -0.002798 0.007775 -0.001079
# 2 -0.001981 0.008728 -0.001059 -0.001968 -0.000036 -0.001932
# 3 -0.002438 -0.001059 0.006013 -0.000693 -0.001430 -0.000330
# 4 -0.002798 -0.001968 -0.000693 0.023176 -0.007671 -0.002977
# 5 0.007775 -0.000036 -0.001430 -0.007671 0.024262 0.003874
# 6 -0.001079 -0.001932 -0.000330 -0.002977 0.003874 0.016998
#
#
# Mechanical properties :
#
#
# Convention : Reuss Voigt Hill
#
# Bulk Modulus (GPa) = 56.53611 75.20321 65.86966
# Shear Modulus (GPa) = 45.48221 56.52026 51.00124
#
# Velocity S-wave (km/s) = 4.00585 4.46556 4.24194
# Velocity P-wave (km/s) = 6.42982 7.28843 6.87255
#
# Compressibility (1/GPa) = 0.01768781
#
# Stress axis : x y z
#
# Youngs Moduli (GPa) = 71.92297 114.57835 166.30737
#
# Poissons Ratio (x) = 0.22698 0.40542
# Poissons Ratio (y) = 0.14248 0.17620
# Poissons Ratio (z) = 0.17533 0.12139
#
# Static dielectric constant tensor:
#      x y z
#    x 2.115110 -0.184630 0.012690 
#    y -0.184630 1.723410 0.436270 
#    z 0.012690 0.436270 1.838420 
# 
# From -- ./inp_files/114255.got.cif
#   From: 2010.05.17/outbox.cif.g08.bks.cpg/sg2_58_cif.got.tgz:114255.got - 2010.06.03 11:33:40.
