data_PCOD9036307
_publ_section_title
;
Structure prediction by ZEFSAII (Michael W. Deem and Ramdas Pophale) SiO2 
 PCOD9036307
Probable space group: P -1
;
_chemical_formula_sum "Si O2"
_cell_formula_units_Z 14
_cell_length_a 11.719016
_cell_length_b 5.308122
_cell_length_c 10.596150
_cell_angle_alpha 83.176065
_cell_angle_beta 74.609338
_cell_angle_gamma 61.129493
_cell_volume 556.487027
_symmetry_space_group_name_H-M "P -1"
_symmetry_group_IT_number 2
_symmetry_cell_setting 'triclinic'
loop_
_space_group_symop_operation_xyz
x,y,z
-x,-y,-z
loop_
_atom_site_type_symbol
_atom_site_label
_atom_site_fract_x
_atom_site_fract_y
_atom_site_fract_z
Si Si1 0.448826 0.888262 0.905275
Si Si2 0.187828 0.030982 0.371806
Si Si3 0.296274 0.644339 0.127495
Si Si4 0.410184 0.841912 0.519633
Si Si5 0.010019 0.830778 0.135938
Si Si6 0.753403 0.795134 0.247454
Si Si7 0.913843 0.261342 0.380320
O O1 0.586144 0.635863 0.825182
O O2 0.354588 0.152749 0.830120
O O3 0.360282 0.738946 0.988135
O O4 0.500000 0.000000 0.000000
O O5 0.246367 0.897846 0.228319
O O6 0.307825 0.002558 0.425370
O O7 0.136675 0.835471 0.476269
O O8 0.042959 0.307918 0.374242
O O9 0.167223 0.614080 0.123895
O O10 0.500000 0.500000 0.500000
O O11 0.500000 0.000000 0.500000
O O12 0.317440 0.913512 0.667386
O O13 0.899324 0.724973 0.158009
O O14 0.964051 0.030991 0.263958
O O15 0.000000 0.000000 0.000000
O O16 0.788335 0.541193 0.349092
#
# Coordination Sequence:
#
# PCOD9036307 Si02
#       7
#     2   2   2   2   2   2   2
#     4  11  26  44  69 102 143 193 241 303 375 454
#     4  10  22  49  71 103 148 192 246 307 388 442
#     4  10  24  46  69 100 142 193 238 303 376 451
#     4  12  27  47  76 111 154 202 247 313 380 462
#     4  11  23  45  72 101 143 189 244 311 371 444
#     4  12  26  45  75 109 141 193 256 309 369 457
#     4  10  24  45  74 105 145 188 249 318 374 449
#
# _framework density 25.157817999999999
#
# number of rings (size 3 to 8) (size 9 to 14) (size 15 to 20)
#    0.000    1.143    2.857    1.714    4.000    3.429 
#    5.143    0.000    0.000    0.000    0.000    0.000 
#    0.000    0.000    0.000    0.000    0.000    0.000 
#
# Total GULP energy -78348.519003 kJ/mol
# GULP energy per Si atom -5596.322786 kJ/mol
# Density = 2.510056 g / cm^3
# Si number density = 25.157818 Si / 1000 Ang^3
#
#
#
# Elastic Constant Matrix: (Units=GPa)
#
#
# Indices 1 2 3 4 5 6 
#
# 1 172.2250 55.7131 7.5113 -2.1086 0.6319 -53.6272
# 2 55.7131 106.0272 15.4113 -2.1799 0.8365 -34.8539
# 3 7.5113 15.4113 69.9722 -0.5297 -6.6815 -18.2736
# 4 -2.1086 -2.1799 -0.5297 37.5471 -7.0105 5.6548
# 5 0.6319 0.8365 -6.6815 -7.0105 45.5076 -7.9643
# 6 -53.6272 -34.8539 -18.2736 5.6548 -7.9643 49.9578
#
#
#
# Elastic Compliance Matrix: (Units=1/GPa)
#
#
# Indices 1 2 3 4 5 6 
#
# 1 0.009433 -0.002062 0.002188 -0.000700 0.001846 0.009861
# 2 -0.002062 0.012777 -0.000807 -0.000226 0.000788 0.006556
# 3 0.002188 -0.000807 0.016855 -0.000249 0.003927 0.008605
# 4 -0.000700 -0.000226 -0.000249 0.027793 0.003635 -0.003566
# 5 0.001846 0.000788 0.003927 0.003635 0.024373 0.007442
# 6 0.009861 0.006556 0.008605 -0.003566 0.007442 0.039914
#
#
# Mechanical properties :
#
#
# Convention : Reuss Voigt Hill
#
# Bulk Modulus (GPa) = 26.52371 56.16617 41.34494
# Shear Modulus (GPa) = 34.46504 44.57507 39.52006
#
# Velocity S-wave (km/s) = 3.70530 4.21386 3.96774
# Velocity P-wave (km/s) = 5.37322 6.78598 6.12050
#
# Compressibility (1/GPa) = 0.03770212
#
# Stress axis : x y z
#
# Youngs Moduli (GPa) = 106.00803 78.26695 59.33130
#
# Poissons Ratio (x) = 0.16140 -0.12981
# Poissons Ratio (y) = 0.21860 0.04788
# Poissons Ratio (z) = -0.23193 0.06316
#
# Static dielectric constant tensor:
#      x y z
#    x 2.051630 0.000630 0.013730 
#    y 0.000630 2.068590 -0.001270 
#    z 0.013730 -0.001270 2.001950 
# 
# From -- ./inp_files/28274.got.cif
#   From: 2010.05.17/outbox.cif.g08.bks.cpg/sg2_15_cif.got.tgz:28274.got - 2010.06.03 11:33:40.
