data_PCOD9036865
_publ_section_title
;
Structure prediction by ZEFSAII (Michael W. Deem and Ramdas Pophale) SiO2 
 PCOD9036865
Probable space group: P -1
;
_chemical_formula_sum "Si O2"
_cell_formula_units_Z 14
_cell_length_a 9.024937
_cell_length_b 5.453914
_cell_length_c 14.268124
_cell_angle_alpha 91.224409
_cell_angle_beta 118.650444
_cell_angle_gamma 72.004631
_cell_volume 579.358344
_symmetry_space_group_name_H-M "P -1"
_symmetry_group_IT_number 2
_symmetry_cell_setting 'triclinic'
loop_
_space_group_symop_operation_xyz
x,y,z
-x,-y,-z
loop_
_atom_site_type_symbol
_atom_site_label
_atom_site_fract_x
_atom_site_fract_y
_atom_site_fract_z
Si Si1 0.285673 0.318304 0.645577
Si Si2 0.737923 0.145458 0.076739
Si Si3 0.647644 0.696996 0.948073
Si Si4 0.554882 0.847976 0.611060
Si Si5 0.125985 0.994871 0.273361
Si Si6 0.062934 0.764464 0.441320
Si Si7 0.605521 0.451794 0.755936
O O1 0.189597 0.513898 0.533442
O O2 0.427358 0.415631 0.744950
O O3 0.117476 0.286233 0.647421
O O4 0.416718 0.047387 0.641956
O O5 0.562144 0.181109 0.086670
O O6 0.711053 0.410236 0.012465
O O7 0.917280 0.099726 0.189568
O O8 0.746605 0.894248 0.013806
O O9 0.663358 0.641788 0.842000
O O10 0.541523 0.574722 0.634866
O O11 0.500000 0.000000 0.500000
O O12 0.766018 0.805423 0.685033
O O13 0.150292 0.849852 0.379655
O O14 0.230733 0.805132 0.219898
O O15 0.000000 0.000000 0.500000
#
# Coordination Sequence:
#
# PCOD9036865 Si02
#       7
#     2   2   2   2   2   2   2
#     4  10  23  39  64  96 133 182 233 279 347 415
#     4  10  25  47  73 107 135 186 233 310 349 433
#     4  10  25  48  74 101 145 178 242 294 372 414
#     4  11  23  43  64  97 145 184 226 284 350 422
#     4  11  26  41  68 103 138 181 239 284 361 416
#     4  11  23  41  64 102 135 184 230 296 338 424
#     4  11  25  43  69  99 136 193 221 295 352 430
#
# _framework density 24.164663999999998
#
# number of rings (size 3 to 8) (size 9 to 14) (size 15 to 20)
#    0.000    1.429    0.000    3.429   10.000    6.857 
#    0.000    0.000    0.000    0.000    0.000    0.000 
#    0.000    0.000    0.000    0.000    0.000    0.000 
#
# Total GULP energy -78280.789057 kJ/mol
# GULP energy per Si atom -5591.484933 kJ/mol
# Density = 2.410966 g / cm^3
# Si number density = 24.164664 Si / 1000 Ang^3
#
#
#
# Elastic Constant Matrix: (Units=GPa)
#
#
# Indices 1 2 3 4 5 6 
#
# 1 101.0749 11.2862 15.4379 -2.9379 13.2791 17.4649
# 2 11.2862 60.4372 3.6054 -0.6571 8.4643 -1.0385
# 3 15.4379 3.6054 50.5744 -5.7305 9.8959 -7.4118
# 4 -2.9379 -0.6571 -5.7305 36.0342 -5.5045 1.2531
# 5 13.2791 8.4643 9.8959 -5.5045 38.2389 4.8922
# 6 17.4649 -1.0385 -7.4118 1.2531 4.8922 20.6493
#
#
#
# Elastic Compliance Matrix: (Units=1/GPa)
#
#
# Indices 1 2 3 4 5 6 
#
# 1 0.013451 -0.002268 -0.005662 0.000477 -0.000930 -0.013332
# 2 -0.002268 0.017531 0.000732 -0.000478 -0.003864 0.004007
# 3 -0.005662 0.000732 0.025160 0.002051 -0.006361 0.015239
# 4 0.000477 -0.000478 0.002051 0.028778 0.003853 -0.002350
# 5 -0.000930 -0.003864 -0.006361 0.003853 0.030707 -0.009200
# 6 -0.013332 0.004007 0.015239 -0.002350 -0.009200 0.067697
#
#
# Mechanical properties :
#
#
# Convention : Reuss Voigt Hill
#
# Bulk Modulus (GPa) = 23.95536 30.30504 27.13020
# Shear Modulus (GPa) = 23.62540 31.10161 27.36350
#
# Velocity S-wave (km/s) = 3.13019 3.59147 3.36873
# Velocity P-wave (km/s) = 4.79573 5.45587 5.13641
#
# Compressibility (1/GPa) = 0.04174432
#
# Stress axis : x y z
#
# Youngs Moduli (GPa) = 74.34177 57.04262 39.74635
#
# Poissons Ratio (x) = 0.12937 0.22506
# Poissons Ratio (y) = 0.16860 -0.02908
# Poissons Ratio (z) = 0.42095 -0.04173
#
# Static dielectric constant tensor:
#      x y z
#    x 1.898740 0.039180 -0.025260 
#    y 0.039180 1.964080 0.022660 
#    z -0.025260 0.022660 1.984970 
# 
# From -- ./inp_files/27855.got.cif
#   From: 2010.05.17/outbox.cif.g08.bks.cpg/sg2_14_cif.got.tgz:27855.got - 2010.06.03 11:33:40.
