data_PCOD9036048
_publ_section_title
;
Structure prediction by ZEFSAII (Michael W. Deem and Ramdas Pophale) SiO2 
 PCOD9036048
Probable space group: P -1
;
_chemical_formula_sum "Si O2"
_cell_formula_units_Z 16
_cell_length_a 8.826362
_cell_length_b 32.538792
_cell_length_c 9.897210
_cell_angle_alpha 149.218228
_cell_angle_beta 31.158389
_cell_angle_gamma 151.380040
_cell_volume 634.142778
_symmetry_space_group_name_H-M "P -1"
_symmetry_group_IT_number 2
_symmetry_cell_setting 'triclinic'
loop_
_space_group_symop_operation_xyz
x,y,z
-x,-y,-z
loop_
_atom_site_type_symbol
_atom_site_label
_atom_site_fract_x
_atom_site_fract_y
_atom_site_fract_z
Si Si1 0.426904 0.694534 0.370555
Si Si2 0.714359 0.830937 0.308837
Si Si3 0.618154 0.266125 0.188440
Si Si4 0.420614 0.065924 0.837479
Si Si5 0.788829 0.552612 0.317946
Si Si6 0.011699 0.187250 0.239087
Si Si7 0.615455 0.546775 0.898412
Si Si8 0.309012 0.019711 0.081918
O O1 0.687035 0.756511 0.229362
O O2 0.489502 0.748491 0.613774
O O3 0.059543 0.654558 0.463846
O O4 0.448806 0.607281 0.158240
O O5 0.846468 0.927462 0.568990
O O6 0.330522 0.807771 0.487916
O O7 0.879414 0.820324 0.017549
O O8 0.334804 0.263481 0.297889
O O9 0.975742 0.369995 0.192522
O O10 0.612293 0.168153 0.900793
O O11 0.500000 0.000000 0.500000
O O12 0.531399 0.078628 0.948552
O O13 0.000000 0.000000 0.000000
O O14 0.500000 0.500000 0.500000
O O15 0.573305 0.538655 0.307792
O O16 0.000000 0.500000 0.000000
O O17 0.931882 0.088657 0.087962
O O18 0.500000 0.500000 0.000000
O O19 0.500000 0.000000 0.000000
#
# Coordination Sequence:
#
# PCOD9036048 Si02
#       8
#     2   2   2   2   2   2   2   2
#     4  11  26  47  77 106 147 196 257 311 380 460
#     4  11  26  46  72 106 145 199 252 308 368 453
#     4  12  27  47  76 110 155 200 256 311 387 455
#     4  12  28  46  73 111 157 203 247 307 379 448
#     4  10  22  47  71 101 140 184 235 302 370 438
#     4  11  27  43  70 107 151 195 246 313 373 437
#     4  11  28  49  77 113 151 199 251 323 386 457
#     4  10  23  45  71 103 148 198 252 303 368 433
#
# _framework density 25.230912
#
# number of rings (size 3 to 8) (size 9 to 14) (size 15 to 20)
#    0.000    1.000    3.750    0.375   10.500    2.500 
#    2.250    0.000    0.000    0.000    0.000    0.000 
#    0.000    0.000    0.000    0.000    0.000    0.000 
#
# Total GULP energy -89301.666408 kJ/mol
# GULP energy per Si atom -5581.354150 kJ/mol
# Density = 2.517349 g / cm^3
# Si number density = 25.230912 Si / 1000 Ang^3
#
#
#
# Elastic Constant Matrix: (Units=GPa)
#
#
# Indices 1 2 3 4 5 6 
#
# 1 141.6604 57.8932 28.8904 -4.9125 25.5650 -0.4717
# 2 57.8932 97.3730 14.0341 -18.0651 -6.8187 -24.3065
# 3 28.8904 14.0341 97.8617 -16.9554 -0.5427 -3.5247
# 4 -4.9125 -18.0651 -16.9554 43.6282 -6.2963 1.3059
# 5 25.5650 -6.8187 -0.5427 -6.2963 32.7727 -3.9761
# 6 -0.4717 -24.3065 -3.5247 1.3059 -3.9761 64.1070
#
#
#
# Elastic Compliance Matrix: (Units=1/GPa)
#
#
# Indices 1 2 3 4 5 6 
#
# 1 0.016364 -0.013301 -0.004603 -0.007848 -0.017860 -0.006124
# 2 -0.013301 0.023779 0.003055 0.011962 0.018887 0.010014
# 3 -0.004603 0.003055 0.012343 0.006333 0.005895 0.002039
# 4 -0.007848 0.011962 0.006333 0.031519 0.015395 0.005139
# 5 -0.017860 0.018887 0.005895 0.015395 0.052681 0.010308
# 6 -0.006124 0.010014 0.002039 0.005139 0.010308 0.019997
#
#
# Mechanical properties :
#
#
# Convention : Reuss Voigt Hill
#
# Bulk Modulus (GPa) = 43.88461 59.83672 51.86066
# Shear Modulus (GPa) = 25.77600 43.84008 34.80804
#
# Velocity S-wave (km/s) = 3.19972 4.17292 3.71830
# Velocity P-wave (km/s) = 5.57511 6.85455 6.24767
#
# Compressibility (1/GPa) = 0.02278703
#
# Stress axis : x y z
#
# Youngs Moduli (GPa) = 61.10840 42.05321 81.01957
#
# Poissons Ratio (x) = 0.55937 0.37292
# Poissons Ratio (y) = 0.81283 -0.24748
# Poissons Ratio (z) = 0.28127 -0.12845
#
# Static dielectric constant tensor:
#      x y z
#    x 1.895720 0.095670 -0.074870 
#    y 0.095670 2.072130 0.094020 
#    z -0.074870 0.094020 2.067900 
# 
# From -- ./inp_files/228001.got.cif
#   From: 2010.05.17/outbox.cif.g08.bks.cpg/sg2_115_cif.got.tgz:228001.got - 2010.06.03 11:33:40.
