data_PCOD9036561
_publ_section_title
;
Structure prediction by ZEFSAII (Michael W. Deem and Ramdas Pophale) SiO2 
 PCOD9036561
Probable space group: P -1
;
_chemical_formula_sum "Si O2"
_cell_formula_units_Z 14
_cell_length_a 17.965469
_cell_length_b 10.024071
_cell_length_c 6.517779
_cell_angle_alpha 131.347838
_cell_angle_beta 56.001138
_cell_angle_gamma 131.763923
_cell_volume 642.201972
_symmetry_space_group_name_H-M "P -1"
_symmetry_group_IT_number 2
_symmetry_cell_setting 'triclinic'
loop_
_space_group_symop_operation_xyz
x,y,z
-x,-y,-z
loop_
_atom_site_type_symbol
_atom_site_label
_atom_site_fract_x
_atom_site_fract_y
_atom_site_fract_z
Si Si1 0.185034 0.220133 0.151951
Si Si2 0.132898 0.471429 0.171320
Si Si3 0.583514 0.554407 0.110190
Si Si4 0.207382 0.564889 0.736264
Si Si5 0.580874 0.097775 0.293074
Si Si6 0.097588 0.740172 0.828194
Si Si7 0.469124 0.212509 0.229569
O O1 0.141732 0.298824 0.111672
O O2 0.166757 0.336563 0.488901
O O3 0.306160 0.321954 0.031871
O O4 0.140010 0.980484 0.998290
O O5 0.136322 0.647611 0.490143
O O6 0.024037 0.368463 0.120099
O O7 0.218900 0.565016 0.961490
O O8 0.554337 0.349211 0.069812
O O9 0.576726 0.680900 0.444423
O O10 0.500000 0.500000 0.000000
O O11 0.316458 0.705064 0.604193
O O12 0.135583 0.662603 0.885615
O O13 0.522247 0.145825 0.253720
O O14 0.500000 0.000000 0.500000
O O15 0.612121 0.950490 0.967942
#
# Coordination Sequence:
#
# PCOD9036561 Si02
#       7
#     2   2   2   2   2   2   2
#     4  11  24  40  66  95 129 169 213 265 326 380
#     4  10  23  46  65  94 132 164 215 274 321 389
#     4  11  23  40  60  92 131 165 216 267 310 388
#     4  11  24  40  66  95 129 168 215 264 326 384
#     4  11  23  40  61  90 129 170 214 268 315 381
#     4  10  24  42  69  96 126 167 216 270 326 380
#     4  10  23  38  61  86 125 174 214 253 326 375
#
# _framework density 21.799994000000002
#
# number of rings (size 3 to 8) (size 9 to 14) (size 15 to 20)
#    0.000    1.429    0.000    4.286    6.000    5.143 
#    0.000    0.000    0.000    0.000    0.000    0.000 
#    0.000    0.000    0.000    0.000    0.000    0.000 
#
# Total GULP energy -78087.366710 kJ/mol
# GULP energy per Si atom -5577.669051 kJ/mol
# Density = 2.175038 g / cm^3
# Si number density = 21.799994 Si / 1000 Ang^3
#
#
#
# Elastic Constant Matrix: (Units=GPa)
#
#
# Indices 1 2 3 4 5 6 
#
# 1 65.7909 34.0217 24.3093 2.9992 4.0074 -8.2382
# 2 34.0217 116.0693 54.8278 17.8908 5.5433 -16.4667
# 3 24.3093 54.8278 95.7138 12.0333 7.6789 -12.7429
# 4 2.9992 17.8908 12.0333 45.5361 -3.1735 4.2569
# 5 4.0074 5.5433 7.6789 -3.1735 23.5429 -2.5409
# 6 -8.2382 -16.4667 -12.7429 4.2569 -2.5409 30.2728
#
#
#
# Elastic Compliance Matrix: (Units=1/GPa)
#
#
# Indices 1 2 3 4 5 6 
#
# 1 0.018392 -0.004272 -0.002007 0.000762 -0.001192 0.001629
# 2 -0.004272 0.013862 -0.005674 -0.004140 -0.000757 0.004507
# 3 -0.002007 -0.005674 0.015099 -0.002111 -0.003235 0.002748
# 4 0.000762 -0.004140 -0.002111 0.024959 0.004241 -0.006087
# 5 -0.001192 -0.000757 -0.003235 0.004241 0.044597 0.001049
# 6 0.001629 0.004507 0.002748 -0.006087 0.001049 0.038029
#
#
# Mechanical properties :
#
#
# Convention : Reuss Voigt Hill
#
# Bulk Modulus (GPa) = 42.65215 55.98795 49.32005
# Shear Modulus (GPa) = 26.78659 30.83138 28.80899
#
# Velocity S-wave (km/s) = 3.50915 3.76478 3.63921
# Velocity P-wave (km/s) = 6.00221 6.68105 6.35070
#
# Compressibility (1/GPa) = 0.02344548
#
# Stress axis : x y z
#
# Youngs Moduli (GPa) = 54.37001 72.14050 66.23074
#
# Poissons Ratio (x) = 0.30821 0.13294
# Poissons Ratio (y) = 0.23229 0.37580
# Poissons Ratio (z) = 0.10914 0.40933
#
# Static dielectric constant tensor:
#      x y z
#    x 1.799220 -0.031160 -0.053190 
#    y -0.031160 1.937730 0.155970 
#    z -0.053190 0.155970 1.944260 
# 
# From -- ./inp_files/89685.got.cif
#   From: 2010.05.17/outbox.cif.g08.bks.cpg/sg2_45_cif.got.tgz:89685.got - 2010.06.03 11:33:40.
