data_PCOD9036094
_publ_section_title
;
Structure prediction by ZEFSAII (Michael W. Deem and Ramdas Pophale) SiO2 
 PCOD9036094
Probable space group: P -1
;
_chemical_formula_sum "Si O2"
_cell_formula_units_Z 16
_cell_length_a 7.891146
_cell_length_b 10.597465
_cell_length_c 12.085196
_cell_angle_alpha 52.046375
_cell_angle_beta 120.184912
_cell_angle_gamma 120.956715
_cell_volume 656.897413
_symmetry_space_group_name_H-M "P -1"
_symmetry_group_IT_number 2
_symmetry_cell_setting 'triclinic'
loop_
_space_group_symop_operation_xyz
x,y,z
-x,-y,-z
loop_
_atom_site_type_symbol
_atom_site_label
_atom_site_fract_x
_atom_site_fract_y
_atom_site_fract_z
Si Si1 0.622587 0.032110 0.669138
Si Si2 0.962136 0.653182 0.735142
Si Si3 0.268458 0.993285 0.726451
Si Si4 0.634007 0.698402 0.751529
Si Si5 0.013208 0.247105 0.558601
Si Si6 0.982695 0.693519 0.044853
Si Si7 0.333593 0.018249 0.038068
Si Si8 0.265853 0.366407 0.784114
O O1 0.409203 0.055799 0.629298
O O2 0.578977 0.866993 0.668946
O O3 0.718425 0.994551 0.838508
O O4 0.794949 0.176575 0.585942
O O5 0.758318 0.696488 0.681208
O O6 0.996496 0.668850 0.606969
O O7 0.149520 0.797418 0.774087
O O8 0.940243 0.466265 0.868621
O O9 0.445867 0.015890 0.864473
O O10 0.107840 0.093481 0.645754
O O11 0.438529 0.536956 0.776006
O O12 0.795107 0.686282 0.906276
O O13 0.168409 0.366054 0.631835
O O14 0.904092 0.667684 0.158395
O O15 0.155471 0.871547 0.002045
O O16 0.348323 0.205242 0.906598
#
# Coordination Sequence:
#
# PCOD9036094 Si02
#       8
#     2   2   2   2   2   2   2   2
#     4  10  22  47  73 105 132 186 229 284 352 404
#     4  12  28  45  65 105 145 185 231 281 345 419
#     4  10  23  46  71 101 137 182 233 285 339 408
#     4  12  25  43  72 103 144 179 228 299 344 403
#     4  12  26  48  70 101 145 186 232 281 343 420
#     4  12  23  46  70 103 141 179 237 288 350 408
#     4  10  23  44  74 103 131 179 237 287 349 405
#     4  12  24  44  73 103 138 185 229 291 352 408
#
# _framework density 24.356922999999998
#
# number of rings (size 3 to 8) (size 9 to 14) (size 15 to 20)
#    0.750    0.000    3.750    3.750    1.750    2.000 
#    2.250    0.000    0.000    0.000    0.000    0.000 
#    0.000    0.000    0.000    0.000    0.000    0.000 
#
# Total GULP energy -89674.315903 kJ/mol
# GULP energy per Si atom -5604.644744 kJ/mol
# Density = 2.430149 g / cm^3
# Si number density = 24.356923 Si / 1000 Ang^3
#
#
#
# Elastic Constant Matrix: (Units=GPa)
#
#
# Indices 1 2 3 4 5 6 
#
# 1 105.2901 20.0671 -8.3135 -10.7199 -13.3580 -1.2302
# 2 20.0671 139.5434 28.4026 -5.9940 2.8706 20.6024
# 3 -8.3135 28.4026 69.3870 4.6573 2.5555 -4.2963
# 4 -10.7199 -5.9940 4.6573 24.5982 -9.6812 0.2344
# 5 -13.3580 2.8706 2.5555 -9.6812 45.1293 -4.7722
# 6 -1.2302 20.6024 -4.2963 0.2344 -4.7722 38.1069
#
#
#
# Elastic Compliance Matrix: (Units=1/GPa)
#
#
# Indices 1 2 3 4 5 6 
#
# 1 0.011315 -0.002185 0.001813 0.005966 0.004912 0.002329
# 2 -0.002185 0.009359 -0.004525 0.001760 -0.001222 -0.005805
# 3 0.001813 -0.004525 0.017024 -0.003768 -0.000484 0.004387
# 4 0.005966 0.001760 -0.003768 0.049295 0.012450 0.000072
# 5 0.004912 -0.001222 -0.000484 0.012450 0.026816 0.004046
# 6 0.002329 -0.005805 0.004387 0.000072 0.004046 0.030456
#
#
# Mechanical properties :
#
#
# Convention : Reuss Voigt Hill
#
# Bulk Modulus (GPa) = 35.83782 43.83700 39.83741
# Shear Modulus (GPa) = 30.60704 39.83786 35.22245
#
# Velocity S-wave (km/s) = 3.54871 4.04863 3.80688
# Velocity P-wave (km/s) = 5.61575 6.31601 5.97615
#
# Compressibility (1/GPa) = 0.02790348
#
# Stress axis : x y z
#
# Youngs Moduli (GPa) = 88.37897 106.84641 58.74103
#
# Poissons Ratio (x) = 0.23344 -0.10649
# Poissons Ratio (y) = 0.19309 0.26582
# Poissons Ratio (z) = -0.16022 0.48352
#
# Static dielectric constant tensor:
#      x y z
#    x 1.974870 -0.041640 -0.048610 
#    y -0.041640 1.876820 0.027500 
#    z -0.048610 0.027500 2.010620 
# 
# From -- ./inp_files/392186.got.cif
#   From: 2010.05.17/outbox.cif.g08.bks.cpg/sg2_197_cif.got.tgz:392186.got - 2010.06.03 11:33:40.
