data_PCOD9036754
_publ_section_title
;
Structure prediction by ZEFSAII (Michael W. Deem and Ramdas Pophale) SiO2 
 PCOD9036754
Probable space group: P -1
;
_chemical_formula_sum "Si O2"
_cell_formula_units_Z 14
_cell_length_a 5.101113
_cell_length_b 15.201106
_cell_length_c 9.648933
_cell_angle_alpha 117.708481
_cell_angle_beta 111.599043
_cell_angle_gamma 56.340339
_cell_volume 545.125236
_symmetry_space_group_name_H-M "P -1"
_symmetry_group_IT_number 2
_symmetry_cell_setting 'triclinic'
loop_
_space_group_symop_operation_xyz
x,y,z
-x,-y,-z
loop_
_atom_site_type_symbol
_atom_site_label
_atom_site_fract_x
_atom_site_fract_y
_atom_site_fract_z
Si Si1 0.021175 0.112919 0.115900
Si Si2 0.370488 0.878832 0.328563
Si Si3 0.635765 0.291191 0.378025
Si Si4 0.886880 0.600684 0.439028
Si Si5 0.332636 0.689941 0.036578
Si Si6 0.624325 0.014833 0.308764
Si Si7 0.114906 0.419202 0.132728
O O1 0.391581 0.076850 0.183036
O O2 0.857954 0.168730 0.271254
O O3 0.857440 0.209498 0.039724
O O4 0.000000 0.000000 0.000000
O O5 0.462450 0.903918 0.515596
O O6 0.551089 0.914984 0.275577
O O7 0.421273 0.755427 0.217607
O O8 0.993275 0.960301 0.306999
O O9 0.454457 0.310362 0.501908
O O10 0.358200 0.346560 0.249794
O O11 0.858154 0.352192 0.472163
O O12 0.000000 0.500000 0.500000
O O13 0.914078 0.539007 0.253786
O O14 0.643417 0.593649 0.952097
O O15 0.100313 0.638872 0.993266
#
# Coordination Sequence:
#
# PCOD9036754 Si02
#       7
#     2   2   2   2   2   2   2
#     4  11  22  36  53  84 114 146 174 224 271 317
#     4  10  21  38  55  74 106 148 188 220 251 324
#     4  10  20  31  47  76 106 144 173 209 269 328
#     4  10  17  33  50  70 107 141 173 216 269 320
#     4  11  21  33  53  85 109 137 179 221 273 313
#     4  10  22  38  54  74 106 152 186 213 264 311
#     4  10  19  32  53  79 106 138 176 228 269 313
#
# _framework density 25.682174
#
# number of rings (size 3 to 8) (size 9 to 14) (size 15 to 20)
#    0.000    1.714    1.429    6.857    2.000    4.000 
#    0.000    0.000    0.000    0.000    0.000    6.000 
#    0.000    0.000    0.000    0.286    0.000    0.000 
#
# Total GULP energy -78497.942209 kJ/mol
# GULP energy per Si atom -5606.995872 kJ/mol
# Density = 2.562372 g / cm^3
# Si number density = 25.682174 Si / 1000 Ang^3
#
#
#
# Elastic Constant Matrix: (Units=GPa)
#
#
# Indices 1 2 3 4 5 6 
#
# 1 129.4560 31.2200 27.5374 0.2685 29.9309 8.0672
# 2 31.2200 110.9468 36.0975 8.5216 1.0436 8.1796
# 3 27.5374 36.0975 141.4588 23.4877 12.6255 1.4982
# 4 0.2685 8.5216 23.4877 33.3973 10.4977 1.8257
# 5 29.9309 1.0436 12.6255 10.4977 47.0354 10.8657
# 6 8.0672 8.1796 1.4982 1.8257 10.8657 24.5904
#
#
#
# Elastic Compliance Matrix: (Units=1/GPa)
#
#
# Indices 1 2 3 4 5 6 
#
# 1 0.010248 -0.002715 -0.001294 0.003711 -0.007048 0.000459
# 2 -0.002715 0.010906 -0.002172 -0.002103 0.003457 -0.003976
# 3 -0.001294 -0.002172 0.008831 -0.005541 -0.000555 0.001265
# 4 0.003711 -0.002103 -0.005541 0.037241 -0.009420 0.001217
# 5 -0.007048 0.003457 -0.000555 -0.009420 0.030606 -0.011628
# 6 0.000459 -0.003976 0.001265 0.001217 -0.011628 0.046809
#
#
# Mechanical properties :
#
#
# Convention : Reuss Voigt Hill
#
# Bulk Modulus (GPa) = 56.74233 63.50794 60.12514
# Shear Modulus (GPa) = 30.69782 40.13840 35.41811
#
# Velocity S-wave (km/s) = 3.46106 3.95763 3.71764
# Velocity P-wave (km/s) = 6.17365 6.75765 6.47224
#
# Compressibility (1/GPa) = 0.01762353
#
# Stress axis : x y z
#
# Youngs Moduli (GPa) = 97.58083 91.69184 113.23182
#
# Poissons Ratio (x) = 0.24897 0.14652
# Poissons Ratio (y) = 0.26496 0.24591
# Poissons Ratio (z) = 0.12627 0.19913
#
# Static dielectric constant tensor:
#      x y z
#    x 1.958440 -0.003450 -0.034170 
#    y -0.003450 2.065240 -0.022040 
#    z -0.034170 -0.022040 2.018160 
# 
# From -- ./inp_files/369528.got.cif
#   From: 2010.05.17/outbox.cif.g08.bks.cpg/sg2_185_cif.got.tgz:369528.got - 2010.06.03 11:33:40.
