data_PCOD9036525
_publ_section_title
;
Structure prediction by ZEFSAII (Michael W. Deem and Ramdas Pophale) SiO2 
 PCOD9036525
Probable space group: P -1
;
_chemical_formula_sum "Si O2"
_cell_formula_units_Z 14
_cell_length_a 8.734243
_cell_length_b 7.596848
_cell_length_c 15.208707
_cell_angle_alpha 76.479639
_cell_angle_beta 140.268704
_cell_angle_gamma 109.364764
_cell_volume 608.161532
_symmetry_space_group_name_H-M "P -1"
_symmetry_group_IT_number 2
_symmetry_cell_setting 'triclinic'
loop_
_space_group_symop_operation_xyz
x,y,z
-x,-y,-z
loop_
_atom_site_type_symbol
_atom_site_label
_atom_site_fract_x
_atom_site_fract_y
_atom_site_fract_z
Si Si1 0.498925 0.944064 0.906076
Si Si2 0.948695 0.323925 0.615751
Si Si3 0.666466 0.256666 0.801194
Si Si4 0.159588 0.209474 0.025688
Si Si5 0.469165 0.835362 0.433130
Si Si6 0.002314 0.063147 0.390146
Si Si7 0.602768 0.433365 0.303569
O O1 0.682724 0.810175 0.988138
O O2 0.602488 0.132921 0.874082
O O3 0.232714 0.865646 0.752192
O O4 0.500000 0.000000 0.000000
O O5 0.771168 0.316620 0.621803
O O6 0.010532 0.125303 0.649085
O O7 0.769276 0.350722 0.453462
O O8 0.206941 0.473130 0.700069
O O9 0.593661 0.124154 0.699304
O O10 0.505447 0.407892 0.715205
O O11 0.961278 0.332787 0.917680
O O12 0.364606 0.286912 0.179848
O O13 0.000000 0.000000 0.000000
O O14 0.500000 0.000000 0.500000
O O15 0.740127 0.799548 0.542983
O O16 0.000000 0.000000 0.500000
#
# Coordination Sequence:
#
# PCOD9036525 Si02
#       7
#     2   2   2   2   2   2   2
#     4  11  24  41  68  99 133 178 234 279 347 414
#     4  10  23  38  68  97 138 173 231 278 350 402
#     4  11  23  44  65  99 140 182 228 286 347 408
#     4  10  25  41  67  95 136 180 231 278 342 410
#     4  10  23  37  70 101 136 175 233 283 344 401
#     4  11  19  40  69  98 135 174 227 289 344 404
#     4  11  22  44  68 100 140 183 225 286 349 413
#
# _framework density 23.020199999999999
#
# number of rings (size 3 to 8) (size 9 to 14) (size 15 to 20)
#    0.000    1.429    2.857    1.286   10.000    2.857 
#    0.000    5.714    0.000    0.000    0.000    0.000 
#    0.000    0.000    0.000    0.000    0.000    0.000 
#
# Total GULP energy -78152.041375 kJ/mol
# GULP energy per Si atom -5582.288670 kJ/mol
# Density = 2.296781 g / cm^3
# Si number density = 23.020200 Si / 1000 Ang^3
#
#
#
# Elastic Constant Matrix: (Units=GPa)
#
#
# Indices 1 2 3 4 5 6 
#
# 1 163.9421 24.2612 61.6947 5.3465 16.0440 6.6966
# 2 24.2612 58.3410 20.3611 11.5564 4.7854 -5.6456
# 3 61.6947 20.3611 110.2394 20.0288 18.1542 1.5081
# 4 5.3465 11.5564 20.0288 25.0152 -1.0192 2.7112
# 5 16.0440 4.7854 18.1542 -1.0192 63.4158 0.1642
# 6 6.6966 -5.6456 1.5081 2.7112 0.1642 28.8000
#
#
#
# Elastic Compliance Matrix: (Units=1/GPa)
#
#
# Indices 1 2 3 4 5 6 
#
# 1 0.008291 -0.002715 -0.004650 0.003461 -0.000499 -0.002540
# 2 -0.002715 0.020930 -0.000595 -0.009260 -0.000886 0.005642
# 3 -0.004650 -0.000595 0.014131 -0.010298 -0.002993 0.001211
# 4 0.003461 -0.009260 -0.010298 0.052673 0.003636 -0.007060
# 5 -0.000499 -0.000886 -0.002993 0.003636 0.016878 -0.000339
# 6 -0.002540 0.005642 0.001211 -0.007060 -0.000339 0.037022
#
#
# Mechanical properties :
#
#
# Convention : Reuss Voigt Hill
#
# Bulk Modulus (GPa) = 36.45531 60.57294 48.51412
# Shear Modulus (GPa) = 28.57293 38.52656 33.54975
#
# Velocity S-wave (km/s) = 3.52690 4.09540 3.82174
# Velocity P-wave (km/s) = 5.69702 6.98091 6.37139
#
# Compressibility (1/GPa) = 0.02743085
#
# Stress axis : x y z
#
# Youngs Moduli (GPa) = 120.60798 47.77753 70.76642
#
# Poissons Ratio (x) = 0.12973 0.32910
# Poissons Ratio (y) = 0.32748 0.04212
# Poissons Ratio (z) = 0.56088 0.02844
#
# Static dielectric constant tensor:
#      x y z
#    x 1.916780 0.000680 0.047150 
#    y 0.000680 1.898010 0.031050 
#    z 0.047150 0.031050 1.867920 
# 
# From -- ./inp_files/327666.got.cif
#   From: 2010.05.17/outbox.cif.g08.bks.cpg/sg2_164_cif.got.tgz:327666.got - 2010.06.03 11:33:40.
