data_PCOD9036377
_publ_section_title
;
Structure prediction by ZEFSAII (Michael W. Deem and Ramdas Pophale) SiO2 
 PCOD9036377
Probable space group: P -1
;
_chemical_formula_sum "Si O2"
_cell_formula_units_Z 16
_cell_length_a 14.420983
_cell_length_b 10.164666
_cell_length_c 22.566766
_cell_angle_alpha 45.017643
_cell_angle_beta 19.445624
_cell_angle_gamma 43.406671
_cell_volume 753.295051
_symmetry_space_group_name_H-M "P -1"
_symmetry_group_IT_number 2
_symmetry_cell_setting 'triclinic'
loop_
_space_group_symop_operation_xyz
x,y,z
-x,-y,-z
loop_
_atom_site_type_symbol
_atom_site_label
_atom_site_fract_x
_atom_site_fract_y
_atom_site_fract_z
Si Si1 0.896518 0.941222 0.396715
Si Si2 0.502255 0.774193 0.074671
Si Si3 0.114697 0.896231 0.024425
Si Si4 0.614729 0.114652 0.342473
Si Si5 0.106069 0.797655 0.574172
Si Si6 0.957726 0.778805 0.879436
Si Si7 0.544251 0.082325 0.766781
Si Si8 0.704193 0.531431 0.920746
O O1 0.191787 0.786430 0.286106
O O2 0.645813 0.841098 0.561738
O O3 0.813103 0.108081 0.443785
O O4 0.974440 0.051122 0.256236
O O5 0.799515 0.669892 0.962341
O O6 0.515748 0.686172 0.029761
O O7 0.500000 0.000000 0.000000
O O8 0.178477 0.669656 0.053666
O O9 0.880981 0.975132 0.191640
O O10 0.409389 0.945826 0.850264
O O11 0.000000 0.000000 0.000000
O O12 0.500000 0.000000 0.500000
O O13 0.750729 0.277458 0.238907
O O14 0.979009 0.613178 0.714338
O O15 0.358914 0.771240 0.382324
O O16 0.829228 0.959191 0.665873
O O17 0.698503 0.837790 0.063973
O O18 0.500000 0.500000 0.000000
#
# Coordination Sequence:
#
# PCOD9036377 Si02
#       8
#     2   2   2   2   2   2   2   2
#     4  10  17  32  62  93 123 169 227 261 332 388
#     4  10  18  34  66  96 125 165 227 275 328 384
#     4  11  24  43  63  92 141 182 215 275 346 400
#     4   9  20  34  63  91 124 177 222 260 327 411
#     4  11  19  35  61 100 125 169 218 282 317 398
#     4   9  16  32  56  88 118 173 214 257 322 401
#     4  10  20  34  62  91 129 172 214 261 346 383
#     4  12  24  39  69 107 130 173 237 280 326 401
#
# _framework density 21.240017999999999
#
# number of rings (size 3 to 8) (size 9 to 14) (size 15 to 20)
#    0.000    1.750    5.000    1.500    5.250    0.000 
#    0.000    2.500    2.750    5.250    0.000    0.000 
#    0.000    0.000    0.000    0.000    0.000    0.000 
#
# Total GULP energy -89088.782864 kJ/mol
# GULP energy per Si atom -5568.048929 kJ/mol
# Density = 2.119167 g / cm^3
# Si number density = 21.240018 Si / 1000 Ang^3
#
#
#
# Elastic Constant Matrix: (Units=GPa)
#
#
# Indices 1 2 3 4 5 6 
#
# 1 118.0774 35.8501 43.7551 -10.5081 -17.4467 26.6237
# 2 35.8501 56.3582 10.7819 -9.6061 8.1558 11.7656
# 3 43.7551 10.7819 87.8723 -5.7558 -13.3878 5.4923
# 4 -10.5081 -9.6061 -5.7558 18.1931 6.1834 -0.1268
# 5 -17.4467 8.1558 -13.3878 6.1834 60.3944 -6.8151
# 6 26.6237 11.7656 5.4923 -0.1268 -6.8151 28.8078
#
#
#
# Elastic Compliance Matrix: (Units=1/GPa)
#
#
# Indices 1 2 3 4 5 6 
#
# 1 0.015432 -0.006627 -0.005671 0.002628 0.002719 -0.009820
# 2 -0.006627 0.026536 0.000139 0.012731 -0.007499 -0.006458
# 3 -0.005671 0.000139 0.014325 0.000750 0.001766 0.002874
# 4 0.002628 0.012731 0.000750 0.066320 -0.008659 -0.009527
# 5 0.002719 -0.007499 0.001766 -0.008659 0.020193 0.004952
# 6 -0.009820 -0.006458 0.002874 -0.009527 0.004952 0.047007
#
#
# Mechanical properties :
#
#
# Convention : Reuss Voigt Hill
#
# Bulk Modulus (GPa) = 31.27432 49.23133 40.25282
# Shear Modulus (GPa) = 22.24289 32.94043 27.59166
#
# Velocity S-wave (km/s) = 3.23958 3.94238 3.60813
# Velocity P-wave (km/s) = 5.36185 6.62963 6.02915
#
# Compressibility (1/GPa) = 0.03197512
#
# Stress axis : x y z
#
# Youngs Moduli (GPa) = 64.79899 37.68441 69.80563
#
# Poissons Ratio (x) = 0.24975 0.39587
# Poissons Ratio (y) = 0.42945 -0.00970
# Poissons Ratio (z) = 0.36748 -0.00524
#
# Static dielectric constant tensor:
#      x y z
#    x 1.885490 0.007080 -0.051220 
#    y 0.007080 1.753530 -0.006570 
#    z -0.051220 -0.006570 1.810680 
# 
# From -- ./inp_files/611613.got.cif
#   From: 2010.05.17/outbox.cif.g08.bks.cpg/sg2_306_cif.got.tgz:611613.got - 2010.06.03 11:33:40.
