data_PCOD9036793
_publ_section_title
;
Structure prediction by ZEFSAII (Michael W. Deem and Ramdas Pophale) SiO2 
 PCOD9036793
Probable space group: P -1
;
_chemical_formula_sum "Si O2"
_cell_formula_units_Z 16
_cell_length_a 5.396838
_cell_length_b 8.398706
_cell_length_c 17.565697
_cell_angle_alpha 96.214216
_cell_angle_beta 97.418405
_cell_angle_gamma 116.032993
_cell_volume 697.165499
_symmetry_space_group_name_H-M "P -1"
_symmetry_group_IT_number 2
_symmetry_cell_setting 'triclinic'
loop_
_space_group_symop_operation_xyz
x,y,z
-x,-y,-z
loop_
_atom_site_type_symbol
_atom_site_label
_atom_site_fract_x
_atom_site_fract_y
_atom_site_fract_z
Si Si1 0.713330 0.845908 0.511546
Si Si2 0.117982 0.367862 0.030174
Si Si3 0.259310 0.343586 0.879323
Si Si4 0.985431 0.399044 0.183136
Si Si5 0.655565 0.551888 0.392520
Si Si6 0.020591 0.670053 0.652076
Si Si7 0.559199 0.731703 0.260016
Si Si8 0.486768 0.013131 0.621646
O O1 0.712452 0.660825 0.479038
O O2 0.642848 0.900258 0.593108
O O3 0.490641 0.860726 0.443321
O O4 0.000000 0.000000 0.500000
O O5 0.435617 0.503862 0.073715
O O6 0.965014 0.286391 0.099923
O O7 0.109117 0.255555 0.948741
O O8 0.000000 0.500000 0.000000
O O9 0.133819 0.462002 0.837770
O O10 0.277287 0.210416 0.809924
O O11 0.876385 0.300368 0.253733
O O12 0.309697 0.535629 0.220779
O O13 0.851019 0.455482 0.384626
O O14 0.728164 0.697284 0.333845
O O15 0.318304 0.424316 0.367138
O O16 0.175186 0.858875 0.623738
O O17 0.431177 0.856603 0.295738
#
# Coordination Sequence:
#
# PCOD9036793 Si02
#       8
#     2   2   2   2   2   2   2   2
#     4  10  24  42  61  81 112 155 191 240 288 351
#     4   8  15  25  45  79 112 140 184 235 274 325
#     4   9  14  27  49  79 107 145 187 232 276 329
#     4   9  17  30  53  78 113 145 187 234 283 333
#     4  10  23  39  62  82 117 151 192 239 292 344
#     4  11  23  40  59  89 116 151 192 242 290 342
#     4   9  18  34  54  81 109 153 188 235 282 344
#     4  10  24  39  57  84 113 149 192 239 292 347
#
# _framework density 22.950074000000001
#
# number of rings (size 3 to 8) (size 9 to 14) (size 15 to 20)
#    0.000    2.500    1.250    0.000    8.750    1.000 
#    0.000    0.000    0.000    0.750    0.000   29.750 
#    0.000    0.000    0.000    0.000    0.000    0.000 
#
# Total GULP energy -89163.647836 kJ/mol
# GULP energy per Si atom -5572.727990 kJ/mol
# Density = 2.289784 g / cm^3
# Si number density = 22.950074 Si / 1000 Ang^3
#
#
#
# Elastic Constant Matrix: (Units=GPa)
#
#
# Indices 1 2 3 4 5 6 
#
# 1 70.3539 5.1585 33.3939 -1.9984 -21.1560 -9.4589
# 2 5.1585 43.1210 37.7855 -11.6525 -14.0565 2.7623
# 3 33.3939 37.7855 186.7543 -4.0458 -52.0559 -21.1359
# 4 -1.9984 -11.6525 -4.0458 16.6169 -5.9521 0.1454
# 5 -21.1560 -14.0565 -52.0559 -5.9521 52.2766 3.5235
# 6 -9.4589 2.7623 -21.1359 0.1454 3.5235 25.1075
#
#
#
# Elastic Compliance Matrix: (Units=1/GPa)
#
#
# Indices 1 2 3 4 5 6 
#
# 1 0.017412 0.002478 -0.001001 0.006097 0.007113 0.004411
# 2 0.002478 0.040798 -0.006519 0.030892 0.009712 -0.010585
# 3 -0.001001 -0.006519 0.009635 0.000075 0.006941 0.007477
# 4 0.006097 0.030892 0.000075 0.090313 0.021439 -0.004571
# 5 0.007113 0.009712 0.006941 0.021439 0.033798 0.002587
# 6 0.004411 -0.010585 0.007477 -0.004571 0.002587 0.048612
#
#
# Mechanical properties :
#
#
# Convention : Reuss Voigt Hill
#
# Bulk Modulus (GPa) = 17.31263 50.32277 33.81770
# Shear Modulus (GPa) = 18.52485 33.72629 26.12557
#
# Velocity S-wave (km/s) = 2.84417 3.83763 3.37763
# Velocity P-wave (km/s) = 4.28319 6.45067 5.47526
#
# Compressibility (1/GPa) = 0.05776129
#
# Stress axis : x y z
#
# Youngs Moduli (GPa) = 57.43001 24.51072 103.78617
#
# Poissons Ratio (x) = -0.06073 0.10387
# Poissons Ratio (y) = -0.14230 0.67662
# Poissons Ratio (z) = 0.05748 0.15979
#
# Static dielectric constant tensor:
#      x y z
#    x 1.983100 -0.001610 0.009730 
#    y -0.001610 1.843180 -0.035160 
#    z 0.009730 -0.035160 2.013050 
# 
# From -- ./inp_files/42020.got.cif
#   From: 2010.05.17/outbox.cif.g08.bks.cpg/sg2_22_cif.got.tgz:42020.got - 2010.06.03 11:33:40.
