data_PCOD9036299
_publ_section_title
;
Structure prediction by ZEFSAII (Michael W. Deem and Ramdas Pophale) SiO2 
 PCOD9036299
Probable space group: P -1
;
_chemical_formula_sum "Si O2"
_cell_formula_units_Z 16
_cell_length_a 9.940709
_cell_length_b 7.344124
_cell_length_c 9.099730
_cell_angle_alpha 106.093907
_cell_angle_beta 124.048592
_cell_angle_gamma 84.497812
_cell_volume 527.398658
_symmetry_space_group_name_H-M "P -1"
_symmetry_group_IT_number 2
_symmetry_cell_setting 'triclinic'
loop_
_space_group_symop_operation_xyz
x,y,z
-x,-y,-z
loop_
_atom_site_type_symbol
_atom_site_label
_atom_site_fract_x
_atom_site_fract_y
_atom_site_fract_z
Si Si1 0.835757 0.862972 0.326172
Si Si2 0.529477 0.713219 0.505008
Si Si3 0.784942 0.242625 0.118031
Si Si4 0.946559 0.351315 0.804703
Si Si5 0.587819 0.498232 0.896172
Si Si6 0.889335 0.616292 0.566030
Si Si7 0.184970 0.996787 0.168349
Si Si8 0.424255 0.843126 0.759079
O O1 0.909903 0.758323 0.209085
O O2 0.795618 0.722651 0.406450
O O3 0.664604 0.960893 0.217441
O O4 0.000000 0.000000 0.500000
O O5 0.500000 0.500000 0.500000
O O6 0.477905 0.663918 0.296284
O O7 0.288186 0.180751 0.341220
O O8 0.430458 0.835934 0.585421
O O9 0.973937 0.229573 0.254443
O O10 0.704089 0.269692 0.232259
O O11 0.755324 0.419972 0.037249
O O12 0.719554 0.064915 0.937233
O O13 0.833302 0.180328 0.770863
O O14 0.855414 0.467680 0.647378
O O15 0.000000 0.500000 0.000000
O O16 0.570121 0.703631 0.857400
O O17 0.500000 0.500000 0.000000
O O18 0.000000 0.500000 0.500000
O O19 0.000000 0.000000 0.000000
#
# Coordination Sequence:
#
# PCOD9036299 Si02
#       8
#     2   2   2   2   2   2   2   2
#     4  11  23  46  85 129 177 239 323 391 469 562
#     4  10  25  55  88 131 184 252 317 384 489 579
#     4  11  22  47  79 126 181 236 311 389 475 568
#     4  11  25  50  81 128 186 243 295 392 473 566
#     4   9  22  48  83 122 176 243 307 382 469 575
#     4  10  23  47  77 125 179 235 304 380 476 553
#     4  12  28  51  89 138 187 240 323 402 472 574
#     4  10  22  48  84 125 176 246 315 388 470 574
#
# _framework density 30.337579999999999
#
# number of rings (size 3 to 8) (size 9 to 14) (size 15 to 20)
#    0.000    1.500    2.500    0.750    0.000    4.000 
#   11.250    8.750   16.500    0.750    0.000    0.000 
#    0.000    0.000    0.000    0.000    0.000    0.000 
#
# Total GULP energy -89269.754717 kJ/mol
# GULP energy per Si atom -5579.359670 kJ/mol
# Density = 3.026853 g / cm^3
# Si number density = 30.337580 Si / 1000 Ang^3
#
#
#
# Elastic Constant Matrix: (Units=GPa)
#
#
# Indices 1 2 3 4 5 6 
#
# 1 98.7994 49.8792 85.9724 6.9580 -21.6148 1.5169
# 2 49.8792 186.5266 94.7425 -10.8800 1.2738 10.1464
# 3 85.9724 94.7425 220.9887 14.0538 -15.0876 3.5742
# 4 6.9580 -10.8800 14.0538 104.7954 3.5650 -7.6734
# 5 -21.6148 1.2738 -15.0876 3.5650 58.8427 11.8697
# 6 1.5169 10.1464 3.5742 -7.6734 11.8697 68.3862
#
#
#
# Elastic Compliance Matrix: (Units=1/GPa)
#
#
# Indices 1 2 3 4 5 6 
#
# 1 0.016910 -0.001827 -0.005383 -0.000822 0.005081 -0.000797
# 2 -0.001827 0.007267 -0.002575 0.001233 -0.001460 -0.000511
# 3 -0.005383 -0.002575 0.007795 -0.000963 0.000143 -0.000039
# 4 -0.000822 0.001233 -0.000963 0.009995 -0.001434 0.001256
# 5 0.005081 -0.001460 0.000143 -0.001434 0.019720 -0.003487
# 6 -0.000797 -0.000511 -0.000039 0.001256 -0.003487 0.015465
#
#
# Mechanical properties :
#
#
# Convention : Reuss Voigt Hill
#
# Bulk Modulus (GPa) = 80.63034 107.50033 94.06534
# Shear Modulus (GPa) = 49.57607 64.78624 57.18116
#
# Velocity S-wave (km/s) = 4.04684 4.62617 4.34617
# Velocity P-wave (km/s) = 6.96214 8.00293 7.50061
#
# Compressibility (1/GPa) = 0.01240228
#
# Stress axis : x y z
#
# Youngs Moduli (GPa) = 59.13672 137.60467 128.28905
#
# Poissons Ratio (x) = 0.25138 0.69062
# Poissons Ratio (y) = 0.10803 0.33031
# Poissons Ratio (z) = 0.31835 0.35430
#
# Static dielectric constant tensor:
#      x y z
#    x 2.727420 -0.164740 0.180120 
#    y -0.164740 2.546070 -0.000670 
#    z 0.180120 -0.000670 2.456450 
# 
# From -- ./inp_files/298892.got.cif
#   From: 2010.05.17/outbox.cif.g08.bks.cpg/sg2_150_cif.got.tgz:298892.got - 2010.06.03 11:33:40.
