data_PCOD9036051
_publ_section_title
;
Structure prediction by ZEFSAII (Michael W. Deem and Ramdas Pophale) SiO2 
 PCOD9036051
Probable space group: P -1
;
_chemical_formula_sum "Si O2"
_cell_formula_units_Z 16
_cell_length_a 8.229065
_cell_length_b 5.606854
_cell_length_c 18.230135
_cell_angle_alpha 130.952358
_cell_angle_beta 87.726787
_cell_angle_gamma 87.057192
_cell_volume 631.420573
_symmetry_space_group_name_H-M "P -1"
_symmetry_group_IT_number 2
_symmetry_cell_setting 'triclinic'
loop_
_space_group_symop_operation_xyz
x,y,z
-x,-y,-z
loop_
_atom_site_type_symbol
_atom_site_label
_atom_site_fract_x
_atom_site_fract_y
_atom_site_fract_z
Si Si1 0.082535 0.817493 0.566991
Si Si2 0.990219 0.526260 0.917588
Si Si3 0.593453 0.489704 0.574299
Si Si4 0.425401 0.773069 0.222671
Si Si5 0.358969 0.244719 0.016833
Si Si6 0.738500 0.314239 0.168028
Si Si7 0.779150 0.331800 0.661267
Si Si8 0.966898 0.189742 0.270391
O O1 0.241485 0.729028 0.499145
O O2 0.119892 0.844246 0.657277
O O3 0.000000 0.500000 0.500000
O O4 0.935675 0.073615 0.597327
O O5 0.822157 0.730846 0.940700
O O6 0.137967 0.646701 0.893875
O O7 0.982822 0.163721 0.825273
O O8 0.000000 0.500000 0.000000
O O9 0.500000 0.500000 0.500000
O O10 0.606633 0.308212 0.616696
O O11 0.571526 0.854474 0.680259
O O12 0.406329 0.603458 0.107337
O O13 0.588940 0.576540 0.210539
O O14 0.275877 0.674521 0.255250
O O15 0.500000 0.000000 0.000000
O O16 0.323175 0.041399 0.902833
O O17 0.840051 0.359128 0.248807
O O18 0.867034 0.639742 0.698171
#
# Coordination Sequence:
#
# PCOD9036051 Si02
#       8
#     2   2   2   2   2   2   2   2
#     4  12  25  48  72 108 142 192 253 296 367 433
#     4  12  25  45  75 109 144 187 245 295 362 441
#     4  12  29  46  73 107 149 193 246 303 366 434
#     4  11  26  47  70 107 151 191 245 302 366 433
#     4  10  22  47  71 103 146 186 237 295 364 429
#     4  11  26  45  74 111 149 192 243 304 364 433
#     4  12  25  47  75 103 146 195 242 302 365 428
#     4  12  26  44  78 106 146 194 244 305 357 441
#
# _framework density 25.339683999999998
#
# number of rings (size 3 to 8) (size 9 to 14) (size 15 to 20)
#    0.000    0.500    3.750    3.750    7.000    0.500 
#    0.000    1.250    0.000    0.000    0.000    0.000 
#    0.000    0.000    0.000    0.000    0.000    0.000 
#
# Total GULP energy -89080.044278 kJ/mol
# GULP energy per Si atom -5567.502767 kJ/mol
# Density = 2.528201 g / cm^3
# Si number density = 25.339684 Si / 1000 Ang^3
#
#
#
# Elastic Constant Matrix: (Units=GPa)
#
#
# Indices 1 2 3 4 5 6 
#
# 1 107.7070 33.9365 24.1826 12.4606 -17.4614 -36.9003
# 2 33.9365 83.8586 43.1665 9.5525 2.8986 -18.7009
# 3 24.1826 43.1665 134.5590 17.1866 4.8364 -21.1178
# 4 12.4606 9.5525 17.1866 49.2574 -12.7769 2.0371
# 5 -17.4614 2.8986 4.8364 -12.7769 45.2051 -6.4659
# 6 -36.9003 -18.7009 -21.1178 2.0371 -6.4659 48.7535
#
#
#
# Elastic Compliance Matrix: (Units=1/GPa)
#
#
# Indices 1 2 3 4 5 6 
#
# 1 0.015945 -0.004006 0.000224 -0.001863 0.007540 0.011706
# 2 -0.004006 0.016103 -0.004004 -0.001376 -0.002375 0.001153
# 3 0.000224 -0.004004 0.009531 -0.003014 -0.001137 0.002737
# 4 -0.001863 -0.001376 -0.003014 0.023768 0.005915 -0.003452
# 5 0.007540 -0.002375 -0.001137 0.005915 0.028093 0.007782
# 6 0.011706 0.001153 0.002737 -0.003452 0.007782 0.032176
#
#
# Mechanical properties :
#
#
# Convention : Reuss Voigt Hill
#
# Bulk Modulus (GPa) = 38.45029 58.74397 48.59713
# Shear Modulus (GPa) = 33.36523 43.63247 38.49885
#
# Velocity S-wave (km/s) = 3.63260 4.15408 3.90206
# Velocity P-wave (km/s) = 5.72724 6.80011 6.28660
#
# Compressibility (1/GPa) = 0.02600761
#
# Stress axis : x y z
#
# Youngs Moduli (GPa) = 62.71624 62.10076 104.91781
#
# Poissons Ratio (x) = 0.24875 -0.02346
# Poissons Ratio (y) = 0.25121 0.42006
# Poissons Ratio (z) = -0.01402 0.24864
#
# Static dielectric constant tensor:
#      x y z
#    x 2.032410 0.028260 0.069860 
#    y 0.028260 1.919820 -0.009020 
#    z 0.069860 -0.009020 1.972650 
# 
# From -- ./inp_files/553937.got.cif
#   From: 2010.05.17/outbox.cif.g08.bks.cpg/sg2_277_cif.got.tgz:553937.got - 2010.06.03 11:33:40.
