data_PCOD9036392
_publ_section_title
;
Structure prediction by ZEFSAII (Michael W. Deem and Ramdas Pophale) SiO2 
 PCOD9036392
Probable space group: P -1
;
_chemical_formula_sum "Si O2"
_cell_formula_units_Z 14
_cell_length_a 9.206494
_cell_length_b 15.130190
_cell_length_c 9.383276
_cell_angle_alpha 48.487719
_cell_angle_beta 115.757433
_cell_angle_gamma 84.086161
_cell_volume 718.178948
_symmetry_space_group_name_H-M "P -1"
_symmetry_group_IT_number 2
_symmetry_cell_setting 'triclinic'
loop_
_space_group_symop_operation_xyz
x,y,z
-x,-y,-z
loop_
_atom_site_type_symbol
_atom_site_label
_atom_site_fract_x
_atom_site_fract_y
_atom_site_fract_z
Si Si1 0.713460 0.853030 0.270056
Si Si2 0.323421 0.568539 0.646863
Si Si3 0.768986 0.631269 0.294050
Si Si4 0.729327 0.510381 0.971938
Si Si5 0.696359 0.875434 0.797155
Si Si6 0.950229 0.886689 0.119841
Si Si7 0.123721 0.286461 0.217733
O O1 0.747992 0.716696 0.339394
O O2 0.871359 0.879396 0.247704
O O3 0.745596 0.818088 0.486423
O O4 0.500000 0.000000 0.000000
O O5 0.343839 0.445122 0.686432
O O6 0.519616 0.563272 0.757805
O O7 0.141521 0.724214 0.347807
O O8 0.269647 0.541004 0.811755
O O9 0.000000 0.500000 0.500000
O O10 0.686664 0.755276 0.005514
O O11 0.783193 0.625628 0.874799
O O12 0.904962 0.385710 0.082195
O O13 0.861268 0.794440 0.831972
O O14 0.500000 0.000000 0.500000
O O15 0.773031 0.931423 0.889149
O O16 0.000000 0.000000 0.000000
#
# Coordination Sequence:
#
# PCOD9036392 Si02
#       7
#     2   2   2   2   2   2   2
#     4  11  24  42  66  93 131 172 215 269 339 388
#     4  11  21  42  65  97 126 175 225 270 331 391
#     4  11  20  42  68  93 125 177 222 268 317 403
#     4  10  23  35  67  96 129 164 212 283 330 380
#     4  11  24  40  68  96 129 178 221 260 333 406
#     4  11  25  44  65  93 132 177 219 270 328 401
#     4  11  21  42  61  97 126 163 216 274 326 387
#
# _framework density 19.493749000000001
#
# number of rings (size 3 to 8) (size 9 to 14) (size 15 to 20)
#    0.000    1.143    5.714    1.714    6.000    0.000 
#    2.571    2.143    0.000    0.000    0.000    0.000 
#    0.000    0.000    0.000    0.000    0.000    0.000 
#
# Total GULP energy -78167.251281 kJ/mol
# GULP energy per Si atom -5583.375091 kJ/mol
# Density = 1.944938 g / cm^3
# Si number density = 19.493749 Si / 1000 Ang^3
#
#
#
# Elastic Constant Matrix: (Units=GPa)
#
#
# Indices 1 2 3 4 5 6 
#
# 1 82.0464 9.0564 18.2605 -10.5919 3.8673 8.3357
# 2 9.0564 37.2324 -6.6216 -8.4847 -12.9133 6.1261
# 3 18.2605 -6.6216 104.1059 -5.1372 3.5628 13.3810
# 4 -10.5919 -8.4847 -5.1372 29.2283 -0.0939 -7.9838
# 5 3.8673 -12.9133 3.5628 -0.0939 29.7767 5.5434
# 6 8.3357 6.1261 13.3810 -7.9838 5.5434 19.4400
#
#
#
# Elastic Compliance Matrix: (Units=1/GPa)
#
#
# Indices 1 2 3 4 5 6 
#
# 1 0.013780 -0.003937 -0.002288 0.003189 -0.003043 -0.000916
# 2 -0.003937 0.040308 0.005154 0.006370 0.020719 -0.017854
# 3 -0.002288 0.005154 0.011436 0.000152 0.002892 -0.009276
# 4 0.003189 0.006370 0.000152 0.040882 -0.000020 0.013316
# 5 -0.003043 0.020719 0.002892 -0.000020 0.046427 -0.020462
# 6 -0.000916 -0.017854 -0.009276 0.013316 -0.020462 0.075148
#
#
# Mechanical properties :
#
#
# Convention : Reuss Voigt Hill
#
# Bulk Modulus (GPa) = 15.77731 29.41947 22.59839
# Shear Modulus (GPa) = 19.90055 29.20162 24.55109
#
# Velocity S-wave (km/s) = 3.19857 3.87460 3.55270
# Velocity P-wave (km/s) = 4.66393 5.92800 5.33355
#
# Compressibility (1/GPa) = 0.06338215
#
# Stress axis : x y z
#
# Youngs Moduli (GPa) = 72.56793 24.80920 87.44555
#
# Poissons Ratio (x) = 0.09767 0.20010
# Poissons Ratio (y) = 0.28568 -0.45072
# Poissons Ratio (z) = 0.16605 -0.12787
#
# Static dielectric constant tensor:
#      x y z
#    x 1.674890 -0.006840 0.002680 
#    y -0.006840 1.711120 -0.023060 
#    z 0.002680 -0.023060 1.722020 
# 
# From -- ./inp_files/189525.got.cif
#   From: 2010.05.17/outbox.cif.g08.bks.cpg/sg2_95_cif.got.tgz:189525.got - 2010.06.03 11:33:40.
