data_PCOD9036017
_publ_section_title
;
Structure prediction by ZEFSAII (Michael W. Deem and Ramdas Pophale) SiO2 
 PCOD9036017
Probable space group: P -1
;
_chemical_formula_sum "Si O2"
_cell_formula_units_Z 14
_cell_length_a 12.666220
_cell_length_b 8.032752
_cell_length_c 8.358457
_cell_angle_alpha 124.183018
_cell_angle_beta 61.898468
_cell_angle_gamma 121.425833
_cell_volume 580.899452
_symmetry_space_group_name_H-M "P -1"
_symmetry_group_IT_number 2
_symmetry_cell_setting 'triclinic'
loop_
_space_group_symop_operation_xyz
x,y,z
-x,-y,-z
loop_
_atom_site_type_symbol
_atom_site_label
_atom_site_fract_x
_atom_site_fract_y
_atom_site_fract_z
Si Si1 0.882389 0.611746 0.802833
Si Si2 0.148234 0.108233 0.496149
Si Si3 0.248570 0.501464 0.845851
Si Si4 0.162968 0.802272 0.604850
Si Si5 0.612029 0.089472 0.241539
Si Si6 0.321307 0.256987 0.150574
Si Si7 0.520255 0.629268 0.387613
O O1 0.854698 0.423296 0.590145
O O2 0.789322 0.737133 0.886314
O O3 0.029394 0.761913 0.769411
O O4 0.844586 0.507377 0.947093
O O5 0.174760 0.349283 0.671403
O O6 0.244503 0.130462 0.292379
O O7 0.175933 0.972319 0.546904
O O8 0.000000 0.000000 0.500000
O O9 0.326487 0.734382 0.846078
O O10 0.349051 0.391183 0.775140
O O11 0.279705 0.869764 0.679408
O O12 0.496353 0.148107 0.433065
O O13 0.589478 0.859745 0.055626
O O14 0.408460 0.492702 0.275488
O O15 0.500000 0.500000 0.500000
#
# Coordination Sequence:
#
# PCOD9036017 Si02
#       7
#     2   2   2   2   2   2   2
#     4  11  24  43  67 101 133 183 219 284 335 401
#     4  12  24  42  68 102 132 181 220 278 333 408
#     4  11  25  45  69  98 141 175 229 275 342 393
#     4  11  24  43  67  98 144 169 231 276 336 402
#     4  11  24  44  71 102 133 183 221 282 334 400
#     4  12  23  45  72  99 137 177 229 273 344 392
#     4  10  22  47  69  96 140 175 228 281 324 405
#
# _framework density 24.100555
#
# number of rings (size 3 to 8) (size 9 to 14) (size 15 to 20)
#    0.000    0.857    5.714    1.714    4.000    4.571 
#    2.571    1.429    0.000    0.000    0.000    0.000 
#    0.000    0.000    0.000    0.000    0.000    0.000 
#
# Total GULP energy -78442.883299 kJ/mol
# GULP energy per Si atom -5603.063093 kJ/mol
# Density = 2.404570 g / cm^3
# Si number density = 24.100555 Si / 1000 Ang^3
#
#
#
# Elastic Constant Matrix: (Units=GPa)
#
#
# Indices 1 2 3 4 5 6 
#
# 1 82.4485 7.2885 18.3596 -13.8707 -3.1649 -1.7505
# 2 7.2885 71.2638 20.7386 -23.5856 -6.5929 -11.7794
# 3 18.3596 20.7386 115.4748 -2.8117 -11.6665 0.5733
# 4 -13.8707 -23.5856 -2.8117 39.5324 -7.4512 4.6920
# 5 -3.1649 -6.5929 -11.6665 -7.4512 23.7305 2.6439
# 6 -1.7505 -11.7794 0.5733 4.6920 2.6439 39.4454
#
#
#
# Elastic Compliance Matrix: (Units=1/GPa)
#
#
# Indices 1 2 3 4 5 6 
#
# 1 0.013586 0.001525 -0.001965 0.006118 0.003174 0.000146
# 2 0.001525 0.020717 -0.002792 0.013808 0.008467 0.004085
# 3 -0.001965 -0.002792 0.009831 -0.000820 0.003673 -0.001213
# 4 0.006118 0.013808 -0.000820 0.038912 0.016616 -0.001336
# 5 0.003174 0.008467 0.003673 0.016616 0.052258 -0.002863
# 6 0.000146 0.004085 -0.001213 -0.001336 -0.002863 0.026946
#
#
# Mechanical properties :
#
#
# Convention : Reuss Voigt Hill
#
# Bulk Modulus (GPa) = 26.54621 40.21784 33.38202
# Shear Modulus (GPa) = 27.58313 35.39502 31.48908
#
# Velocity S-wave (km/s) = 3.38672 3.83644 3.61857
# Velocity P-wave (km/s) = 5.13146 6.02894 5.59821
#
# Compressibility (1/GPa) = 0.03767016
#
# Stress axis : x y z
#
# Youngs Moduli (GPa) = 73.60672 48.26903 101.72051
#
# Poissons Ratio (x) = -0.07361 0.19988
# Poissons Ratio (y) = -0.11225 0.28398
# Poissons Ratio (z) = 0.14464 0.13476
#
# Static dielectric constant tensor:
#      x y z
#    x 1.890910 -0.016450 -0.018630 
#    y -0.016450 1.919930 0.020630 
#    z -0.018630 0.020630 1.934450 
# 
# From -- ./inp_files/171038.got.cif
#   From: 2010.05.17/outbox.cif.g08.bks.cpg/sg2_86_cif.got.tgz:171038.got - 2010.06.03 11:33:40.
