data_PCOD9036772
_publ_section_title
;
Structure prediction by ZEFSAII (Michael W. Deem and Ramdas Pophale) SiO2 
 PCOD9036772
Probable space group: P -1
;
_chemical_formula_sum "Si O2"
_cell_formula_units_Z 16
_cell_length_a 14.960722
_cell_length_b 15.390761
_cell_length_c 14.575951
_cell_angle_alpha 39.808618
_cell_angle_beta 159.898252
_cell_angle_gamma 140.263989
_cell_volume 721.003296
_symmetry_space_group_name_H-M "P -1"
_symmetry_group_IT_number 2
_symmetry_cell_setting 'triclinic'
loop_
_space_group_symop_operation_xyz
x,y,z
-x,-y,-z
loop_
_atom_site_type_symbol
_atom_site_label
_atom_site_fract_x
_atom_site_fract_y
_atom_site_fract_z
Si Si1 0.789305 0.567712 0.685139
Si Si2 0.794728 0.997552 0.096353
Si Si3 0.064657 0.482451 0.340274
Si Si4 0.458229 0.843908 0.555058
Si Si5 0.711055 0.440108 0.310048
Si Si6 0.882149 0.132205 0.251374
Si Si7 0.758910 0.179889 0.291576
Si Si8 0.035224 0.223134 0.001016
O O1 0.500000 0.500000 0.500000
O O2 0.800944 0.541740 0.607603
O O3 0.885383 0.733865 0.655409
O O4 0.000000 0.500000 0.000000
O O5 0.994235 0.893920 0.390972
O O6 0.717395 0.077026 0.047164
O O7 0.517735 0.906854 0.863919
O O8 0.967222 0.123409 0.102767
O O9 0.262195 0.521350 0.586515
O O10 0.927604 0.612255 0.083537
O O11 0.853574 0.341287 0.276816
O O12 0.362894 0.726466 0.634437
O O13 0.227773 0.818647 0.279089
O O14 0.500000 0.000000 0.500000
O O15 0.722061 0.812443 0.790963
O O16 0.000000 0.500000 0.500000
O O17 0.500000 0.500000 0.000000
O O18 0.726189 0.175935 0.152065
O O19 0.000000 0.000000 0.500000
#
# Coordination Sequence:
#
# PCOD9036772 Si02
#       8
#     2   2   2   2   2   2   2   2
#     4  11  25  42  67 100 136 185 230 274 334 397
#     4  11  22  39  62  94 127 170 222 265 321 396
#     4  10  25  45  67  99 140 174 226 284 331 401
#     4  11  25  46  67  94 128 162 208 269 333 401
#     4  11  25  44  69  98 130 177 223 275 343 402
#     4   9  21  39  60  88 132 175 218 269 324 383
#     4  10  23  39  61  92 130 175 217 271 326 381
#     4  11  24  42  67  95 126 168 208 267 335 387
#
# _framework density 22.191299000000001
#
# number of rings (size 3 to 8) (size 9 to 14) (size 15 to 20)
#    0.000    1.500    0.000    3.750    0.000   21.000 
#    0.000    0.000    0.000    0.000    0.000    0.000 
#    0.000    0.000    0.000    0.000    0.000    0.000 
#
# Total GULP energy -89455.822394 kJ/mol
# GULP energy per Si atom -5590.988900 kJ/mol
# Density = 2.214079 g / cm^3
# Si number density = 22.191299 Si / 1000 Ang^3
#
#
#
# Elastic Constant Matrix: (Units=GPa)
#
#
# Indices 1 2 3 4 5 6 
#
# 1 69.7456 47.1652 36.0172 3.3677 -2.9210 10.0232
# 2 47.1652 215.3882 57.0225 -18.2927 2.4700 5.6797
# 3 36.0172 57.0225 114.7372 11.7201 15.1268 5.7121
# 4 3.3677 -18.2927 11.7201 33.5708 7.6815 -2.6144
# 5 -2.9210 2.4700 15.1268 7.6815 29.8299 -1.0520
# 6 10.0232 5.6797 5.7121 -2.6144 -1.0520 32.0396
#
#
#
# Elastic Compliance Matrix: (Units=1/GPa)
#
#
# Indices 1 2 3 4 5 6 
#
# 1 0.020245 -0.003447 -0.004716 -0.003910 0.005489 -0.005020
# 2 -0.003447 0.006502 -0.002593 0.005045 -0.000833 0.000772
# 3 -0.004716 -0.002593 0.012695 -0.004146 -0.005647 -0.000852
# 4 -0.003910 0.005045 -0.004146 0.036493 -0.007962 0.003784
# 5 0.005489 -0.000833 -0.005647 -0.007962 0.039046 0.000070
# 6 -0.005020 0.000772 -0.000852 0.003784 0.000070 0.033108
#
#
# Mechanical properties :
#
#
# Convention : Reuss Voigt Hill
#
# Bulk Modulus (GPa) = 55.77681 75.58675 65.68178
# Shear Modulus (GPa) = 28.47743 36.39913 32.43828
#
# Velocity S-wave (km/s) = 3.58616 4.05439 3.82744
# Velocity P-wave (km/s) = 6.50665 7.48684 7.01389
#
# Compressibility (1/GPa) = 0.01792860
#
# Stress axis : x y z
#
# Youngs Moduli (GPa) = 49.39607 153.80465 78.76957
#
# Poissons Ratio (x) = 0.53018 0.37149
# Poissons Ratio (y) = 0.17027 0.20426
# Poissons Ratio (z) = 0.23296 0.39884
#
# Static dielectric constant tensor:
#      x y z
#    x 1.889200 0.014420 -0.018380 
#    y 0.014420 1.832480 -0.000550 
#    z -0.018380 -0.000550 1.788980 
# 
# From -- ./inp_files/124875.got.cif
#   From: 2010.05.17/outbox.cif.g08.bks.cpg/sg2_63_cif.got.tgz:124875.got - 2010.06.03 11:33:40.
