data_PCOD9036666
_publ_section_title
;
Structure prediction by ZEFSAII (Michael W. Deem and Ramdas Pophale) SiO2 
 PCOD9036666
Probable space group: P -1
;
_chemical_formula_sum "Si O2"
_cell_formula_units_Z 14
_cell_length_a 9.068353
_cell_length_b 9.030723
_cell_length_c 7.922419
_cell_angle_alpha 71.074296
_cell_angle_beta 70.343014
_cell_angle_gamma 79.815844
_cell_volume 576.285314
_symmetry_space_group_name_H-M "P -1"
_symmetry_group_IT_number 2
_symmetry_cell_setting 'triclinic'
loop_
_space_group_symop_operation_xyz
x,y,z
-x,-y,-z
loop_
_atom_site_type_symbol
_atom_site_label
_atom_site_fract_x
_atom_site_fract_y
_atom_site_fract_z
Si Si1 0.557415 0.320434 0.072616
Si Si2 0.154323 0.191863 0.795455
Si Si3 0.016157 0.246908 0.202276
Si Si4 0.305628 0.910300 0.652123
Si Si5 0.810504 0.210882 0.765234
Si Si6 0.312678 0.082592 0.250312
Si Si7 0.871090 0.478033 0.412593
O O1 0.592308 0.246558 0.271008
O O2 0.431826 0.204467 0.093370
O O3 0.500000 0.500000 0.000000
O O4 0.723083 0.292413 0.926724
O O5 0.219095 0.353975 0.645653
O O6 0.991416 0.174482 0.761602
O O7 0.270002 0.040004 0.766434
O O8 0.099370 0.222633 0.997951
O O9 0.866646 0.145553 0.301660
O O10 0.955148 0.418130 0.229357
O O11 0.147442 0.182236 0.309199
O O12 0.366440 0.998137 0.433901
O O13 0.785838 0.333450 0.575268
O O14 0.729381 0.055014 0.806628
O O15 0.000000 0.500000 0.500000
#
# Coordination Sequence:
#
# PCOD9036666 Si02
#       7
#     2   2   2   2   2   2   2
#     4  12  30  47  70  99 147 191 234 292 354 428
#     4  11  23  40  76 108 143 179 236 304 350 410
#     4  12  22  42  76 108 140 182 238 297 353 414
#     4  12  24  48  75 106 141 182 242 290 358 418
#     4  11  22  46  68 103 145 187 238 287 357 420
#     4  12  25  45  73 105 141 192 233 288 359 426
#     4  10  23  38  67 111 143 178 229 303 348 406
#
# _framework density 24.293520999999998
#
# number of rings (size 3 to 8) (size 9 to 14) (size 15 to 20)
#    0.000    0.571    4.286    4.714    6.000    1.143 
#    0.000    0.714    0.000    0.000    0.000    0.000 
#    0.000    0.000    0.000    0.000    0.000    0.000 
#
# Total GULP energy -78324.916081 kJ/mol
# GULP energy per Si atom -5594.636863 kJ/mol
# Density = 2.423823 g / cm^3
# Si number density = 24.293521 Si / 1000 Ang^3
#
#
#
# Elastic Constant Matrix: (Units=GPa)
#
#
# Indices 1 2 3 4 5 6 
#
# 1 63.7519 24.6888 8.1914 -20.7331 -2.1273 -7.3656
# 2 24.6888 146.3273 45.4492 -25.7370 4.3529 -11.3766
# 3 8.1914 45.4492 107.3930 -16.3946 14.1130 0.9982
# 4 -20.7331 -25.7370 -16.3946 49.0676 0.8669 7.6423
# 5 -2.1273 4.3529 14.1130 0.8669 29.3785 -5.9308
# 6 -7.3656 -11.3766 0.9982 7.6423 -5.9308 32.4314
#
#
#
# Elastic Compliance Matrix: (Units=1/GPa)
#
#
# Indices 1 2 3 4 5 6 
#
# 1 0.018909 -0.001933 0.000114 0.006606 0.001891 0.002402
# 2 -0.001933 0.008751 -0.003296 0.002306 0.000541 0.002288
# 3 0.000114 -0.003296 0.011965 0.002935 -0.006002 -0.003288
# 4 0.006606 0.002306 0.002935 0.026110 -0.002947 -0.004473
# 5 0.001891 0.000541 -0.006002 -0.002947 0.038800 0.008594
# 6 0.002402 0.002288 -0.003288 -0.004473 0.008594 0.034909
#
#
# Mechanical properties :
#
#
# Convention : Reuss Voigt Hill
#
# Bulk Modulus (GPa) = 34.02118 52.68124 43.35121
# Shear Modulus (GPa) = 31.35278 38.11835 34.73556
#
# Velocity S-wave (km/s) = 3.59636 3.96545 3.78541
# Velocity P-wave (km/s) = 5.59283 6.53443 6.08188
#
# Compressibility (1/GPa) = 0.02939346
#
# Stress axis : x y z
#
# Youngs Moduli (GPa) = 52.88501 114.26672 83.57479
#
# Poissons Ratio (x) = 0.22090 -0.00949
# Poissons Ratio (y) = 0.10224 0.27550
# Poissons Ratio (z) = -0.00600 0.37668
#
# Static dielectric constant tensor:
#      x y z
#    x 1.974530 0.006710 0.037730 
#    y 0.006710 1.938030 -0.023340 
#    z 0.037730 -0.023340 2.005850 
# 
# From -- ./inp_files/157204.got.cif
#   From: 2010.05.17/outbox.cif.g08.bks.cpg/sg2_79_cif.got.tgz:157204.got - 2010.06.03 11:33:40.
