data_PCOD9036152
_publ_section_title
;
Structure prediction by ZEFSAII (Michael W. Deem and Ramdas Pophale) SiO2 
 PCOD9036152
Probable space group: P -1
;
_chemical_formula_sum "Si O2"
_cell_formula_units_Z 16
_cell_length_a 7.913847
_cell_length_b 22.632202
_cell_length_c 9.098596
_cell_angle_alpha 49.065229
_cell_angle_beta 53.790947
_cell_angle_gamma 36.138376
_cell_volume 719.060767
_symmetry_space_group_name_H-M "P -1"
_symmetry_group_IT_number 2
_symmetry_cell_setting 'triclinic'
loop_
_space_group_symop_operation_xyz
x,y,z
-x,-y,-z
loop_
_atom_site_type_symbol
_atom_site_label
_atom_site_fract_x
_atom_site_fract_y
_atom_site_fract_z
Si Si1 0.489666 0.038316 0.602382
Si Si2 0.177872 0.262937 0.286788
Si Si3 0.981213 0.088547 0.287278
Si Si4 0.312230 0.257804 0.886363
Si Si5 0.361465 0.559142 0.133697
Si Si6 0.785092 0.009218 0.991615
Si Si7 0.458811 0.648864 0.547024
Si Si8 0.414631 0.337604 0.202617
O O1 0.410855 0.148105 0.437320
O O2 0.500000 0.000000 0.500000
O O3 0.776129 0.932846 0.705035
O O4 0.253855 0.062381 0.789443
O O5 0.161724 0.347257 0.252606
O O6 0.883091 0.287462 0.382052
O O7 0.295273 0.253670 0.079026
O O8 0.701818 0.212851 0.231438
O O9 0.088351 0.042821 0.145100
O O10 0.000000 0.000000 0.500000
O O11 0.506838 0.137721 0.915855
O O12 0.451305 0.304492 0.684974
O O13 0.979169 0.337469 0.876285
O O14 0.397675 0.473135 0.355335
O O15 0.500000 0.500000 0.000000
O O16 0.536189 0.593524 0.021063
O O17 0.000000 0.000000 0.000000
O O18 0.572753 0.647430 0.652976
#
# Coordination Sequence:
#
# PCOD9036152 Si02
#       8
#     2   2   2   2   2   2   2   2
#     4  12  23  41  63  95 141 186 231 285 343 416
#     4  12  24  44  70 103 143 186 234 289 352 419
#     4  12  23  42  65 100 141 181 231 279 345 421
#     4  12  23  46  75 100 143 187 233 294 356 420
#     4  10  22  47  76  99 135 187 234 296 369 410
#     4  12  25  42  68 104 142 184 233 283 349 429
#     4  11  25  48  72 103 137 185 238 297 359 419
#     4  11  23  45  72 100 145 184 234 292 352 421
#
# _framework density 22.251249000000001
#
# number of rings (size 3 to 8) (size 9 to 14) (size 15 to 20)
#    0.000    0.500    5.000    5.250    0.000    0.500 
#    2.250    0.625    0.000    0.000    0.000    0.000 
#    0.000    0.000    0.000    0.000    0.000    0.000 
#
# Total GULP energy -89326.477562 kJ/mol
# GULP energy per Si atom -5582.904848 kJ/mol
# Density = 2.220060 g / cm^3
# Si number density = 22.251249 Si / 1000 Ang^3
#
#
#
# Elastic Constant Matrix: (Units=GPa)
#
#
# Indices 1 2 3 4 5 6 
#
# 1 57.5526 -10.0268 20.1273 4.6884 -6.3831 11.3579
# 2 -10.0268 67.8583 14.2005 -16.9031 1.3540 -0.8957
# 3 20.1273 14.2005 170.3293 -8.0401 -19.6805 14.5584
# 4 4.6884 -16.9031 -8.0401 36.4085 10.5494 -5.6719
# 5 -6.3831 1.3540 -19.6805 10.5494 41.3252 -7.9200
# 6 11.3579 -0.8957 14.5584 -5.6719 -7.9200 29.2816
#
#
#
# Elastic Compliance Matrix: (Units=1/GPa)
#
#
# Indices 1 2 3 4 5 6 
#
# 1 0.020354 0.002418 -0.001976 -0.003519 0.001667 -0.007070
# 2 0.002418 0.017690 -0.001818 0.008581 -0.003003 0.001357
# 3 -0.001976 -0.001818 0.006718 -0.000170 0.002623 -0.001953
# 4 -0.003519 0.008581 -0.000170 0.035365 -0.008746 0.006197
# 5 0.001667 -0.003003 0.002623 -0.008746 0.028814 0.004057
# 6 -0.007070 0.001357 -0.001953 0.006197 0.004057 0.040203
#
#
# Mechanical properties :
#
#
# Convention : Reuss Voigt Hill
#
# Bulk Modulus (GPa) = 23.80434 38.26024 31.03229
# Shear Modulus (GPa) = 30.13855 39.49900 34.81878
#
# Velocity S-wave (km/s) = 3.68430 4.21781 3.96005
# Velocity P-wave (km/s) = 5.36842 6.39936 5.90643
#
# Compressibility (1/GPa) = 0.04200915
#
# Stress axis : x y z
#
# Youngs Moduli (GPa) = 49.12924 56.52991 148.85333
#
# Poissons Ratio (x) = -0.13668 0.29414
# Poissons Ratio (y) = -0.11879 0.27068
# Poissons Ratio (z) = 0.09708 0.10279
#
# Static dielectric constant tensor:
#      x y z
#    x 2.174190 -0.161130 -0.130240 
#    y -0.161130 1.870200 0.005460 
#    z -0.130240 0.005460 1.843360 
# 
# From -- ./inp_files/226092.got.cif
#   From: 2010.05.17/outbox.cif.g08.bks.cpg/sg2_114_cif.got.tgz:226092.got - 2010.06.03 11:33:40.
