data_PCOD9036340
_publ_section_title
;
Structure prediction by ZEFSAII (Michael W. Deem and Ramdas Pophale) SiO2 
 PCOD9036340
Probable space group: P -1
;
_chemical_formula_sum "Si O2"
_cell_formula_units_Z 14
_cell_length_a 8.797612
_cell_length_b 4.934073
_cell_length_c 14.910766
_cell_angle_alpha 92.975666
_cell_angle_beta 125.438299
_cell_angle_gamma 85.601542
_cell_volume 525.763439
_symmetry_space_group_name_H-M "P -1"
_symmetry_group_IT_number 2
_symmetry_cell_setting 'triclinic'
loop_
_space_group_symop_operation_xyz
x,y,z
-x,-y,-z
loop_
_atom_site_type_symbol
_atom_site_label
_atom_site_fract_x
_atom_site_fract_y
_atom_site_fract_z
Si Si1 0.775487 0.261396 0.686773
Si Si2 0.134378 0.957002 0.756200
Si Si3 0.488996 0.236002 0.928454
Si Si4 0.545696 0.762796 0.655990
Si Si5 0.067124 0.585559 0.899603
Si Si6 0.132770 0.741714 0.563565
Si Si7 0.254521 0.176089 0.094610
O O1 0.658518 0.539781 0.629592
O O2 0.920115 0.371100 0.811393
O O3 0.926595 0.096660 0.674375
O O4 0.625661 0.052750 0.664778
O O5 0.130169 0.766469 0.840286
O O6 0.185057 0.768530 0.686331
O O7 0.284749 0.189671 0.815932
O O8 0.650005 0.110912 0.912300
O O9 0.500000 0.500000 0.000000
O O10 0.209644 0.391113 0.002990
O O11 0.500000 0.000000 0.000000
O O12 0.325745 0.738558 0.574880
O O13 0.604125 0.717697 0.779886
O O14 0.941484 0.800492 0.919050
O O15 0.000000 0.500000 0.500000
O O16 0.000000 0.000000 0.500000
#
# Coordination Sequence:
#
# PCOD9036340 Si02
#       7
#     2   2   2   2   2   2   2
#     4  11  23  45  79 113 161 208 258 314 404 469
#     4  12  27  52  81 116 166 205 272 340 396 472
#     4  12  30  47  72 114 168 218 272 317 393 484
#     4  11  24  51  79 112 159 210 262 326 400 481
#     4  10  24  46  82 118 162 222 263 323 393 483
#     4  12  30  56  87 116 152 207 274 344 422 470
#     4  10  22  50  75 114 170 216 268 307 395 489
#
# _framework density 26.627942999999998
#
# number of rings (size 3 to 8) (size 9 to 14) (size 15 to 20)
#    0.000    0.857    4.286    1.714    6.000    4.000 
#    5.143    5.000    0.000    0.000    0.000    0.000 
#    0.000    0.000    0.000    0.000    0.000    0.000 
#
# Total GULP energy -78327.316032 kJ/mol
# GULP energy per Si atom -5594.808288 kJ/mol
# Density = 2.656734 g / cm^3
# Si number density = 26.627943 Si / 1000 Ang^3
#
#
#
# Elastic Constant Matrix: (Units=GPa)
#
#
# Indices 1 2 3 4 5 6 
#
# 1 199.1320 59.4730 33.7380 31.3045 9.0471 -6.3144
# 2 59.4730 181.8146 35.5907 34.2797 7.2972 9.8097
# 3 33.7380 35.5907 97.2273 19.7964 0.3380 6.1151
# 4 31.3045 34.2797 19.7964 43.1045 -3.5180 7.7261
# 5 9.0471 7.2972 0.3380 -3.5180 48.8978 10.0973
# 6 -6.3144 9.8097 6.1151 7.7261 10.0973 47.9844
#
#
#
# Elastic Compliance Matrix: (Units=1/GPa)
#
#
# Indices 1 2 3 4 5 6 
#
# 1 0.006285 -0.001202 -0.001136 -0.003610 -0.001680 0.002152
# 2 -0.001202 0.006980 -0.001270 -0.004076 -0.000988 -0.000559
# 3 -0.001136 -0.001270 0.011902 -0.003449 0.000256 -0.000905
# 4 -0.003610 -0.004076 -0.003449 0.031988 0.004705 -0.005343
# 5 -0.001680 -0.000988 0.000256 0.004705 0.022386 -0.005520
# 6 0.002152 -0.000559 -0.000905 -0.005343 -0.005520 0.023375
#
#
# Mechanical properties :
#
#
# Convention : Reuss Voigt Hill
#
# Bulk Modulus (GPa) = 55.69880 81.75304 68.72592
# Shear Modulus (GPa) = 43.06102 51.28881 47.17492
#
# Velocity S-wave (km/s) = 4.02573 4.39353 4.21364
# Velocity P-wave (km/s) = 6.52468 7.51705 7.03838
#
# Compressibility (1/GPa) = 0.01795371
#
# Stress axis : x y z
#
# Youngs Moduli (GPa) = 159.10387 143.26696 84.01800
#
# Poissons Ratio (x) = 0.17216 0.09540
# Poissons Ratio (y) = 0.19119 0.10667
# Poissons Ratio (z) = 0.18067 0.18190
#
# Static dielectric constant tensor:
#      x y z
#    x 2.200120 -0.013830 -0.003050 
#    y -0.013830 2.047660 0.020990 
#    z -0.003050 0.020990 2.295670 
# 
# From -- ./inp_files/488656.got.cif
#   From: 2010.05.17/outbox.cif.g08.bks.cpg/sg2_245_cif.got.tgz:488656.got - 2010.06.03 11:33:40.
