data_PCOD9036399
_publ_section_title
;
Structure prediction by ZEFSAII (Michael W. Deem and Ramdas Pophale) SiO2 
 PCOD9036399
Probable space group: P -1
;
_chemical_formula_sum "Si O2"
_cell_formula_units_Z 12
_cell_length_a 9.411823
_cell_length_b 10.881608
_cell_length_c 10.163082
_cell_angle_alpha 103.360989
_cell_angle_beta 118.878043
_cell_angle_gamma 126.266157
_cell_volume 500.709091
_symmetry_space_group_name_H-M "P -1"
_symmetry_group_IT_number 2
_symmetry_cell_setting 'triclinic'
loop_
_space_group_symop_operation_xyz
x,y,z
-x,-y,-z
loop_
_atom_site_type_symbol
_atom_site_label
_atom_site_fract_x
_atom_site_fract_y
_atom_site_fract_z
Si Si1 0.785412 0.740245 0.539279
Si Si2 0.335572 0.467449 0.034879
Si Si3 0.192728 0.501429 0.608435
Si Si4 0.352654 0.932233 0.620156
Si Si5 0.701367 0.951385 0.637361
Si Si6 0.448609 0.174256 0.926718
O O1 0.545174 0.594407 0.283920
O O2 0.791563 0.591521 0.524998
O O3 0.705909 0.803305 0.617016
O O4 0.112012 0.988318 0.707001
O O5 0.340776 0.613174 0.021723
O O6 0.500000 0.500000 0.000000
O O7 0.023958 0.212207 0.862754
O O8 0.000000 0.500000 0.500000
O O9 0.989336 0.296763 0.571307
O O10 0.470924 0.730947 0.866920
O O11 0.395653 0.062868 0.555712
O O12 0.491744 0.891084 0.626200
O O13 0.472464 0.049673 0.845967
#
# Coordination Sequence:
#
# PCOD9036399 Si02
#       6
#     2   2   2   2   2   2
#     4  11  21  34  60  87 116 147 189 238 284 340
#     4  12  18  31  58  91 118 144 185 232 292 345
#     4  11  24  41  60  82 111 157 202 233 273 335
#     4  10  23  36  56  87 124 149 181 236 290 342
#     4  11  21  35  56  92 122 146 179 235 300 340
#     4  11  20  36  59  86 116 150 189 237 282 335
#
# _framework density 23.966011000000002
#
# number of rings (size 3 to 8) (size 9 to 14) (size 15 to 20)
#    0.000    1.000    6.667    1.500    0.000    4.667 
#    0.000    0.833    0.000    5.000    0.000    0.000 
#    0.000    0.000    0.000    0.000    0.000    0.000 
#
# Total GULP energy -66908.657048 kJ/mol
# GULP energy per Si atom -5575.721421 kJ/mol
# Density = 2.391146 g / cm^3
# Si number density = 23.966011 Si / 1000 Ang^3
#
#
#
# Elastic Constant Matrix: (Units=GPa)
#
#
# Indices 1 2 3 4 5 6 
#
# 1 141.6293 29.8112 30.7222 31.9397 -7.2508 -26.2362
# 2 29.8112 47.4827 12.3626 13.7649 -5.0778 -10.1387
# 3 30.7222 12.3626 143.6292 34.0832 -3.9584 -7.3678
# 4 31.9397 13.7649 34.0832 23.7970 -10.3775 2.9184
# 5 -7.2508 -5.0778 -3.9584 -10.3775 28.2523 12.3114
# 6 -26.2362 -10.1387 -7.3678 2.9184 12.3114 48.7727
#
#
#
# Elastic Compliance Matrix: (Units=1/GPa)
#
#
# Indices 1 2 3 4 5 6 
#
# 1 0.018313 0.002482 0.007760 -0.048221 -0.019961 0.019463
# 2 0.002482 0.030092 0.005836 -0.036212 -0.012443 0.013780
# 3 0.007760 0.005836 0.016251 -0.047101 -0.018684 0.015377
# 4 -0.048221 -0.036212 -0.047101 0.249335 0.101446 -0.081109
# 5 -0.019961 -0.012443 -0.018684 0.101446 0.081306 -0.042740
# 6 0.019463 0.013780 0.015377 -0.081109 -0.042740 0.051803
#
#
# Mechanical properties :
#
#
# Convention : Reuss Voigt Hill
#
# Bulk Modulus (GPa) = 10.32915 53.17036 31.74976
# Shear Modulus (GPa) = 11.18035 37.48741 24.33388
#
# Velocity S-wave (km/s) = 2.16222 3.95928 3.18991
# Velocity P-wave (km/s) = 3.24852 6.56773 5.18112
#
# Compressibility (1/GPa) = 0.09681337
#
# Stress axis : x y z
#
# Youngs Moduli (GPa) = 54.60552 33.23168 61.53485
#
# Poissons Ratio (x) = -0.08249 -0.47754
# Poissons Ratio (y) = -0.13554 -0.35912
# Poissons Ratio (z) = -0.42376 -0.19394
#
# Static dielectric constant tensor:
#      x y z
#    x 1.949940 -0.080110 -0.046850 
#    y -0.080110 2.013860 -0.012480 
#    z -0.046850 -0.012480 1.906460 
# 
# From -- ./inp_files/18289.got.cif
#   From: 2010.05.17/outbox.cif.g08.bks.cpg/sg2_10_cif.got.tgz:18289.got - 2010.06.03 11:33:40.
