data_PCOD9036374
_publ_section_title
;
Structure prediction by ZEFSAII (Michael W. Deem and Ramdas Pophale) SiO2 
 PCOD9036374
Probable space group: P -1
;
_chemical_formula_sum "Si O2"
_cell_formula_units_Z 14
_cell_length_a 15.835562
_cell_length_b 12.225846
_cell_length_c 15.710802
_cell_angle_alpha 129.530913
_cell_angle_beta 161.696800
_cell_angle_gamma 53.484433
_cell_volume 736.205516
_symmetry_space_group_name_H-M "P -1"
_symmetry_group_IT_number 2
_symmetry_cell_setting 'triclinic'
loop_
_space_group_symop_operation_xyz
x,y,z
-x,-y,-z
loop_
_atom_site_type_symbol
_atom_site_label
_atom_site_fract_x
_atom_site_fract_y
_atom_site_fract_z
Si Si1 0.533387 0.543127 0.301555
Si Si2 0.687575 0.868196 0.632633
Si Si3 0.885419 0.887849 0.650836
Si Si4 0.279485 0.367310 0.209480
Si Si5 0.014326 0.519878 0.172835
Si Si6 0.621957 0.931662 0.787574
Si Si7 0.734237 0.564758 0.314540
O O1 0.548741 0.712045 0.418261
O O2 0.656963 0.524175 0.317493
O O3 0.711866 0.462571 0.502449
O O4 0.222075 0.501614 0.995733
O O5 0.897964 0.867603 0.756011
O O6 0.764518 0.889403 0.814198
O O7 0.500000 0.000000 0.500000
O O8 0.780830 0.735080 0.441305
O O9 0.660368 0.000248 0.469063
O O10 0.169850 0.948026 0.917656
O O11 0.500000 0.500000 0.500000
O O12 0.409018 0.215351 0.264508
O O13 0.073237 0.388493 0.101051
O O14 0.106587 0.375766 0.961705
O O15 0.000000 0.500000 0.500000
O O16 0.500000 0.500000 0.000000
#
# Coordination Sequence:
#
# PCOD9036374 Si02
#       7
#     2   2   2   2   2   2   2
#     4  11  22  37  57  86 115 155 193 240 291 348
#     4   9  19  31  50  76 120 153 183 211 271 355
#     4  10  23  35  54  86 112 152 194 226 296 355
#     4  11  23  35  56  84 127 168 202 229 270 332
#     4  11  22  35  54  82 122 154 205 229 272 335
#     4  11  21  34  54  81 124 157 184 230 276 342
#     4  11  23  43  66  87 115 145 197 259 301 349
#
# _framework density 19.016428000000001
#
# number of rings (size 3 to 8) (size 9 to 14) (size 15 to 20)
#    0.000    1.429    2.857    2.143    8.000    5.714 
#    0.000    0.000    0.000    0.000    0.000   20.000 
#    0.000    0.000    0.000    0.000    0.000    0.000 
#
# Total GULP energy -78023.528916 kJ/mol
# GULP energy per Si atom -5573.109208 kJ/mol
# Density = 1.897315 g / cm^3
# Si number density = 19.016428 Si / 1000 Ang^3
#
#
#
# Elastic Constant Matrix: (Units=GPa)
#
#
# Indices 1 2 3 4 5 6 
#
# 1 68.5407 26.6565 21.1068 -3.9541 -5.4540 -9.7738
# 2 26.6565 68.7873 4.6109 -12.5769 -11.5145 12.1361
# 3 21.1068 4.6109 76.1126 -7.7278 0.6634 3.6264
# 4 -3.9541 -12.5769 -7.7278 25.6870 -2.7382 -3.4353
# 5 -5.4540 -11.5145 0.6634 -2.7382 32.5534 -5.7156
# 6 -9.7738 12.1361 3.6264 -3.4353 -5.7156 27.2558
#
#
#
# Elastic Compliance Matrix: (Units=1/GPa)
#
#
# Indices 1 2 3 4 5 6 
#
# 1 0.022980 -0.010849 -0.006578 -0.001575 0.002521 0.014277
# 2 -0.010849 0.023306 0.003115 0.009546 0.004982 -0.012435
# 3 -0.006578 0.003115 0.015482 0.004345 -0.000907 -0.005448
# 4 -0.001575 0.009546 0.004345 0.045687 0.007196 0.001874
# 5 0.002521 0.004982 -0.000907 0.007196 0.034756 0.007002
# 6 0.014277 -0.012435 -0.005448 0.001874 0.007002 0.049775
#
#
# Mechanical properties :
#
#
# Convention : Reuss Voigt Hill
#
# Bulk Modulus (GPa) = 30.17018 35.35432 32.76225
# Shear Modulus (GPa) = 21.58338 27.83702 24.71020
#
# Velocity S-wave (km/s) = 3.37261 3.83017 3.60865
# Velocity P-wave (km/s) = 5.57367 6.17997 5.88463
#
# Compressibility (1/GPa) = 0.03314531
#
# Stress axis : x y z
#
# Youngs Moduli (GPa) = 43.51521 42.90668 64.58945
#
# Poissons Ratio (x) = 0.46551 0.42484
# Poissons Ratio (y) = 0.47211 -0.20120
# Poissons Ratio (z) = 0.28623 -0.13366
#
# Static dielectric constant tensor:
#      x y z
#    x 1.700470 0.036730 0.009430 
#    y 0.036730 1.673060 0.013700 
#    z 0.009430 0.013700 1.693230 
# 
# From -- ./inp_files/62561.got.cif
#   From: 2010.05.17/outbox.cif.g08.bks.cpg/sg2_32_cif.got.tgz:62561.got - 2010.06.03 11:33:40.
