data_PCOD9036909
_publ_section_title
;
Structure prediction by ZEFSAII (Michael W. Deem and Ramdas Pophale) SiO2 
 PCOD9036909
Probable space group: P -1
;
_chemical_formula_sum "Si O2"
_cell_formula_units_Z 16
_cell_length_a 7.937520
_cell_length_b 17.731548
_cell_length_c 21.862548
_cell_angle_alpha 152.638499
_cell_angle_beta 140.648289
_cell_angle_gamma 30.093967
_cell_volume 708.957186
_symmetry_space_group_name_H-M "P -1"
_symmetry_group_IT_number 2
_symmetry_cell_setting 'triclinic'
loop_
_space_group_symop_operation_xyz
x,y,z
-x,-y,-z
loop_
_atom_site_type_symbol
_atom_site_label
_atom_site_fract_x
_atom_site_fract_y
_atom_site_fract_z
Si Si1 0.998373 0.264120 0.022601
Si Si2 0.777551 0.484234 0.000686
Si Si3 0.228220 0.792858 0.605878
Si Si4 0.538613 0.583799 0.418050
Si Si5 0.718872 0.731792 0.462559
Si Si6 0.167605 0.180838 0.681153
Si Si7 0.161265 0.791045 0.273333
Si Si8 0.386219 0.793337 0.787906
O O1 0.249656 0.286722 0.145007
O O2 0.606713 0.434458 0.048169
O O3 0.021241 0.296142 0.980257
O O4 0.120099 0.034293 0.904472
O O5 0.883005 0.375716 0.885668
O O6 0.758916 0.670737 0.160770
O O7 0.474031 0.684656 0.539304
O O8 0.384705 0.783947 0.707643
O O9 0.046955 0.688539 0.494565
O O10 0.952301 0.031083 0.679004
O O11 0.729978 0.622550 0.449765
O O12 0.702751 0.345177 0.305598
O O13 0.166830 0.688098 0.359840
O O14 0.529424 0.691586 0.330617
O O15 0.473737 0.979525 0.587483
O O16 0.071324 0.104061 0.656614
#
# Coordination Sequence:
#
# PCOD9036909 Si02
#       8
#     2   2   2   2   2   2   2   2
#     4  10  23  39  65  96 129 172 220 274 324 392
#     4  11  22  39  68  96 125 170 229 271 319 388
#     4  12  23  39  67  96 130 180 214 269 326 399
#     4  11  23  42  64  94 134 178 213 269 332 385
#     4  11  24  40  68  97 137 167 227 275 319 381
#     4  11  21  41  65  96 135 171 214 284 322 378
#     4  11  22  39  65  99 133 166 224 275 327 376
#     4  11  23  42  63  94 138 175 213 266 340 393
#
# _framework density 22.568358
#
# number of rings (size 3 to 8) (size 9 to 14) (size 15 to 20)
#    0.000    1.000    5.000    2.625    3.500    0.500 
#    0.000    0.000    0.000    3.750    0.000    0.000 
#    0.000    0.000    0.000    0.000    0.000    0.000 
#
# Total GULP energy -89427.400208 kJ/mol
# GULP energy per Si atom -5589.212513 kJ/mol
# Density = 2.251699 g / cm^3
# Si number density = 22.568358 Si / 1000 Ang^3
#
#
#
# Elastic Constant Matrix: (Units=GPa)
#
#
# Indices 1 2 3 4 5 6 
#
# 1 61.6881 45.7645 32.7617 -9.2344 2.8693 17.1250
# 2 45.7645 95.2563 29.6944 -17.0526 7.6664 21.9736
# 3 32.7617 29.6944 113.5635 -8.4661 7.4521 18.3643
# 4 -9.2344 -17.0526 -8.4661 41.7839 12.6302 5.6896
# 5 2.8693 7.6664 7.4521 12.6302 29.0674 2.7459
# 6 17.1250 21.9736 18.3643 5.6896 2.7459 32.4151
#
#
#
# Elastic Compliance Matrix: (Units=1/GPa)
#
#
# Indices 1 2 3 4 5 6 
#
# 1 0.028201 -0.010770 -0.004415 0.001344 0.001117 -0.005427
# 2 -0.010770 0.019880 0.000577 0.009371 -0.007538 -0.009120
# 3 -0.004415 0.000577 0.011151 0.003220 -0.003536 -0.004642
# 4 0.001344 0.009371 0.003220 0.035936 -0.017751 -0.013690
# 5 0.001117 -0.007538 -0.003536 -0.017751 0.044345 0.005882
# 6 -0.005427 -0.009120 -0.004642 -0.013690 0.005882 0.044433
#
#
# Mechanical properties :
#
#
# Convention : Reuss Voigt Hill
#
# Bulk Modulus (GPa) = 33.31545 54.10543 43.71044
# Shear Modulus (GPa) = 22.40457 31.47244 26.93850
#
# Velocity S-wave (km/s) = 3.15420 3.73840 3.45866
# Velocity P-wave (km/s) = 5.29711 6.53148 5.94641
#
# Compressibility (1/GPa) = 0.03001610
#
# Stress axis : x y z
#
# Youngs Moduli (GPa) = 35.45970 50.30093 89.67647
#
# Poissons Ratio (x) = 0.54173 0.39593
# Poissons Ratio (y) = 0.38189 -0.05171
# Poissons Ratio (z) = 0.15656 -0.02901
#
# Static dielectric constant tensor:
#      x y z
#    x 1.840690 0.006190 0.015700 
#    y 0.006190 1.843450 0.009530 
#    z 0.015700 0.009530 1.846950 
# 
# From -- ./inp_files/342723.got.cif
#   From: 2010.05.17/outbox.cif.g08.bks.cpg/sg2_172_cif.got.tgz:342723.got - 2010.06.03 11:33:40.
