data_PCOD9036102
_publ_section_title
;
Structure prediction by ZEFSAII (Michael W. Deem and Ramdas Pophale) SiO2 
 PCOD9036102
Probable space group: P -1
;
_chemical_formula_sum "Si O2"
_cell_formula_units_Z 16
_cell_length_a 7.597364
_cell_length_b 13.832836
_cell_length_c 9.125537
_cell_angle_alpha 124.208165
_cell_angle_beta 51.584515
_cell_angle_gamma 99.842556
_cell_volume 597.415973
_symmetry_space_group_name_H-M "P -1"
_symmetry_group_IT_number 2
_symmetry_cell_setting 'triclinic'
loop_
_space_group_symop_operation_xyz
x,y,z
-x,-y,-z
loop_
_atom_site_type_symbol
_atom_site_label
_atom_site_fract_x
_atom_site_fract_y
_atom_site_fract_z
Si Si1 0.245919 0.506515 0.557835
Si Si2 0.628558 0.231765 0.047142
Si Si3 0.207942 0.049104 0.988803
Si Si4 0.438698 0.195485 0.427554
Si Si5 0.024733 0.682759 0.570937
Si Si6 0.796880 0.981304 0.690026
Si Si7 0.329713 0.610474 0.094905
Si Si8 0.969506 0.659969 0.085002
O O1 0.500000 0.500000 0.500000
O O2 0.202645 0.589901 0.507329
O O3 0.543066 0.333597 0.051470
O O4 0.049316 0.583058 0.834221
O O5 0.551507 0.240013 0.264765
O O6 0.902447 0.231115 0.911850
O O7 0.154586 0.387967 0.464535
O O8 0.592966 0.109427 0.888145
O O9 0.416193 0.940299 0.712990
O O10 0.111886 0.196589 0.167527
O O11 0.208371 0.015489 0.130733
O O12 0.000000 0.000000 0.000000
O O13 0.223028 0.152617 0.439748
O O14 0.305467 0.293643 0.697767
O O15 0.193009 0.703150 0.369757
O O16 0.000000 0.000000 0.500000
O O17 0.122520 0.587387 0.079696
O O18 0.500000 0.500000 0.000000
#
# Coordination Sequence:
#
# PCOD9036102 Si02
#       8
#     2   2   2   2   2   2   2   2
#     4  11  27  51  84 117 165 228 272 342 421 493
#     4   9  21  39  74 109 156 203 267 320 405 491
#     4  11  26  46  75 118 160 208 262 345 418 483
#     4  11  23  45  79 120 155 213 265 337 412 494
#     4  11  26  52  75 122 169 208 285 345 411 501
#     4  11  20  42  73 112 150 206 266 321 409 493
#     4  10  22  47  73 114 163 210 272 345 405 483
#     4  10  23  45  78 117 150 213 277 321 412 500
#
# _framework density 26.782008999999999
#
# number of rings (size 3 to 8) (size 9 to 14) (size 15 to 20)
#    0.750    0.750    1.250    3.750    3.500    3.500 
#    9.000    2.500    0.000    0.000    0.000    0.000 
#    0.000    0.000    0.000    0.000    0.000    0.000 
#
# Total GULP energy -89118.686511 kJ/mol
# GULP energy per Si atom -5569.917907 kJ/mol
# Density = 2.672105 g / cm^3
# Si number density = 26.782009 Si / 1000 Ang^3
#
#
#
# Elastic Constant Matrix: (Units=GPa)
#
#
# Indices 1 2 3 4 5 6 
#
# 1 72.9342 38.0453 27.7295 20.6563 1.6535 1.9838
# 2 38.0453 122.2464 33.5470 12.3485 -11.8917 13.5917
# 3 27.7295 33.5470 185.0652 3.3617 -17.4195 23.6684
# 4 20.6563 12.3485 3.3617 70.0032 3.9127 -6.6826
# 5 1.6535 -11.8917 -17.4195 3.9127 31.1863 10.1869
# 6 1.9838 13.5917 23.6684 -6.6826 10.1869 26.0951
#
#
#
# Elastic Compliance Matrix: (Units=1/GPa)
#
#
# Indices 1 2 3 4 5 6 
#
# 1 0.019007 -0.006062 -0.003118 -0.003417 -0.006682 0.006274
# 2 -0.006062 0.012103 0.001022 -0.001957 0.009316 -0.010908
# 3 -0.003118 0.001022 0.007989 -0.001219 0.008867 -0.011315
# 4 -0.003417 -0.001957 -0.001219 0.016933 -0.006380 0.009212
# 5 -0.006682 0.009316 0.008867 -0.006380 0.053072 -0.034738
# 6 0.006274 -0.010908 -0.011315 0.009212 -0.034738 0.069709
#
#
# Mechanical properties :
#
#
# Convention : Reuss Voigt Hill
#
# Bulk Modulus (GPa) = 43.89349 64.32104 54.10726
# Shear Modulus (GPa) = 24.66392 44.18518 34.42455
#
# Velocity S-wave (km/s) = 3.03795 4.06619 3.58908
# Velocity P-wave (km/s) = 5.36006 6.79072 6.11736
#
# Compressibility (1/GPa) = 0.02278242
#
# Stress axis : x y z
#
# Youngs Moduli (GPa) = 52.61095 82.62350 125.16612
#
# Poissons Ratio (x) = 0.50087 0.39032
# Poissons Ratio (y) = 0.31893 -0.12789
# Poissons Ratio (z) = 0.16406 -0.08442
#
# Static dielectric constant tensor:
#      x y z
#    x 2.474290 0.082650 -0.070190 
#    y 0.082650 2.183080 0.169810 
#    z -0.070190 0.169810 2.193100 
# 
# From -- ./inp_files/217977.got.cif
#   From: 2010.05.17/outbox.cif.g08.bks.cpg/sg2_109_cif.got.tgz:217977.got - 2010.06.03 11:33:40.
