data_PCOD9036896
_publ_section_title
;
Structure prediction by ZEFSAII (Michael W. Deem and Ramdas Pophale) SiO2 
 PCOD9036896
Probable space group: P -1
;
_chemical_formula_sum "Si O2"
_cell_formula_units_Z 14
_cell_length_a 8.377152
_cell_length_b 20.647931
_cell_length_c 8.147025
_cell_angle_alpha 143.071106
_cell_angle_beta 50.853729
_cell_angle_gamma 143.114418
_cell_volume 508.065548
_symmetry_space_group_name_H-M "P -1"
_symmetry_group_IT_number 2
_symmetry_cell_setting 'triclinic'
loop_
_space_group_symop_operation_xyz
x,y,z
-x,-y,-z
loop_
_atom_site_type_symbol
_atom_site_label
_atom_site_fract_x
_atom_site_fract_y
_atom_site_fract_z
Si Si1 0.775412 0.560067 0.225755
Si Si2 0.671556 0.340995 0.070992
Si Si3 0.978517 0.191030 0.864591
Si Si4 0.703592 0.481744 0.674951
Si Si5 0.872125 0.184062 0.287070
Si Si6 0.477423 0.223111 0.486326
Si Si7 0.432224 0.083146 0.887330
O O1 0.617906 0.407523 0.095737
O O2 0.588947 0.563986 0.236504
O O3 0.862147 0.664744 0.532582
O O4 0.054340 0.622198 0.090390
O O5 0.726010 0.423616 0.371784
O O6 0.454039 0.178107 0.922553
O O7 0.203445 0.183357 0.645167
O O8 0.709709 0.108436 0.764680
O O9 0.091810 0.351814 0.116885
O O10 0.899772 0.140860 0.002563
O O11 0.683250 0.388030 0.643102
O O12 0.630968 0.189719 0.434396
O O13 0.806328 0.078718 0.260716
O O14 0.432249 0.149722 0.192908
#
# Coordination Sequence:
#
# PCOD9036896 Si02
#       7
#     2   2   2   2   2   2   2
#     4  11  24  40  66  93 123 162 208 255 308 365
#     4  10  23  41  66  88 126 166 203 255 308 360
#     4  11  22  37  66  92 126 160 204 258 307 360
#     4  11  23  39  64  97 126 153 211 260 307 360
#     4  11  25  41  63  93 128 162 207 251 306 369
#     4  10  23  39  65  94 121 166 204 255 308 364
#     4  10  24  43  61  93 127 163 207 253 302 371
#
# _framework density 27.555499000000001
#
# number of rings (size 3 to 8) (size 9 to 14) (size 15 to 20)
#    0.000    1.429    1.429    3.429    6.000    4.571 
#    0.000    2.857    3.143    0.000    0.000    0.000 
#    0.000    0.000    0.000    0.000    0.000    0.000 
#
# Total GULP energy -78652.632787 kJ/mol
# GULP energy per Si atom -5618.045199 kJ/mol
# Density = 2.749278 g / cm^3
# Si number density = 27.555499 Si / 1000 Ang^3
#
#
#
# Elastic Constant Matrix: (Units=GPa)
#
#
# Indices 1 2 3 4 5 6 
#
# 1 71.0765 38.2552 18.5517 -3.6212 -11.5702 -15.2479
# 2 38.2552 158.9730 37.1545 4.0299 -27.0445 -45.1558
# 3 18.5517 37.1545 87.6353 -27.4189 -20.9265 -1.4903
# 4 -3.6212 4.0299 -27.4189 52.0917 -0.9857 -12.7829
# 5 -11.5702 -27.0445 -20.9265 -0.9857 34.3281 -10.2491
# 6 -15.2479 -45.1558 -1.4903 -12.7829 -10.2491 56.3764
#
#
#
# Elastic Compliance Matrix: (Units=1/GPa)
#
#
# Indices 1 2 3 4 5 6 
#
# 1 0.017226 -0.001752 -0.000885 0.002118 0.005345 0.004684
# 2 -0.001752 0.012420 -0.001442 0.001302 0.011904 0.011896
# 3 -0.000885 -0.001442 0.018277 0.010748 0.011072 0.003538
# 4 0.002118 0.001302 0.010748 0.027682 0.012189 0.010393
# 5 0.005345 0.011904 0.011072 0.012189 0.054562 0.023956
# 6 0.004684 0.011896 0.003538 0.010393 0.023956 0.035338
#
#
# Mechanical properties :
#
#
# Convention : Reuss Voigt Hill
#
# Bulk Modulus (GPa) = 25.14870 56.17863 40.66366
# Shear Modulus (GPa) = 26.74954 43.47414 35.11184
#
# Velocity S-wave (km/s) = 3.11907 3.97633 3.57350
# Velocity P-wave (km/s) = 4.70296 6.44308 5.64053
#
# Compressibility (1/GPa) = 0.03976348
#
# Stress axis : x y z
#
# Youngs Moduli (GPa) = 58.05024 80.51441 54.71493
#
# Poissons Ratio (x) = 0.14108 0.04843
# Poissons Ratio (y) = 0.10172 0.07892
# Poissons Ratio (z) = 0.05138 0.11614
#
# Static dielectric constant tensor:
#      x y z
#    x 2.061100 -0.014350 0.005380 
#    y -0.014350 2.068220 -0.001130 
#    z 0.005380 -0.001130 2.224190 
# 
# From -- ./inp_files/222551.got.cif
#   From: 2010.05.17/outbox.cif.g08.bks.cpg/sg2_112_cif.got.tgz:222551.got - 2010.06.03 11:33:40.
