data_PCOD9036933
_publ_section_title
;
Structure prediction by ZEFSAII (Michael W. Deem and Ramdas Pophale) SiO2 
 PCOD9036933
Probable space group: P -1
;
_chemical_formula_sum "Si O2"
_cell_formula_units_Z 16
_cell_length_a 11.176217
_cell_length_b 14.036348
_cell_length_c 5.271747
_cell_angle_alpha 93.584635
_cell_angle_beta 57.887002
_cell_angle_gamma 114.868567
_cell_volume 621.406257
_symmetry_space_group_name_H-M "P -1"
_symmetry_group_IT_number 2
_symmetry_cell_setting 'triclinic'
loop_
_space_group_symop_operation_xyz
x,y,z
-x,-y,-z
loop_
_atom_site_type_symbol
_atom_site_label
_atom_site_fract_x
_atom_site_fract_y
_atom_site_fract_z
Si Si1 0.827209 0.111785 0.260746
Si Si2 0.445455 0.590016 0.010588
Si Si3 0.209209 0.117013 0.771905
Si Si4 0.103923 0.420004 0.472295
Si Si5 0.084671 0.656794 0.832164
Si Si6 0.781707 0.763884 0.733828
Si Si7 0.648058 0.103289 0.959248
Si Si8 0.425821 0.735601 0.672836
O O1 0.938571 0.235575 0.093952
O O2 0.780689 0.118450 0.605887
O O3 0.859009 0.010354 0.176767
O O4 0.690843 0.085256 0.193331
O O5 0.263560 0.531110 0.288665
O O6 0.500000 0.500000 0.000000
O O7 0.590014 0.696349 0.978156
O O8 0.443319 0.631937 0.733192
O O9 0.184260 0.163862 0.542707
O O10 0.403134 0.170753 0.584609
O O11 0.154543 0.161850 0.080845
O O12 0.156937 0.324616 0.385020
O O13 0.990822 0.396958 0.355047
O O14 0.011810 0.412229 0.832086
O O15 0.272944 0.697398 0.659396
O O16 0.620634 0.208255 0.030074
O O17 0.500000 0.000000 0.000000
#
# Coordination Sequence:
#
# PCOD9036933 Si02
#       8
#     2   2   2   2   2   2   2   2
#     4  11  23  39  60  96 133 177 214 261 331 381
#     4   9  22  44  71  96 126 168 221 282 330 373
#     4  11  22  39  67  99 132 164 219 280 327 379
#     4  11  24  47  65  89 133 176 224 268 323 388
#     4  11  25  41  64  94 134 181 213 260 324 405
#     4  10  23  42  68  97 123 169 223 280 327 377
#     4  11  21  35  60  93 137 172 204 262 324 380
#     4  10  23  39  66 103 135 166 218 267 332 398
#
# _framework density 25.748051
#
# number of rings (size 3 to 8) (size 9 to 14) (size 15 to 20)
#    0.000    1.500    1.250    3.375    3.500    5.000 
#    0.000   11.250    0.000    0.000    0.000    0.000 
#    0.000    0.000    0.000    0.000    0.000    0.000 
#
# Total GULP energy -89593.117552 kJ/mol
# GULP energy per Si atom -5599.569847 kJ/mol
# Density = 2.568945 g / cm^3
# Si number density = 25.748051 Si / 1000 Ang^3
#
#
#
# Elastic Constant Matrix: (Units=GPa)
#
#
# Indices 1 2 3 4 5 6 
#
# 1 157.0840 60.9765 43.0015 0.8932 6.9051 3.3585
# 2 60.9765 153.3259 56.6563 0.3984 16.3799 -4.3216
# 3 43.0015 56.6563 101.3730 9.3147 13.5598 12.6577
# 4 0.8932 0.3984 9.3147 52.6249 3.1964 1.1786
# 5 6.9051 16.3799 13.5598 3.1964 40.1676 2.5626
# 6 3.3585 -4.3216 12.6577 1.1786 2.5626 50.5006
#
#
#
# Elastic Compliance Matrix: (Units=1/GPa)
#
#
# Indices 1 2 3 4 5 6 
#
# 1 0.007845 -0.002419 -0.002008 0.000227 0.000313 -0.000247
# 2 -0.002419 0.009340 -0.004243 0.000805 -0.002160 0.002114
# 3 -0.002008 -0.004243 0.014040 -0.002201 -0.002260 -0.003582
# 4 0.000227 0.000805 -0.002201 0.019449 -0.001185 0.000212
# 5 0.000313 -0.002160 -0.002260 -0.001185 0.026641 -0.000963
# 6 -0.000247 0.002114 -0.003582 0.000212 -0.000963 0.020941
#
#
# Mechanical properties :
#
#
# Convention : Reuss Voigt Hill
#
# Bulk Modulus (GPa) = 72.02072 81.45018 76.73545
# Shear Modulus (GPa) = 41.58894 45.40187 43.49540
#
# Velocity S-wave (km/s) = 4.02335 4.20374 4.11453
# Velocity P-wave (km/s) = 7.04380 7.43398 7.24152
#
# Compressibility (1/GPa) = 0.01388489
#
# Stress axis : x y z
#
# Youngs Moduli (GPa) = 127.47244 107.06430 71.22698
#
# Poissons Ratio (x) = 0.25898 0.14301
# Poissons Ratio (y) = 0.30835 0.30223
# Poissons Ratio (z) = 0.25593 0.45429
#
# Static dielectric constant tensor:
#      x y z
#    x 2.095240 -0.056520 -0.054580 
#    y -0.056520 1.990460 0.014360 
#    z -0.054580 0.014360 2.027200 
# 
# From -- ./inp_files/76045.got.cif
#   From: 2010.05.17/outbox.cif.g08.bks.cpg/sg2_39_cif.got.tgz:76045.got - 2010.06.03 11:33:40.
