data_PCOD9036213
_publ_section_title
;
Structure prediction by ZEFSAII (Michael W. Deem and Ramdas Pophale) SiO2 
 PCOD9036213
Probable space group: P -1
;
_chemical_formula_sum "Si O2"
_cell_formula_units_Z 12
_cell_length_a 11.843708
_cell_length_b 9.583672
_cell_length_c 8.734317
_cell_angle_alpha 82.985215
_cell_angle_beta 74.604450
_cell_angle_gamma 143.470439
_cell_volume 461.620957
_symmetry_space_group_name_H-M "P -1"
_symmetry_group_IT_number 2
_symmetry_cell_setting 'triclinic'
loop_
_space_group_symop_operation_xyz
x,y,z
-x,-y,-z
loop_
_atom_site_type_symbol
_atom_site_label
_atom_site_fract_x
_atom_site_fract_y
_atom_site_fract_z
Si Si1 0.274070 0.712129 0.764158
Si Si2 0.166061 0.853893 0.148450
Si Si3 0.074031 0.233136 0.499302
Si Si4 0.529815 0.781473 0.455862
Si Si5 0.715281 0.400944 0.910780
Si Si6 0.045709 0.914798 0.891100
O O1 0.438503 0.747669 0.656342
O O2 0.069393 0.492471 0.734441
O O3 0.404339 0.997571 0.670678
O O4 0.196527 0.608396 0.982181
O O5 0.128115 0.915251 0.297926
O O6 0.133105 0.900434 0.994685
O O7 0.434933 0.080325 0.032257
O O8 0.309643 0.475496 0.491032
O O9 0.149609 0.431891 0.320315
O O10 0.000000 0.000000 0.500000
O O11 0.754069 0.911596 0.334227
O O12 0.792888 0.627746 0.934337
O O13 0.000000 0.000000 0.000000
#
# Coordination Sequence:
#
# PCOD9036213 Si02
#       6
#     2   2   2   2   2   2
#     4   9  23  47  72 102 140 183 235 283 357 411
#     4  10  23  45  66 103 142 177 232 294 340 417
#     4  11  24  42  69 101 141 187 229 289 350 402
#     4  10  22  48  71 101 146 182 228 299 339 417
#     4  11  24  43  71 106 134 186 234 286 354 413
#     4  11  24  42  68 100 140 187 228 278 351 414
#
# _framework density 25.995353999999999
#
# number of rings (size 3 to 8) (size 9 to 14) (size 15 to 20)
#    0.000    1.667    1.667    1.000    4.667    4.667 
#    3.000    5.833    0.000    0.000    0.000    0.000 
#    0.000    0.000    0.000    0.000    0.000    0.000 
#
# Total GULP energy -66938.826424 kJ/mol
# GULP energy per Si atom -5578.235535 kJ/mol
# Density = 2.593619 g / cm^3
# Si number density = 25.995354 Si / 1000 Ang^3
#
#
#
# Elastic Constant Matrix: (Units=GPa)
#
#
# Indices 1 2 3 4 5 6 
#
# 1 100.3632 68.0222 51.8610 0.2585 -13.3863 4.2848
# 2 68.0222 169.3940 26.6054 8.7707 -38.5195 -1.5225
# 3 51.8610 26.6054 147.1088 19.8335 -21.2158 -14.2193
# 4 0.2585 8.7707 19.8335 32.0923 -3.8500 -5.2780
# 5 -13.3863 -38.5195 -21.2158 -3.8500 54.7907 6.9403
# 6 4.2848 -1.5225 -14.2193 -5.2780 6.9403 37.3783
#
#
#
# Elastic Compliance Matrix: (Units=1/GPa)
#
#
# Indices 1 2 3 4 5 6 
#
# 1 0.017778 -0.006920 -0.006329 0.004799 -0.002173 -0.003646
# 2 -0.006920 0.009838 0.001940 -0.003076 0.005705 0.000438
# 3 -0.006329 0.001940 0.010217 -0.005896 0.002940 0.003313
# 4 0.004799 -0.003076 -0.005896 0.035865 -0.001049 0.002341
# 5 -0.002173 0.005705 0.002940 -0.001049 0.023157 -0.002848
# 6 -0.003646 0.000438 0.003313 0.002341 -0.002848 0.029309
#
#
# Mechanical properties :
#
#
# Convention : Reuss Voigt Hill
#
# Bulk Modulus (GPa) = 65.72210 78.87146 72.29678
# Shear Modulus (GPa) = 32.49863 42.87741 37.68802
#
# Velocity S-wave (km/s) = 3.53961 4.06572 3.81175
# Velocity P-wave (km/s) = 6.48400 7.24200 6.87346
#
# Compressibility (1/GPa) = 0.01521558
#
# Stress axis : x y z
#
# Youngs Moduli (GPa) = 56.25017 101.64500 97.87651
#
# Poissons Ratio (x) = 0.70341 0.61942
# Poissons Ratio (y) = 0.38927 -0.18990
# Poissons Ratio (z) = 0.35598 -0.19721
#
# Static dielectric constant tensor:
#      x y z
#    x 2.124790 -0.041680 0.004870 
#    y -0.041680 2.110640 -0.124630 
#    z 0.004870 -0.124630 2.166160 
# 
# From -- ./inp_files/243932.got.cif
#   From: 2010.05.17/outbox.cif.g08.bks.cpg/sg2_122_cif.got.tgz:243932.got - 2010.06.03 11:33:40.
