data_PCOD9036155
_publ_section_title
;
Structure prediction by ZEFSAII (Michael W. Deem and Ramdas Pophale) SiO2 
 PCOD9036155
Probable space group: P -1
;
_chemical_formula_sum "Si O2"
_cell_formula_units_Z 14
_cell_length_a 25.283218
_cell_length_b 5.856769
_cell_length_c 8.349033
_cell_angle_alpha 120.437148
_cell_angle_beta 35.595645
_cell_angle_gamma 111.529128
_cell_volume 617.939634
_symmetry_space_group_name_H-M "P -1"
_symmetry_group_IT_number 2
_symmetry_cell_setting 'triclinic'
loop_
_space_group_symop_operation_xyz
x,y,z
-x,-y,-z
loop_
_atom_site_type_symbol
_atom_site_label
_atom_site_fract_x
_atom_site_fract_y
_atom_site_fract_z
Si Si1 0.470470 0.803479 0.866081
Si Si2 0.574907 0.765581 0.281525
Si Si3 0.707270 0.996808 0.824301
Si Si4 0.155284 0.505641 0.740054
Si Si5 0.984521 0.763210 0.837149
Si Si6 0.172078 0.539226 0.333330
Si Si7 0.104145 0.029939 0.189778
O O1 0.553716 0.738095 0.511651
O O2 0.440829 0.507516 0.869933
O O3 0.500000 0.000000 0.000000
O O4 0.381106 0.949880 0.052392
O O5 0.500000 0.000000 0.500000
O O6 0.669822 0.866335 0.030609
O O7 0.781266 0.769682 0.492515
O O8 0.747058 0.281985 0.848717
O O9 0.159527 0.579853 0.569683
O O10 0.054921 0.451046 0.026810
O O11 0.168901 0.759140 0.905845
O O12 0.917275 0.846600 0.889529
O O13 0.084380 0.667109 0.495759
O O14 0.000000 0.000000 0.000000
O O15 0.160459 0.231422 0.221335
O O16 0.000000 0.000000 0.500000
#
# Coordination Sequence:
#
# PCOD9036155 Si02
#       7
#     2   2   2   2   2   2   2
#     4  10  22  47  77 103 132 175 225 270 347 433
#     4   9  21  44  72 101 131 172 216 270 345 423
#     4  11  24  43  68  99 144 178 219 289 351 402
#     4  12  24  43  64  96 137 183 239 288 343 391
#     4  12  22  42  68  91 131 189 237 285 343 400
#     4  12  25  43  66  96 139 183 236 294 339 396
#     4  12  26  41  68  97 130 192 247 281 338 405
#
# _framework density 22.655933999999998
#
# number of rings (size 3 to 8) (size 9 to 14) (size 15 to 20)
#    0.000    0.857    4.286    2.571    0.000    2.286 
#    0.000   27.143    0.000    0.000    0.000    0.000 
#    0.000    0.000    0.000    0.000    0.000    0.000 
#
# Total GULP energy -78143.392999 kJ/mol
# GULP energy per Si atom -5581.670929 kJ/mol
# Density = 2.260437 g / cm^3
# Si number density = 22.655934 Si / 1000 Ang^3
#
#
#
# Elastic Constant Matrix: (Units=GPa)
#
#
# Indices 1 2 3 4 5 6 
#
# 1 69.2280 45.8505 40.1153 -1.8879 -11.1475 20.4931
# 2 45.8505 170.8559 60.5625 0.0724 16.0631 45.3774
# 3 40.1153 60.5625 90.7078 -6.9833 1.4599 25.9649
# 4 -1.8879 0.0724 -6.9833 61.9626 -5.6795 4.2181
# 5 -11.1475 16.0631 1.4599 -5.6795 34.9491 7.2352
# 6 20.4931 45.3774 25.9649 4.2181 7.2352 42.3900
#
#
#
# Elastic Compliance Matrix: (Units=1/GPa)
#
#
# Indices 1 2 3 4 5 6 
#
# 1 0.024298 -0.003654 -0.006732 0.001397 0.011128 -0.005750
# 2 -0.003654 0.010062 -0.003300 -0.000483 -0.004452 -0.006175
# 3 -0.006732 -0.003300 0.017548 0.002042 -0.000176 -0.004135
# 4 0.001397 -0.000483 0.002042 0.017051 0.004143 -0.003813
# 5 0.011128 -0.004452 -0.000176 0.004143 0.036365 -0.007125
# 6 -0.005750 -0.006175 -0.004135 -0.003813 -0.007125 0.037110
#
#
# Mechanical properties :
#
#
# Convention : Reuss Voigt Hill
#
# Bulk Modulus (GPa) = 40.75397 69.31648 55.03523
# Shear Modulus (GPa) = 28.09231 40.14458 34.11845
#
# Velocity S-wave (km/s) = 3.52512 4.21399 3.88485
# Velocity P-wave (km/s) = 5.88183 7.37147 6.66838
#
# Compressibility (1/GPa) = 0.02453748
#
# Stress axis : x y z
#
# Youngs Moduli (GPa) = 41.15528 99.38249 56.98528
#
# Poissons Ratio (x) = 0.36316 0.38360
# Poissons Ratio (y) = 0.15039 0.18805
# Poissons Ratio (z) = 0.27704 0.32795
#
# Static dielectric constant tensor:
#      x y z
#    x 2.294720 0.258710 0.103550 
#    y 0.258710 2.119590 0.068830 
#    z 0.103550 0.068830 1.940000 
# 
# From -- ./inp_files/356051.got.cif
#   From: 2010.05.17/outbox.cif.g08.bks.cpg/sg2_179_cif.got.tgz:356051.got - 2010.06.03 11:33:40.
