data_PCOD9036328
_publ_section_title
;
Structure prediction by ZEFSAII (Michael W. Deem and Ramdas Pophale) SiO2 
 PCOD9036328
Probable space group: P -1
;
_chemical_formula_sum "Si O2"
_cell_formula_units_Z 12
_cell_length_a 24.254342
_cell_length_b 16.648418
_cell_length_c 9.150405
_cell_angle_alpha 144.605930
_cell_angle_beta 26.106319
_cell_angle_gamma 163.813100
_cell_volume 418.369321
_symmetry_space_group_name_H-M "P -1"
_symmetry_group_IT_number 2
_symmetry_cell_setting 'triclinic'
loop_
_space_group_symop_operation_xyz
x,y,z
-x,-y,-z
loop_
_atom_site_type_symbol
_atom_site_label
_atom_site_fract_x
_atom_site_fract_y
_atom_site_fract_z
Si Si1 0.326257 0.749155 0.166138
Si Si2 0.483534 0.479825 0.744274
Si Si3 0.761425 0.946776 0.528174
Si Si4 0.086005 0.329523 0.894386
Si Si5 0.813058 0.398823 0.411327
Si Si6 0.510424 0.261288 0.706009
O O1 0.212645 0.998479 0.951387
O O2 0.531660 0.831796 0.856366
O O3 0.070618 0.418101 0.200211
O O4 0.500000 0.000000 0.000000
O O5 0.638166 0.730296 0.629254
O O6 0.231605 0.147562 0.769701
O O7 0.719224 0.606948 0.428773
O O8 0.378553 0.479655 0.117790
O O9 0.022571 0.296780 0.479468
O O10 0.277233 0.586503 0.693835
O O11 0.764517 0.275314 0.499484
O O12 0.536858 0.183219 0.664781
O O13 0.000000 0.500000 0.000000
#
# Coordination Sequence:
#
# PCOD9036328 Si02
#       6
#     2   2   2   2   2   2
#     4  11  28  54  82 118 169 227 290 347 423 506
#     4  10  22  49  85 123 171 217 279 345 430 516
#     4  10  24  50  80 125 164 222 276 355 424 507
#     4  11  28  49  84 128 172 217 278 353 432 507
#     4  12  30  54  86 120 170 228 291 349 423 508
#     4  12  26  52  80 129 169 219 279 351 427 506
#
# _framework density 28.682791999999999
#
# number of rings (size 3 to 8) (size 9 to 14) (size 15 to 20)
#    0.000    1.000    1.667    2.000    7.000    6.000 
#    3.000    1.667    0.000    0.000    0.000    0.000 
#    0.000    0.000    0.000    0.000    0.000    0.000 
#
# Total GULP energy -67431.327190 kJ/mol
# GULP energy per Si atom -5619.277266 kJ/mol
# Density = 2.861751 g / cm^3
# Si number density = 28.682792 Si / 1000 Ang^3
#
#
#
# Elastic Constant Matrix: (Units=GPa)
#
#
# Indices 1 2 3 4 5 6 
#
# 1 232.1760 62.7558 62.6426 0.3656 4.3136 9.5747
# 2 62.7558 153.3005 45.7241 8.2794 22.8754 27.6499
# 3 62.6426 45.7241 162.8913 16.6324 36.6364 17.7631
# 4 0.3656 8.2794 16.6324 52.2523 5.8329 7.3408
# 5 4.3136 22.8754 36.6364 5.8329 60.4619 2.8961
# 6 9.5747 27.6499 17.7631 7.3408 2.8961 68.5026
#
#
#
# Elastic Compliance Matrix: (Units=1/GPa)
#
#
# Indices 1 2 3 4 5 6 
#
# 1 0.005303 -0.001916 -0.001937 0.000666 0.001437 0.000402
# 2 -0.001916 0.008414 -0.000731 -0.000424 -0.002429 -0.002791
# 3 -0.001937 -0.000731 0.008414 -0.001881 -0.004444 -0.001227
# 4 0.000666 -0.000424 -0.001881 0.020087 -0.000611 -0.001561
# 5 0.001437 -0.002429 -0.004444 -0.000611 0.020052 0.001150
# 6 0.000402 -0.002791 -0.001227 -0.001561 0.001150 0.016105
#
#
# Mechanical properties :
#
#
# Convention : Reuss Voigt Hill
#
# Bulk Modulus (GPa) = 77.13543 98.95700 88.04622
# Shear Modulus (GPa) = 54.42798 61.39304 57.91051
#
# Velocity S-wave (km/s) = 4.36085 4.63148 4.49820
# Velocity P-wave (km/s) = 7.23236 7.94834 7.59879
#
# Compressibility (1/GPa) = 0.01296421
#
# Stress axis : x y z
#
# Youngs Moduli (GPa) = 188.56621 118.84442 118.84677
#
# Poissons Ratio (x) = 0.22773 0.23015
# Poissons Ratio (y) = 0.36134 0.08688
# Poissons Ratio (z) = 0.36516 0.08688
#
# Static dielectric constant tensor:
#      x y z
#    x 2.202870 -0.008060 0.001160 
#    y -0.008060 2.269760 0.067770 
#    z 0.001160 0.067770 2.229220 
# 
# From -- ./inp_files/355055.got.cif
#   From: 2010.05.17/outbox.cif.g08.bks.cpg/sg2_178_cif.got.tgz:355055.got - 2010.06.03 11:33:40.
