data_PCOD9036534
_publ_section_title
;
Structure prediction by ZEFSAII (Michael W. Deem and Ramdas Pophale) SiO2 
 PCOD9036534
Probable space group: P -1
;
_chemical_formula_sum "Si O2"
_cell_formula_units_Z 16
_cell_length_a 13.029086
_cell_length_b 11.894483
_cell_length_c 7.698988
_cell_angle_alpha 103.220440
_cell_angle_beta 71.542362
_cell_angle_gamma 49.510077
_cell_volume 687.298073
_symmetry_space_group_name_H-M "P -1"
_symmetry_group_IT_number 2
_symmetry_cell_setting 'triclinic'
loop_
_space_group_symop_operation_xyz
x,y,z
-x,-y,-z
loop_
_atom_site_type_symbol
_atom_site_label
_atom_site_fract_x
_atom_site_fract_y
_atom_site_fract_z
Si Si1 0.390405 0.212071 0.137686
Si Si2 0.368184 0.900880 0.760682
Si Si3 0.081202 0.025635 0.158716
Si Si4 0.742251 0.755752 0.118530
Si Si5 0.998313 0.238247 0.625456
Si Si6 0.106371 0.412936 0.655074
Si Si7 0.298123 0.673873 0.138847
Si Si8 0.783559 0.116179 0.400625
O O1 0.511623 0.201217 0.169951
O O2 0.219820 0.348982 0.401896
O O3 0.346839 0.257733 0.974125
O O4 0.500000 0.000000 0.000000
O O5 0.391522 0.784440 0.559962
O O6 0.363103 0.036162 0.743706
O O7 0.176048 0.023417 0.965864
O O8 0.217756 0.812892 0.071335
O O9 0.047480 0.138197 0.380655
O O10 0.902980 0.110041 0.235542
O O11 0.777125 0.679728 0.265181
O O12 0.928818 0.625970 0.878705
O O13 0.045220 0.332191 0.634488
O O14 0.800927 0.365432 0.811949
O O15 0.109701 0.084497 0.662444
O O16 0.240055 0.796911 0.377879
O O17 0.500000 0.500000 0.000000
#
# Coordination Sequence:
#
# PCOD9036534 Si02
#       8
#     2   2   2   2   2   2   2   2
#     4  10  23  38  55  85 122 152 200 248 290 345
#     4  11  20  38  56  87 116 153 193 239 295 341
#     4   9  19  34  59  81 111 151 187 235 290 349
#     4  10  23  39  60  87 120 156 207 245 287 352
#     4   9  17  35  59  79 109 151 193 229 287 349
#     4  11  21  41  62  86 118 161 201 245 297 345
#     4   9  19  36  56  87 115 140 188 244 286 349
#     4   9  18  36  57  83 110 148 193 229 280 362
#
# _framework density 23.279565000000002
#
# number of rings (size 3 to 8) (size 9 to 14) (size 15 to 20)
#    0.000    2.250    1.250    3.750    0.000    3.000 
#    9.000    1.875    0.000    0.000    0.000    0.000 
#    0.000    0.000    0.000    0.000    0.000    0.000 
#
# Total GULP energy -89264.502141 kJ/mol
# GULP energy per Si atom -5579.031384 kJ/mol
# Density = 2.322658 g / cm^3
# Si number density = 23.279565 Si / 1000 Ang^3
#
#
#
# Elastic Constant Matrix: (Units=GPa)
#
#
# Indices 1 2 3 4 5 6 
#
# 1 156.9718 27.5673 -8.0654 -9.7524 22.1958 -16.8758
# 2 27.5673 35.0087 2.1381 -1.4802 13.2748 -8.1311
# 3 -8.0654 2.1381 38.5276 -4.8853 0.9854 0.2215
# 4 -9.7524 -1.4802 -4.8853 28.8499 -14.8334 6.9386
# 5 22.1958 13.2748 0.9854 -14.8334 33.2870 -8.8791
# 6 -16.8758 -8.1311 0.2215 6.9386 -8.8791 37.5321
#
#
#
# Elastic Compliance Matrix: (Units=1/GPa)
#
#
# Indices 1 2 3 4 5 6 
#
# 1 0.007960 -0.005051 0.002145 0.001160 -0.002388 0.001693
# 2 -0.005051 0.039113 -0.004030 -0.009160 -0.015028 0.004364
# 3 0.002145 -0.004030 0.027389 0.006370 0.001998 -0.000775
# 4 0.001160 -0.009160 0.006370 0.048735 0.023060 -0.005055
# 5 -0.002388 -0.015028 0.001998 0.023060 0.048618 0.002897
# 6 0.001693 0.004364 -0.000775 -0.005055 0.002897 0.029975
#
#
# Mechanical properties :
#
#
# Convention : Reuss Voigt Hill
#
# Bulk Modulus (GPa) = 16.50454 30.42091 23.46272
# Shear Modulus (GPa) = 21.19925 33.85834 27.52880
#
# Velocity S-wave (km/s) = 3.02095 3.81783 3.44252
# Velocity P-wave (km/s) = 4.39014 5.70354 5.08939
#
# Compressibility (1/GPa) = 0.06058940
#
# Stress axis : x y z
#
# Youngs Moduli (GPa) = 125.63527 25.56717 36.51083
#
# Poissons Ratio (x) = 0.12914 -0.07831
# Poissons Ratio (y) = 0.63457 0.14714
# Poissons Ratio (z) = -0.26948 0.10304
#
# Static dielectric constant tensor:
#      x y z
#    x 1.918400 -0.062230 0.026400 
#    y -0.062230 1.865380 -0.140280 
#    z 0.026400 -0.140280 1.708210 
# 
# From -- ./inp_files/216471.got.cif
#   From: 2010.05.17/outbox.cif.g08.bks.cpg/sg2_109_cif.got.tgz:216471.got - 2010.06.03 11:33:40.
