data_PCOD9036470
_publ_section_title
;
Structure prediction by ZEFSAII (Michael W. Deem and Ramdas Pophale) SiO2 
 PCOD9036470
Probable space group: P -1
;
_chemical_formula_sum "Si O2"
_cell_formula_units_Z 14
_cell_length_a 11.792583
_cell_length_b 16.707541
_cell_length_c 8.044407
_cell_angle_alpha 126.817323
_cell_angle_beta 117.109473
_cell_angle_gamma 27.573885
_cell_volume 575.010907
_symmetry_space_group_name_H-M "P -1"
_symmetry_group_IT_number 2
_symmetry_cell_setting 'triclinic'
loop_
_space_group_symop_operation_xyz
x,y,z
-x,-y,-z
loop_
_atom_site_type_symbol
_atom_site_label
_atom_site_fract_x
_atom_site_fract_y
_atom_site_fract_z
Si Si1 0.523655 0.208199 0.649767
Si Si2 0.849785 0.695578 0.393189
Si Si3 0.527198 0.561530 0.257800
Si Si4 0.410024 0.955124 0.188800
Si Si5 0.212121 0.780728 0.809183
Si Si6 0.029209 0.867264 0.423531
Si Si7 0.423435 0.326958 0.256072
O O1 0.260651 0.327320 0.615161
O O2 0.483637 0.353594 0.795070
O O3 0.626630 0.102713 0.764614
O O4 0.744451 0.021981 0.440696
O O5 0.668516 0.830000 0.276901
O O6 0.129625 0.503494 0.277036
O O7 0.798284 0.820899 0.642456
O O8 0.738837 0.341098 0.179877
O O9 0.265902 0.676018 0.232879
O O10 0.531745 0.643807 0.507760
O O11 0.441551 0.870326 0.937469
O O12 0.130824 0.795239 0.590828
O O13 0.466479 0.669179 0.798347
O O14 0.000000 0.000000 0.000000
O O15 0.000000 0.000000 0.500000
#
# Coordination Sequence:
#
# PCOD9036470 Si02
#       7
#     2   2   2   2   2   2   2
#     4   9  19  39  62  87 124 157 198 246 301 357
#     4   9  21  36  67  86 121 156 202 250 297 351
#     4  10  23  37  61  89 123 163 192 250 307 353
#     4   9  20  37  62  92 116 159 202 242 299 357
#     4  11  24  38  61  89 121 160 201 248 302 357
#     4   9  18  37  61  86 116 153 198 240 296 356
#     4  11  21  37  64  88 118 153 209 240 305 353
#
# _framework density 24.347363999999999
#
# number of rings (size 3 to 8) (size 9 to 14) (size 15 to 20)
#    0.857    1.429    0.000    3.000    6.000    0.571 
#    0.000    8.571   12.571    0.000    0.000    0.000 
#    0.000    0.000    0.000    0.000    0.000    0.000 
#
# Total GULP energy -77979.065578 kJ/mol
# GULP energy per Si atom -5569.933256 kJ/mol
# Density = 2.429195 g / cm^3
# Si number density = 24.347364 Si / 1000 Ang^3
#
#
#
# Elastic Constant Matrix: (Units=GPa)
#
#
# Indices 1 2 3 4 5 6 
#
# 1 137.7469 62.3450 32.7182 24.9523 -2.3597 -25.1813
# 2 62.3450 53.7769 21.8733 19.4359 0.9471 -7.6540
# 3 32.7182 21.8733 131.8188 6.1303 21.0650 5.3437
# 4 24.9523 19.4359 6.1303 48.2920 3.1350 1.0481
# 5 -2.3597 0.9471 21.0650 3.1350 14.3542 7.0121
# 6 -25.1813 -7.6540 5.3437 1.0481 7.0121 44.4470
#
#
#
# Elastic Compliance Matrix: (Units=1/GPa)
#
#
# Indices 1 2 3 4 5 6 
#
# 1 0.017459 -0.017733 -0.002315 -0.002038 0.004749 0.006415
# 2 -0.017733 0.042491 -0.002266 -0.007627 0.000418 -0.002343
# 3 -0.002315 -0.002266 0.011152 0.001791 -0.016773 -0.000439
# 4 -0.002038 -0.007627 0.001791 0.025096 -0.006871 -0.002191
# 5 0.004749 0.000418 -0.016773 -0.006871 0.101980 -0.011148
# 6 0.006415 -0.002343 -0.000439 -0.002191 -0.011148 0.027593
#
#
# Mechanical properties :
#
#
# Convention : Reuss Voigt Hill
#
# Bulk Modulus (GPa) = 37.77427 61.91285 49.84356
# Shear Modulus (GPa) = 17.90678 35.17904 26.54291
#
# Velocity S-wave (km/s) = 2.71490 3.80528 3.30536
# Velocity P-wave (km/s) = 5.03746 6.69261 5.92314
#
# Compressibility (1/GPa) = 0.02647305
#
# Stress axis : x y z
#
# Youngs Moduli (GPa) = 57.27801 23.53424 89.67208
#
# Poissons Ratio (x) = 0.41733 0.20759
# Poissons Ratio (y) = 1.01571 0.20323
# Poissons Ratio (z) = 0.13260 0.05334
#
# Static dielectric constant tensor:
#      x y z
#    x 2.035050 -0.024600 -0.055430 
#    y -0.024600 2.018400 -0.041530 
#    z -0.055430 -0.041530 2.022250 
# 
# From -- ./inp_files/437008.got.cif
#   From: 2010.05.17/outbox.cif.g08.bks.cpg/sg2_219_cif.got.tgz:437008.got - 2010.06.03 11:33:40.
