data_PCOD9036181
_publ_section_title
;
Structure prediction by ZEFSAII (Michael W. Deem and Ramdas Pophale) SiO2 
 PCOD9036181
Probable space group: P -1
;
_chemical_formula_sum "Si O2"
_cell_formula_units_Z 15
_cell_length_a 13.774402
_cell_length_b 9.133774
_cell_length_c 11.589064
_cell_angle_alpha 142.733784
_cell_angle_beta 76.319695
_cell_angle_gamma 82.788634
_cell_volume 725.673285
_symmetry_space_group_name_H-M "P -1"
_symmetry_group_IT_number 2
_symmetry_cell_setting 'triclinic'
loop_
_space_group_symop_operation_xyz
x,y,z
-x,-y,-z
loop_
_atom_site_type_symbol
_atom_site_label
_atom_site_fract_x
_atom_site_fract_y
_atom_site_fract_z
Si Si1 0.185633 0.864587 0.508612
Si Si2 0.190122 0.295993 0.164040
Si Si3 0.281549 0.157384 0.819073
Si Si4 0.378342 0.800117 0.238139
Si Si5 0.500000 0.000000 0.500000
Si Si6 0.805505 0.875196 0.686261
Si Si7 0.921102 0.244876 0.855399
Si Si8 0.035527 0.694311 0.851105
O O1 0.178630 0.595168 0.375850
O O2 0.275982 0.789943 0.331276
O O3 0.237545 0.959344 0.656225
O O4 0.049923 0.115080 0.680752
O O5 0.201903 0.151791 0.192272
O O6 0.076382 0.333435 0.155505
O O7 0.291602 0.132193 0.938079
O O8 0.402899 0.080353 0.679654
O O9 0.180076 0.477662 0.008415
O O10 0.407191 0.995687 0.429392
O O11 0.322121 0.920749 0.205664
O O12 0.500000 0.500000 0.000000
O O13 0.862093 0.569711 0.415944
O O14 0.884452 0.010655 0.723827
O O15 0.931649 0.318667 0.031963
O O16 0.000000 0.000000 0.000000
#
# Coordination Sequence:
#
# PCOD9036181 Si02
#       8
#     2   2   2   2   1   2   2   2
#     4  11  23  41  65  98 135 169 227 283 332 393
#     4  12  24  40  63 101 141 174 217 275 339 408
#     4  11  25  41  69  97 133 179 228 284 330 397
#     4  11  25  47  71  95 128 179 231 284 334 395
#     4  10  22  48  66  90 124 170 228 278 324 382
#     4  12  26  41  68 102 139 182 216 272 344 408
#     4  12  23  41  65 103 136 180 223 274 338 400
#     4  12  23  40  63  99 150 183 215 264 339 412
#
# _framework density 20.670459000000001
#
# number of rings (size 3 to 8) (size 9 to 14) (size 15 to 20)
#    0.000    0.533    4.000    5.600    1.867    1.067 
#    0.000    2.667    0.000    5.600    0.000    0.000 
#    0.000    0.000    0.000    0.000    0.000    0.000 
#
# Total GULP energy -83676.078371 kJ/mol
# GULP energy per Si atom -5578.405225 kJ/mol
# Density = 2.062341 g / cm^3
# Si number density = 20.670459 Si / 1000 Ang^3
#
#
#
# Elastic Constant Matrix: (Units=GPa)
#
#
# Indices 1 2 3 4 5 6 
#
# 1 127.0074 52.0829 40.4915 -0.4361 -3.8933 6.3827
# 2 52.0829 96.4660 46.7619 -12.3242 2.8975 -0.9618
# 3 40.4915 46.7619 102.9966 -18.2113 -4.2854 4.2409
# 4 -0.4361 -12.3242 -18.2113 31.9784 14.6982 11.2351
# 5 -3.8933 2.8975 -4.2854 14.6982 39.9182 -7.1220
# 6 6.3827 -0.9618 4.2409 11.2351 -7.1220 37.2623
#
#
#
# Elastic Compliance Matrix: (Units=1/GPa)
#
#
# Indices 1 2 3 4 5 6 
#
# 1 0.010976 -0.005367 -0.002643 -0.004963 0.003069 0.000365
# 2 -0.005367 0.016289 -0.004351 0.006158 -0.004601 -0.000901
# 3 -0.002643 -0.004351 0.014463 0.009385 -0.002674 -0.004646
# 4 -0.004963 0.006158 0.009385 0.058601 -0.025534 -0.022608
# 5 0.003069 -0.004601 -0.002674 -0.025534 0.037387 0.014505
# 6 0.000365 -0.000901 -0.004646 -0.022608 0.014505 0.036869
#
#
# Mechanical properties :
#
#
# Convention : Reuss Voigt Hill
#
# Bulk Modulus (GPa) = 58.80416 67.23803 63.02110
# Shear Modulus (GPa) = 24.39309 34.30738 29.35023
#
# Velocity S-wave (km/s) = 3.43898 4.07840 3.77226
# Velocity P-wave (km/s) = 6.65424 7.40115 7.03761
#
# Compressibility (1/GPa) = 0.01700560
#
# Stress axis : x y z
#
# Youngs Moduli (GPa) = 91.10874 61.38988 69.14196
#
# Poissons Ratio (x) = 0.32950 0.18274
# Poissons Ratio (y) = 0.48901 0.30083
# Poissons Ratio (z) = 0.24080 0.26711
#
# Static dielectric constant tensor:
#      x y z
#    x 1.728150 0.018740 0.013400 
#    y 0.018740 1.730830 -0.009450 
#    z 0.013400 -0.009450 1.798700 
# 
# From -- ./inp_files/418551.got.cif
#   From: 2010.05.17/outbox.cif.g08.bks.cpg/sg2_210_cif.got.tgz:418551.got - 2010.06.03 11:33:40.
