data_PCOD9036460
_publ_section_title
;
Structure prediction by ZEFSAII (Michael W. Deem and Ramdas Pophale) SiO2 
 PCOD9036460
Probable space group: P -1
;
_chemical_formula_sum "Si O2"
_cell_formula_units_Z 16
_cell_length_a 9.361042
_cell_length_b 6.993403
_cell_length_c 16.521270
_cell_angle_alpha 45.803562
_cell_angle_beta 57.437000
_cell_angle_gamma 70.399563
_cell_volume 652.124145
_symmetry_space_group_name_H-M "P -1"
_symmetry_group_IT_number 2
_symmetry_cell_setting 'triclinic'
loop_
_space_group_symop_operation_xyz
x,y,z
-x,-y,-z
loop_
_atom_site_type_symbol
_atom_site_label
_atom_site_fract_x
_atom_site_fract_y
_atom_site_fract_z
Si Si1 0.160678 0.643845 0.154974
Si Si2 0.280698 0.537420 0.402498
Si Si3 0.377529 0.528466 0.736230
Si Si4 0.772174 0.039337 0.112225
Si Si5 0.063735 0.752415 0.847700
Si Si6 0.277037 0.036369 0.146143
Si Si7 0.496905 0.550315 0.876154
Si Si8 0.988494 0.307107 0.436684
O O1 0.094450 0.153301 0.180955
O O2 0.307301 0.434267 0.165486
O O3 0.015095 0.486044 0.295756
O O4 0.247446 0.875003 0.118321
O O5 0.461322 0.403036 0.392267
O O6 0.143613 0.382606 0.430240
O O7 0.181754 0.606306 0.493461
O O8 0.318811 0.823462 0.262849
O O9 0.218547 0.701554 0.755674
O O10 0.470272 0.520997 0.797196
O O11 0.291357 0.243720 0.819972
O O12 0.874943 0.032769 0.166255
O O13 0.612546 0.210665 0.132952
O O14 0.873241 0.218425 0.960231
O O15 0.000000 0.500000 0.000000
O O16 0.414308 0.276734 0.019396
O O17 0.000000 0.000000 0.500000
#
# Coordination Sequence:
#
# PCOD9036460 Si02
#       8
#     2   2   2   2   2   2   2   2
#     4  11  21  37  60  90 121 154 196 249 297 351
#     4  10  23  41  62  88 115 157 197 252 303 336
#     4  11  21  39  62  86 127 156 196 244 295 360
#     4  11  23  34  59  89 123 162 192 230 301 365
#     4  11  23  38  53  90 130 162 192 234 294 366
#     4  11  20  38  61  82 130 155 191 239 296 355
#     4  11  20  36  57  92 122 154 190 239 301 358
#     4  10  23  37  60  89 118 148 202 253 298 343
#
# _framework density 24.535205999999999
#
# number of rings (size 3 to 8) (size 9 to 14) (size 15 to 20)
#    0.000    1.250    6.250    1.500    3.500    2.000 
#    0.000    0.000    0.000    6.750    0.000   14.875 
#    0.000    0.000    0.000    0.000    0.000    0.000 
#
# Total GULP energy -89644.890909 kJ/mol
# GULP energy per Si atom -5602.805682 kJ/mol
# Density = 2.447936 g / cm^3
# Si number density = 24.535206 Si / 1000 Ang^3
#
#
#
# Elastic Constant Matrix: (Units=GPa)
#
#
# Indices 1 2 3 4 5 6 
#
# 1 99.5988 33.1210 25.2827 16.4910 -19.1000 -14.5745
# 2 33.1210 141.5770 59.4788 20.0413 -11.2060 1.8357
# 3 25.2827 59.4788 76.2158 36.1613 -22.3141 -10.3995
# 4 16.4910 20.0413 36.1613 42.4519 -14.2875 -13.8508
# 5 -19.1000 -11.2060 -22.3141 -14.2875 24.5395 12.0620
# 6 -14.5745 1.8357 -10.3995 -13.8508 12.0620 46.5612
#
#
#
# Elastic Compliance Matrix: (Units=1/GPa)
#
#
# Indices 1 2 3 4 5 6 
#
# 1 0.012651 -0.002601 0.001011 -0.001276 0.007923 0.001856
# 2 -0.002601 0.011589 -0.011059 0.002972 -0.004187 -0.001772
# 3 0.001011 -0.011059 0.036043 -0.020614 0.017414 -0.001841
# 4 -0.001276 0.002972 -0.020614 0.043700 0.003656 0.006932
# 5 0.007923 -0.004187 0.017414 0.003656 0.067864 -0.009958
# 6 0.001856 -0.001772 -0.001841 0.006932 -0.009958 0.026359
#
#
# Mechanical properties :
#
#
# Convention : Reuss Voigt Hill
#
# Bulk Modulus (GPa) = 28.58250 61.46183 45.02216
# Shear Modulus (GPa) = 21.26179 36.01113 28.63646
#
# Velocity S-wave (km/s) = 2.94697 3.83526 3.42008
# Velocity P-wave (km/s) = 4.82228 6.68708 5.82973
#
# Compressibility (1/GPa) = 0.03498645
#
# Stress axis : x y z
#
# Youngs Moduli (GPa) = 79.04670 86.29226 27.74453
#
# Poissons Ratio (x) = 0.22443 -0.02806
# Poissons Ratio (y) = 0.20559 0.30682
# Poissons Ratio (z) = -0.07995 0.95427
#
# Static dielectric constant tensor:
#      x y z
#    x 1.951950 -0.028900 -0.045090 
#    y -0.028900 2.045140 0.056130 
#    z -0.045090 0.056130 1.933060 
# 
# From -- ./inp_files/472635.got.cif
#   From: 2010.05.17/outbox.cif.g08.bks.cpg/sg2_237_cif.got.tgz:472635.got - 2010.06.03 11:33:40.
