data_PCOD9036831
_publ_section_title
;
Structure prediction by ZEFSAII (Michael W. Deem and Ramdas Pophale) SiO2 
 PCOD9036831
Probable space group: P -1
;
_chemical_formula_sum "Si O2"
_cell_formula_units_Z 14
_cell_length_a 12.211117
_cell_length_b 8.548599
_cell_length_c 9.519259
_cell_angle_alpha 44.963502
_cell_angle_beta 81.369682
_cell_angle_gamma 65.825641
_cell_volume 625.399920
_symmetry_space_group_name_H-M "P -1"
_symmetry_group_IT_number 2
_symmetry_cell_setting 'triclinic'
loop_
_space_group_symop_operation_xyz
x,y,z
-x,-y,-z
loop_
_atom_site_type_symbol
_atom_site_label
_atom_site_fract_x
_atom_site_fract_y
_atom_site_fract_z
Si Si1 0.470368 0.725809 0.967522
Si Si2 0.620078 0.379810 0.651662
Si Si3 0.739690 0.554005 0.109930
Si Si4 0.276808 0.222126 0.556120
Si Si5 0.896864 0.556428 0.317481
Si Si6 0.831352 0.130863 0.565111
Si Si7 0.871153 0.630313 0.778079
O O1 0.412392 0.696891 0.144057
O O2 0.601350 0.718223 0.987179
O O3 0.500000 0.500000 0.000000
O O4 0.377612 0.964454 0.752701
O O5 0.500000 0.500000 0.500000
O O6 0.672330 0.579772 0.542391
O O7 0.727718 0.168987 0.676228
O O8 0.783711 0.667826 0.158371
O O9 0.760386 0.292340 0.339280
O O10 0.829121 0.514693 0.986996
O O11 0.150801 0.300693 0.620156
O O12 0.242261 0.241922 0.387686
O O13 0.910024 0.276122 0.507739
O O14 0.014325 0.551735 0.219793
O O15 0.902017 0.847021 0.695048
#
# Coordination Sequence:
#
# PCOD9036831 Si02
#       7
#     2   2   2   2   2   2   2
#     4  12  25  42  64  97 134 160 210 265 317 382
#     4  11  23  43  66  89 132 170 209 258 315 378
#     4  10  23  39  63  94 121 161 220 247 311 372
#     4  11  26  40  65  97 128 170 206 260 325 372
#     4   9  22  45  61  93 126 164 217 262 303 376
#     4   9  22  39  63  96 117 165 214 253 314 366
#     4  12  22  41  68  89 131 167 208 263 315 365
#
# _framework density 22.385676
#
# number of rings (size 3 to 8) (size 9 to 14) (size 15 to 20)
#    0.857    0.571    1.429    3.000    4.000    2.286 
#    0.000    0.000    0.000    5.143    0.000    0.000 
#    0.000    0.000    0.000    0.000    0.000    0.000 
#
# Total GULP energy -78263.670761 kJ/mol
# GULP energy per Si atom -5590.262197 kJ/mol
# Density = 2.233473 g / cm^3
# Si number density = 22.385676 Si / 1000 Ang^3
#
#
#
# Elastic Constant Matrix: (Units=GPa)
#
#
# Indices 1 2 3 4 5 6 
#
# 1 52.4965 16.5474 30.7887 8.6893 -3.1562 -11.6165
# 2 16.5474 64.1930 32.9859 8.1234 -2.7008 -10.8172
# 3 30.7887 32.9859 96.4801 20.1882 6.6397 2.9953
# 4 8.6893 8.1234 20.1882 38.1538 -2.6115 -2.0810
# 5 -3.1562 -2.7008 6.6397 -2.6115 28.0948 12.4769
# 6 -11.6165 -10.8172 2.9953 -2.0810 12.4769 28.3307
#
#
#
# Elastic Compliance Matrix: (Units=1/GPa)
#
#
# Indices 1 2 3 4 5 6 
#
# 1 0.027008 -0.000419 -0.008642 -0.000862 -0.000334 0.011911
# 2 -0.000419 0.020862 -0.007244 -0.000054 -0.000167 0.008629
# 3 -0.008642 -0.007244 0.017354 -0.006281 -0.003146 -0.007220
# 4 -0.000862 -0.000054 -0.006281 0.030047 0.003812 0.000818
# 5 -0.000334 -0.000167 -0.003146 0.003812 0.045319 -0.019546
# 6 0.011911 0.008629 -0.007220 0.000818 -0.019546 0.052908
#
#
# Mechanical properties :
#
#
# Convention : Reuss Voigt Hill
#
# Bulk Modulus (GPa) = 30.66117 41.53482 36.09800
# Shear Modulus (GPa) = 21.09891 27.77237 24.43564
#
# Velocity S-wave (km/s) = 3.07338 3.52608 3.30748
# Velocity P-wave (km/s) = 5.13037 5.93061 5.54495
#
# Compressibility (1/GPa) = 0.03261454
#
# Stress axis : x y z
#
# Youngs Moduli (GPa) = 37.02644 47.93309 57.62253
#
# Poissons Ratio (x) = 0.02009 0.49796
# Poissons Ratio (y) = 0.01552 0.41742
# Poissons Ratio (z) = 0.31998 0.34723
#
# Static dielectric constant tensor:
#      x y z
#    x 1.860200 -0.002890 0.013510 
#    y -0.002890 1.820840 -0.002010 
#    z 0.013510 -0.002010 1.826080 
# 
# From -- ./inp_files/241971.got.cif
#   From: 2010.05.17/outbox.cif.g08.bks.cpg/sg2_121_cif.got.tgz:241971.got - 2010.06.03 11:33:40.
