data_PCOD9036214
_publ_section_title
;
Structure prediction by ZEFSAII (Michael W. Deem and Ramdas Pophale) SiO2 
 PCOD9036214
Probable space group: P -1
;
_chemical_formula_sum "Si O2"
_cell_formula_units_Z 13
_cell_length_a 13.237810
_cell_length_b 5.451005
_cell_length_c 8.200288
_cell_angle_alpha 89.113193
_cell_angle_beta 115.053752
_cell_angle_gamma 111.581229
_cell_volume 491.513384
_symmetry_space_group_name_H-M "P -1"
_symmetry_group_IT_number 2
_symmetry_cell_setting 'triclinic'
loop_
_space_group_symop_operation_xyz
x,y,z
-x,-y,-z
loop_
_atom_site_type_symbol
_atom_site_label
_atom_site_fract_x
_atom_site_fract_y
_atom_site_fract_z
Si Si1 0.956180 0.255732 0.847217
Si Si2 0.068521 0.306891 0.597064
Si Si3 0.392309 0.214248 0.971752
Si Si4 0.500000 0.500000 0.500000
Si Si5 0.250120 0.251038 0.167665
Si Si6 0.543667 0.965839 0.282319
Si Si7 0.240521 0.609592 0.439319
O O1 0.845415 0.234642 0.648245
O O2 0.063847 0.302450 0.790653
O O3 0.880348 0.993665 0.901446
O O4 0.000000 0.500000 0.000000
O O5 0.189256 0.422756 0.564440
O O6 0.000000 0.500000 0.500000
O O7 0.000000 0.000000 0.500000
O O8 0.293307 0.261910 0.011479
O O9 0.444469 0.033199 0.115595
O O10 0.500000 0.500000 0.000000
O O11 0.358471 0.057145 0.779693
O O12 0.367261 0.254020 0.352134
O O13 0.491479 0.688019 0.341569
O O14 0.228244 0.474428 0.256219
O O15 0.616061 0.227323 0.436954
#
# Coordination Sequence:
#
# PCOD9036214 Si02
#       7
#     2   2   2   1   2   2   2
#     4  11  26  47  70 108 147 196 256 323 385 458
#     4  10  22  48  71 102 148 192 256 318 383 458
#     4  11  26  49  67 112 154 195 244 318 389 459
#     4  12  24  46  76 112 144 196 256 306 376 466
#     4  12  25  44  74 105 148 190 255 310 386 459
#     4  11  26  47  76 106 155 199 251 314 389 469
#     4  11  25  45  73 107 141 203 252 316 388 462
#
# _framework density 26.448924999999999
#
# number of rings (size 3 to 8) (size 9 to 14) (size 15 to 20)
#    0.000    0.923    4.615    0.923    4.308    1.846 
#    0.000    0.000    0.000    0.000    0.000    0.000 
#    0.000    0.000    0.000    0.000    0.000    0.000 
#
# Total GULP energy -72452.905627 kJ/mol
# GULP energy per Si atom -5573.300433 kJ/mol
# Density = 2.638873 g / cm^3
# Si number density = 26.448925 Si / 1000 Ang^3
#
#
#
# Elastic Constant Matrix: (Units=GPa)
#
#
# Indices 1 2 3 4 5 6 
#
# 1 162.1608 35.8304 57.7277 -17.5745 -29.0254 27.9511
# 2 35.8304 150.7845 53.1819 -20.1679 -10.6437 19.7970
# 3 57.7277 53.1819 112.9412 -0.7680 -34.7575 11.1739
# 4 -17.5745 -20.1679 -0.7680 61.5021 -0.3910 -5.2551
# 5 -29.0254 -10.6437 -34.7575 -0.3910 73.4672 -0.9954
# 6 27.9511 19.7970 11.1739 -5.2551 -0.9954 37.5055
#
#
#
# Elastic Compliance Matrix: (Units=1/GPa)
#
#
# Indices 1 2 3 4 5 6 
#
# 1 0.008841 0.000260 -0.003549 0.002124 0.001791 -0.005324
# 2 0.000260 0.008748 -0.004098 0.002611 -0.000599 -0.003241
# 3 -0.003549 -0.004098 0.013952 -0.002114 0.004600 0.000478
# 4 0.002124 0.002611 -0.002114 0.017712 0.000314 0.000159
# 5 0.001791 -0.000599 0.004600 0.000314 0.016384 -0.001910
# 6 -0.005324 -0.003241 0.000478 0.000159 -0.001910 0.032170
#
#
# Mechanical properties :
#
#
# Convention : Reuss Voigt Hill
#
# Bulk Modulus (GPa) = 59.64135 79.92963 69.78549
# Shear Modulus (GPa) = 42.31160 53.10472 47.70816
#
# Velocity S-wave (km/s) = 4.00402 4.48573 4.25171
# Velocity P-wave (km/s) = 6.63135 7.55745 7.10950
#
# Compressibility (1/GPa) = 0.01676689
#
# Stress axis : x y z
#
# Youngs Moduli (GPa) = 113.10907 114.31128 71.67344
#
# Poissons Ratio (x) = -0.02977 0.25439
# Poissons Ratio (y) = -0.02946 0.29374
# Poissons Ratio (z) = 0.40146 0.46848
#
# Static dielectric constant tensor:
#      x y z
#    x 2.111290 -0.114900 -0.206040 
#    y -0.114900 2.245640 0.045900 
#    z -0.206040 0.045900 2.044420 
# 
# From -- ./inp_files/287140.got.cif
#   From: 2010.05.17/outbox.cif.g08.bks.cpg/sg2_144_cif.got.tgz:287140.got - 2010.06.03 11:33:40.
