data_PCOD9036304
_publ_section_title
;
Structure prediction by ZEFSAII (Michael W. Deem and Ramdas Pophale) SiO2 
 PCOD9036304
Probable space group: P -1
;
_chemical_formula_sum "Si O2"
_cell_formula_units_Z 16
_cell_length_a 18.308510
_cell_length_b 11.674757
_cell_length_c 22.420222
_cell_angle_alpha 152.644346
_cell_angle_beta 162.945315
_cell_angle_gamma 29.401424
_cell_volume 637.109986
_symmetry_space_group_name_H-M "P -1"
_symmetry_group_IT_number 2
_symmetry_cell_setting 'triclinic'
loop_
_space_group_symop_operation_xyz
x,y,z
-x,-y,-z
loop_
_atom_site_type_symbol
_atom_site_label
_atom_site_fract_x
_atom_site_fract_y
_atom_site_fract_z
Si Si1 0.610353 0.429468 0.676079
Si Si2 0.632847 0.181541 0.100354
Si Si3 0.549336 0.752907 0.337039
Si Si4 0.930221 0.663033 0.294290
Si Si5 0.838279 0.890882 0.025164
Si Si6 0.012419 0.039349 0.630083
Si Si7 0.207566 0.187933 0.326046
Si Si8 0.527140 0.063771 0.344022
O O1 0.659312 0.712589 0.835950
O O2 0.413301 0.351686 0.534056
O O3 0.527403 0.326162 0.500262
O O4 0.884997 0.270975 0.832753
O O5 0.601141 0.454212 0.232866
O O6 0.755417 0.980190 0.152082
O O7 0.352886 0.187951 0.860706
O O8 0.811601 0.133467 0.159631
O O9 0.748799 0.818392 0.572370
O O10 0.287323 0.909910 0.232241
O O11 0.565896 0.865783 0.336704
O O12 0.058487 0.806807 0.512153
O O13 0.953672 0.369346 0.192619
O O14 0.030440 0.712817 0.329853
O O15 0.720102 0.943015 0.891817
O O16 0.767611 0.017436 0.467307
#
# Coordination Sequence:
#
# PCOD9036304 Si02
#       8
#     2   2   2   2   2   2   2   2
#     4  10  23  43  68  97 135 170 218 284 330 385
#     4  12  24  44  65 104 134 173 218 272 331 390
#     4  10  25  45  66  95 135 182 222 266 320 396
#     4  11  24  42  71  98 133 172 219 278 333 395
#     4  11  23  41  68 104 130 169 222 277 336 388
#     4  11  23  42  68 103 133 168 217 280 340 383
#     4  10  22  49  67  95 131 183 222 268 329 388
#     4  11  22  46  66  95 132 181 221 265 325 395
#
# _framework density 25.113403999999999
#
# number of rings (size 3 to 8) (size 9 to 14) (size 15 to 20)
#    0.000    1.250    3.750    1.500    1.750    3.500 
#   11.250    0.000    0.000    0.000    0.000    0.000 
#    0.000    0.000    0.000    0.000    0.000    0.000 
#
# Total GULP energy -89549.590395 kJ/mol
# GULP energy per Si atom -5596.849400 kJ/mol
# Density = 2.505624 g / cm^3
# Si number density = 25.113404 Si / 1000 Ang^3
#
#
#
# Elastic Constant Matrix: (Units=GPa)
#
#
# Indices 1 2 3 4 5 6 
#
# 1 137.7879 44.1343 29.8050 -17.9786 -27.8865 10.9707
# 2 44.1343 122.7897 26.4377 -9.3987 -24.7366 1.9340
# 3 29.8050 26.4377 79.1308 -20.7660 -32.1835 2.3563
# 4 -17.9786 -9.3987 -20.7660 44.9724 7.3320 -6.4885
# 5 -27.8865 -24.7366 -32.1835 7.3320 46.9042 -10.0505
# 6 10.9707 1.9340 2.3563 -6.4885 -10.0505 38.9281
#
#
#
# Elastic Compliance Matrix: (Units=1/GPa)
#
#
# Indices 1 2 3 4 5 6 
#
# 1 0.009179 -0.002321 -0.000852 0.002110 0.003044 -0.001282
# 2 -0.002321 0.009873 -0.001037 0.000279 0.003313 0.001128
# 3 -0.000852 -0.001037 0.020128 0.007221 0.012373 0.003471
# 4 0.002110 0.000279 0.007221 0.026570 0.003099 0.004183
# 5 0.003044 0.003313 0.012373 0.003099 0.034524 0.007658
# 6 -0.001282 0.001128 0.003471 0.004183 0.007658 0.028458
#
#
# Mechanical properties :
#
#
# Convention : Reuss Voigt Hill
#
# Bulk Modulus (GPa) = 32.50970 60.05139 46.28055
# Shear Modulus (GPa) = 33.92043 42.11637 38.01840
#
# Velocity S-wave (km/s) = 3.67916 4.09962 3.89507
# Velocity P-wave (km/s) = 5.56970 6.80979 6.22072
#
# Compressibility (1/GPa) = 0.03076005
#
# Stress axis : x y z
#
# Youngs Moduli (GPa) = 108.94915 101.29122 49.68127
#
# Poissons Ratio (x) = 0.23507 0.04233
# Poissons Ratio (y) = 0.25284 0.05152
# Poissons Ratio (z) = 0.09282 0.10504
#
# Static dielectric constant tensor:
#      x y z
#    x 1.994920 0.006120 0.071220 
#    y 0.006120 1.967660 0.010200 
#    z 0.071220 0.010200 2.055270 
# 
# From -- ./inp_files/427571.got.cif
#   From: 2010.05.17/outbox.cif.g08.bks.cpg/sg2_214_cif.got.tgz:427571.got - 2010.06.03 11:33:40.
