data_PCOD9036647
_publ_section_title
;
Structure prediction by ZEFSAII (Michael W. Deem and Ramdas Pophale) SiO2 
 PCOD9036647
Probable space group: P -1
;
_chemical_formula_sum "Si O2"
_cell_formula_units_Z 16
_cell_length_a 12.636796
_cell_length_b 8.707024
_cell_length_c 9.179823
_cell_angle_alpha 116.074462
_cell_angle_beta 59.244592
_cell_angle_gamma 94.661559
_cell_volume 766.058960
_symmetry_space_group_name_H-M "P -1"
_symmetry_group_IT_number 2
_symmetry_cell_setting 'triclinic'
loop_
_space_group_symop_operation_xyz
x,y,z
-x,-y,-z
loop_
_atom_site_type_symbol
_atom_site_label
_atom_site_fract_x
_atom_site_fract_y
_atom_site_fract_z
Si Si1 0.086953 0.497039 0.080532
Si Si2 0.321227 0.005454 0.215481
Si Si3 0.496086 0.301055 0.874486
Si Si4 0.910963 0.882775 0.081321
Si Si5 0.470627 0.259840 0.331263
Si Si6 0.373687 0.453336 0.749398
Si Si7 0.672405 0.962810 0.103930
Si Si8 0.939472 0.857621 0.398988
O O1 0.025966 0.668104 0.283345
O O2 0.071486 0.311844 0.079198
O O3 0.233069 0.492162 0.931431
O O4 0.000000 0.500000 0.000000
O O5 0.412868 0.146071 0.208005
O O6 0.288191 0.975638 0.057889
O O7 0.200430 0.106508 0.426084
O O8 0.389122 0.834698 0.188253
O O9 0.471842 0.324458 0.727816
O O10 0.500000 0.500000 0.000000
O O11 0.372919 0.219789 0.964146
O O12 0.929550 0.879425 0.240234
O O13 0.772447 0.958703 0.156972
O O14 0.000000 0.000000 0.000000
O O15 0.371911 0.370659 0.555680
O O16 0.559786 0.380979 0.251587
O O17 0.555076 0.105127 0.295642
O O18 0.000000 0.000000 0.500000
#
# Coordination Sequence:
#
# PCOD9036647 Si02
#       8
#     2   2   2   2   2   2   2   2
#     4  10  23  44  68  95 134 180 224 281 336 407
#     4  11  24  43  64  97 139 173 222 277 339 400
#     4  11  23  39  67  96 133 177 226 274 345 401
#     4  11  24  44  69  99 131 185 231 279 341 404
#     4  10  23  38  65  97 134 173 213 278 344 397
#     4  11  22  41  67  99 129 172 229 274 338 409
#     4  11  23  41  66  96 138 173 222 279 340 403
#     4  11  26  45  71 100 136 183 230 282 342 404
#
# _framework density 20.886119999999998
#
# number of rings (size 3 to 8) (size 9 to 14) (size 15 to 20)
#    0.000    1.250    1.250    5.250    8.750    1.000 
#    0.000    3.750    0.000    0.000    0.000    0.000 
#    0.000    0.000    0.000    0.000    0.000    0.000 
#
# Total GULP energy -89156.056147 kJ/mol
# GULP energy per Si atom -5572.253509 kJ/mol
# Density = 2.083858 g / cm^3
# Si number density = 20.886120 Si / 1000 Ang^3
#
#
#
# Elastic Constant Matrix: (Units=GPa)
#
#
# Indices 1 2 3 4 5 6 
#
# 1 89.8747 39.5142 24.4882 7.7576 1.9450 7.0032
# 2 39.5142 118.7337 47.1426 16.0011 -1.3698 20.4083
# 3 24.4882 47.1426 110.2536 20.0340 -2.1109 7.0903
# 4 7.7576 16.0011 20.0340 22.9552 -2.4405 1.3696
# 5 1.9450 -1.3698 -2.1109 -2.4405 34.7276 -5.8263
# 6 7.0032 20.4083 7.0903 1.3696 -5.8263 27.6403
#
#
#
# Elastic Compliance Matrix: (Units=1/GPa)
#
#
# Indices 1 2 3 4 5 6 
#
# 1 0.013232 -0.003749 -0.001156 -0.000938 -0.001105 -0.000474
# 2 -0.003749 0.012942 -0.003420 -0.004424 -0.001097 -0.007740
# 3 -0.001156 -0.003420 0.012217 -0.007879 0.000136 0.000104
# 4 -0.000938 -0.004424 -0.007879 0.054028 0.003808 0.003651
# 5 -0.001105 -0.001097 0.000136 0.003808 0.030307 0.007255
# 6 -0.000474 -0.007740 0.000104 0.003651 0.007255 0.043336
#
#
# Mechanical properties :
#
#
# Convention : Reuss Voigt Hill
#
# Bulk Modulus (GPa) = 45.99929 60.12802 53.06366
# Shear Modulus (GPa) = 26.32143 30.91241 28.61692
#
# Velocity S-wave (km/s) = 3.55383 3.85131 3.70556
# Velocity P-wave (km/s) = 6.23789 6.97336 6.61585
#
# Compressibility (1/GPa) = 0.02173946
#
# Stress axis : x y z
#
# Youngs Moduli (GPa) = 75.57528 77.26766 81.85402
#
# Poissons Ratio (x) = 0.28971 0.09461
# Poissons Ratio (y) = 0.28336 0.27997
# Poissons Ratio (z) = 0.08735 0.26429
#
# Static dielectric constant tensor:
#      x y z
#    x 1.688630 -0.206780 -0.024670 
#    y -0.206780 1.608570 0.002490 
#    z -0.024670 0.002490 1.785270 
# 
# From -- ./inp_files/223679.got.cif
#   From: 2010.05.17/outbox.cif.g08.bks.cpg/sg2_112_cif.got.tgz:223679.got - 2010.06.03 11:33:40.
