data_PCOD9036334
_publ_section_title
;
Structure prediction by ZEFSAII (Michael W. Deem and Ramdas Pophale) SiO2 
 PCOD9036334
Probable space group: P -1
;
_chemical_formula_sum "Si O2"
_cell_formula_units_Z 14
_cell_length_a 11.667970
_cell_length_b 13.533244
_cell_length_c 6.334130
_cell_angle_alpha 47.254973
_cell_angle_beta 125.420487
_cell_angle_gamma 122.087620
_cell_volume 582.485704
_symmetry_space_group_name_H-M "P -1"
_symmetry_group_IT_number 2
_symmetry_cell_setting 'triclinic'
loop_
_space_group_symop_operation_xyz
x,y,z
-x,-y,-z
loop_
_atom_site_type_symbol
_atom_site_label
_atom_site_fract_x
_atom_site_fract_y
_atom_site_fract_z
Si Si1 0.733700 0.113317 0.597383
Si Si2 0.161813 0.690563 0.937584
Si Si3 0.541800 0.370854 0.603242
Si Si4 0.455400 0.195627 0.146484
Si Si5 0.082306 0.458860 0.841483
Si Si6 0.006067 0.065730 0.164829
Si Si7 0.707834 0.689546 0.901153
O O1 0.791057 0.165807 0.347546
O O2 0.612084 0.196521 0.412987
O O3 0.644839 0.955580 0.713530
O O4 0.860602 0.122386 0.890031
O O5 0.111980 0.585637 0.844958
O O6 0.290479 0.627497 0.264864
O O7 0.020797 0.669643 0.962280
O O8 0.500000 0.500000 0.500000
O O9 0.438840 0.328567 0.358150
O O10 0.497063 0.234888 0.897407
O O11 0.356416 0.301119 0.951240
O O12 0.000000 0.500000 0.500000
O O13 0.227759 0.431577 0.944295
O O14 0.157866 0.178492 0.167197
O O15 0.000000 0.000000 0.500000
O O16 0.000000 0.000000 0.000000
#
# Coordination Sequence:
#
# PCOD9036334 Si02
#       7
#     2   2   2   2   2   2   2
#     4  10  22  50  72 104 150 198 248 313 391 463
#     4  10  24  46  70 102 150 197 249 314 388 461
#     4  11  24  45  70 105 147 194 246 315 386 451
#     4  10  24  45  73 106 145 191 254 311 383 465
#     4  11  25  43  69 106 144 202 253 316 383 465
#     4  12  27  48  77 113 156 204 257 319 394 465
#     4  12  26  41  74 108 142 191 261 317 374 470
#
# _framework density 24.034925000000001
#
# number of rings (size 3 to 8) (size 9 to 14) (size 15 to 20)
#    0.000    1.143    2.857    1.714    4.000    4.000 
#    2.571    4.286    0.000    0.000    0.000    0.000 
#    0.000    0.000    0.000    0.000    0.000    0.000 
#
# Total GULP energy -77947.112905 kJ/mol
# GULP energy per Si atom -5567.650922 kJ/mol
# Density = 2.398022 g / cm^3
# Si number density = 24.034925 Si / 1000 Ang^3
#
#
#
# Elastic Constant Matrix: (Units=GPa)
#
#
# Indices 1 2 3 4 5 6 
#
# 1 103.9098 -6.2420 20.3691 -4.2389 -2.5904 -6.0015
# 2 -6.2420 66.1998 1.9060 13.6731 -23.1323 12.3604
# 3 20.3691 1.9060 70.6239 2.7302 -5.4783 9.4944
# 4 -4.2389 13.6731 2.7302 39.6037 11.7614 1.4826
# 5 -2.5904 -23.1323 -5.4783 11.7614 30.2849 -2.7978
# 6 -6.0015 12.3604 9.4944 1.4826 -2.7978 36.1649
#
#
#
# Elastic Compliance Matrix: (Units=1/GPa)
#
#
# Indices 1 2 3 4 5 6 
#
# 1 0.010514 0.000763 -0.003342 0.000765 0.000802 0.002392
# 2 0.000763 0.032326 0.003371 -0.020682 0.032619 -0.008435
# 3 -0.003342 0.003371 0.016421 -0.004374 0.006465 -0.005338
# 4 0.000765 -0.020682 -0.004374 0.042294 -0.032571 0.004090
# 5 0.000802 0.032619 0.006465 -0.032571 0.071280 -0.005863
# 6 0.002392 -0.008435 -0.005338 0.004090 -0.005863 0.031711
#
#
# Mechanical properties :
#
#
# Convention : Reuss Voigt Hill
#
# Bulk Modulus (GPa) = 16.43510 30.31107 23.37308
# Shear Modulus (GPa) = 22.39719 36.19073 29.29396
#
# Velocity S-wave (km/s) = 3.05595 3.88462 3.49493
# Velocity P-wave (km/s) = 4.39370 5.72355 5.10214
#
# Compressibility (1/GPa) = 0.06084540
#
# Stress axis : x y z
#
# Youngs Moduli (GPa) = 95.11105 30.93524 60.89905
#
# Poissons Ratio (x) = -0.02361 0.20352
# Poissons Ratio (y) = -0.07259 -0.20531
# Poissons Ratio (z) = 0.31786 -0.10429
#
# Static dielectric constant tensor:
#      x y z
#    x 2.111400 -0.011820 0.090830 
#    y -0.011820 1.982660 -0.007470 
#    z 0.090830 -0.007470 1.993280 
# 
# From -- ./inp_files/77052.got.cif
#   From: 2010.05.17/outbox.cif.g08.bks.cpg/sg2_39_cif.got.tgz:77052.got - 2010.06.03 11:33:40.
