data_PCOD9036539
_publ_section_title
;
Structure prediction by ZEFSAII (Michael W. Deem and Ramdas Pophale) SiO2 
 PCOD9036539
Probable space group: P -1
;
_chemical_formula_sum "Si O2"
_cell_formula_units_Z 16
_cell_length_a 8.997588
_cell_length_b 9.305571
_cell_length_c 18.852750
_cell_angle_alpha 98.502190
_cell_angle_beta 38.979322
_cell_angle_gamma 117.889978
_cell_volume 808.806673
_symmetry_space_group_name_H-M "P -1"
_symmetry_group_IT_number 2
_symmetry_cell_setting 'triclinic'
loop_
_space_group_symop_operation_xyz
x,y,z
-x,-y,-z
loop_
_atom_site_type_symbol
_atom_site_label
_atom_site_fract_x
_atom_site_fract_y
_atom_site_fract_z
Si Si1 0.048417 0.852922 0.444882
Si Si2 0.154721 0.692077 0.156317
Si Si3 0.765903 0.003473 0.765784
Si Si4 0.156681 0.865563 0.635307
Si Si5 0.798902 0.317943 0.519564
Si Si6 0.710436 0.376346 0.055818
Si Si7 0.315199 0.455582 0.137582
Si Si8 0.495382 0.480295 0.585551
O O1 0.260780 0.833685 0.414607
O O2 0.741805 0.665899 0.541783
O O3 0.159484 0.891644 0.326807
O O4 0.000000 0.000000 0.500000
O O5 0.252088 0.604459 0.170846
O O6 0.812636 0.579934 0.277969
O O7 0.263875 0.887727 0.153993
O O8 0.242101 0.672233 0.044159
O O9 0.485559 0.809196 0.845798
O O10 0.016824 0.974633 0.686421
O O11 0.054911 0.716480 0.601770
O O12 0.992629 0.737603 0.755446
O O13 0.500000 0.000000 0.500000
O O14 0.557996 0.336682 0.576114
O O15 0.000000 0.500000 0.500000
O O16 0.522613 0.456596 0.119539
O O17 0.000000 0.500000 0.000000
O O18 0.500000 0.500000 0.000000
O O19 0.500000 0.500000 0.500000
#
# Coordination Sequence:
#
# PCOD9036539 Si02
#       8
#     2   2   2   2   2   2   2   2
#     4  11  23  39  58  92 134 167 205 262 322 370
#     4  11  22  41  68  90 126 162 214 260 316 389
#     4  11  23  41  63  92 130 167 207 264 322 379
#     4  11  22  38  64  96 129 165 217 261 317 382
#     4  10  23  38  57  91 132 171 202 257 321 374
#     4  10  24  45  67  91 120 167 215 262 319 377
#     4   9  22  42  65  91 125 169 208 261 320 386
#     4  11  22  38  63  96 125 168 212 251 320 386
#
# _framework density 19.782229999999998
#
# number of rings (size 3 to 8) (size 9 to 14) (size 15 to 20)
#    0.000    1.500    2.500    1.875    5.250    1.000 
#    2.250    0.625    0.000    0.000    0.000    0.000 
#    0.000    0.000    0.000    0.000    0.000    0.000 
#
# Total GULP energy -89184.937165 kJ/mol
# GULP energy per Si atom -5574.058573 kJ/mol
# Density = 1.973720 g / cm^3
# Si number density = 19.782230 Si / 1000 Ang^3
#
#
#
# Elastic Constant Matrix: (Units=GPa)
#
#
# Indices 1 2 3 4 5 6 
#
# 1 80.2479 57.7596 18.9156 2.0482 -19.5877 -20.1948
# 2 57.7596 118.8252 31.3913 6.2802 -18.4825 -11.5271
# 3 18.9156 31.3913 77.5985 -11.5408 -12.0899 -5.9993
# 4 2.0482 6.2802 -11.5408 41.1011 2.7588 -6.5176
# 5 -19.5877 -18.4825 -12.0899 2.7588 31.7058 1.7966
# 6 -20.1948 -11.5271 -5.9993 -6.5176 1.7966 40.4123
#
#
#
# Elastic Compliance Matrix: (Units=1/GPa)
#
#
# Indices 1 2 3 4 5 6 
#
# 1 0.023385 -0.009310 0.000251 0.001164 0.008511 0.008877
# 2 -0.009310 0.014175 -0.003849 -0.003156 0.001418 -0.001752
# 3 0.000251 -0.003849 0.015830 0.005119 0.003386 0.002053
# 4 0.001164 -0.003156 0.005119 0.027088 -0.001803 0.004890
# 5 0.008511 0.001418 0.003386 -0.001803 0.038895 0.003141
# 6 0.008877 -0.001752 0.002053 0.004890 0.003141 0.029635
#
#
# Mechanical properties :
#
#
# Convention : Reuss Voigt Hill
#
# Bulk Modulus (GPa) = 36.26429 54.75608 45.51019
# Shear Modulus (GPa) = 27.17162 33.88419 30.52790
#
# Velocity S-wave (km/s) = 3.71015 4.14316 3.93262
# Velocity P-wave (km/s) = 6.06013 7.11528 6.60880
#
# Compressibility (1/GPa) = 0.02757534
#
# Stress axis : x y z
#
# Youngs Moduli (GPa) = 42.76249 70.54480 63.17058
#
# Poissons Ratio (x) = 0.65678 -0.01588
# Poissons Ratio (y) = 0.39812 0.24314
# Poissons Ratio (z) = -0.01075 0.27152
#
# Static dielectric constant tensor:
#      x y z
#    x 1.725430 -0.008030 0.011790 
#    y -0.008030 1.722330 -0.012690 
#    z 0.011790 -0.012690 1.683150 
# 
# From -- ./inp_files/206048.got.cif
#   From: 2010.05.17/outbox.cif.g08.bks.cpg/sg2_104_cif.got.tgz:206048.got - 2010.06.03 11:33:40.
