data_PCOD9036881
_publ_section_title
;
Structure prediction by ZEFSAII (Michael W. Deem and Ramdas Pophale) SiO2 
 PCOD9036881
Probable space group: P -1
;
_chemical_formula_sum "Si O2"
_cell_formula_units_Z 14
_cell_length_a 11.741390
_cell_length_b 5.632671
_cell_length_c 9.202669
_cell_angle_alpha 77.143445
_cell_angle_beta 105.508560
_cell_angle_gamma 92.983118
_cell_volume 571.741963
_symmetry_space_group_name_H-M "P -1"
_symmetry_group_IT_number 2
_symmetry_cell_setting 'triclinic'
loop_
_space_group_symop_operation_xyz
x,y,z
-x,-y,-z
loop_
_atom_site_type_symbol
_atom_site_label
_atom_site_fract_x
_atom_site_fract_y
_atom_site_fract_z
Si Si1 0.849990 0.920417 0.374923
Si Si2 0.991772 0.140571 0.128701
Si Si3 0.150313 0.626639 0.463217
Si Si4 0.582978 0.068005 0.216681
Si Si5 0.161232 0.535674 0.156319
Si Si6 0.572067 0.401732 0.402515
Si Si7 0.589744 0.297757 0.891121
O O1 0.925028 0.001679 0.250817
O O2 0.867877 0.136115 0.472281
O O3 0.709603 0.926272 0.286419
O O4 0.891453 0.644431 0.465300
O O5 0.117872 0.258230 0.195287
O O6 0.903886 0.363255 0.023136
O O7 0.000000 0.000000 0.000000
O O8 0.121460 0.659354 0.278187
O O9 0.291317 0.581482 0.519581
O O10 0.559844 0.135225 0.367160
O O11 0.454971 0.967452 0.137282
O O12 0.609603 0.268802 0.072886
O O13 0.297398 0.591766 0.164915
O O14 0.500000 0.500000 0.500000
O O15 0.522247 0.553878 0.227852
#
# Coordination Sequence:
#
# PCOD9036881 Si02
#       7
#     2   2   2   2   2   2   2
#     4  11  25  48  73 105 146 189 236 297 355 426
#     4  11  28  49  73  99 138 188 247 300 354 422
#     4  11  26  45  74 108 148 185 235 292 366 421
#     4  10  23  39  65 102 140 185 233 283 349 422
#     4  11  26  46  70 105 138 188 242 297 356 421
#     4  11  22  38  63 102 142 182 222 282 348 426
#     4  11  21  42  65 100 140 182 235 282 352 420
#
# _framework density 24.486571999999999
#
# number of rings (size 3 to 8) (size 9 to 14) (size 15 to 20)
#    0.000    1.143    4.286    0.429    6.000    4.000 
#    0.000    0.000    0.000    0.000    0.000    0.000 
#    0.000    0.000    0.000    0.000    0.000    0.000 
#
# Total GULP energy -78102.775175 kJ/mol
# GULP energy per Si atom -5578.769655 kJ/mol
# Density = 2.443084 g / cm^3
# Si number density = 24.486572 Si / 1000 Ang^3
#
#
#
# Elastic Constant Matrix: (Units=GPa)
#
#
# Indices 1 2 3 4 5 6 
#
# 1 111.5669 74.1312 58.2054 21.3581 -14.4097 16.6285
# 2 74.1312 107.0432 62.9782 13.4639 -36.0948 14.5092
# 3 58.2054 62.9782 140.8897 -4.8021 -21.1300 -1.4211
# 4 21.3581 13.4639 -4.8021 39.5804 -14.6594 7.7831
# 5 -14.4097 -36.0948 -21.1300 -14.6594 48.8591 -0.4539
# 6 16.6285 14.5092 -1.4211 7.7831 -0.4539 42.7052
#
#
#
# Elastic Compliance Matrix: (Units=1/GPa)
#
#
# Indices 1 2 3 4 5 6 
#
# 1 0.021542 -0.013658 -0.004491 -0.010373 -0.008811 -0.002100
# 2 -0.013658 0.025976 -0.003627 0.004450 0.014888 -0.004281
# 3 -0.004491 -0.003627 0.011157 0.005461 0.002481 0.002383
# 4 -0.010373 0.004450 0.005461 0.035635 0.013248 -0.003645
# 5 -0.008811 0.014888 0.002481 0.013248 0.033882 -0.003599
# 6 -0.002100 -0.004281 0.002383 -0.003645 -0.003599 0.026394
#
#
# Mechanical properties :
#
#
# Convention : Reuss Voigt Hill
#
# Bulk Modulus (GPa) = 66.12692 83.34770 74.73731
# Shear Modulus (GPa) = 24.60900 37.17460 30.89180
#
# Velocity S-wave (km/s) = 3.17361 3.90059 3.55573
# Velocity P-wave (km/s) = 6.36342 7.37551 6.88808
#
# Compressibility (1/GPa) = 0.01512243
#
# Stress axis : x y z
#
# Youngs Moduli (GPa) = 46.42047 38.49744 89.63275
#
# Poissons Ratio (x) = 0.52581 0.40250
# Poissons Ratio (y) = 0.63403 0.32512
# Poissons Ratio (z) = 0.20845 0.13964
#
# Static dielectric constant tensor:
#      x y z
#    x 1.929880 -0.042850 0.025010 
#    y -0.042850 2.380980 0.011980 
#    z 0.025010 0.011980 1.946870 
# 
# From -- ./inp_files/46376.got.cif
#   From: 2010.05.17/outbox.cif.g08.bks.cpg/sg2_24_cif.got.tgz:46376.got - 2010.06.03 11:33:40.
