data_PCOD9036232
_publ_section_title
;
Structure prediction by ZEFSAII (Michael W. Deem and Ramdas Pophale) SiO2 
 PCOD9036232
Probable space group: P -1
;
_chemical_formula_sum "Si O2"
_cell_formula_units_Z 16
_cell_length_a 25.268356
_cell_length_b 5.593463
_cell_length_c 5.434028
_cell_angle_alpha 100.739151
_cell_angle_beta 121.381539
_cell_angle_gamma 76.732754
_cell_volume 636.116039
_symmetry_space_group_name_H-M "P -1"
_symmetry_group_IT_number 2
_symmetry_cell_setting 'triclinic'
loop_
_space_group_symop_operation_xyz
x,y,z
-x,-y,-z
loop_
_atom_site_type_symbol
_atom_site_label
_atom_site_fract_x
_atom_site_fract_y
_atom_site_fract_z
Si Si1 0.239044 0.465973 0.852420
Si Si2 0.030878 0.312512 0.733642
Si Si3 0.059252 0.922596 0.310078
Si Si4 0.261363 0.009206 0.201147
Si Si5 0.384044 0.702513 0.448960
Si Si6 0.851774 0.776392 0.685259
Si Si7 0.486746 0.151717 0.245192
Si Si8 0.640862 0.534112 0.145603
O O1 0.171189 0.429055 0.582952
O O2 0.289385 0.424978 0.743196
O O3 0.244047 0.740250 0.018646
O O4 0.255980 0.235412 0.037502
O O5 0.000000 0.500000 0.500000
O O6 0.966593 0.324548 0.736439
O O7 0.054470 0.063030 0.586714
O O8 0.095357 0.347279 0.023214
O O9 0.118205 0.009350 0.340019
O O10 0.000000 0.000000 0.000000
O O11 0.334654 0.945706 0.448372
O O12 0.209973 0.093081 0.299776
O O13 0.458950 0.679156 0.615021
O O14 0.370351 0.521875 0.605922
O O15 0.366754 0.681650 0.113236
O O16 0.500000 0.000000 0.500000
O O17 0.414592 0.268052 0.063942
O O18 0.500000 0.000000 0.000000
#
# Coordination Sequence:
#
# PCOD9036232 Si02
#       8
#     2   2   2   2   2   2   2   2
#     4  11  28  51  75 111 157 210 260 329 399 476
#     4  10  22  48  72 108 142 188 250 313 389 461
#     4   9  21  46  67 104 137 189 234 311 376 463
#     4  11  28  51  75 113 157 206 267 324 398 479
#     4  11  25  46  74 106 155 211 266 338 400 476
#     4  11  25  47  77 107 154 195 259 314 397 476
#     4  12  24  40  72 111 152 211 272 335 403 475
#     4  11  25  46  73 108 156 209 272 333 403 474
#
# _framework density 25.152646000000001
#
# number of rings (size 3 to 8) (size 9 to 14) (size 15 to 20)
#    0.000    1.250    0.000    3.750    8.750    2.000 
#   29.250    0.000    0.000    0.000    0.000    0.000 
#    0.000    0.000    0.000    0.000    0.000    0.000 
#
# Total GULP energy -89153.121122 kJ/mol
# GULP energy per Si atom -5572.070070 kJ/mol
# Density = 2.509540 g / cm^3
# Si number density = 25.152646 Si / 1000 Ang^3
#
#
#
# Elastic Constant Matrix: (Units=GPa)
#
#
# Indices 1 2 3 4 5 6 
#
# 1 157.6583 20.5779 23.2294 -0.1681 4.2574 19.5404
# 2 20.5779 69.1973 24.1977 -3.1466 -0.4123 17.3905
# 3 23.2294 24.1977 109.6577 -2.1087 24.7461 13.4450
# 4 -0.1681 -3.1466 -2.1087 46.0377 6.3743 -9.3441
# 5 4.2574 -0.4123 24.7461 6.3743 50.2753 -2.7660
# 6 19.5404 17.3905 13.4450 -9.3441 -2.7660 60.1107
#
#
#
# Elastic Compliance Matrix: (Units=1/GPa)
#
#
# Indices 1 2 3 4 5 6 
#
# 1 0.006867 -0.001307 -0.000923 -0.000432 -0.000178 -0.001723
# 2 -0.001307 0.016957 -0.003408 0.000021 0.001724 -0.003636
# 3 -0.000923 -0.003408 0.011575 0.000808 -0.005829 -0.001446
# 4 -0.000432 0.000021 0.000808 0.022867 -0.003075 0.003367
# 5 -0.000178 0.001724 -0.005829 -0.003075 0.023259 0.001455
# 6 -0.001723 -0.003636 -0.001446 0.003367 0.001455 0.019162
#
#
# Mechanical properties :
#
#
# Convention : Reuss Voigt Hill
#
# Bulk Modulus (GPa) = 41.45408 52.50259 46.97834
# Shear Modulus (GPa) = 41.66523 49.18528 45.42526
#
# Velocity S-wave (km/s) = 4.07442 4.42687 4.25430
# Velocity P-wave (km/s) = 6.21702 6.85919 6.54598
#
# Compressibility (1/GPa) = 0.02412308
#
# Stress axis : x y z
#
# Youngs Moduli (GPa) = 145.61640 58.97328 86.39263
#
# Poissons Ratio (x) = 0.07708 0.07976
# Poissons Ratio (y) = 0.19032 0.29441
# Poissons Ratio (z) = 0.13444 0.20097
#
# Static dielectric constant tensor:
#      x y z
#    x 2.901900 0.002720 0.152190 
#    y 0.002720 0.464200 0.145300 
#    z 0.152190 0.145300 2.020910 
# 
# From -- ./inp_files/121789.got.cif
#   From: 2010.05.17/outbox.cif.g08.bks.cpg/sg2_61_cif.got.tgz:121789.got - 2010.06.03 11:33:40.
