data_PCOD9036644
_publ_section_title
;
Structure prediction by ZEFSAII (Michael W. Deem and Ramdas Pophale) SiO2 
 PCOD9036644
Probable space group: P -1
;
_chemical_formula_sum "Si O2"
_cell_formula_units_Z 14
_cell_length_a 12.075818
_cell_length_b 14.726271
_cell_length_c 14.381564
_cell_angle_alpha 128.560685
_cell_angle_beta 159.542365
_cell_angle_gamma 53.438378
_cell_volume 698.334606
_symmetry_space_group_name_H-M "P -1"
_symmetry_group_IT_number 2
_symmetry_cell_setting 'triclinic'
loop_
_space_group_symop_operation_xyz
x,y,z
-x,-y,-z
loop_
_atom_site_type_symbol
_atom_site_label
_atom_site_fract_x
_atom_site_fract_y
_atom_site_fract_z
Si Si1 0.779173 0.205998 0.172803
Si Si2 0.149967 0.397182 0.487944
Si Si3 0.846553 0.921340 0.463539
Si Si4 0.685935 0.662923 0.989049
Si Si5 0.333312 0.384858 0.262790
Si Si6 0.802277 0.160065 0.491480
Si Si7 0.122032 0.560350 0.901386
O O1 0.654091 0.296412 0.212656
O O2 0.982765 0.279599 0.309705
O O3 0.996764 0.108388 0.333431
O O4 0.459939 0.155356 0.845792
O O5 0.000000 0.500000 0.500000
O O6 0.074822 0.421868 0.336417
O O7 0.523778 0.395639 0.801099
O O8 0.122906 0.890990 0.584951
O O9 0.745384 0.054698 0.448446
O O10 0.714037 0.596547 0.872060
O O11 0.844098 0.577304 0.135543
O O12 0.872364 0.778499 0.190811
O O13 0.500000 0.500000 0.500000
O O14 0.543162 0.265070 0.357727
O O15 0.040965 0.377749 0.098245
#
# Coordination Sequence:
#
# PCOD9036644 Si02
#       7
#     2   2   2   2   2   2   2
#     4  11  23  41  68  91 131 160 228 269 323 364
#     4  12  26  42  66  91 130 177 221 269 318 374
#     4  10  23  41  65  99 124 172 213 275 318 381
#     4  11  23  38  65  96 136 169 204 264 332 396
#     4  12  24  40  63  98 142 172 207 259 335 403
#     4  10  23  38  65  94 137 164 213 258 338 384
#     4  12  26  40  63  96 134 171 211 257 328 394
#
# _framework density 20.047696999999999
#
# number of rings (size 3 to 8) (size 9 to 14) (size 15 to 20)
#    0.000    0.857    4.286    2.571    8.000    1.714 
#    0.000    0.000    0.000    5.143    0.000    0.000 
#    0.000    0.000    0.000    0.000    0.000    0.000 
#
# Total GULP energy -78224.060094 kJ/mol
# GULP energy per Si atom -5587.432864 kJ/mol
# Density = 2.000207 g / cm^3
# Si number density = 20.047697 Si / 1000 Ang^3
#
#
#
# Elastic Constant Matrix: (Units=GPa)
#
#
# Indices 1 2 3 4 5 6 
#
# 1 62.4346 13.4086 5.1428 0.4588 0.8607 9.2427
# 2 13.4086 98.1694 0.4385 -6.6206 8.4395 16.5672
# 3 5.1428 0.4385 48.4196 -4.0252 13.9441 -0.8799
# 4 0.4588 -6.6206 -4.0252 29.0020 5.1657 2.9646
# 5 0.8607 8.4395 13.9441 5.1657 40.6096 -6.1701
# 6 9.2427 16.5672 -0.8799 2.9646 -6.1701 28.8507
#
#
#
# Elastic Compliance Matrix: (Units=1/GPa)
#
#
# Indices 1 2 3 4 5 6 
#
# 1 0.017204 -0.001589 -0.001926 -0.000426 -0.000020 -0.004618
# 2 -0.001589 0.012546 0.001765 0.004874 -0.005049 -0.008222
# 3 -0.001926 0.001765 0.024060 0.005732 -0.009669 -0.002319
# 4 -0.000426 0.004874 0.005732 0.038899 -0.009204 -0.008453
# 5 -0.000020 -0.005049 -0.009669 -0.009204 0.031737 0.010344
# 6 -0.004618 -0.008222 -0.002319 -0.008453 0.010344 0.043872
#
#
# Mechanical properties :
#
#
# Convention : Reuss Voigt Hill
#
# Bulk Modulus (GPa) = 19.87700 27.44481 23.66091
# Shear Modulus (GPa) = 26.51276 32.36137 29.43707
#
# Velocity S-wave (km/s) = 3.64054 4.02209 3.83606
# Velocity P-wave (km/s) = 5.25431 5.94046 5.60789
#
# Compressibility (1/GPa) = 0.05030940
#
# Stress axis : x y z
#
# Youngs Moduli (GPa) = 58.12680 79.70737 41.56221
#
# Poissons Ratio (x) = 0.12664 0.08006
# Poissons Ratio (y) = 0.09235 -0.07335
# Poissons Ratio (z) = 0.11197 -0.14067
#
# Static dielectric constant tensor:
#      x y z
#    x 1.755100 -0.005920 -0.002620 
#    y -0.005920 1.713500 -0.012380 
#    z -0.002620 -0.012380 1.749830 
# 
# From -- ./inp_files/66395.got.cif
#   From: 2010.05.17/outbox.cif.g08.bks.cpg/sg2_34_cif.got.tgz:66395.got - 2010.06.03 11:33:40.
