data_PCOD9036316
_publ_section_title
;
Structure prediction by ZEFSAII (Michael W. Deem and Ramdas Pophale) SiO2 
 PCOD9036316
Probable space group: P -1
;
_chemical_formula_sum "Si O2"
_cell_formula_units_Z 16
_cell_length_a 22.427747
_cell_length_b 16.178228
_cell_length_c 6.362807
_cell_angle_alpha 108.546706
_cell_angle_beta 95.694503
_cell_angle_gamma 21.959701
_cell_volume 682.393846
_symmetry_space_group_name_H-M "P -1"
_symmetry_group_IT_number 2
_symmetry_cell_setting 'triclinic'
loop_
_space_group_symop_operation_xyz
x,y,z
-x,-y,-z
loop_
_atom_site_type_symbol
_atom_site_label
_atom_site_fract_x
_atom_site_fract_y
_atom_site_fract_z
Si Si1 0.213189 0.731897 0.282992
Si Si2 0.918241 0.834809 0.056042
Si Si3 0.227507 0.427166 0.151888
Si Si4 0.421199 0.971596 0.852796
Si Si5 0.500986 0.396145 0.465452
Si Si6 0.672832 0.513294 0.272897
Si Si7 0.027941 0.126818 0.266103
Si Si8 0.947368 0.602932 0.809266
O O1 0.380245 0.518079 0.334091
O O2 0.283622 0.559110 0.012854
O O3 0.000000 0.000000 0.500000
O O4 0.170399 0.882770 0.275357
O O5 0.086946 0.645307 0.092158
O O6 0.728952 0.067639 0.301521
O O7 0.001588 0.628597 0.840068
O O8 0.865536 0.975439 0.971419
O O9 0.093365 0.628169 0.469847
O O10 0.406291 0.241313 0.106270
O O11 0.306953 0.220003 0.981443
O O12 0.513890 0.800133 0.538222
O O13 0.277456 0.104791 0.020470
O O14 0.500000 0.500000 0.500000
O O15 0.398976 0.484502 0.688086
O O16 0.871463 0.271173 0.252906
O O17 0.000000 0.500000 0.500000
O O18 0.000000 0.500000 0.000000
#
# Coordination Sequence:
#
# PCOD9036316 Si02
#       8
#     2   2   2   2   2   2   2   2
#     4  12  27  47  79 103 144 206 256 324 393 481
#     4  12  26  44  74 110 151 197 254 323 395 465
#     4  10  23  46  75 106 151 199 255 308 389 469
#     4  10  22  49  74 114 149 202 258 311 387 480
#     4  12  27  46  71 111 144 190 258 320 396 464
#     4  11  25  46  73 110 148 191 253 319 389 470
#     4  11  25  45  74 108 146 197 257 317 393 473
#     4  12  26  49  77 114 161 208 263 330 401 470
#
# _framework density 23.446870000000001
#
# number of rings (size 3 to 8) (size 9 to 14) (size 15 to 20)
#    0.000    0.750    3.750    2.625    3.500    4.000 
#    4.500    3.750    0.000    0.000    0.000    0.000 
#    0.000    0.000    0.000    0.000    0.000    0.000 
#
# Total GULP energy -89186.594609 kJ/mol
# GULP energy per Si atom -5574.162163 kJ/mol
# Density = 2.339350 g / cm^3
# Si number density = 23.446870 Si / 1000 Ang^3
#
#
#
# Elastic Constant Matrix: (Units=GPa)
#
#
# Indices 1 2 3 4 5 6 
#
# 1 115.1405 18.8688 45.6592 -3.1885 -0.1474 1.5396
# 2 18.8688 100.8923 39.0330 -2.5435 -2.4561 -10.8295
# 3 45.6592 39.0330 130.1972 11.9239 16.2846 -10.0303
# 4 -3.1885 -2.5435 11.9239 22.2435 2.6359 -1.2318
# 5 -0.1474 -2.4561 16.2846 2.6359 41.1041 -3.2313
# 6 1.5396 -10.8295 -10.0303 -1.2318 -3.2313 41.1241
#
#
#
# Elastic Compliance Matrix: (Units=1/GPa)
#
#
# Indices 1 2 3 4 5 6 
#
# 1 0.010510 -0.000377 -0.004157 0.003462 0.001338 -0.001298
# 2 -0.000377 0.011853 -0.003800 0.003215 0.002201 0.002478
# 3 -0.004157 -0.003800 0.011529 -0.006625 -0.004272 0.001433
# 4 0.003462 0.003215 -0.006625 0.049438 -0.000297 0.000558
# 5 0.001338 0.002201 -0.004272 -0.000297 0.026298 0.001545
# 6 -0.001298 0.002478 0.001433 0.000558 0.001545 0.025505
#
#
# Mechanical properties :
#
#
# Convention : Reuss Voigt Hill
#
# Bulk Modulus (GPa) = 58.05848 61.48358 59.77103
# Shear Modulus (GPa) = 31.73716 37.07228 34.40472
#
# Velocity S-wave (km/s) = 3.68309 3.98064 3.83475
# Velocity P-wave (km/s) = 6.54999 6.88526 6.71971
#
# Compressibility (1/GPa) = 0.01722401
#
# Stress axis : x y z
#
# Youngs Moduli (GPa) = 95.14472 84.36824 86.73469
#
# Poissons Ratio (x) = 0.03178 0.36059
# Poissons Ratio (y) = 0.03584 0.32961
# Poissons Ratio (z) = 0.39555 0.32062
#
# Static dielectric constant tensor:
#      x y z
#    x 1.934030 0.069990 -0.055890 
#    y 0.069990 1.898990 -0.047010 
#    z -0.055890 -0.047010 2.094880 
# 
# From -- ./inp_files/124865.got.cif
#   From: 2010.05.17/outbox.cif.g08.bks.cpg/sg2_63_cif.got.tgz:124865.got - 2010.06.03 11:33:40.
