data_PCOD9036747
_publ_section_title
;
Structure prediction by ZEFSAII (Michael W. Deem and Ramdas Pophale) SiO2 
 PCOD9036747
Probable space group: P -1
;
_chemical_formula_sum "Si O2"
_cell_formula_units_Z 12
_cell_length_a 12.439027
_cell_length_b 5.238129
_cell_length_c 11.480278
_cell_angle_alpha 64.122826
_cell_angle_beta 120.611646
_cell_angle_gamma 74.584770
_cell_volume 449.691415
_symmetry_space_group_name_H-M "P -1"
_symmetry_group_IT_number 2
_symmetry_cell_setting 'triclinic'
loop_
_space_group_symop_operation_xyz
x,y,z
-x,-y,-z
loop_
_atom_site_type_symbol
_atom_site_label
_atom_site_fract_x
_atom_site_fract_y
_atom_site_fract_z
Si Si1 0.392158 0.393959 0.573535
Si Si2 0.762678 0.552233 0.302955
Si Si3 0.291177 0.158715 0.368061
Si Si4 0.782988 0.395054 0.991816
Si Si5 0.963457 0.537818 0.243982
Si Si6 0.472571 0.660255 0.103124
O O1 0.246807 0.481460 0.558104
O O2 0.406941 0.166126 0.518104
O O3 0.526110 0.248679 0.777208
O O4 0.351461 0.768524 0.434480
O O5 0.929857 0.408113 0.369427
O O6 0.662225 0.420553 0.226633
O O7 0.891781 0.956148 0.131885
O O8 0.232258 0.439164 0.175093
O O9 0.139268 0.297425 0.337085
O O10 0.608756 0.527376 0.909394
O O11 0.859184 0.506425 0.100306
O O12 0.637216 0.976209 0.107069
#
# Coordination Sequence:
#
# PCOD9036747 Si02
#       6
#     2   2   2   2   2   2
#     4  10  23  39  60  90 123 154 187 248 296 353
#     4   8  19  42  62  90 112 157 199 246 287 346
#     4  12  24  39  59  90 125 156 191 238 301 353
#     4  11  23  40  64  86 116 159 201 244 283 347
#     4  11  23  40  64  86 116 159 201 244 283 347
#     4   8  19  42  62  90 112 157 199 246 287 346
#
# _framework density 26.684965999999999
#
# number of rings (size 3 to 8) (size 9 to 14) (size 15 to 20)
#    1.000    1.000    0.000    3.000    0.000    8.667 
#    0.000    0.000    0.000    0.000    0.000    0.000 
#    0.000    0.000    0.000    0.000    0.000    0.000 
#
# Total GULP energy -67195.086772 kJ/mol
# GULP energy per Si atom -5599.590564 kJ/mol
# Density = 2.662423 g / cm^3
# Si number density = 26.684966 Si / 1000 Ang^3
#
#
#
# Elastic Constant Matrix: (Units=GPa)
#
#
# Indices 1 2 3 4 5 6 
#
# 1 141.8466 16.5916 12.2145 -5.4750 -5.9766 1.8801
# 2 16.5916 143.0556 52.1010 11.3059 -1.1747 7.8208
# 3 12.2145 52.1010 79.9351 3.9178 -17.9190 16.4294
# 4 -5.4750 11.3059 3.9178 57.7571 2.8060 -0.5856
# 5 -5.9766 -1.1747 -17.9190 2.8060 35.2161 1.5381
# 6 1.8801 7.8208 16.4294 -0.5856 1.5381 35.7524
#
#
#
# Elastic Compliance Matrix: (Units=1/GPa)
#
#
# Indices 1 2 3 4 5 6 
#
# 1 0.007245 -0.000727 -0.000463 0.000816 0.000906 -0.000035
# 2 -0.000727 0.009692 -0.007183 -0.001300 -0.003410 0.001344
# 3 -0.000463 -0.007183 0.021605 -0.000733 0.011119 -0.008823
# 4 0.000816 -0.001300 -0.000733 0.017789 -0.001736 0.000944
# 5 0.000906 -0.003410 0.011119 -0.001736 0.034491 -0.005923
# 6 -0.000035 0.001344 -0.008823 0.000944 -0.005923 0.032002
#
#
# Mechanical properties :
#
#
# Convention : Reuss Voigt Hill
#
# Bulk Modulus (GPa) = 45.88124 58.51684 52.19904
# Shear Modulus (GPa) = 34.05187 44.67379 39.36283
#
# Velocity S-wave (km/s) = 3.57609 4.09604 3.84486
# Velocity P-wave (km/s) = 5.85510 6.65931 6.27011
#
# Compressibility (1/GPa) = 0.02179540
#
# Stress axis : x y z
#
# Youngs Moduli (GPa) = 138.02825 103.17913 46.28657
#
# Poissons Ratio (x) = 0.07499 0.02143
# Poissons Ratio (y) = 0.10031 0.33248
# Poissons Ratio (z) = 0.06392 0.74115
#
# Static dielectric constant tensor:
#      x y z
#    x 2.177460 -0.041470 0.021090 
#    y -0.041470 2.072590 0.007640 
#    z 0.021090 0.007640 2.010180 
# 
# From -- ./inp_files/409910.got.cif
#   From: 2010.05.17/outbox.cif.g08.bks.cpg/sg2_205_cif.got.tgz:409910.got - 2010.06.03 11:33:40.
