data_PCOD9036529
_publ_section_title
;
Structure prediction by ZEFSAII (Michael W. Deem and Ramdas Pophale) SiO2 
 PCOD9036529
Probable space group: P -1
;
_chemical_formula_sum "Si O2"
_cell_formula_units_Z 14
_cell_length_a 24.818563
_cell_length_b 9.002305
_cell_length_c 9.332836
_cell_angle_alpha 116.665226
_cell_angle_beta 39.781874
_cell_angle_gamma 148.012722
_cell_volume 565.972652
_symmetry_space_group_name_H-M "P -1"
_symmetry_group_IT_number 2
_symmetry_cell_setting 'triclinic'
loop_
_space_group_symop_operation_xyz
x,y,z
-x,-y,-z
loop_
_atom_site_type_symbol
_atom_site_label
_atom_site_fract_x
_atom_site_fract_y
_atom_site_fract_z
Si Si1 0.645321 0.208297 0.911863
Si Si2 0.099993 0.086437 0.674943
Si Si3 0.526308 0.209110 0.632481
Si Si4 0.421112 0.358915 0.757565
Si Si5 0.753813 0.136404 0.455808
Si Si6 0.043466 0.349904 0.977151
Si Si7 0.840094 0.849804 0.747721
O O1 0.785706 0.335248 0.595623
O O2 0.704180 0.494827 0.958110
O O3 0.500000 0.000000 0.000000
O O4 0.574088 0.992162 0.100458
O O5 0.270028 0.403310 0.569131
O O6 0.170073 0.154729 0.406700
O O7 0.015961 0.125102 0.855164
O O8 0.965094 0.724454 0.871551
O O9 0.448065 0.230797 0.720745
O O10 0.500000 0.000000 0.500000
O O11 0.500000 0.500000 0.500000
O O12 0.558231 0.726178 0.712336
O O13 0.218798 0.071548 0.046320
O O14 0.888397 0.215954 0.221714
O O15 0.787699 0.280543 0.293190
O O16 0.000000 0.000000 0.500000
#
# Coordination Sequence:
#
# PCOD9036529 Si02
#       7
#     2   2   2   2   2   2   2
#     4  12  23  46  76 104 145 195 242 308 373 440
#     4  11  23  46  73 105 150 190 245 301 377 430
#     4  12  27  47  77 109 144 193 255 310 370 450
#     4  12  28  45  75 107 151 196 253 311 373 443
#     4  11  22  43  70 104 143 192 246 288 369 443
#     4  10  23  37  72 106 140 188 239 296 361 439
#     4  12  28  48  74 109 153 195 248 312 377 444
#
# _framework density 24.736176
#
# number of rings (size 3 to 8) (size 9 to 14) (size 15 to 20)
#    0.000    0.571    5.714    0.857    6.000    3.429 
#    0.000    0.714    0.000    0.000    0.000    0.000 
#    0.000    0.000    0.000    0.000    0.000    0.000 
#
# Total GULP energy -78207.620848 kJ/mol
# GULP energy per Si atom -5586.258632 kJ/mol
# Density = 2.467988 g / cm^3
# Si number density = 24.736176 Si / 1000 Ang^3
#
#
#
# Elastic Constant Matrix: (Units=GPa)
#
#
# Indices 1 2 3 4 5 6 
#
# 1 170.3976 48.6532 84.6730 8.2459 4.9834 -43.6355
# 2 48.6532 53.3705 21.6317 10.3289 3.8694 -28.3134
# 3 84.6730 21.6317 161.7233 19.6749 -0.0796 -20.4620
# 4 8.2459 10.3289 19.6749 41.3853 -11.9820 4.4210
# 5 4.9834 3.8694 -0.0796 -11.9820 62.5285 -3.0592
# 6 -43.6355 -28.3134 -20.4620 4.4210 -3.0592 48.4180
#
#
#
# Elastic Compliance Matrix: (Units=1/GPa)
#
#
# Indices 1 2 3 4 5 6 
#
# 1 0.010846 -0.005977 -0.004451 0.000956 -0.000106 0.004304
# 2 -0.005977 0.034409 0.001922 -0.010909 -0.002941 0.016357
# 3 -0.004451 0.001922 0.008910 -0.004098 -0.000478 0.001222
# 4 0.000956 -0.010909 -0.004098 0.031463 0.006147 -0.009734
# 5 -0.000106 -0.002941 -0.000478 0.006147 0.017288 -0.001487
# 6 0.004304 0.016357 0.001222 -0.009734 -0.001487 0.035409
#
#
# Mechanical properties :
#
#
# Convention : Reuss Voigt Hill
#
# Bulk Modulus (GPa) = 26.91577 77.26749 52.09163
# Shear Modulus (GPa) = 29.81155 45.83527 37.82341
#
# Velocity S-wave (km/s) = 3.47534 4.30928 3.91458
# Velocity P-wave (km/s) = 5.19699 7.48761 6.44488
#
# Compressibility (1/GPa) = 0.03715294
#
# Stress axis : x y z
#
# Youngs Moduli (GPa) = 92.19852 29.06233 112.23943
#
# Poissons Ratio (x) = 0.17371 0.49957
# Poissons Ratio (y) = 0.55109 -0.21577
# Poissons Ratio (z) = 0.41037 -0.05587
#
# Static dielectric constant tensor:
#      x y z
#    x 7.087150 3.231270 -5.712100 
#    y 3.231270 4.147800 -3.614690 
#    z -5.712100 -3.614690 8.278040 
# 
# From -- ./inp_files/352287.got.cif
#   From: 2010.05.17/outbox.cif.g08.bks.cpg/sg2_177_cif.got.tgz:352287.got - 2010.06.03 11:33:40.
