data_PCOD9036118
_publ_section_title
;
Structure prediction by ZEFSAII (Michael W. Deem and Ramdas Pophale) SiO2 
 PCOD9036118
Probable space group: P -1
;
_chemical_formula_sum "Si O2"
_cell_formula_units_Z 14
_cell_length_a 7.633240
_cell_length_b 11.460970
_cell_length_c 8.840165
_cell_angle_alpha 129.780860
_cell_angle_beta 67.961224
_cell_angle_gamma 91.047836
_cell_volume 523.521512
_symmetry_space_group_name_H-M "P -1"
_symmetry_group_IT_number 2
_symmetry_cell_setting 'triclinic'
loop_
_space_group_symop_operation_xyz
x,y,z
-x,-y,-z
loop_
_atom_site_type_symbol
_atom_site_label
_atom_site_fract_x
_atom_site_fract_y
_atom_site_fract_z
Si Si1 0.069546 0.396084 0.039763
Si Si2 0.436983 0.687564 0.829528
Si Si3 0.879170 0.953061 0.284858
Si Si4 0.197664 0.786810 0.679443
Si Si5 0.733959 0.979995 0.672999
Si Si6 0.454239 0.405364 0.798376
Si Si7 0.149782 0.328356 0.431414
O O1 0.988902 0.520974 0.304443
O O2 0.015505 0.234386 0.924723
O O3 0.303540 0.330583 0.868256
O O4 0.000000 0.500000 0.000000
O O5 0.319341 0.730999 0.746168
O O6 0.379270 0.542964 0.808368
O O7 0.675485 0.627070 0.675051
O O8 0.395482 0.852000 0.074827
O O9 0.041922 0.029347 0.359904
O O10 0.830933 0.027734 0.196097
O O11 0.723266 0.980190 0.495484
O O12 0.346829 0.712084 0.430841
O O13 0.998932 0.736470 0.676259
O O14 0.724970 0.815714 0.615590
O O15 0.500000 0.500000 0.000000
#
# Coordination Sequence:
#
# PCOD9036118 Si02
#       7
#     2   2   2   2   2   2   2
#     4  12  23  46  81 116 146 199 264 313 379 449
#     4  12  27  49  79 111 159 200 250 315 388 456
#     4  10  23  44  83 110 150 200 257 322 372 449
#     4  11  26  50  76 114 157 198 254 315 390 449
#     4  10  22  47  74 113 152 199 255 312 374 454
#     4  12  26  50  76 112 151 201 253 319 375 455
#     4  11  25  49  78 114 154 200 254 314 386 452
#
# _framework density 26.741979000000001
#
# number of rings (size 3 to 8) (size 9 to 14) (size 15 to 20)
#    0.000    0.857    2.857    3.429    2.000    4.571 
#   10.286    0.000    0.000    0.000    0.000    0.000 
#    0.000    0.000    0.000    0.000    0.000    0.000 
#
# Total GULP energy -78416.877490 kJ/mol
# GULP energy per Si atom -5601.205535 kJ/mol
# Density = 2.668111 g / cm^3
# Si number density = 26.741979 Si / 1000 Ang^3
#
#
#
# Elastic Constant Matrix: (Units=GPa)
#
#
# Indices 1 2 3 4 5 6 
#
# 1 83.1347 10.0908 27.5257 -17.4004 -5.5820 -4.5406
# 2 10.0908 119.3793 32.4180 11.6160 2.3736 -16.4739
# 3 27.5257 32.4180 170.4950 -14.1602 -0.7310 9.7572
# 4 -17.4004 11.6160 -14.1602 38.4982 8.8820 -0.7898
# 5 -5.5820 2.3736 -0.7310 8.8820 38.8672 -9.0847
# 6 -4.5406 -16.4739 9.7572 -0.7898 -9.0847 44.8885
#
#
#
# Elastic Compliance Matrix: (Units=1/GPa)
#
#
# Indices 1 2 3 4 5 6 
#
# 1 0.014114 -0.001093 -0.001677 0.005869 0.001124 0.001722
# 2 -0.001093 0.010131 -0.002374 -0.004622 0.001239 0.004293
# 3 -0.001677 -0.002374 0.006968 0.002750 -0.001238 -0.002758
# 4 0.005869 -0.004622 0.002750 0.032563 -0.006852 -0.002514
# 5 0.001124 0.001239 -0.001238 -0.006852 0.028891 0.006564
# 6 0.001722 0.004293 -0.002758 -0.002514 0.006564 0.025911
#
#
# Mechanical properties :
#
#
# Convention : Reuss Voigt Hill
#
# Bulk Modulus (GPa) = 47.78997 57.00868 52.39933
# Shear Modulus (GPa) = 36.80698 44.64909 40.72803
#
# Velocity S-wave (km/s) = 3.71398 4.09054 3.90680
# Velocity P-wave (km/s) = 6.02504 6.60866 6.32358
#
# Compressibility (1/GPa) = 0.02092489
#
# Stress axis : x y z
#
# Youngs Moduli (GPa) = 70.84923 98.70373 143.50486
#
# Poissons Ratio (x) = 0.10792 0.24068
# Poissons Ratio (y) = 0.07747 0.34070
# Poissons Ratio (z) = 0.11882 0.23433
#
# Static dielectric constant tensor:
#      x y z
#    x -2.559900 -3.404490 1.205580 
#    y -3.404490 -0.285440 0.931400 
#    z 1.205580 0.931400 1.696010 
# 
# From -- ./inp_files/173315.got.cif
#   From: 2010.05.17/outbox.cif.g08.bks.cpg/sg2_87_cif.got.tgz:173315.got - 2010.06.03 11:33:40.
