data_PCOD9036388
_publ_section_title
;
Structure prediction by ZEFSAII (Michael W. Deem and Ramdas Pophale) SiO2 
 PCOD9036388
Probable space group: P -1
;
_chemical_formula_sum "Si O2"
_cell_formula_units_Z 16
_cell_length_a 10.024101
_cell_length_b 16.402226
_cell_length_c 8.311770
_cell_angle_alpha 143.621723
_cell_angle_beta 97.719886
_cell_angle_gamma 66.030217
_cell_volume 692.221647
_symmetry_space_group_name_H-M "P -1"
_symmetry_group_IT_number 2
_symmetry_cell_setting 'triclinic'
loop_
_space_group_symop_operation_xyz
x,y,z
-x,-y,-z
loop_
_atom_site_type_symbol
_atom_site_label
_atom_site_fract_x
_atom_site_fract_y
_atom_site_fract_z
Si Si1 0.780183 0.218840 0.870850
Si Si2 0.977784 0.224984 0.370850
Si Si3 0.788303 0.544187 0.378837
Si Si4 0.151347 0.448414 0.247674
Si Si5 0.813835 0.793441 0.353700
Si Si6 0.915302 0.007781 0.234137
Si Si7 0.384261 0.939297 0.448468
Si Si8 0.429538 0.134108 0.332389
O O1 0.912815 0.112854 0.854778
O O2 0.626898 0.205232 0.863511
O O3 0.764611 0.391486 0.128504
O O4 0.831538 0.125149 0.558345
O O5 0.857788 0.386377 0.521818
O O6 0.035319 0.275021 0.620909
O O7 0.104099 0.119780 0.083833
O O8 0.908476 0.125745 0.281213
O O9 0.768763 0.614077 0.667629
O O10 0.672862 0.687966 0.472741
O O11 0.972195 0.482135 0.274430
O O12 0.224530 0.334750 0.927314
O O13 0.786894 0.905239 0.373556
O O14 0.686402 0.898153 0.630678
O O15 0.500000 0.000000 0.500000
O O16 0.433843 0.893500 0.567408
O O17 0.500000 0.000000 0.000000
#
# Coordination Sequence:
#
# PCOD9036388 Si02
#       8
#     2   2   2   2   2   2   2   2
#     4  11  22  41  64  95 136 172 212 281 332 391
#     4  11  20  38  60 101 134 170 206 258 338 411
#     4  11  24  40  65 103 136 170 219 275 339 393
#     4  11  23  38  66 102 138 170 209 278 345 400
#     4  11  22  39  68  93 131 168 224 273 324 398
#     4  10  23  35  64  99 137 169 208 267 348 398
#     4  10  24  44  67  88 123 180 228 266 318 391
#     4  11  25  43  66  92 124 178 234 270 316 387
#
# _framework density 23.113983999999999
#
# number of rings (size 3 to 8) (size 9 to 14) (size 15 to 20)
#    0.000    1.250    3.750    1.875    5.250    0.500 
#    0.000    0.000    0.000    6.000    0.000    0.000 
#    0.000    0.000    0.000    0.000    0.000    0.000 
#
# Total GULP energy -89107.070002 kJ/mol
# GULP energy per Si atom -5569.191875 kJ/mol
# Density = 2.306138 g / cm^3
# Si number density = 23.113984 Si / 1000 Ang^3
#
#
#
# Elastic Constant Matrix: (Units=GPa)
#
#
# Indices 1 2 3 4 5 6 
#
# 1 38.1133 22.3525 18.8496 -0.3291 16.4454 0.9010
# 2 22.3525 143.5678 39.8084 -1.0797 17.5503 -20.8698
# 3 18.8496 39.8084 118.1418 -13.4685 13.5566 1.8264
# 4 -0.3291 -1.0797 -13.4685 44.6529 5.6242 11.2688
# 5 16.4454 17.5503 13.5566 5.6242 31.1363 -4.0653
# 6 0.9010 -20.8698 1.8264 11.2688 -4.0653 31.5823
#
#
#
# Elastic Compliance Matrix: (Units=1/GPa)
#
#
# Indices 1 2 3 4 5 6 
#
# 1 0.037797 -0.004133 -0.001979 0.003772 -0.018421 -0.007412
# 2 -0.004133 0.009530 -0.002889 -0.002473 -0.000518 0.007398
# 3 -0.001979 -0.002889 0.010768 0.004769 -0.003480 -0.004625
# 4 0.003772 -0.002473 0.004769 0.028378 -0.009547 -0.013372
# 5 -0.018421 -0.000518 -0.003480 -0.009547 0.046657 0.009796
# 6 -0.007412 0.007398 -0.004625 -0.013372 0.009796 0.043063
#
#
# Mechanical properties :
#
#
# Convention : Reuss Voigt Hill
#
# Bulk Modulus (GPa) = 24.94232 51.31600 38.12916
# Shear Modulus (GPa) = 24.08950 36.06180 30.07565
#
# Velocity S-wave (km/s) = 3.23182 3.95419 3.61111
# Velocity P-wave (km/s) = 4.97400 6.56483 5.82398
#
# Compressibility (1/GPa) = 0.04009250
#
# Stress axis : x y z
#
# Youngs Moduli (GPa) = 26.45744 104.93209 92.86773
#
# Poissons Ratio (x) = 0.43369 0.18382
# Poissons Ratio (y) = 0.10935 0.26825
# Poissons Ratio (z) = 0.05237 0.30310
#
# Static dielectric constant tensor:
#      x y z
#    x 2.048610 0.050130 -0.026540 
#    y 0.050130 1.909150 -0.014100 
#    z -0.026540 -0.014100 1.901040 
# 
# From -- ./inp_files/280257.got.cif
#   From: 2010.05.17/outbox.cif.g08.bks.cpg/sg2_141_cif.got.tgz:280257.got - 2010.06.03 11:33:40.
