data_PCOD9036716
_publ_section_title
;
Structure prediction by ZEFSAII (Michael W. Deem and Ramdas Pophale) SiO2 
 PCOD9036716
Probable space group: P -1
;
_chemical_formula_sum "Si O2"
_cell_formula_units_Z 14
_cell_length_a 9.055565
_cell_length_b 9.393837
_cell_length_c 10.509062
_cell_angle_alpha 123.886804
_cell_angle_beta 64.111345
_cell_angle_gamma 90.495416
_cell_volume 633.791005
_symmetry_space_group_name_H-M "P -1"
_symmetry_group_IT_number 2
_symmetry_cell_setting 'triclinic'
loop_
_space_group_symop_operation_xyz
x,y,z
-x,-y,-z
loop_
_atom_site_type_symbol
_atom_site_label
_atom_site_fract_x
_atom_site_fract_y
_atom_site_fract_z
Si Si1 0.537562 0.752422 0.726998
Si Si2 0.332345 0.950057 0.123194
Si Si3 0.126487 0.409475 0.024885
Si Si4 0.314939 0.661156 0.165063
Si Si5 0.039412 0.154904 0.142282
Si Si6 0.677784 0.343511 0.439587
Si Si7 0.485922 0.202121 0.644009
O O1 0.664535 0.552337 0.559908
O O2 0.365763 0.730658 0.716490
O O3 0.604230 0.917785 0.741301
O O4 0.493563 0.812260 0.918875
O O5 0.257804 0.809079 0.149427
O O6 0.204076 0.072719 0.129280
O O7 0.305754 0.290562 0.829628
O O8 0.174257 0.559535 0.166987
O O9 0.061364 0.293063 0.094469
O O10 0.000000 0.500000 0.000000
O O11 0.356186 0.777668 0.320771
O O12 0.500000 0.500000 0.000000
O O13 0.875176 0.235849 0.336676
O O14 0.000000 0.000000 0.000000
O O15 0.520467 0.312317 0.564078
O O16 0.500000 0.000000 0.500000
#
# Coordination Sequence:
#
# PCOD9036716 Si02
#       7
#     2   2   2   2   2   2   2
#     4  10  23  38  70  95 131 178 232 276 329 401
#     4  11  23  42  71  98 133 179 237 271 337 411
#     4  11  26  45  69  98 138 181 226 276 346 405
#     4  10  23  43  69  97 135 181 227 273 341 411
#     4  12  25  43  69 101 138 178 227 282 338 403
#     4  11  24  43  66 100 139 175 231 276 344 399
#     4  11  24  43  70  97 136 178 227 281 340 403
#
# _framework density 22.089300000000001
#
# number of rings (size 3 to 8) (size 9 to 14) (size 15 to 20)
#    0.000    1.143    1.429    4.286   14.000    0.571 
#    0.000    1.429    0.000    0.000    0.000    0.000 
#    0.000    0.000    0.000    0.000    0.000    0.000 
#
# Total GULP energy -78028.999765 kJ/mol
# GULP energy per Si atom -5573.499983 kJ/mol
# Density = 2.203902 g / cm^3
# Si number density = 22.089300 Si / 1000 Ang^3
#
#
#
# Elastic Constant Matrix: (Units=GPa)
#
#
# Indices 1 2 3 4 5 6 
#
# 1 111.6904 29.9521 25.1462 22.8239 17.8781 5.0739
# 2 29.9521 137.1643 13.6779 22.0988 16.9973 22.7473
# 3 25.1462 13.6779 64.9289 17.5006 9.3478 13.8341
# 4 22.8239 22.0988 17.5006 30.8430 14.4938 8.9654
# 5 17.8781 16.9973 9.3478 14.4938 36.2086 10.0702
# 6 5.0739 22.7473 13.8341 8.9654 10.0702 41.8107
#
#
#
# Elastic Compliance Matrix: (Units=1/GPa)
#
#
# Indices 1 2 3 4 5 6 
#
# 1 0.011341 -0.001371 -0.002756 -0.005148 -0.002754 0.002048
# 2 -0.001371 0.008952 0.000743 -0.004269 -0.000950 -0.003806
# 3 -0.002756 0.000743 0.019540 -0.008503 0.000730 -0.004888
# 4 -0.005148 -0.004269 -0.008503 0.050827 -0.013050 -0.001995
# 5 -0.002754 -0.000950 0.000730 -0.013050 0.035917 -0.005243
# 6 0.002048 -0.003806 -0.004888 -0.001995 -0.005243 0.029047
#
#
# Mechanical properties :
#
#
# Convention : Reuss Voigt Hill
#
# Bulk Modulus (GPa) = 30.24155 50.14843 40.19499
# Shear Modulus (GPa) = 28.83268 38.10631 33.46949
#
# Velocity S-wave (km/s) = 3.61678 4.15794 3.89677
# Velocity P-wave (km/s) = 5.58228 6.76780 6.20343
#
# Compressibility (1/GPa) = 0.03306709
#
# Stress axis : x y z
#
# Youngs Moduli (GPa) = 88.17470 111.70134 51.17610
#
# Poissons Ratio (x) = 0.15312 0.14104
# Poissons Ratio (y) = 0.12087 -0.03804
# Poissons Ratio (z) = 0.24301 -0.08303
#
# Static dielectric constant tensor:
#      x y z
#    x 1.849520 -0.039830 0.043040 
#    y -0.039830 1.915150 -0.052920 
#    z 0.043040 -0.052920 1.840190 
# 
# From -- ./inp_files/244692.got.cif
#   From: 2010.05.17/outbox.cif.g08.bks.cpg/sg2_123_cif.got.tgz:244692.got - 2010.06.03 11:33:40.
