data_PCOD9036195
_publ_section_title
;
Structure prediction by ZEFSAII (Michael W. Deem and Ramdas Pophale) SiO2 
 PCOD9036195
Probable space group: P -1
;
_chemical_formula_sum "Si O2"
_cell_formula_units_Z 16
_cell_length_a 14.737317
_cell_length_b 14.832134
_cell_length_c 14.691481
_cell_angle_alpha 39.707701
_cell_angle_beta 140.673223
_cell_angle_gamma 159.679920
_cell_volume 692.531792
_symmetry_space_group_name_H-M "P -1"
_symmetry_group_IT_number 2
_symmetry_cell_setting 'triclinic'
loop_
_space_group_symop_operation_xyz
x,y,z
-x,-y,-z
loop_
_atom_site_type_symbol
_atom_site_label
_atom_site_fract_x
_atom_site_fract_y
_atom_site_fract_z
Si Si1 0.813447 0.659311 0.683369
Si Si2 0.120541 0.760473 0.146757
Si Si3 0.008610 0.994750 0.901404
Si Si4 0.519319 0.896489 0.425407
Si Si5 0.201834 0.778231 0.986197
Si Si6 0.411003 0.582639 0.717889
Si Si7 0.677240 0.850308 0.417020
Si Si8 0.200224 0.645998 0.627404
O O1 0.683077 0.698167 0.582255
O O2 0.562499 0.357618 0.683823
O O3 0.030743 0.777292 0.830349
O O4 0.020654 0.867601 0.601279
O O5 0.372462 0.922005 0.275895
O O6 0.899209 0.492469 0.242976
O O7 0.181680 0.753505 0.098631
O O8 0.080770 0.893894 0.011165
O O9 0.220167 0.288372 0.804829
O O10 0.716984 0.785680 0.797163
O O11 0.000000 0.000000 0.000000
O O12 0.357197 0.633220 0.548028
O O13 0.621855 0.923662 0.389658
O O14 0.721621 0.124035 0.479458
O O15 0.000000 0.500000 0.000000
O O16 0.500000 0.000000 0.000000
O O17 0.376344 0.661853 0.713932
O O18 0.000000 0.500000 0.500000
#
# Coordination Sequence:
#
# PCOD9036195 Si02
#       8
#     2   2   2   2   2   2   2   2
#     4  10  22  48  69 107 145 191 244 319 378 447
#     4  12  29  46  81 111 153 207 256 316 394 462
#     4  12  27  49  72 109 151 196 250 314 385 458
#     4  12  27  45  77 109 147 200 261 308 373 466
#     4  12  28  49  74 110 156 199 254 320 388 458
#     4  12  27  48  74 103 151 199 241 313 374 450
#     4  10  24  44  78 102 145 192 252 311 378 449
#     4  12  26  49  75 114 151 201 259 322 379 462
#
# _framework density 23.103632999999999
#
# number of rings (size 3 to 8) (size 9 to 14) (size 15 to 20)
#    0.000    0.500    2.500    4.500    8.750    0.000 
#    4.500    0.000    0.000    0.000    0.000    0.000 
#    0.000    0.000    0.000    0.000    0.000    0.000 
#
# Total GULP energy -89244.620523 kJ/mol
# GULP energy per Si atom -5577.788783 kJ/mol
# Density = 2.305105 g / cm^3
# Si number density = 23.103633 Si / 1000 Ang^3
#
#
#
# Elastic Constant Matrix: (Units=GPa)
#
#
# Indices 1 2 3 4 5 6 
#
# 1 90.2133 31.9099 37.0421 -10.2962 9.1658 16.7343
# 2 31.9099 143.4840 39.3049 -12.3584 16.5760 6.3737
# 3 37.0421 39.3049 125.2999 -6.8538 16.9655 9.5440
# 4 -10.2962 -12.3584 -6.8538 43.8698 1.7875 5.4806
# 5 9.1658 16.5760 16.9655 1.7875 34.7994 5.6259
# 6 16.7343 6.3737 9.5440 5.4806 5.6259 22.0132
#
#
#
# Elastic Compliance Matrix: (Units=1/GPa)
#
#
# Indices 1 2 3 4 5 6 
#
# 1 0.015412 -0.001769 -0.002919 0.004032 -0.000241 -0.010880
# 2 -0.001769 0.008279 -0.001592 0.001794 -0.002777 -0.000098
# 3 -0.002919 -0.001592 0.009881 0.000659 -0.003169 -0.000958
# 4 0.004032 0.001794 0.000659 0.025648 -0.001979 -0.009750
# 5 -0.000241 -0.002777 -0.003169 -0.001979 0.032657 -0.005492
# 6 -0.010880 -0.000098 -0.000958 -0.009750 -0.005492 0.057973
#
#
# Mechanical properties :
#
#
# Convention : Reuss Voigt Hill
#
# Bulk Modulus (GPa) = 47.59463 63.94565 55.77014
# Shear Modulus (GPa) = 29.51305 36.85248 33.18277
#
# Velocity S-wave (km/s) = 3.57798 3.99820 3.79391
# Velocity P-wave (km/s) = 6.14121 7.00371 6.58659
#
# Compressibility (1/GPa) = 0.02101077
#
# Stress axis : x y z
#
# Youngs Moduli (GPa) = 64.88291 120.79054 101.19992
#
# Poissons Ratio (x) = 0.21373 0.29543
# Poissons Ratio (y) = 0.11481 0.16113
# Poissons Ratio (z) = 0.18941 0.19232
#
# Static dielectric constant tensor:
#      x y z
#    x 1.851860 0.012500 0.012400 
#    y 0.012500 1.954830 -0.053720 
#    z 0.012400 -0.053720 1.899770 
# 
# From -- ./inp_files/534272.got.cif
#   From: 2010.05.17/outbox.cif.g08.bks.cpg/sg2_268_cif.got.tgz:534272.got - 2010.06.03 11:33:40.
