data_PCOD9036690
_publ_section_title
;
Structure prediction by ZEFSAII (Michael W. Deem and Ramdas Pophale) SiO2 
 PCOD9036690
Probable space group: P -1
;
_chemical_formula_sum "Si O2"
_cell_formula_units_Z 16
_cell_length_a 9.044895
_cell_length_b 13.758056
_cell_length_c 7.972328
_cell_angle_alpha 121.971759
_cell_angle_beta 88.636366
_cell_angle_gamma 59.207023
_cell_volume 661.114272
_symmetry_space_group_name_H-M "P -1"
_symmetry_group_IT_number 2
_symmetry_cell_setting 'triclinic'
loop_
_space_group_symop_operation_xyz
x,y,z
-x,-y,-z
loop_
_atom_site_type_symbol
_atom_site_label
_atom_site_fract_x
_atom_site_fract_y
_atom_site_fract_z
Si Si1 0.029864 0.689728 0.742684
Si Si2 0.001223 0.077917 0.234686
Si Si3 0.400091 0.423093 0.389794
Si Si4 0.784579 0.903940 0.518375
Si Si5 0.418499 0.189281 0.705537
Si Si6 0.501195 0.618819 0.020685
Si Si7 0.602555 0.832857 0.906092
Si Si8 0.062231 0.834878 0.191642
O O1 0.201599 0.520509 0.578707
O O2 0.093033 0.758855 0.670339
O O3 0.823130 0.739161 0.762222
O O4 0.020023 0.762203 0.984245
O O5 0.200104 0.035267 0.253663
O O6 0.954291 0.005155 0.308456
O O7 0.000000 0.000000 0.000000
O O8 0.500000 0.500000 0.500000
O O9 0.381065 0.439991 0.205417
O O10 0.476340 0.252565 0.243662
O O11 0.721531 0.804673 0.412417
O O12 0.987548 0.820948 0.354062
O O13 0.627259 0.040199 0.532934
O O14 0.417767 0.323977 0.808776
O O15 0.390716 0.176786 0.895945
O O16 0.500000 0.500000 0.000000
O O17 0.284065 0.752195 0.106096
O O18 0.500000 0.000000 0.000000
#
# Coordination Sequence:
#
# PCOD9036690 Si02
#       8
#     2   2   2   2   2   2   2   2
#     4  11  23  43  67 102 136 187 230 289 361 420
#     4  10  23  38  68 103 136 177 234 289 346 424
#     4  11  25  46  69  99 143 184 235 300 354 422
#     4  11  21  41  66  99 132 179 222 291 348 408
#     4  10  23  42  66  97 139 173 232 294 347 412
#     4  11  25  45  65  95 137 185 235 287 355 418
#     4  11  24  45  71 102 142 189 242 296 355 428
#     4  11  22  41  68  96 139 179 238 287 345 429
#
# _framework density 24.201566
#
# number of rings (size 3 to 8) (size 9 to 14) (size 15 to 20)
#    0.000    1.250    3.750    1.500    3.500    1.000 
#    6.750    0.625    0.000    0.000    0.000    0.000 
#    0.000    0.000    0.000    0.000    0.000    0.000 
#
# Total GULP energy -89196.256747 kJ/mol
# GULP energy per Si atom -5574.766047 kJ/mol
# Density = 2.414648 g / cm^3
# Si number density = 24.201566 Si / 1000 Ang^3
#
#
#
# Elastic Constant Matrix: (Units=GPa)
#
#
# Indices 1 2 3 4 5 6 
#
# 1 141.0325 23.9857 65.2215 9.8491 43.6813 7.5402
# 2 23.9857 71.3266 22.6497 12.1191 16.6099 24.7983
# 3 65.2215 22.6497 84.5183 19.1890 31.8012 4.3343
# 4 9.8491 12.1191 19.1890 30.2667 4.1025 9.2817
# 5 43.6813 16.6099 31.8012 4.1025 62.7123 7.5596
# 6 7.5402 24.7983 4.3343 9.2817 7.5596 39.2508
#
#
#
# Elastic Compliance Matrix: (Units=1/GPa)
#
#
# Indices 1 2 3 4 5 6 
#
# 1 0.012124 -0.000654 -0.008049 0.002221 -0.004246 -0.000734
# 2 -0.000654 0.019914 -0.003127 -0.002083 -0.001737 -0.011284
# 3 -0.008049 -0.003127 0.023204 -0.011581 -0.005139 0.004688
# 4 0.002221 -0.002083 -0.011581 0.042686 0.003113 -0.008525
# 5 -0.004246 -0.001737 -0.005139 0.003113 0.022068 -0.002506
# 6 -0.000734 -0.011284 0.004688 -0.008525 -0.002506 0.034728
#
#
# Mechanical properties :
#
#
# Convention : Reuss Voigt Hill
#
# Bulk Modulus (GPa) = 31.66427 57.84347 44.75387
# Shear Modulus (GPa) = 26.46752 38.78065 32.62408
#
# Velocity S-wave (km/s) = 3.31059 4.00734 3.67552
# Velocity P-wave (km/s) = 5.26548 6.73531 6.04523
#
# Compressibility (1/GPa) = 0.03158134
#
# Stress axis : x y z
#
# Youngs Moduli (GPa) = 82.48438 50.21509 43.09661
#
# Poissons Ratio (x) = 0.03285 0.34688
# Poissons Ratio (y) = 0.05396 0.13476
# Poissons Ratio (z) = 0.66392 0.15702
#
# Static dielectric constant tensor:
#      x y z
#    x 1.984640 0.003740 0.003410 
#    y 0.003740 2.001860 -0.003420 
#    z 0.003410 -0.003420 1.984870 
# 
# From -- ./inp_files/208714.got.cif
#   From: 2010.05.17/outbox.cif.g08.bks.cpg/sg2_105_cif.got.tgz:208714.got - 2010.06.03 11:33:40.
