data_PCOD9036763
_publ_section_title
;
Structure prediction by ZEFSAII (Michael W. Deem and Ramdas Pophale) SiO2 
 PCOD9036763
Probable space group: P -1
;
_chemical_formula_sum "Si O2"
_cell_formula_units_Z 12
_cell_length_a 8.141122
_cell_length_b 15.728821
_cell_length_c 7.654291
_cell_angle_alpha 138.673399
_cell_angle_beta 125.324016
_cell_angle_gamma 41.584685
_cell_volume 429.280182
_symmetry_space_group_name_H-M "P -1"
_symmetry_group_IT_number 2
_symmetry_cell_setting 'triclinic'
loop_
_space_group_symop_operation_xyz
x,y,z
-x,-y,-z
loop_
_atom_site_type_symbol
_atom_site_label
_atom_site_fract_x
_atom_site_fract_y
_atom_site_fract_z
Si Si1 0.983701 0.579493 0.834129
Si Si2 0.681924 0.179185 0.970844
Si Si3 0.240601 0.540972 0.265533
Si Si4 0.811038 0.922636 0.933260
Si Si5 0.647492 0.075671 0.430765
Si Si6 0.568893 0.636124 0.468620
O O1 0.929988 0.453176 0.676421
O O2 0.728329 0.689515 0.743793
O O3 0.216454 0.507519 0.739038
O O4 0.051176 0.631565 0.128322
O O5 0.725301 0.062426 0.657788
O O6 0.423969 0.349440 0.045964
O O7 0.724353 0.085438 0.030691
O O8 0.904081 0.198432 0.127746
O O9 0.425960 0.593609 0.445438
O O10 0.797242 0.947014 0.171980
O O11 0.620643 0.890656 0.692216
O O12 0.619498 0.229664 0.574355
#
# Coordination Sequence:
#
# PCOD9036763 Si02
#       6
#     2   2   2   2   2   2
#     4  10  23  39  60  97 130 168 206 252 328 385
#     4  11  23  43  66  93 128 168 213 267 319 378
#     4  11  23  41  64  97 131 163 210 263 323 388
#     4  10  25  43  65  91 126 169 221 263 312 378
#     4  11  23  44  66  93 126 170 214 264 321 381
#     4  11  23  40  66  96 129 164 210 263 325 384
#
# _framework density 27.953773000000002
#
# number of rings (size 3 to 8) (size 9 to 14) (size 15 to 20)
#    0.000    1.333    1.667    3.000    4.667    0.000 
#    3.000    1.667    0.000    0.000    0.000    0.000 
#    0.000    0.000    0.000    0.000    0.000    0.000 
#
# Total GULP energy -67169.898822 kJ/mol
# GULP energy per Si atom -5597.491569 kJ/mol
# Density = 2.789015 g / cm^3
# Si number density = 27.953773 Si / 1000 Ang^3
#
#
#
# Elastic Constant Matrix: (Units=GPa)
#
#
# Indices 1 2 3 4 5 6 
#
# 1 165.9111 17.2997 31.7636 7.8191 12.1841 -6.2230
# 2 17.2997 62.9848 10.8604 -7.4286 1.9961 6.2693
# 3 31.7636 10.8604 73.0188 -12.9000 9.9544 10.2663
# 4 7.8191 -7.4286 -12.9000 42.8343 3.9838 0.3369
# 5 12.1841 1.9961 9.9544 3.9838 51.7450 -11.7467
# 6 -6.2230 6.2693 10.2663 0.3369 -11.7467 50.6234
#
#
#
# Elastic Compliance Matrix: (Units=1/GPa)
#
#
# Indices 1 2 3 4 5 6 
#
# 1 0.007099 -0.001824 -0.003484 -0.002645 -0.000331 0.001746
# 2 -0.001824 0.017150 -0.000732 0.003189 -0.000888 -0.002427
# 3 -0.003484 -0.000732 0.017685 0.006260 -0.004155 -0.004930
# 4 -0.002645 0.003189 0.006260 0.026609 -0.003425 -0.002961
# 5 -0.000331 -0.000888 -0.004155 -0.003425 0.021865 0.006008
# 6 0.001746 -0.002427 -0.004930 -0.002961 0.006008 0.022683
#
#
# Mechanical properties :
#
#
# Convention : Reuss Voigt Hill
#
# Bulk Modulus (GPa) = 33.49696 46.86246 40.17971
# Shear Modulus (GPa) = 37.00370 45.17328 41.08849
#
# Velocity S-wave (km/s) = 3.64228 4.02431 3.83805
# Velocity P-wave (km/s) = 5.44952 6.19630 5.83487
#
# Compressibility (1/GPa) = 0.02985345
#
# Stress axis : x y z
#
# Youngs Moduli (GPa) = 140.86394 58.30965 56.54454
#
# Poissons Ratio (x) = 0.10637 0.19702
# Poissons Ratio (y) = 0.25697 0.04137
# Poissons Ratio (z) = 0.49082 0.04266
#
# Static dielectric constant tensor:
#      x y z
#    x 2.173950 0.037920 -0.068510 
#    y 0.037920 2.158350 -0.001350 
#    z -0.068510 -0.001350 2.180340 
# 
# From -- ./inp_files/173774.got.cif
#   From: 2010.05.17/outbox.cif.g08.bks.cpg/sg2_87_cif.got.tgz:173774.got - 2010.06.03 11:33:40.
