data_PCOD9036411
_publ_section_title
;
Structure prediction by ZEFSAII (Michael W. Deem and Ramdas Pophale) SiO2 
 PCOD9036411
Probable space group: P -1
;
_chemical_formula_sum "Si O2"
_cell_formula_units_Z 16
_cell_length_a 9.769976
_cell_length_b 23.767629
_cell_length_c 6.681795
_cell_angle_alpha 52.095585
_cell_angle_beta 84.509179
_cell_angle_gamma 48.085058
_cell_volume 769.090600
_symmetry_space_group_name_H-M "P -1"
_symmetry_group_IT_number 2
_symmetry_cell_setting 'triclinic'
loop_
_space_group_symop_operation_xyz
x,y,z
-x,-y,-z
loop_
_atom_site_type_symbol
_atom_site_label
_atom_site_fract_x
_atom_site_fract_y
_atom_site_fract_z
Si Si1 0.342488 0.500235 0.599126
Si Si2 0.074922 0.694713 0.532668
Si Si3 0.224989 0.292963 0.225843
Si Si4 0.477816 0.890759 0.743392
Si Si5 0.506932 0.227912 0.695870
Si Si6 0.342579 0.061147 0.085360
Si Si7 0.817643 0.527266 0.683775
Si Si8 0.562545 0.349792 0.251100
O O1 0.500000 0.500000 0.500000
O O2 0.167090 0.609322 0.527248
O O3 0.223251 0.502351 0.442770
O O4 0.499219 0.383755 0.956025
O O5 0.273524 0.655409 0.694294
O O6 0.939636 0.701936 0.691255
O O7 0.901434 0.821868 0.199051
O O8 0.338033 0.223053 0.161498
O O9 0.400381 0.232491 0.509148
O O10 0.070179 0.424153 0.932502
O O11 0.575422 0.909637 0.840874
O O12 0.350875 0.985836 0.381736
O O13 0.377686 0.871121 0.948304
O O14 0.639063 0.241707 0.555818
O O15 0.299508 0.349163 0.570530
O O16 0.500000 0.000000 0.000000
O O17 0.667663 0.548828 0.824074
#
# Coordination Sequence:
#
# PCOD9036411 Si02
#       8
#     2   2   2   2   2   2   2   2
#     4  12  21  39  63  94 135 173 209 254 313 386
#     4  12  21  42  64  95 125 169 213 267 313 364
#     4  12  22  39  67  91 130 169 211 263 315 372
#     4  11  23  41  68  93 122 167 213 265 322 374
#     4  10  23  42  58  93 135 169 200 264 321 376
#     4  11  23  43  66  99 123 158 217 278 312 364
#     4  10  23  36  60  94 126 170 207 248 313 387
#     4  10  24  40  58  91 135 163 206 256 316 376
#
# _framework density 20.803789999999999
#
# number of rings (size 3 to 8) (size 9 to 14) (size 15 to 20)
#    0.750    0.250    5.000    2.250    1.750    0.500 
#    0.000    0.625    0.000    3.000    0.000    0.000 
#    0.000    0.000    0.000    0.000    0.000    0.000 
#
# Total GULP energy -89286.036932 kJ/mol
# GULP energy per Si atom -5580.377308 kJ/mol
# Density = 2.075644 g / cm^3
# Si number density = 20.803790 Si / 1000 Ang^3
#
#
#
# Elastic Constant Matrix: (Units=GPa)
#
#
# Indices 1 2 3 4 5 6 
#
# 1 56.1186 12.7580 10.6212 20.8481 -19.1656 5.5925
# 2 12.7580 64.8555 17.1506 16.1628 5.3039 8.8152
# 3 10.6212 17.1506 100.7012 12.7529 -23.3713 6.8950
# 4 20.8481 16.1628 12.7529 31.0488 0.5309 -3.0208
# 5 -19.1656 5.3039 -23.3713 0.5309 36.0628 1.8650
# 6 5.5925 8.8152 6.8950 -3.0208 1.8650 17.8341
#
#
#
# Elastic Compliance Matrix: (Units=1/GPa)
#
#
# Indices 1 2 3 4 5 6 
#
# 1 0.041562 -0.001117 0.008649 -0.033783 0.029630 -0.024646
# 2 -0.001117 0.020465 -0.002509 -0.009764 -0.004570 -0.009971
# 3 0.008649 -0.002509 0.015392 -0.012174 0.015695 -0.011126
# 4 -0.033783 -0.009764 -0.012174 0.068809 -0.027211 0.034628
# 5 0.029630 -0.004570 0.015695 -0.027211 0.055939 -0.023560
# 6 -0.024646 -0.009971 -0.011126 0.034628 -0.023560 0.081360
#
#
# Mechanical properties :
#
#
# Convention : Reuss Voigt Hill
#
# Bulk Modulus (GPa) = 11.43328 33.63720 22.53524
# Shear Modulus (GPa) = 16.52155 29.06551 22.79353
#
# Velocity S-wave (km/s) = 2.82114 3.74187 3.31364
# Velocity P-wave (km/s) = 4.01491 5.90531 5.04936
#
# Compressibility (1/GPa) = 0.08746400
#
# Stress axis : x y z
#
# Youngs Moduli (GPa) = 24.06047 48.86509 64.97048
#
# Poissons Ratio (x) = 0.05459 -0.56193
# Poissons Ratio (y) = 0.02688 0.16300
# Poissons Ratio (z) = -0.20810 0.12260
#
# Static dielectric constant tensor:
#      x y z
#    x 1.734430 0.008780 -0.062210 
#    y 0.008780 1.749030 -0.024050 
#    z -0.062210 -0.024050 1.813380 
# 
# From -- ./inp_files/55367.got.cif
#   From: 2010.05.17/outbox.cif.g08.bks.cpg/sg2_28_cif.got.tgz:55367.got - 2010.06.03 11:33:40.
