data_PCOD9036099
_publ_section_title
;
Structure prediction by ZEFSAII (Michael W. Deem and Ramdas Pophale) SiO2 
 PCOD9036099
Probable space group: P -1
;
_chemical_formula_sum "Si O2"
_cell_formula_units_Z 14
_cell_length_a 12.395401
_cell_length_b 12.053223
_cell_length_c 5.116243
_cell_angle_alpha 111.585427
_cell_angle_beta 132.777808
_cell_angle_gamma 70.266507
_cell_volume 517.375973
_symmetry_space_group_name_H-M "P -1"
_symmetry_group_IT_number 2
_symmetry_cell_setting 'triclinic'
loop_
_space_group_symop_operation_xyz
x,y,z
-x,-y,-z
loop_
_atom_site_type_symbol
_atom_site_label
_atom_site_fract_x
_atom_site_fract_y
_atom_site_fract_z
Si Si1 0.120803 0.040347 0.444138
Si Si2 0.263350 0.253404 0.274542
Si Si3 0.664226 0.988919 0.650932
Si Si4 0.161415 0.818084 0.716453
Si Si5 0.986942 0.417665 0.156139
Si Si6 0.695391 0.374723 0.874610
Si Si7 0.403872 0.343047 0.071931
O O1 0.273481 0.061119 0.568227
O O2 0.011294 0.159821 0.463700
O O3 0.153113 0.913944 0.547776
O O4 0.000000 0.000000 0.000000
O O5 0.253987 0.112119 0.109237
O O6 0.120262 0.313671 0.242714
O O7 0.296167 0.312185 0.104359
O O8 0.391501 0.272084 0.717763
O O9 0.500000 0.000000 0.500000
O O10 0.724778 0.114962 0.864280
O O11 0.236214 0.684090 0.794596
O O12 0.000000 0.500000 0.500000
O O13 0.000000 0.500000 0.000000
O O14 0.835268 0.363645 0.900783
O O15 0.563232 0.323265 0.457775
O O16 0.637343 0.515929 0.943751
#
# Coordination Sequence:
#
# PCOD9036099 Si02
#       7
#     2   2   2   2   2   2   2
#     4   9  21  46  70 104 145 189 255 307 380 441
#     4  12  25  51  74 109 156 198 257 315 376 453
#     4  11  25  45  71 108 147 199 247 314 377 449
#     4  10  22  47  73 110 142 201 250 311 380 454
#     4  12  24  48  75 112 146 196 255 312 381 447
#     4  11  24  48  75 111 151 195 254 306 379 464
#     4  11  27  48  75 111 154 205 244 312 385 450
#
# _framework density 27.059629000000001
#
# number of rings (size 3 to 8) (size 9 to 14) (size 15 to 20)
#    0.000    1.143    2.857    1.714    2.000    4.000 
#   33.429    0.000    3.143    0.000    0.000    0.000 
#    0.000    0.000    0.000    0.000    0.000    0.000 
#
# Total GULP energy -78257.389244 kJ/mol
# GULP energy per Si atom -5589.813517 kJ/mol
# Density = 2.699804 g / cm^3
# Si number density = 27.059629 Si / 1000 Ang^3
#
#
#
# Elastic Constant Matrix: (Units=GPa)
#
#
# Indices 1 2 3 4 5 6 
#
# 1 174.6030 25.5775 43.1404 -18.7215 16.7475 -2.9422
# 2 25.5775 135.7454 48.3474 -47.7107 -5.1360 9.6969
# 3 43.1404 48.3474 87.0528 -29.8157 -2.1745 -1.4305
# 4 -18.7215 -47.7107 -29.8157 54.8884 1.2070 1.8283
# 5 16.7475 -5.1360 -2.1745 1.2070 66.3194 -15.4200
# 6 -2.9422 9.6969 -1.4305 1.8283 -15.4200 26.9419
#
#
#
# Elastic Compliance Matrix: (Units=1/GPa)
#
#
# Indices 1 2 3 4 5 6 
#
# 1 0.006763 0.000090 -0.003222 0.000700 -0.001968 -0.000639
# 2 0.000090 0.012172 -0.003944 0.008668 -0.000656 -0.005544
# 3 -0.003222 -0.003944 0.016910 0.004539 0.001575 0.002559
# 4 0.000700 0.008668 0.004539 0.028662 -0.001133 -0.005396
# 5 -0.001968 -0.000656 0.001575 -0.001133 0.018040 0.010507
# 6 -0.000639 -0.005544 0.002559 -0.005396 0.010507 0.045558
#
#
# Mechanical properties :
#
#
# Convention : Reuss Voigt Hill
#
# Bulk Modulus (GPa) = 46.09303 70.17019 58.13161
# Shear Modulus (GPa) = 33.44771 48.31899 40.88335
#
# Velocity S-wave (km/s) = 3.51960 4.23028 3.89120
# Velocity P-wave (km/s) = 5.79548 7.06033 6.45895
#
# Compressibility (1/GPa) = 0.02169525
#
# Stress axis : x y z
#
# Youngs Moduli (GPa) = 147.86199 82.15525 59.13664
#
# Poissons Ratio (x) = -0.00741 0.19052
# Poissons Ratio (y) = -0.01334 0.23321
# Poissons Ratio (z) = 0.47636 0.32398
#
# Static dielectric constant tensor:
#      x y z
#    x 2.424270 -0.115510 -0.496510 
#    y -0.115510 2.166490 0.198990 
#    z -0.496510 0.198990 2.783990 
# 
# From -- ./inp_files/71546.got.cif
#   From: 2010.05.17/outbox.cif.g08.bks.cpg/sg2_36_cif.got.tgz:71546.got - 2010.06.03 11:33:40.
