data_PCOD9036150
_publ_section_title
;
Structure prediction by ZEFSAII (Michael W. Deem and Ramdas Pophale) SiO2 
 PCOD9036150
Probable space group: P -1
;
_chemical_formula_sum "Si O2"
_cell_formula_units_Z 14
_cell_length_a 9.733596
_cell_length_b 14.262706
_cell_length_c 13.453345
_cell_angle_alpha 29.311280
_cell_angle_beta 75.089236
_cell_angle_gamma 55.373144
_cell_volume 606.803127
_symmetry_space_group_name_H-M "P -1"
_symmetry_group_IT_number 2
_symmetry_cell_setting 'triclinic'
loop_
_space_group_symop_operation_xyz
x,y,z
-x,-y,-z
loop_
_atom_site_type_symbol
_atom_site_label
_atom_site_fract_x
_atom_site_fract_y
_atom_site_fract_z
Si Si1 0.975610 0.191783 0.126668
Si Si2 0.963356 0.535120 0.590453
Si Si3 0.805355 0.622831 0.125570
Si Si4 0.493153 0.236240 0.285001
Si Si5 0.417431 0.816171 0.911290
Si Si6 0.926775 0.790679 0.705497
Si Si7 0.109929 0.835182 0.028676
O O1 0.009670 0.011034 0.196961
O O2 0.996295 0.140158 0.288175
O O3 0.732572 0.484476 0.894051
O O4 0.132110 0.218132 0.058173
O O5 0.000000 0.500000 0.500000
O O6 0.163062 0.405181 0.736326
O O7 0.778154 0.852707 0.362481
O O8 0.892597 0.390480 0.761296
O O9 0.973123 0.323083 0.316704
O O10 0.594870 0.755427 0.993849
O O11 0.519979 0.285732 0.120689
O O12 0.500000 0.000000 0.500000
O O13 0.688389 0.079082 0.465105
O O14 0.330246 0.722302 0.077249
O O15 0.000000 0.500000 0.000000
O O16 0.000000 0.000000 0.000000
#
# Coordination Sequence:
#
# PCOD9036150 Si02
#       7
#     2   2   2   2   2   2   2
#     4  10  21  38  64  94 137 175 217 274 334 396
#     4  11  23  46  73  94 131 185 225 272 344 397
#     4  10  20  38  66 103 133 169 226 277 331 404
#     4  12  18  35  68  99 133 175 216 266 345 401
#     4  12  24  42  74  99 135 180 221 283 342 389
#     4  10  17  32  60  98 132 167 216 273 327 401
#     4  11  25  47  67  97 138 178 229 282 325 400
#
# _framework density 23.071732999999998
#
# number of rings (size 3 to 8) (size 9 to 14) (size 15 to 20)
#    0.000    1.143    7.143    1.714    0.000    1.143 
#    0.000    5.714    0.000    0.000    0.000    0.000 
#    0.000    0.000    0.000    0.000    0.000    0.000 
#
# Total GULP energy -78102.862576 kJ/mol
# GULP energy per Si atom -5578.775898 kJ/mol
# Density = 2.301922 g / cm^3
# Si number density = 23.071733 Si / 1000 Ang^3
#
#
#
# Elastic Constant Matrix: (Units=GPa)
#
#
# Indices 1 2 3 4 5 6 
#
# 1 162.0122 53.0119 53.7587 10.4349 22.3671 4.1507
# 2 53.0119 176.7475 26.7070 33.5795 14.6917 22.5645
# 3 53.7587 26.7070 73.9721 17.2591 18.9133 2.6537
# 4 10.4349 33.5795 17.2591 29.8863 5.0716 3.2184
# 5 22.3671 14.6917 18.9133 5.0716 52.4701 11.2089
# 6 4.1507 22.5645 2.6537 3.2184 11.2089 47.0256
#
#
#
# Elastic Compliance Matrix: (Units=1/GPa)
#
#
# Indices 1 2 3 4 5 6 
#
# 1 0.008917 -0.002347 -0.006030 0.003165 -0.001449 0.000808
# 2 -0.002347 0.008288 0.000872 -0.008632 -0.000116 -0.003201
# 3 -0.006030 0.000872 0.021118 -0.010393 -0.004429 0.000689
# 4 0.003165 -0.008632 -0.010393 0.047941 -0.000073 0.001185
# 5 -0.001449 -0.000116 -0.004429 -0.000073 0.022357 -0.004890
# 6 0.000808 -0.003201 0.000689 0.001185 -0.004890 0.023775
#
#
# Mechanical properties :
#
#
# Convention : Reuss Voigt Hill
#
# Bulk Modulus (GPa) = 42.89368 75.52078 59.20723
# Shear Modulus (GPa) = 32.22141 44.49336 38.35738
#
# Velocity S-wave (km/s) = 3.74113 4.39621 4.08183
# Velocity P-wave (km/s) = 6.10682 7.65330 6.92337
#
# Compressibility (1/GPa) = 0.02331346
#
# Stress axis : x y z
#
# Youngs Moduli (GPa) = 112.14958 120.65187 47.35252
#
# Poissons Ratio (x) = 0.28321 0.28552
# Poissons Ratio (y) = 0.26325 -0.04130
# Poissons Ratio (z) = 0.67622 -0.10522
#
# Static dielectric constant tensor:
#      x y z
#    x 1.950050 -0.053380 -0.033770 
#    y -0.053380 1.902440 0.086540 
#    z -0.033770 0.086540 1.981710 
# 
# From -- ./inp_files/503610.got.cif
#   From: 2010.05.17/outbox.cif.g08.bks.cpg/sg2_252_cif.got.tgz:503610.got - 2010.06.03 11:33:40.
