data_PCOD9036931
_publ_section_title
;
Structure prediction by ZEFSAII (Michael W. Deem and Ramdas Pophale) SiO2 
 PCOD9036931
Probable space group: P -1
;
_chemical_formula_sum "Si O2"
_cell_formula_units_Z 16
_cell_length_a 9.353960
_cell_length_b 14.408336
_cell_length_c 11.390797
_cell_angle_alpha 136.238438
_cell_angle_beta 70.118842
_cell_angle_gamma 138.539065
_cell_volume 631.583329
_symmetry_space_group_name_H-M "P -1"
_symmetry_group_IT_number 2
_symmetry_cell_setting 'triclinic'
loop_
_space_group_symop_operation_xyz
x,y,z
-x,-y,-z
loop_
_atom_site_type_symbol
_atom_site_label
_atom_site_fract_x
_atom_site_fract_y
_atom_site_fract_z
Si Si1 0.812834 0.958822 0.392974
Si Si2 0.657429 0.984441 0.253615
Si Si3 0.680299 0.679441 0.712990
Si Si4 0.820493 0.492258 0.497523
Si Si5 0.529028 0.862586 0.909687
Si Si6 0.634752 0.263322 0.566102
Si Si7 0.814461 0.444562 0.916271
Si Si8 0.314276 0.377816 0.748478
O O1 0.812094 0.979425 0.273007
O O2 0.641198 0.940828 0.499671
O O3 0.665864 0.724861 0.254017
O O4 0.085871 0.165888 0.544809
O O5 0.417558 0.805377 0.233294
O O6 0.748105 0.194642 0.447860
O O7 0.566424 0.907719 0.078048
O O8 0.500000 0.500000 0.500000
O O9 0.875838 0.689918 0.672891
O O10 0.719597 0.865034 0.840561
O O11 0.531178 0.568216 0.776148
O O12 0.704926 0.368344 0.293169
O O13 0.618452 0.332037 0.510481
O O14 0.000000 0.500000 0.500000
O O15 0.500000 0.000000 0.000000
O O16 0.818250 0.458031 0.786125
O O17 0.765571 0.550131 0.088852
O O18 0.000000 0.500000 0.000000
#
# Coordination Sequence:
#
# PCOD9036931 Si02
#       8
#     2   2   2   2   2   2   2   2
#     4  10  23  39  66 102 133 182 217 289 353 412
#     4  11  22  39  64  93 138 177 227 285 346 410
#     4  10  23  44  71 100 137 187 232 289 347 412
#     4  11  25  44  71  99 136 183 236 290 350 416
#     4  11  23  45  71  95 135 191 233 289 348 412
#     4  11  22  41  64  94 138 173 227 284 345 410
#     4  11  23  36  61  97 130 177 222 276 345 411
#     4  11  21  42  68 100 140 175 232 284 351 421
#
# _framework density 25.333157
#
# number of rings (size 3 to 8) (size 9 to 14) (size 15 to 20)
#    0.000    1.250    3.750    3.000    1.750    5.000 
#    0.000    0.625    2.750    0.000    0.000    0.000 
#    0.000    0.000    0.000    0.000    0.000    0.000 
#
# Total GULP energy -89090.709282 kJ/mol
# GULP energy per Si atom -5568.169330 kJ/mol
# Density = 2.527550 g / cm^3
# Si number density = 25.333157 Si / 1000 Ang^3
#
#
#
# Elastic Constant Matrix: (Units=GPa)
#
#
# Indices 1 2 3 4 5 6 
#
# 1 132.7820 17.4600 36.8686 -0.1450 -33.3200 -25.0996
# 2 17.4600 81.1688 25.1782 -8.3193 4.1542 -31.0391
# 3 36.8686 25.1782 76.2630 -2.8828 -21.7636 -20.0710
# 4 -0.1450 -8.3193 -2.8828 35.2795 -11.1621 -0.3631
# 5 -33.3200 4.1542 -21.7636 -11.1621 64.6541 3.5249
# 6 -25.0996 -31.0391 -20.0710 -0.3631 3.5249 42.0058
#
#
#
# Elastic Compliance Matrix: (Units=1/GPa)
#
#
# Indices 1 2 3 4 5 6 
#
# 1 0.010175 0.000321 -0.002470 0.001345 0.004363 0.004782
# 2 0.000321 0.018589 -0.003535 0.003498 -0.002294 0.012461
# 3 -0.002470 -0.003535 0.018155 0.002341 0.005242 0.004167
# 4 0.001345 0.003498 0.002341 0.031453 0.006456 0.004238
# 5 0.004363 -0.002294 0.005242 0.006456 0.020647 0.001740
# 6 0.004782 0.012461 0.004167 0.004238 0.001740 0.037753
#
#
# Mechanical properties :
#
#
# Convention : Reuss Voigt Hill
#
# Bulk Modulus (GPa) = 28.12995 49.91415 39.02205
# Shear Modulus (GPa) = 31.25163 42.43502 36.84333
#
# Velocity S-wave (km/s) = 3.51611 4.09721 3.81773
# Velocity P-wave (km/s) = 5.25473 6.49066 5.90512
#
# Compressibility (1/GPa) = 0.03554930
#
# Stress axis : x y z
#
# Youngs Moduli (GPa) = 98.27790 53.79631 55.08087
#
# Poissons Ratio (x) = -0.01726 0.13607
# Poissons Ratio (y) = -0.03153 0.19472
# Poissons Ratio (z) = 0.24279 0.19018
#
# Static dielectric constant tensor:
#      x y z
#    x 2.677880 -0.249630 0.045620 
#    y -0.249630 2.343010 -0.112120 
#    z 0.045620 -0.112120 2.050130 
# 
# From -- ./inp_files/399800.got.cif
#   From: 2010.05.17/outbox.cif.g08.bks.cpg/sg2_200_cif.got.tgz:399800.got - 2010.06.03 11:33:40.
