data_PCOD9036098
_publ_section_title
;
Structure prediction by ZEFSAII (Michael W. Deem and Ramdas Pophale) SiO2 
 PCOD9036098
Probable space group: P -1
;
_chemical_formula_sum "Si O2"
_cell_formula_units_Z 16
_cell_length_a 9.489329
_cell_length_b 16.055645
_cell_length_c 5.220056
_cell_angle_alpha 59.424123
_cell_angle_beta 78.621150
_cell_angle_gamma 88.406802
_cell_volume 668.786320
_symmetry_space_group_name_H-M "P -1"
_symmetry_group_IT_number 2
_symmetry_cell_setting 'triclinic'
loop_
_space_group_symop_operation_xyz
x,y,z
-x,-y,-z
loop_
_atom_site_type_symbol
_atom_site_label
_atom_site_fract_x
_atom_site_fract_y
_atom_site_fract_z
Si Si1 0.464470 0.213715 0.350018
Si Si2 0.940376 0.213946 0.222460
Si Si3 0.932510 0.944889 0.862822
Si Si4 0.262788 0.663474 0.178020
Si Si5 0.637619 0.980574 0.152697
Si Si6 0.151920 0.454816 0.562769
Si Si7 0.181562 0.326002 0.256606
Si Si8 0.696535 0.182209 0.709677
O O1 0.542941 0.202566 0.613994
O O2 0.591073 0.272326 0.053549
O O3 0.407412 0.101357 0.492194
O O4 0.330799 0.277073 0.289615
O O5 0.804105 0.151877 0.495794
O O6 0.015289 0.160804 0.048692
O O7 0.866264 0.307024 0.000746
O O8 0.059466 0.242687 0.347068
O O9 0.762509 0.940304 0.994318
O O10 0.000000 0.000000 0.500000
O O11 0.000000 0.000000 0.000000
O O12 0.267547 0.549285 0.356529
O O13 0.233506 0.714870 0.376018
O O14 0.690234 0.090732 0.047163
O O15 0.500000 0.000000 0.000000
O O16 0.172411 0.404067 0.907472
O O17 0.000000 0.500000 0.500000
O O18 0.164684 0.378884 0.448757
#
# Coordination Sequence:
#
# PCOD9036098 Si02
#       8
#     2   2   2   2   2   2   2   2
#     4  10  27  44  70 111 151 202 247 314 378 455
#     4  11  25  44  75 108 151 196 252 317 370 444
#     4  12  27  46  73 112 148 197 255 307 364 437
#     4  11  25  46  76 103 151 200 254 311 384 454
#     4  10  23  47  72 106 155 202 248 302 373 450
#     4  12  27  49  79 110 146 194 252 319 386 448
#     4  12  29  47  76 113 149 191 256 315 382 447
#     4  10  22  47  73 107 151 202 255 303 378 450
#
# _framework density 23.923933999999999
#
# number of rings (size 3 to 8) (size 9 to 14) (size 15 to 20)
#    0.000    1.000    2.500    1.875    8.750    2.500 
#    0.000    0.000    0.000    0.000    0.000    0.000 
#    0.000    0.000    0.000    0.000    0.000    0.000 
#
# Total GULP energy -89447.741581 kJ/mol
# GULP energy per Si atom -5590.483849 kJ/mol
# Density = 2.386948 g / cm^3
# Si number density = 23.923934 Si / 1000 Ang^3
#
#
#
# Elastic Constant Matrix: (Units=GPa)
#
#
# Indices 1 2 3 4 5 6 
#
# 1 146.8007 36.8859 25.6144 4.8126 -14.0829 -29.1149
# 2 36.8859 101.5699 25.8677 -0.5483 -7.6299 2.8260
# 3 25.6144 25.8677 101.2816 -10.4715 -10.9629 -0.8079
# 4 4.8126 -0.5483 -10.4715 45.4447 6.5907 2.1046
# 5 -14.0829 -7.6299 -10.9629 6.5907 20.9015 -0.2243
# 6 -29.1149 2.8260 -0.8079 2.1046 -0.2243 44.9648
#
#
#
# Elastic Compliance Matrix: (Units=1/GPa)
#
#
# Indices 1 2 3 4 5 6 
#
# 1 0.009715 -0.002973 -0.001292 -0.002486 0.005638 0.006599
# 2 -0.002973 0.011625 -0.002125 -0.000073 0.001120 -0.002685
# 3 -0.001292 -0.002125 0.011359 0.002233 0.003601 -0.000585
# 4 -0.002486 -0.000073 0.002233 0.024091 -0.008156 -0.002733
# 5 0.005638 0.001120 0.003601 -0.008156 0.056558 0.004309
# 6 0.006599 -0.002685 -0.000585 -0.002733 0.004309 0.026820
#
#
# Mechanical properties :
#
#
# Convention : Reuss Voigt Hill
#
# Bulk Modulus (GPa) = 50.20088 58.48757 54.34422
# Shear Modulus (GPa) = 31.33093 39.68114 35.50603
#
# Velocity S-wave (km/s) = 3.62277 4.07706 3.85661
# Velocity P-wave (km/s) = 6.20713 6.83107 6.52656
#
# Compressibility (1/GPa) = 0.01991997
#
# Stress axis : x y z
#
# Youngs Moduli (GPa) = 102.92931 86.02444 88.03657
#
# Poissons Ratio (x) = 0.25573 0.11374
# Poissons Ratio (y) = 0.30598 0.18706
# Poissons Ratio (z) = 0.13298 0.18279
#
# Static dielectric constant tensor:
#      x y z
#    x 1.748360 0.170920 -0.170330 
#    y 0.170920 1.930080 0.049940 
#    z -0.170330 0.049940 1.937190 
# 
# From -- ./inp_files/37239.got.cif
#   From: 2010.05.17/outbox.cif.g08.bks.cpg/sg2_19_cif.got.tgz:37239.got - 2010.06.03 11:33:40.
