data_PCOD9036420
_publ_section_title
;
Structure prediction by ZEFSAII (Michael W. Deem and Ramdas Pophale) SiO2 
 PCOD9036420
Probable space group: P -1
;
_chemical_formula_sum "Si O2"
_cell_formula_units_Z 12
_cell_length_a 7.821178
_cell_length_b 13.487702
_cell_length_c 12.540769
_cell_angle_alpha 32.833388
_cell_angle_beta 121.057710
_cell_angle_gamma 139.822215
_cell_volume 431.656350
_symmetry_space_group_name_H-M "P -1"
_symmetry_group_IT_number 2
_symmetry_cell_setting 'triclinic'
loop_
_space_group_symop_operation_xyz
x,y,z
-x,-y,-z
loop_
_atom_site_type_symbol
_atom_site_label
_atom_site_fract_x
_atom_site_fract_y
_atom_site_fract_z
Si Si1 0.263621 0.120984 0.360366
Si Si2 0.811062 0.354756 0.963370
Si Si3 0.558263 0.691513 0.960520
Si Si4 0.356959 0.162196 0.589089
Si Si5 0.273009 0.632902 0.301905
Si Si6 0.879224 0.062641 0.991620
O O1 0.333475 0.384343 0.148293
O O2 0.398118 0.145239 0.492654
O O3 0.414233 0.156485 0.268652
O O4 0.920484 0.887467 0.457040
O O5 0.732386 0.091897 0.162157
O O6 0.527621 0.265938 0.997456
O O7 0.907830 0.496021 0.751533
O O8 0.000000 0.500000 0.000000
O O9 0.861984 0.793826 0.972006
O O10 0.626594 0.412118 0.517836
O O11 0.153765 0.742380 0.216516
O O12 0.581688 0.827541 0.166786
O O13 0.000000 0.000000 0.000000
#
# Coordination Sequence:
#
# PCOD9036420 Si02
#       6
#     2   2   2   2   2   2
#     4  10  23  36  63  87 122 162 206 258 300 368
#     4  12  22  37  66  92 123 161 207 254 310 371
#     4  11  21  38  61  91 119 162 214 249 304 370
#     4  11  20  42  60  87 123 163 203 254 314 355
#     4  11  21  38  63  90 124 163 204 253 310 372
#     4  11  19  35  63  91 117 162 209 250 303 369
#
# _framework density 27.799890999999999
#
# number of rings (size 3 to 8) (size 9 to 14) (size 15 to 20)
#    0.000    1.000    8.333    0.000    2.333    0.667 
#    0.000    1.667    3.667    0.000    0.000    0.000 
#    0.000    0.000    0.000    0.000    0.000    0.000 
#
# Total GULP energy -66906.453067 kJ/mol
# GULP energy per Si atom -5575.537756 kJ/mol
# Density = 2.773662 g / cm^3
# Si number density = 27.799891 Si / 1000 Ang^3
#
#
#
# Elastic Constant Matrix: (Units=GPa)
#
#
# Indices 1 2 3 4 5 6 
#
# 1 174.4533 47.8785 31.7860 6.3505 -16.8032 -19.9548
# 2 47.8785 132.4474 38.3095 61.6167 -2.9647 0.7215
# 3 31.7860 38.3095 86.4661 29.1004 -9.9504 -17.3858
# 4 6.3505 61.6167 29.1004 54.2325 -11.5450 -5.2784
# 5 -16.8032 -2.9647 -9.9504 -11.5450 32.5712 3.6657
# 6 -19.9548 0.7215 -17.3858 -5.2784 3.6657 58.0210
#
#
#
# Elastic Compliance Matrix: (Units=1/GPa)
#
#
# Indices 1 2 3 4 5 6 
#
# 1 0.008511 -0.006679 -0.002001 0.009249 0.006127 0.002865
# 2 -0.006679 0.022642 -0.000504 -0.027401 -0.010740 -0.004544
# 3 -0.002001 -0.000504 0.015678 -0.007108 0.000818 0.003317
# 4 0.009249 -0.027401 -0.007108 0.057018 0.019716 0.005333
# 5 0.006127 -0.010740 0.000818 0.019716 0.039926 0.001757
# 6 0.002865 -0.004544 0.003317 0.005333 0.001757 0.019645
#
#
# Mechanical properties :
#
#
# Convention : Reuss Voigt Hill
#
# Bulk Modulus (GPa) = 35.13432 69.92387 52.52909
# Shear Modulus (GPa) = 26.14026 47.32447 36.73237
#
# Velocity S-wave (km/s) = 3.06976 4.13040 3.63893
# Velocity P-wave (km/s) = 5.02298 6.92489 6.04915
#
# Compressibility (1/GPa) = 0.02846220
#
# Stress axis : x y z
#
# Youngs Moduli (GPa) = 117.49471 44.16571 63.78471
#
# Poissons Ratio (x) = 0.29498 0.12764
# Poissons Ratio (y) = 0.78474 0.03216
# Poissons Ratio (z) = 0.23512 0.02227
#
# Static dielectric constant tensor:
#      x y z
#    x 2.106980 -0.035850 -0.025160 
#    y -0.035850 2.701490 0.160600 
#    z -0.025160 0.160600 2.286800 
# 
# From -- ./inp_files/240514.got.cif
#   From: 2010.05.17/outbox.cif.g08.bks.cpg/sg2_121_cif.got.tgz:240514.got - 2010.06.03 11:33:40.
