data_PCOD9036788
_publ_section_title
;
Structure prediction by ZEFSAII (Michael W. Deem and Ramdas Pophale) SiO2 
 PCOD9036788
Probable space group: P -1
;
_chemical_formula_sum "Si O2"
_cell_formula_units_Z 13
_cell_length_a 5.117831
_cell_length_b 12.369063
_cell_length_c 9.903620
_cell_angle_alpha 66.118955
_cell_angle_beta 120.664964
_cell_angle_gamma 94.463743
_cell_volume 486.452171
_symmetry_space_group_name_H-M "P -1"
_symmetry_group_IT_number 2
_symmetry_cell_setting 'triclinic'
loop_
_space_group_symop_operation_xyz
x,y,z
-x,-y,-z
loop_
_atom_site_type_symbol
_atom_site_label
_atom_site_fract_x
_atom_site_fract_y
_atom_site_fract_z
Si Si1 0.865919 0.587711 0.800073
Si Si2 0.259425 0.019586 0.225511
Si Si3 0.856817 0.244306 0.029729
Si Si4 0.500000 0.000000 0.000000
Si Si5 0.770870 0.110580 0.446565
Si Si6 0.832695 0.727452 0.184085
Si Si7 0.860329 0.365583 0.417036
O O1 0.503501 0.595814 0.684816
O O2 0.013567 0.560174 0.706371
O O3 0.000000 0.500000 0.000000
O O4 0.958475 0.709503 0.823207
O O5 0.381441 0.972350 0.138960
O O6 0.475258 0.118872 0.267999
O O7 0.318606 0.924717 0.408431
O O8 0.911797 0.096446 0.115411
O O9 0.503662 0.298906 0.928452
O O10 0.959823 0.280863 0.890735
O O11 0.751906 0.868950 0.130064
O O12 0.905267 0.230449 0.438185
O O13 0.000000 0.000000 0.500000
O O14 0.974505 0.649096 0.387597
#
# Coordination Sequence:
#
# PCOD9036788 Si02
#       7
#     2   2   2   1   2   2   2
#     4  12  27  51  78 101 130 181 248 310 361 414
#     4  10  23  39  62 100 142 190 236 275 339 420
#     4  11  24  45  67 101 139 188 225 291 342 418
#     4  10  24  38  62 100 150 196 226 264 334 426
#     4  11  23  38  66 100 143 187 237 284 344 416
#     4  11  26  42  67 102 152 182 227 274 350 415
#     4  12  26  46  72 106 140 184 236 292 357 419
#
# _framework density 26.724105999999999
#
# number of rings (size 3 to 8) (size 9 to 14) (size 15 to 20)
#    0.000    0.923    1.538    4.154   15.077    1.231 
#    0.000    4.615    0.000    0.000    0.000    0.000 
#    0.000    0.000    0.000    0.000    0.000    0.000 
#
# Total GULP energy -72756.429362 kJ/mol
# GULP energy per Si atom -5596.648412 kJ/mol
# Density = 2.666328 g / cm^3
# Si number density = 26.724106 Si / 1000 Ang^3
#
#
#
# Elastic Constant Matrix: (Units=GPa)
#
#
# Indices 1 2 3 4 5 6 
#
# 1 161.0955 1.7322 82.1700 6.0739 -25.8579 -20.8238
# 2 1.7322 74.8991 3.4968 9.8831 -12.7101 -9.3691
# 3 82.1700 3.4968 173.2847 10.6463 -33.3158 -10.5777
# 4 6.0739 9.8831 10.6463 27.0002 -2.7520 -7.6768
# 5 -25.8579 -12.7101 -33.3158 -2.7520 69.1425 5.6432
# 6 -20.8238 -9.3691 -10.5777 -7.6768 5.6432 17.5540
#
#
#
# Elastic Compliance Matrix: (Units=1/GPa)
#
#
# Indices 1 2 3 4 5 6 
#
# 1 0.009583 0.001175 -0.003837 0.001933 0.001200 0.010142
# 2 0.001175 0.015137 0.000307 -0.003600 0.002636 0.007236
# 3 -0.003837 0.000307 0.008149 -0.002612 0.002562 -0.001443
# 4 0.001933 -0.003600 -0.002612 0.044079 -0.000943 0.018378
# 5 0.001200 0.002636 0.002562 -0.000943 0.016708 -0.001409
# 6 0.010142 0.007236 -0.001443 0.018378 -0.001409 0.080482
#
#
# Mechanical properties :
#
#
# Convention : Reuss Voigt Hill
#
# Bulk Modulus (GPa) = 35.51202 64.89748 50.20475
# Shear Modulus (GPa) = 26.56281 44.19802 35.38042
#
# Velocity S-wave (km/s) = 3.15614 4.07118 3.64251
# Velocity P-wave (km/s) = 5.15741 6.81442 6.04298
#
# Compressibility (1/GPa) = 0.02815948
#
# Stress axis : x y z
#
# Youngs Moduli (GPa) = 104.35606 66.06192 122.71631
#
# Poissons Ratio (x) = -0.07761 0.47081
# Poissons Ratio (y) = -0.12259 -0.03770
# Poissons Ratio (z) = 0.40037 -0.02029
#
# Static dielectric constant tensor:
#      x y z
#    x 2.075000 0.020270 0.022840 
#    y 0.020270 2.129650 -0.110860 
#    z 0.022840 -0.110860 2.026460 
# 
# From -- ./inp_files/58494.got.cif
#   From: 2010.05.17/outbox.cif.g08.bks.cpg/sg2_30_cif.got.tgz:58494.got - 2010.06.03 11:33:40.
