data_PCOD9036800
_publ_section_title
;
Structure prediction by ZEFSAII (Michael W. Deem and Ramdas Pophale) SiO2 
 PCOD9036800
Probable space group: P -1
;
_chemical_formula_sum "Si O2"
_cell_formula_units_Z 13
_cell_length_a 4.805501
_cell_length_b 19.728806
_cell_length_c 18.830044
_cell_angle_alpha 164.984135
_cell_angle_beta 84.793935
_cell_angle_gamma 95.112639
_cell_volume 460.609870
_symmetry_space_group_name_H-M "P -1"
_symmetry_group_IT_number 2
_symmetry_cell_setting 'triclinic'
loop_
_space_group_symop_operation_xyz
x,y,z
-x,-y,-z
loop_
_atom_site_type_symbol
_atom_site_label
_atom_site_fract_x
_atom_site_fract_y
_atom_site_fract_z
Si Si1 0.266173 0.389959 0.342581
Si Si2 0.321715 0.809666 0.084677
Si Si3 0.500000 0.000000 0.500000
Si Si4 0.639928 0.648697 0.051541
Si Si5 0.570581 0.998488 0.868585
Si Si6 0.974205 0.845773 0.447931
Si Si7 0.068841 0.510942 0.668392
O O1 0.500000 0.500000 0.500000
O O2 0.230550 0.507802 0.381798
O O3 0.000000 0.500000 0.500000
O O4 0.330057 0.083392 0.014833
O O5 0.507864 0.671936 0.000272
O O6 0.505232 0.950356 0.160992
O O7 0.139344 0.029086 0.349844
O O8 0.118042 0.600253 0.838482
O O9 0.604077 0.290068 0.825363
O O10 0.285430 0.153735 0.597968
O O11 0.782376 0.941122 0.365307
O O12 0.867221 0.426155 0.822216
O O13 0.757474 0.744990 0.611266
O O14 0.790538 0.236739 0.116460
#
# Coordination Sequence:
#
# PCOD9036800 Si02
#       7
#     2   2   1   2   2   2   2
#     4  12  25  51  74 110 143 191 232 289 349 424
#     4  10  25  41  70  96 130 176 226 278 348 400
#     4   8  22  40  56  92 132 170 222 278 338 402
#     4  10  23  39  62  91 130 172 222 281 336 409
#     4  10  26  45  70 103 139 180 230 290 343 417
#     4  10  23  39  62  91 130 172 222 281 336 409
#     4  10  26  45  70 103 139 180 230 290 343 417
#
# _framework density 28.223452999999999
#
# number of rings (size 3 to 8) (size 9 to 14) (size 15 to 20)
#    1.846    0.000    1.538    0.462    6.462    3.077 
#    0.000    1.538    0.000    0.000    0.000    0.000 
#    0.000    0.000    0.000    0.000    0.000    0.000 
#
# Total GULP energy -72568.143354 kJ/mol
# GULP energy per Si atom -5582.164873 kJ/mol
# Density = 2.815921 g / cm^3
# Si number density = 28.223453 Si / 1000 Ang^3
#
#
#
# Elastic Constant Matrix: (Units=GPa)
#
#
# Indices 1 2 3 4 5 6 
#
# 1 125.5298 55.6382 75.0310 -7.6810 -36.2035 -32.6678
# 2 55.6382 192.4785 121.7094 -28.3067 -37.4092 -57.8185
# 3 75.0310 121.7094 276.3329 13.2409 -61.3863 -42.2305
# 4 -7.6810 -28.3067 13.2409 57.4645 -17.7691 -7.3949
# 5 -36.2035 -37.4092 -61.3863 -17.7691 56.0970 1.8042
# 6 -32.6678 -57.8185 -42.2305 -7.3949 1.8042 68.3489
#
#
#
# Elastic Compliance Matrix: (Units=1/GPa)
#
#
# Indices 1 2 3 4 5 6 
#
# 1 0.013707 0.003288 -0.001611 0.008597 0.011710 0.008958
# 2 0.003288 0.014757 -0.003299 0.013990 0.012359 0.013204
# 3 -0.001611 -0.003299 0.006250 -0.002408 0.002837 -0.000035
# 4 0.008597 0.013990 -0.002408 0.035343 0.022869 0.017676
# 5 0.011710 0.012359 0.002837 0.022869 0.043359 0.019135
# 6 0.008958 0.013204 -0.000035 0.017676 0.019135 0.031467
#
#
# Mechanical properties :
#
#
# Convention : Reuss Voigt Hill
#
# Bulk Modulus (GPa) = 31.77868 122.12204 76.95036
# Shear Modulus (GPa) = 31.52239 59.17961 45.35100
#
# Velocity S-wave (km/s) = 3.34561 4.58408 4.01291
# Velocity P-wave (km/s) = 5.11940 8.44879 6.98535
#
# Compressibility (1/GPa) = 0.03146764
#
# Stress axis : x y z
#
# Youngs Moduli (GPa) = 72.95785 67.76522 160.00313
#
# Poissons Ratio (x) = -0.22281 0.25783
# Poissons Ratio (y) = -0.23988 0.52790
# Poissons Ratio (z) = 0.11756 0.22358
#
# Static dielectric constant tensor:
#      x y z
#    x 2.424430 0.138730 0.067230 
#    y 0.138730 2.359780 0.104260 
#    z 0.067230 0.104260 2.237420 
# 
# From -- ./inp_files/102352.got.cif
#   From: 2010.05.17/outbox.cif.g08.bks.cpg/sg2_52_cif.got.tgz:102352.got - 2010.06.03 11:33:40.
