data_PCOD9036817
_publ_section_title
;
Structure prediction by ZEFSAII (Michael W. Deem and Ramdas Pophale) SiO2 
 PCOD9036817
Probable space group: P -1
;
_chemical_formula_sum "Si O2"
_cell_formula_units_Z 16
_cell_length_a 9.362584
_cell_length_b 16.100336
_cell_length_c 18.870707
_cell_angle_alpha 27.679280
_cell_angle_beta 36.462111
_cell_angle_gamma 37.358941
_cell_volume 749.271086
_symmetry_space_group_name_H-M "P -1"
_symmetry_group_IT_number 2
_symmetry_cell_setting 'triclinic'
loop_
_space_group_symop_operation_xyz
x,y,z
-x,-y,-z
loop_
_atom_site_type_symbol
_atom_site_label
_atom_site_fract_x
_atom_site_fract_y
_atom_site_fract_z
Si Si1 0.039283 0.696067 0.823762
Si Si2 0.719408 0.262013 0.040793
Si Si3 0.209990 0.810566 0.536349
Si Si4 0.480334 0.656824 0.782434
Si Si5 0.252067 0.914891 0.295140
Si Si6 0.973599 0.716234 0.471724
Si Si7 0.225601 0.163432 0.692850
Si Si8 0.181099 0.313211 0.747524
O O1 0.133079 0.673049 0.722786
O O2 0.264503 0.725247 0.759109
O O3 0.811047 0.878145 0.801368
O O4 0.000000 0.500000 0.000000
O O5 0.610858 0.275037 0.153716
O O6 0.745767 0.055120 0.160411
O O7 0.545749 0.430902 0.934766
O O8 0.984974 0.306058 0.892525
O O9 0.179927 0.791924 0.479607
O O10 0.493050 0.814856 0.433548
O O11 0.000000 0.000000 0.500000
O O12 0.717414 0.719311 0.613143
O O13 0.546279 0.818345 0.239177
O O14 0.082694 0.886699 0.319269
O O15 0.917225 0.728114 0.401184
O O16 0.168705 0.521768 0.568679
O O17 0.103936 0.233223 0.764784
#
# Coordination Sequence:
#
# PCOD9036817 Si02
#       8
#     2   2   2   2   2   2   2   2
#     4  11  23  39  61  94 131 160 211 258 320 379
#     4  10  23  39  64  90 131 170 207 263 316 379
#     4   9  21  37  58  92 124 164 207 249 320 376
#     4  10  23  39  62  98 126 166 211 265 320 365
#     4  10  23  41  66  92 124 175 204 261 321 373
#     4  11  22  41  68  95 128 160 221 267 306 378
#     4  11  21  39  66  92 125 166 216 262 312 371
#     4  10  23  43  60  93 129 172 217 247 322 377
#
# _framework density 21.354085000000001
#
# number of rings (size 3 to 8) (size 9 to 14) (size 15 to 20)
#    0.000    1.750    1.250    1.875    8.750    3.000 
#    0.000    2.500    0.000    0.000    0.000    0.000 
#    0.000    0.000    0.000    0.000    0.000    0.000 
#
# Total GULP energy -89254.086516 kJ/mol
# GULP energy per Si atom -5578.380407 kJ/mol
# Density = 2.130548 g / cm^3
# Si number density = 21.354085 Si / 1000 Ang^3
#
#
#
# Elastic Constant Matrix: (Units=GPa)
#
#
# Indices 1 2 3 4 5 6 
#
# 1 62.8347 6.9490 -6.7729 3.0389 4.6490 -1.8863
# 2 6.9490 58.4492 1.3953 -10.9537 -1.8881 -10.5547
# 3 -6.7729 1.3953 66.3014 -7.7671 5.2604 2.1631
# 4 3.0389 -10.9537 -7.7671 35.8050 10.1591 -5.2221
# 5 4.6490 -1.8881 5.2604 10.1591 17.6292 -1.0358
# 6 -1.8863 -10.5547 2.1631 -5.2221 -1.0358 32.5480
#
#
#
# Elastic Compliance Matrix: (Units=1/GPa)
#
#
# Indices 1 2 3 4 5 6 
#
# 1 0.016790 -0.002270 0.002158 -0.000187 -0.005213 -0.000102
# 2 -0.002270 0.020190 0.000130 0.007903 -0.001384 0.007631
# 3 0.002158 0.000130 0.016729 0.006007 -0.009024 -0.000268
# 4 -0.000187 0.007903 0.006007 0.039353 -0.023120 0.007731
# 5 -0.005213 -0.001384 -0.009024 -0.023120 0.073878 -0.001510
# 6 -0.000102 0.007631 -0.000268 0.007731 -0.001510 0.034403
#
#
# Mechanical properties :
#
#
# Convention : Reuss Voigt Hill
#
# Bulk Modulus (GPa) = 18.60627 21.19200 19.89914
# Shear Modulus (GPa) = 22.80798 29.59736 26.20267
#
# Velocity S-wave (km/s) = 3.27170 3.72698 3.50674
# Velocity P-wave (km/s) = 4.79627 5.33537 5.07298
#
# Compressibility (1/GPa) = 0.05374533
#
# Stress axis : x y z
#
# Youngs Moduli (GPa) = 59.55905 49.52943 59.77728
#
# Poissons Ratio (x) = 0.11241 -0.12900
# Poissons Ratio (y) = 0.13518 -0.00777
# Poissons Ratio (z) = -0.12852 -0.00644
#
# Static dielectric constant tensor:
#      x y z
#    x 1.809110 -0.010500 0.045440 
#    y -0.010500 1.810200 -0.040840 
#    z 0.045440 -0.040840 1.753960 
# 
# From -- ./inp_files/207356.got.cif
#   From: 2010.05.17/outbox.cif.g08.bks.cpg/sg2_104_cif.got.tgz:207356.got - 2010.06.03 11:33:40.
