data_PCOD9036661
_publ_section_title
;
Structure prediction by ZEFSAII (Michael W. Deem and Ramdas Pophale) SiO2 
 PCOD9036661
Probable space group: P -1
;
_chemical_formula_sum "Si O2"
_cell_formula_units_Z 14
_cell_length_a 12.226455
_cell_length_b 9.214727
_cell_length_c 10.326054
_cell_angle_alpha 90.522938
_cell_angle_beta 70.505853
_cell_angle_gamma 141.148919
_cell_volume 623.028377
_symmetry_space_group_name_H-M "P -1"
_symmetry_group_IT_number 2
_symmetry_cell_setting 'triclinic'
loop_
_space_group_symop_operation_xyz
x,y,z
-x,-y,-z
loop_
_atom_site_type_symbol
_atom_site_label
_atom_site_fract_x
_atom_site_fract_y
_atom_site_fract_z
Si Si1 0.813698 0.599538 0.037728
Si Si2 0.697072 0.289214 0.458385
Si Si3 0.059735 0.997959 0.178346
Si Si4 0.393625 0.101844 0.079503
Si Si5 0.076383 0.515369 0.189797
Si Si6 0.310869 0.573134 0.275725
Si Si7 0.689263 0.608512 0.483748
O O1 0.576555 0.306235 0.114053
O O2 0.920712 0.771767 0.124347
O O3 0.936566 0.582088 0.942175
O O4 0.835368 0.759054 0.932716
O O5 0.696799 0.306372 0.613557
O O6 0.676049 0.433781 0.427254
O O7 0.887325 0.410703 0.315708
O O8 0.500000 0.000000 0.500000
O O9 0.904956 0.888952 0.350855
O O10 0.228114 0.058489 0.162525
O O11 0.271208 0.823855 0.122765
O O12 0.502206 0.233548 0.897067
O O13 0.116999 0.420431 0.267256
O O14 0.314906 0.432512 0.361327
O O15 0.500000 0.500000 0.500000
#
# Coordination Sequence:
#
# PCOD9036661 Si02
#       7
#     2   2   2   2   2   2   2
#     4  10  25  38  72  97 135 179 222 283 332 394
#     4  10  23  38  66  97 131 175 217 275 333 390
#     4  11  24  44  67  97 137 178 227 274 335 407
#     4  11  22  45  70  99 136 171 230 277 337 398
#     4  11  22  45  68  99 136 173 227 276 338 400
#     4   9  22  40  68  91 133 172 213 279 328 393
#     4  10  24  43  64  93 135 175 219 271 333 400
#
# _framework density 22.470887999999999
#
# number of rings (size 3 to 8) (size 9 to 14) (size 15 to 20)
#    0.857    0.857    1.429    2.571    8.000    2.857 
#    0.000    2.857    0.000    0.000    0.000    0.000 
#    0.000    0.000    0.000    0.000    0.000    0.000 
#
# Total GULP energy -78090.156836 kJ/mol
# GULP energy per Si atom -5577.868345 kJ/mol
# Density = 2.241974 g / cm^3
# Si number density = 22.470888 Si / 1000 Ang^3
#
#
#
# Elastic Constant Matrix: (Units=GPa)
#
#
# Indices 1 2 3 4 5 6 
#
# 1 132.7136 13.0698 45.1540 -7.3601 -18.1691 1.6845
# 2 13.0698 127.7425 24.5462 -4.7823 -2.8237 -9.2552
# 3 45.1540 24.5462 81.5671 -14.3330 -19.8809 8.4064
# 4 -7.3601 -4.7823 -14.3330 27.5115 3.0912 -6.9348
# 5 -18.1691 -2.8237 -19.8809 3.0912 32.2722 -7.9670
# 6 1.6845 -9.2552 8.4064 -6.9348 -7.9670 11.8524
#
#
#
# Elastic Compliance Matrix: (Units=1/GPa)
#
#
# Indices 1 2 3 4 5 6 
#
# 1 0.009685 0.000507 -0.005004 0.001093 0.003719 0.005708
# 2 0.000507 0.009532 -0.003495 0.003004 0.001852 0.012853
# 3 -0.005004 -0.003495 0.019411 0.005329 0.006231 -0.008478
# 4 0.001093 0.003004 0.005329 0.046865 0.007253 0.030706
# 5 0.003719 0.001852 0.006231 0.007253 0.043845 0.030213
# 6 0.005708 0.012853 -0.008478 0.030706 0.030213 0.137884
#
#
# Mechanical properties :
#
#
# Convention : Reuss Voigt Hill
#
# Bulk Modulus (GPa) = 44.15954 56.39591 50.27773
# Shear Modulus (GPa) = 17.19674 31.61075 24.40374
#
# Velocity S-wave (km/s) = 2.76939 3.75473 3.29905
# Velocity P-wave (km/s) = 5.46997 6.62941 6.07740
#
# Compressibility (1/GPa) = 0.02264516
#
# Stress axis : x y z
#
# Youngs Moduli (GPa) = 103.25434 104.90461 51.51824
#
# Poissons Ratio (x) = -0.05322 0.25778
# Poissons Ratio (y) = -0.05238 0.18005
# Poissons Ratio (z) = 0.51666 0.36663
#
# Static dielectric constant tensor:
#      x y z
#    x 1.769620 0.001410 -0.084270 
#    y 0.001410 1.856460 0.105210 
#    z -0.084270 0.105210 1.727880 
# 
# From -- ./inp_files/417343.got.cif
#   From: 2010.05.17/outbox.cif.g08.bks.cpg/sg2_209_cif.got.tgz:417343.got - 2010.06.03 11:33:40.
