data_PCOD9036056
_publ_section_title
;
Structure prediction by ZEFSAII (Michael W. Deem and Ramdas Pophale) SiO2 
 PCOD9036056
Probable space group: P -1
;
_chemical_formula_sum "Si O2"
_cell_formula_units_Z 13
_cell_length_a 5.027764
_cell_length_b 9.490372
_cell_length_c 13.026549
_cell_angle_alpha 134.099826
_cell_angle_beta 90.076958
_cell_angle_gamma 82.673875
_cell_volume 439.375072
_symmetry_space_group_name_H-M "P -1"
_symmetry_group_IT_number 2
_symmetry_cell_setting 'triclinic'
loop_
_space_group_symop_operation_xyz
x,y,z
-x,-y,-z
loop_
_atom_site_type_symbol
_atom_site_label
_atom_site_fract_x
_atom_site_fract_y
_atom_site_fract_z
Si Si1 0.452673 0.507330 0.166011
Si Si2 0.757486 0.176679 0.108221
Si Si3 0.000000 0.500000 0.000000
Si Si4 0.928916 0.489022 0.634402
Si Si5 0.045938 0.049849 0.737031
Si Si6 0.409972 0.175067 0.298577
Si Si7 0.764500 0.833971 0.404538
O O1 0.625893 0.288862 0.065051
O O2 0.743916 0.458275 0.911149
O O3 0.280023 0.529650 0.282175
O O4 0.665841 0.656951 0.246147
O O5 0.527496 0.128593 0.159901
O O6 0.892691 0.345472 0.251948
O O7 0.000000 0.000000 0.000000
O O8 0.912945 0.746940 0.104731
O O9 0.748369 0.594102 0.593226
O O10 0.129407 0.279732 0.548385
O O11 0.023373 0.093794 0.636702
O O12 0.318876 0.882561 0.663737
O O13 0.799632 0.964753 0.741875
O O14 0.500000 0.000000 0.500000
#
# Coordination Sequence:
#
# PCOD9036056 Si02
#       7
#     2   2   1   2   2   2   2
#     4  10  24  44  74 111 157 206 259 318 396 477
#     4  10  23  42  73 111 154 211 262 314 389 475
#     4  12  26  46  68 116 168 196 248 322 398 482
#     4  10  22  47  71 112 151 204 266 313 401 471
#     4  12  27  47  74 117 155 211 255 326 406 466
#     4  11  25  46  73 108 162 195 268 324 388 480
#     4  11  26  52  81 111 151 208 273 330 389 473
#
# _framework density 29.587475999999999
#
# number of rings (size 3 to 8) (size 9 to 14) (size 15 to 20)
#    0.000    1.231    3.077    0.923    4.308    4.308 
#    0.000    3.846    0.000    0.000    0.000    0.000 
#    0.000    0.000    0.000    0.000    0.000    0.000 
#
# Total GULP energy -72826.401647 kJ/mol
# GULP energy per Si atom -5602.030896 kJ/mol
# Density = 2.952013 g / cm^3
# Si number density = 29.587476 Si / 1000 Ang^3
#
#
#
# Elastic Constant Matrix: (Units=GPa)
#
#
# Indices 1 2 3 4 5 6 
#
# 1 186.0101 96.4932 34.8830 10.8228 -20.8777 -5.4842
# 2 96.4932 231.1093 64.1738 20.7201 -13.6804 -18.7460
# 3 34.8830 64.1738 101.8964 37.5156 -21.3608 -3.2143
# 4 10.8228 20.7201 37.5156 59.2649 -15.1855 -4.7833
# 5 -20.8777 -13.6804 -21.3608 -15.1855 50.2618 1.2310
# 6 -5.4842 -18.7460 -3.2143 -4.7833 1.2310 103.5982
#
#
#
# Elastic Compliance Matrix: (Units=1/GPa)
#
#
# Indices 1 2 3 4 5 6 
#
# 1 0.007106 -0.002780 -0.000407 0.000476 0.002169 -0.000143
# 2 -0.002780 0.006415 -0.003307 0.000237 -0.000765 0.000931
# 3 -0.000407 -0.003307 0.015581 -0.007858 0.003192 -0.000537
# 4 0.000476 0.000237 -0.007858 0.022709 0.003763 0.000828
# 5 0.002169 -0.000765 0.003192 0.003763 0.023083 -0.000025
# 6 -0.000143 0.000931 -0.000537 0.000828 -0.000025 0.009835
#
#
# Mechanical properties :
#
#
# Convention : Reuss Voigt Hill
#
# Bulk Modulus (GPa) = 62.05453 101.12399 81.58926
# Shear Modulus (GPa) = 48.50244 64.18938 56.34591
#
# Velocity S-wave (km/s) = 4.05321 4.66282 4.36866
# Velocity P-wave (km/s) = 6.55160 7.95244 7.28577
#
# Compressibility (1/GPa) = 0.01611486
#
# Stress axis : x y z
#
# Youngs Moduli (GPa) = 140.72686 155.89120 64.18031
#
# Poissons Ratio (x) = 0.43334 0.02612
# Poissons Ratio (y) = 0.39119 0.21223
# Poissons Ratio (z) = 0.05727 0.51549
#
# Static dielectric constant tensor:
#      x y z
#    x 1.956610 -0.226560 0.109970 
#    y -0.226560 2.117150 0.075630 
#    z 0.109970 0.075630 2.399440 
# 
# From -- ./inp_files/478747.got.cif
#   From: 2010.05.17/outbox.cif.g08.bks.cpg/sg2_240_cif.got.tgz:478747.got - 2010.06.03 11:33:40.
