data_PCOD9036402
_publ_section_title
;
Structure prediction by ZEFSAII (Michael W. Deem and Ramdas Pophale) SiO2 
 PCOD9036402
Probable space group: P -1
;
_chemical_formula_sum "Si O2"
_cell_formula_units_Z 16
_cell_length_a 10.609944
_cell_length_b 11.897310
_cell_length_c 14.494681
_cell_angle_alpha 134.899252
_cell_angle_beta 118.495660
_cell_angle_gamma 96.919398
_cell_volume 772.988660
_symmetry_space_group_name_H-M "P -1"
_symmetry_group_IT_number 2
_symmetry_cell_setting 'triclinic'
loop_
_space_group_symop_operation_xyz
x,y,z
-x,-y,-z
loop_
_atom_site_type_symbol
_atom_site_label
_atom_site_fract_x
_atom_site_fract_y
_atom_site_fract_z
Si Si1 0.435528 0.276672 0.303683
Si Si2 0.518876 0.716690 0.373200
Si Si3 0.593356 0.171046 0.774555
Si Si4 0.269132 0.392383 0.842280
Si Si5 0.705636 0.318356 0.547637
Si Si6 0.757921 0.790714 0.993438
Si Si7 0.045608 0.063879 0.403588
Si Si8 0.089250 0.814598 0.034879
O O1 0.500000 0.500000 0.500000
O O2 0.626150 0.314702 0.419185
O O3 0.372175 0.240068 0.153909
O O4 0.236981 0.034869 0.145815
O O5 0.453647 0.796971 0.323660
O O6 0.425914 0.688251 0.423783
O O7 0.401365 0.458179 0.155525
O O8 0.764660 0.878289 0.545315
O O9 0.377072 0.925216 0.600713
O O10 0.689444 0.391636 0.994967
O O11 0.764929 0.169480 0.836051
O O12 0.099010 0.173039 0.724315
O O13 0.163895 0.277195 0.638834
O O14 0.500000 0.500000 0.000000
O O15 0.943607 0.564770 0.789173
O O16 0.932031 0.814157 0.023735
O O17 0.887624 0.001500 0.233706
#
# Coordination Sequence:
#
# PCOD9036402 Si02
#       8
#     2   2   2   2   2   2   2   2
#     4  11  20  37  57  86 122 156 196 243 274 346
#     4  11  21  37  55  89 122 153 192 232 294 350
#     4  11  22  37  55  85 124 153 194 239 282 362
#     4  11  23  41  59  82 115 155 203 243 289 343
#     4  10  23  36  57  86 126 162 185 234 291 350
#     4  11  22  35  60  88 122 152 198 239 284 350
#     4  11  22  37  60  85 114 155 197 243 294 336
#     4  10  23  36  57  91 119 164 190 223 304 344
#
# _framework density 20.698879999999999
#
# number of rings (size 3 to 8) (size 9 to 14) (size 15 to 20)
#    0.000    1.250    5.000    2.250    1.750    2.000 
#    0.000    0.000    0.000    3.000    0.000   15.750 
#    0.000    0.000    0.000    0.000    0.000    0.000 
#
# Total GULP energy -89274.825489 kJ/mol
# GULP energy per Si atom -5579.676593 kJ/mol
# Density = 2.065177 g / cm^3
# Si number density = 20.698880 Si / 1000 Ang^3
#
#
#
# Elastic Constant Matrix: (Units=GPa)
#
#
# Indices 1 2 3 4 5 6 
#
# 1 21.9739 -3.9853 6.8500 2.6437 -1.6079 1.5931
# 2 -3.9853 109.1299 41.2867 -23.4089 4.5468 -10.1318
# 3 6.8500 41.2867 156.9362 -12.5131 -4.8500 5.1560
# 4 2.6437 -23.4089 -12.5131 52.8749 2.4280 3.8091
# 5 -1.6079 4.5468 -4.8500 2.4280 37.3909 -2.2868
# 6 1.5931 -10.1318 5.1560 3.8091 -2.2868 10.9432
#
#
#
# Elastic Compliance Matrix: (Units=1/GPa)
#
#
# Indices 1 2 3 4 5 6 
#
# 1 0.047220 0.001961 -0.002596 -0.001966 0.001408 -0.002857
# 2 0.001961 0.012485 -0.003477 0.003861 -0.001447 0.011266
# 3 -0.002596 -0.003477 0.007711 0.000851 0.000853 -0.006592
# 4 -0.001966 0.003861 0.000851 0.021335 -0.002099 -0.004405
# 5 0.001408 -0.001447 0.000853 -0.002099 0.027505 0.004532
# 6 -0.002857 0.011266 -0.006592 -0.004405 0.004532 0.107814
#
#
# Mechanical properties :
#
#
# Convention : Reuss Voigt Hill
#
# Bulk Modulus (GPa) = 16.89435 41.81589 29.35512
# Shear Modulus (GPa) = 19.83925 36.50102 28.17013
#
# Velocity S-wave (km/s) = 3.09927 4.20388 3.69311
# Velocity P-wave (km/s) = 4.58116 6.61886 5.69194
#
# Compressibility (1/GPa) = 0.05919140
#
# Stress axis : x y z
#
# Youngs Moduli (GPa) = 21.17729 80.09644 129.68653
#
# Poissons Ratio (x) = -0.15708 0.33672
# Poissons Ratio (y) = -0.04153 0.45093
# Poissons Ratio (z) = 0.05498 0.27850
#
# Static dielectric constant tensor:
#      x y z
#    x 1.769110 0.006100 -0.029620 
#    y 0.006100 1.747240 -0.018010 
#    z -0.029620 -0.018010 1.842120 
# 
# From -- ./inp_files/519148.got.cif
#   From: 2010.05.17/outbox.cif.g08.bks.cpg/sg2_260_cif.got.tgz:519148.got - 2010.06.03 11:33:40.
