data_PCOD9036507
_publ_section_title
;
Structure prediction by ZEFSAII (Michael W. Deem and Ramdas Pophale) SiO2 
 PCOD9036507
Probable space group: P -1
;
_chemical_formula_sum "Si O2"
_cell_formula_units_Z 16
_cell_length_a 15.316702
_cell_length_b 11.664395
_cell_length_c 5.107277
_cell_angle_alpha 82.467212
_cell_angle_beta 73.150054
_cell_angle_gamma 122.424793
_cell_volume 689.223254
_symmetry_space_group_name_H-M "P -1"
_symmetry_group_IT_number 2
_symmetry_cell_setting 'triclinic'
loop_
_space_group_symop_operation_xyz
x,y,z
-x,-y,-z
loop_
_atom_site_type_symbol
_atom_site_label
_atom_site_fract_x
_atom_site_fract_y
_atom_site_fract_z
Si Si1 0.727224 0.526236 0.335382
Si Si2 0.371143 0.115771 0.732146
Si Si3 0.614071 0.227516 0.328823
Si Si4 0.335662 0.877328 0.198477
Si Si5 0.627337 0.556032 0.883640
Si Si6 0.777414 0.842866 0.822785
Si Si7 0.051459 0.163983 0.007396
Si Si8 0.833038 0.111145 0.411684
O O1 0.718979 0.388706 0.285396
O O2 0.650476 0.476173 0.675660
O O3 0.669026 0.549057 0.135413
O O4 0.847494 0.680081 0.254533
O O5 0.494818 0.208055 0.457297
O O6 0.272271 0.991348 0.664788
O O7 0.318032 0.193267 0.869050
O O8 0.378019 0.032560 0.998222
O O9 0.603540 0.119778 0.591441
O O10 0.643263 0.196186 0.032195
O O11 0.204229 0.803656 0.422653
O O12 0.705105 0.726960 0.694008
O O13 0.500000 0.500000 0.000000
O O14 0.877743 0.831612 0.809248
O O15 0.833786 0.005398 0.644689
O O16 0.950491 0.177780 0.140486
O O17 0.000000 0.000000 0.000000
#
# Coordination Sequence:
#
# PCOD9036507 Si02
#       8
#     2   2   2   2   2   2   2   2
#     4  11  26  43  65 100 129 183 223 263 341 396
#     4  11  23  39  68 103 130 170 224 269 337 403
#     4  12  25  43  68  93 140 172 217 284 333 391
#     4  11  25  44  66  99 130 176 223 278 335 388
#     4  11  23  41  64  95 140 173 215 267 331 410
#     4  10  23  37  66 101 133 171 218 271 338 393
#     4  11  22  45  69  96 138 177 221 279 326 397
#     4  11  23  40  67 100 127 173 233 272 325 395
#
# _framework density 23.214541000000001
#
# number of rings (size 3 to 8) (size 9 to 14) (size 15 to 20)
#    0.000    1.000    2.500    3.750    7.000    1.000 
#    0.000    1.250    0.000    0.000    0.000    0.000 
#    0.000    0.000    0.000    0.000    0.000    0.000 
#
# Total GULP energy -89293.827324 kJ/mol
# GULP energy per Si atom -5580.864208 kJ/mol
# Density = 2.316170 g / cm^3
# Si number density = 23.214541 Si / 1000 Ang^3
#
#
#
# Elastic Constant Matrix: (Units=GPa)
#
#
# Indices 1 2 3 4 5 6 
#
# 1 98.3779 24.0994 52.1497 1.3115 -24.7462 9.5623
# 2 24.0994 89.6233 39.9853 8.9446 -21.0263 7.4743
# 3 52.1497 39.9853 94.2547 23.4945 -31.2550 3.1813
# 4 1.3115 8.9446 23.4945 38.8884 -1.9396 -6.2266
# 5 -24.7462 -21.0263 -31.2550 -1.9396 49.6532 -2.6728
# 6 9.5623 7.4743 3.1813 -6.2266 -2.6728 30.7653
#
#
#
# Elastic Compliance Matrix: (Units=1/GPa)
#
#
# Indices 1 2 3 4 5 6 
#
# 1 0.015704 0.000114 -0.009047 0.004562 0.002205 -0.002858
# 2 0.000114 0.014295 -0.004937 -0.000629 0.002823 -0.002880
# 3 -0.009047 -0.004937 0.023290 -0.012289 0.007569 -0.000227
# 4 0.004562 -0.000629 -0.012289 0.033973 -0.004050 0.006530
# 5 0.002205 0.002823 0.007569 -0.004050 0.027006 -0.000627
# 6 -0.002858 -0.002880 -0.000227 0.006530 -0.000627 0.035383
#
#
# Mechanical properties :
#
#
# Convention : Reuss Voigt Hill
#
# Bulk Modulus (GPa) = 39.14078 57.19164 48.16621
# Shear Modulus (GPa) = 26.89494 34.92950 30.91222
#
# Velocity S-wave (km/s) = 3.40742 3.88318 3.65305
# Velocity P-wave (km/s) = 5.69015 6.69291 6.21179
#
# Compressibility (1/GPa) = 0.02554880
#
# Stress axis : x y z
#
# Youngs Moduli (GPa) = 63.67679 69.95366 42.93665
#
# Poissons Ratio (x) = -0.00795 0.38844
# Poissons Ratio (y) = -0.00724 0.21199
# Poissons Ratio (z) = 0.57608 0.34537
#
# Static dielectric constant tensor:
#      x y z
#    x 1.912860 -0.038480 -0.004820 
#    y -0.038480 2.001140 -0.042470 
#    z -0.004820 -0.042470 1.995710 
# 
# From -- ./inp_files/94956.got.cif
#   From: 2010.05.17/outbox.cif.g08.bks.cpg/sg2_48_cif.got.tgz:94956.got - 2010.06.03 11:33:40.
