data_PCOD9036890
_publ_section_title
;
Structure prediction by ZEFSAII (Michael W. Deem and Ramdas Pophale) SiO2 
 PCOD9036890
Probable space group: P -1
;
_chemical_formula_sum "Si O2"
_cell_formula_units_Z 14
_cell_length_a 9.833100
_cell_length_b 10.915549
_cell_length_c 7.557236
_cell_angle_alpha 98.658927
_cell_angle_beta 47.597093
_cell_angle_gamma 115.448841
_cell_volume 528.929120
_symmetry_space_group_name_H-M "P -1"
_symmetry_group_IT_number 2
_symmetry_cell_setting 'triclinic'
loop_
_space_group_symop_operation_xyz
x,y,z
-x,-y,-z
loop_
_atom_site_type_symbol
_atom_site_label
_atom_site_fract_x
_atom_site_fract_y
_atom_site_fract_z
Si Si1 0.284281 0.892034 0.884637
Si Si2 0.788981 0.535089 0.404722
Si Si3 0.646129 0.730502 0.715282
Si Si4 0.339313 0.300109 0.698380
Si Si5 0.782489 0.343413 0.826571
Si Si6 0.105856 0.084139 0.164617
Si Si7 0.271709 0.850094 0.484124
O O1 0.269970 0.826272 0.690606
O O2 0.106639 0.909918 0.616368
O O3 0.499922 0.031108 0.735764
O O4 0.105994 0.941394 0.076584
O O5 0.775315 0.642809 0.583067
O O6 0.774250 0.607339 0.247210
O O7 0.572301 0.400884 0.573241
O O8 0.004664 0.537673 0.259955
O O9 0.636757 0.763507 0.524157
O O10 0.418522 0.634080 0.966634
O O11 0.262783 0.786562 0.033205
O O12 0.226678 0.194481 0.928741
O O13 0.783579 0.282490 0.619296
O O14 0.241454 0.136903 0.233714
#
# Coordination Sequence:
#
# PCOD9036890 Si02
#       7
#     2   2   2   2   2   2   2
#     4  11  27  39  61  95 125 164 206 252 303 365
#     4   9  21  46  63  91 123 161 206 253 311 354
#     4  10  23  39  65  92 123 163 205 248 309 366
#     4   9  22  44  64  93 124 157 208 257 299 370
#     4  12  23  42  64  91 128 163 202 255 304 366
#     4  12  23  42  65  91 126 164 203 253 309 360
#     4  11  24  40  61  92 124 163 208 247 307 363
#
# _framework density 26.468572000000002
#
# number of rings (size 3 to 8) (size 9 to 14) (size 15 to 20)
#    0.857    0.571    2.857    1.714    4.000    2.857 
#    0.000    0.714    0.000    0.000    0.000    0.000 
#    0.000    0.000    0.000    0.000    0.000    0.000 
#
# Total GULP energy -78527.896951 kJ/mol
# GULP energy per Si atom -5609.135496 kJ/mol
# Density = 2.640833 g / cm^3
# Si number density = 26.468572 Si / 1000 Ang^3
#
#
#
# Elastic Constant Matrix: (Units=GPa)
#
#
# Indices 1 2 3 4 5 6 
#
# 1 117.3619 24.1202 46.9241 -11.6437 7.0672 25.7542
# 2 24.1202 47.9200 29.4830 -8.4010 18.8653 13.7479
# 3 46.9241 29.4830 115.4944 10.7143 -2.4987 2.4970
# 4 -11.6437 -8.4010 10.7143 28.4751 6.2706 3.3826
# 5 7.0672 18.8653 -2.4987 6.2706 57.3159 1.1031
# 6 25.7542 13.7479 2.4970 3.3826 1.1031 43.9265
#
#
#
# Elastic Compliance Matrix: (Units=1/GPa)
#
#
# Indices 1 2 3 4 5 6 
#
# 1 0.014775 0.005080 -0.008393 0.013084 -0.005086 -0.010655
# 2 0.005080 0.046318 -0.016547 0.028396 -0.019349 -0.018235
# 3 -0.008393 -0.016547 0.017963 -0.018288 0.009068 0.010259
# 4 0.013084 0.028396 -0.018288 0.062086 -0.018167 -0.019844
# 5 -0.005086 -0.019349 0.009068 -0.018167 0.026648 0.009252
# 6 -0.010655 -0.018235 0.010259 -0.019844 0.009252 0.035432
#
#
# Mechanical properties :
#
#
# Convention : Reuss Voigt Hill
#
# Bulk Modulus (GPa) = 25.42099 53.53676 39.47888
# Shear Modulus (GPa) = 19.52711 37.96011 28.74361
#
# Velocity S-wave (km/s) = 2.71910 3.79114 3.29895
# Velocity P-wave (km/s) = 4.41396 6.27965 5.42757
#
# Compressibility (1/GPa) = 0.03933757
#
# Stress axis : x y z
#
# Youngs Moduli (GPa) = 67.68154 21.58972 55.66847
#
# Poissons Ratio (x) = -0.10968 0.46724
# Poissons Ratio (y) = -0.34384 0.92113
# Poissons Ratio (z) = 0.56807 0.35724
#
# Static dielectric constant tensor:
#      x y z
#    x 2.044160 -0.005980 -0.039950 
#    y -0.005980 2.029370 -0.003340 
#    z -0.039950 -0.003340 2.046900 
# 
# From -- ./inp_files/259318.got.cif
#   From: 2010.05.17/outbox.cif.g08.bks.cpg/sg2_130_cif.got.tgz:259318.got - 2010.06.03 11:33:40.
