data_PCOD9036542
_publ_section_title
;
Structure prediction by ZEFSAII (Michael W. Deem and Ramdas Pophale) SiO2 
 PCOD9036542
Probable space group: P -1
;
_chemical_formula_sum "Si O2"
_cell_formula_units_Z 16
_cell_length_a 8.430879
_cell_length_b 17.213727
_cell_length_c 5.095020
_cell_angle_alpha 83.260120
_cell_angle_beta 87.136535
_cell_angle_gamma 119.581323
_cell_volume 633.597813
_symmetry_space_group_name_H-M "P -1"
_symmetry_group_IT_number 2
_symmetry_cell_setting 'triclinic'
loop_
_space_group_symop_operation_xyz
x,y,z
-x,-y,-z
loop_
_atom_site_type_symbol
_atom_site_label
_atom_site_fract_x
_atom_site_fract_y
_atom_site_fract_z
Si Si1 0.212954 0.628693 0.788176
Si Si2 0.169969 0.104003 0.912040
Si Si3 0.747797 0.125855 0.508564
Si Si4 0.764270 0.619224 0.390572
Si Si5 0.843014 0.790811 0.628338
Si Si6 0.431329 0.053359 0.161997
Si Si7 0.765784 0.532431 0.923336
Si Si8 0.792719 0.281133 0.753443
O O1 0.275672 0.704446 0.973119
O O2 0.988873 0.578325 0.846183
O O3 0.281164 0.560708 0.896265
O O4 0.270601 0.674031 0.483212
O O5 0.188426 0.178295 0.097535
O O6 0.347070 0.096997 0.967078
O O7 0.162230 0.140897 0.612524
O O8 0.000000 0.000000 0.000000
O O9 0.588052 0.110633 0.333518
O O10 0.736457 0.179385 0.737428
O O11 0.949928 0.190342 0.357447
O O12 0.726676 0.029586 0.618642
O O13 0.738161 0.693737 0.524476
O O14 0.704924 0.585711 0.110523
O O15 0.985393 0.664812 0.310073
O O16 0.700984 0.536835 0.634228
O O17 0.500000 0.000000 0.000000
#
# Coordination Sequence:
#
# PCOD9036542 Si02
#       8
#     2   2   2   2   2   2   2   2
#     4   9  16  26  43  71 106 143 180 213 272 334
#     4  12  24  40  61  84 115 149 195 243 288 337
#     4  10  23  38  58  82 115 153 196 237 288 342
#     4   9  17  29  47  73 106 143 180 220 276 328
#     4  11  23  39  60  86 115 153 195 238 284 342
#     4  11  25  40  60  82 113 156 194 239 291 340
#     4   9  15  26  44  70 107 145 175 216 269 338
#     4   9  18  29  46  72 104 145 180 224 272 330
#
# _framework density 25.252613
#
# number of rings (size 3 to 8) (size 9 to 14) (size 15 to 20)
#    0.000    2.000    1.250    2.625    5.250    5.000 
#    0.000    0.000    0.000    0.000    0.000    0.000 
#    0.000   20.000    0.000    0.000    0.000    0.000 
#
# Total GULP energy -89445.439408 kJ/mol
# GULP energy per Si atom -5590.339963 kJ/mol
# Density = 2.519514 g / cm^3
# Si number density = 25.252613 Si / 1000 Ang^3
#
#
#
# Elastic Constant Matrix: (Units=GPa)
#
#
# Indices 1 2 3 4 5 6 
#
# 1 62.2109 -4.1385 -12.8466 5.3268 7.4299 -2.4133
# 2 -4.1385 59.9379 -12.2691 -11.1778 -2.7954 -14.7842
# 3 -12.8466 -12.2691 78.0184 -1.0492 11.8419 7.3199
# 4 5.3268 -11.1778 -1.0492 45.2404 -12.3135 -5.9128
# 5 7.4299 -2.7954 11.8419 -12.3135 27.0900 -0.6509
# 6 -2.4133 -14.7842 7.3199 -5.9128 -0.6509 16.1516
#
#
#
# Elastic Compliance Matrix: (Units=1/GPa)
#
#
# Indices 1 2 3 4 5 6 
#
# 1 0.018490 0.000861 0.004522 -0.004354 -0.008949 -0.000453
# 2 0.000861 0.026978 0.000413 0.012891 0.008941 0.029715
# 3 0.004522 0.000413 0.015847 -0.003839 -0.010061 -0.007939
# 4 -0.004354 0.012891 -0.003839 0.034792 0.020653 0.026458
# 5 -0.008949 0.008941 -0.010061 0.020653 0.054585 0.021166
# 6 -0.000453 0.029715 -0.007939 0.026458 0.021166 0.103182
#
#
# Mechanical properties :
#
#
# Convention : Reuss Voigt Hill
#
# Bulk Modulus (GPa) = 13.71603 15.73985 14.72794
# Shear Modulus (GPa) = 18.75577 32.99117 25.87347
#
# Velocity S-wave (km/s) = 2.72826 3.61840 3.20439
# Velocity P-wave (km/s) = 3.92018 4.86863 4.41992
#
# Compressibility (1/GPa) = 0.07290742
#
# Stress axis : x y z
#
# Youngs Moduli (GPa) = 54.08453 37.06667 63.10201
#
# Poissons Ratio (x) = -0.03192 -0.28536
# Poissons Ratio (y) = -0.04657 -0.02604
# Poissons Ratio (z) = -0.24458 -0.01530
#
# Static dielectric constant tensor:
#      x y z
#    x 2.025760 0.059410 -0.040050 
#    y 0.059410 2.058750 -0.015450 
#    z -0.040050 -0.015450 2.016410 
# 
# From -- ./inp_files/38913.got.cif
#   From: 2010.05.17/outbox.cif.g08.bks.cpg/sg2_20_cif.got.tgz:38913.got - 2010.06.03 11:33:40.
