data_PCOD9036368
_publ_section_title
;
Structure prediction by ZEFSAII (Michael W. Deem and Ramdas Pophale) SiO2 
 PCOD9036368
Probable space group: P -1
;
_chemical_formula_sum "Si O2"
_cell_formula_units_Z 14
_cell_length_a 15.318069
_cell_length_b 12.002753
_cell_length_c 15.154560
_cell_angle_alpha 47.377180
_cell_angle_beta 19.865822
_cell_angle_gamma 49.249654
_cell_volume 695.300157
_symmetry_space_group_name_H-M "P -1"
_symmetry_group_IT_number 2
_symmetry_cell_setting 'triclinic'
loop_
_space_group_symop_operation_xyz
x,y,z
-x,-y,-z
loop_
_atom_site_type_symbol
_atom_site_label
_atom_site_fract_x
_atom_site_fract_y
_atom_site_fract_z
Si Si1 0.659686 0.189415 0.384123
Si Si2 0.023306 0.636235 0.475350
Si Si3 0.451981 0.799284 0.716998
Si Si4 0.140996 0.475124 0.005733
Si Si5 0.695600 0.622298 0.277703
Si Si6 0.989655 0.895032 0.230705
Si Si7 0.422997 0.438709 0.933795
O O1 0.572764 0.154588 0.386454
O O2 0.429107 0.217727 0.657416
O O3 0.754498 0.358529 0.198469
O O4 0.879749 0.064204 0.267384
O O5 0.053840 0.790037 0.309983
O O6 0.000000 0.500000 0.500000
O O7 0.760687 0.636177 0.780660
O O8 0.277394 0.606159 0.310031
O O9 0.740031 0.823017 0.462389
O O10 0.232012 0.886513 0.938672
O O11 0.396546 0.621586 0.872497
O O12 0.300149 0.405542 0.973053
O O13 0.843393 0.535562 0.265474
O O14 0.148006 0.372127 0.966099
O O15 0.500000 0.500000 0.500000
#
# Coordination Sequence:
#
# PCOD9036368 Si02
#       7
#     2   2   2   2   2   2   2
#     4  10  23  34  58  86 117 152 185 235 298 349
#     4  12  22  38  56  82 117 163 200 234 269 329
#     4  11  22  36  57  84 120 156 190 239 281 340
#     4   9  21  37  62  89 112 144 189 249 297 346
#     4   9  19  38  60  89 112 141 188 241 309 346
#     4  12  24  37  55  82 126 158 195 228 278 345
#     4  11  22  37  62  83 116 152 201 240 280 329
#
# _framework density 20.135190000000001
#
# number of rings (size 3 to 8) (size 9 to 14) (size 15 to 20)
#    0.000    1.429    2.857    2.143   12.000    0.000 
#    0.000    0.000    0.000    1.714    0.000    0.000 
#    0.000    0.000    0.000    0.000    0.000    0.000 
#
# Total GULP energy -78079.271229 kJ/mol
# GULP energy per Si atom -5577.090802 kJ/mol
# Density = 2.008936 g / cm^3
# Si number density = 20.135190 Si / 1000 Ang^3
#
#
#
# Elastic Constant Matrix: (Units=GPa)
#
#
# Indices 1 2 3 4 5 6 
#
# 1 91.5386 26.3703 11.5010 2.5804 -15.5705 -7.1343
# 2 26.3703 81.0324 3.8448 20.0453 13.4400 -5.3521
# 3 11.5010 3.8448 60.6436 5.3840 -14.4200 2.9021
# 4 2.5804 20.0453 5.3840 24.3659 -6.4557 -2.9356
# 5 -15.5705 13.4400 -14.4200 -6.4557 34.3085 5.0456
# 6 -7.1343 -5.3521 2.9021 -2.9356 5.0456 24.1866
#
#
#
# Elastic Compliance Matrix: (Units=1/GPa)
#
#
# Indices 1 2 3 4 5 6 
#
# 1 0.015552 -0.009328 -0.000362 0.009473 0.012169 0.001178
# 2 -0.009328 0.025100 -0.002761 -0.023912 -0.020385 0.004485
# 3 -0.000362 -0.002761 0.019299 0.000026 0.009780 -0.005070
# 4 0.009473 -0.023912 0.000026 0.066661 0.026202 0.000124
# 5 0.012169 -0.020385 0.009780 0.026202 0.053168 -0.010006
# 6 0.001178 0.004485 -0.005070 0.000124 -0.010006 0.045396
#
#
# Mechanical properties :
#
#
# Convention : Reuss Voigt Hill
#
# Bulk Modulus (GPa) = 28.53137 35.18297 31.85717
# Shear Modulus (GPa) = 19.10141 29.33876 24.22009
#
# Velocity S-wave (km/s) = 3.08337 3.82132 3.47201
# Velocity P-wave (km/s) = 5.18429 6.08123 5.65059
#
# Compressibility (1/GPa) = 0.03504915
#
# Stress axis : x y z
#
# Youngs Moduli (GPa) = 64.30194 39.84100 51.81547
#
# Poissons Ratio (x) = 0.37163 0.01874
# Poissons Ratio (y) = 0.59979 0.14308
# Poissons Ratio (z) = 0.02326 0.11001
#
# Static dielectric constant tensor:
#      x y z
#    x 1.737590 0.001240 0.007620 
#    y 0.001240 1.728070 0.054320 
#    z 0.007620 0.054320 1.913680 
# 
# From -- ./inp_files/64318.got.cif
#   From: 2010.05.17/outbox.cif.g08.bks.cpg/sg2_33_cif.got.tgz:64318.got - 2010.06.03 11:33:40.
