data_PCOD9036535
_publ_section_title
;
Structure prediction by ZEFSAII (Michael W. Deem and Ramdas Pophale) SiO2 
 PCOD9036535
Probable space group: P -1
;
_chemical_formula_sum "Si O2"
_cell_formula_units_Z 12
_cell_length_a 8.855985
_cell_length_b 14.971831
_cell_length_c 8.995411
_cell_angle_alpha 145.436278
_cell_angle_beta 83.370278
_cell_angle_gamma 97.316606
_cell_volume 671.019779
_symmetry_space_group_name_H-M "P -1"
_symmetry_group_IT_number 2
_symmetry_cell_setting 'triclinic'
loop_
_space_group_symop_operation_xyz
x,y,z
-x,-y,-z
loop_
_atom_site_type_symbol
_atom_site_label
_atom_site_fract_x
_atom_site_fract_y
_atom_site_fract_z
Si Si1 0.339024 0.250272 0.444833
Si Si2 0.765268 0.540787 0.520328
Si Si3 0.863192 0.590693 0.066918
Si Si4 0.140018 0.938260 0.993726
Si Si5 0.679866 0.346990 0.541851
Si Si6 0.016188 0.719040 0.943531
O O1 0.233071 0.322938 0.681467
O O2 0.515568 0.269261 0.495147
O O3 0.317578 0.351465 0.436837
O O4 0.273199 0.073614 0.179246
O O5 0.667229 0.453501 0.540858
O O6 0.894322 0.647498 0.738857
O O7 0.851764 0.405518 0.238586
O O8 0.755113 0.461230 0.814528
O O9 0.934803 0.712352 0.102227
O O10 0.000000 0.500000 0.000000
O O11 0.204914 0.786524 0.697522
O O12 0.082814 0.879921 0.083193
O O13 0.000000 0.000000 0.000000
#
# Coordination Sequence:
#
# PCOD9036535 Si02
#       6
#     2   2   2   2   2   2
#     4  12  21  35  59  88 114 148 182 234 292 326
#     4   9  17  34  59  81 109 145 195 232 268 328
#     4  11  21  37  61  83 112 150 190 231 274 336
#     4  11  21  37  61  83 112 150 190 231 274 336
#     4  10  23  38  56  84 117 146 187 237 280 330
#     4   9  18  35  56  86 110 144 192 232 268 326
#
# _framework density 17.883227999999999
#
# number of rings (size 3 to 8) (size 9 to 14) (size 15 to 20)
#    0.000    1.667    3.333    3.500    0.000    0.667 
#    0.000    0.000    0.000    2.000    0.000    0.000 
#    0.000    0.000    0.000    0.000    0.000    0.000 
#
# Total GULP energy -66981.400447 kJ/mol
# GULP energy per Si atom -5581.783371 kJ/mol
# Density = 1.784253 g / cm^3
# Si number density = 17.883228 Si / 1000 Ang^3
#
#
#
# Elastic Constant Matrix: (Units=GPa)
#
#
# Indices 1 2 3 4 5 6 
#
# 1 39.1934 16.9741 -21.5605 7.3809 12.2871 7.1915
# 2 16.9741 85.9737 10.2303 12.5604 6.6691 -4.6231
# 3 -21.5605 10.2303 35.6855 5.1886 3.7997 1.3909
# 4 7.3809 12.5604 5.1886 26.4212 6.0403 2.3386
# 5 12.2871 6.6691 3.7997 6.0403 23.7015 3.6004
# 6 7.1915 -4.6231 1.3909 2.3386 3.6004 26.0603
#
#
#
# Elastic Compliance Matrix: (Units=1/GPa)
#
#
# Indices 1 2 3 4 5 6 
#
# 1 0.105835 -0.025285 0.080569 -0.019037 -0.051383 -0.029184
# 2 -0.025285 0.019165 -0.022099 -0.000885 0.009924 0.010265
# 3 0.080569 -0.022099 0.091068 -0.018213 -0.041924 -0.023588
# 4 -0.019037 -0.000885 -0.018213 0.046817 0.000841 0.001751
# 5 -0.051383 0.009924 -0.041924 0.000841 0.071290 0.008253
# 6 -0.029184 0.010265 -0.023588 0.001751 0.008253 0.048209
#
#
# Mechanical properties :
#
#
# Convention : Reuss Voigt Hill
#
# Bulk Modulus (GPa) = 3.54061 19.12671 11.33366
# Shear Modulus (GPa) = 12.19043 25.58387 18.88715
#
# Velocity S-wave (km/s) = 2.61371 3.78644 3.25335
# Velocity P-wave (km/s) = 3.33058 5.46212 4.52369
#
# Compressibility (1/GPa) = 0.28243760
#
# Stress axis : x y z
#
# Youngs Moduli (GPa) = 9.44868 52.17960 10.98084
#
# Poissons Ratio (x) = 1.31935 -0.88471
# Poissons Ratio (y) = 0.23891 0.24266
# Poissons Ratio (z) = -0.76127 1.15311
#
# Static dielectric constant tensor:
#      x y z
#    x 1.604600 0.019910 0.007820 
#    y 0.019910 1.623080 0.006270 
#    z 0.007820 0.006270 1.586120 
# 
# From -- ./inp_files/161602.got.cif
#   From: 2010.05.17/outbox.cif.g08.bks.cpg/sg2_81_cif.got.tgz:161602.got - 2010.06.03 11:33:40.
