data_PCOD9036184
_publ_section_title
;
Structure prediction by ZEFSAII (Michael W. Deem and Ramdas Pophale) SiO2 
 PCOD9036184
Probable space group: P -1
;
_chemical_formula_sum "Si O2"
_cell_formula_units_Z 14
_cell_length_a 14.250926
_cell_length_b 8.698635
_cell_length_c 8.702935
_cell_angle_alpha 47.147879
_cell_angle_beta 117.911138
_cell_angle_gamma 88.015471
_cell_volume 586.048171
_symmetry_space_group_name_H-M "P -1"
_symmetry_group_IT_number 2
_symmetry_cell_setting 'triclinic'
loop_
_space_group_symop_operation_xyz
x,y,z
-x,-y,-z
loop_
_atom_site_type_symbol
_atom_site_label
_atom_site_fract_x
_atom_site_fract_y
_atom_site_fract_z
Si Si1 0.951797 0.150039 0.699805
Si Si2 0.252630 0.713401 0.988409
Si Si3 0.153971 0.228764 0.638758
Si Si4 0.932344 0.379006 0.959838
Si Si5 0.674667 0.634464 0.192437
Si Si6 0.485660 0.264476 0.291546
Si Si7 0.386233 0.607882 0.460631
O O1 0.804617 0.369775 0.434531
O O2 0.038522 0.247604 0.633709
O O3 0.000000 0.000000 0.000000
O O4 0.977675 0.919482 0.773337
O O5 0.172011 0.589406 0.020969
O O6 0.374502 0.511018 0.126598
O O7 0.267865 0.744878 0.162877
O O8 0.199090 0.998400 0.711050
O O9 0.114224 0.476733 0.338800
O O10 0.270383 0.190326 0.860238
O O11 0.000000 0.500000 0.000000
O O12 0.618346 0.619434 0.320363
O O13 0.564855 0.682286 0.957924
O O14 0.603131 0.246968 0.484477
O O15 0.500000 0.000000 0.500000
O O16 0.500000 0.500000 0.500000
#
# Coordination Sequence:
#
# PCOD9036184 Si02
#       7
#     2   2   2   2   2   2   2
#     4  11  24  42  68 104 143 172 223 274 337 421
#     4  10  23  46  69  97 139 182 222 279 339 410
#     4  11  23  43  70 101 137 184 220 263 348 424
#     4  11  25  40  66 104 139 179 224 269 337 418
#     4  12  23  43  72 102 135 183 220 285 349 383
#     4  11  26  44  67 100 134 173 236 294 331 385
#     4  10  22  48  67  93 134 176 234 279 331 404
#
# _framework density 23.888822999999999
#
# number of rings (size 3 to 8) (size 9 to 14) (size 15 to 20)
#    0.000    1.143    2.857    2.571    4.000    2.286 
#    5.143    4.286    0.000    0.000    0.000    0.000 
#    0.000    0.000    0.000    0.000    0.000    0.000 
#
# Total GULP energy -77964.100865 kJ/mol
# GULP energy per Si atom -5568.864348 kJ/mol
# Density = 2.383445 g / cm^3
# Si number density = 23.888823 Si / 1000 Ang^3
#
#
#
# Elastic Constant Matrix: (Units=GPa)
#
#
# Indices 1 2 3 4 5 6 
#
# 1 85.0892 11.9569 -2.4304 -14.8033 -14.6604 11.8145
# 2 11.9569 105.1381 12.7375 -2.7556 -12.6910 36.8225
# 3 -2.4304 12.7375 62.0187 -10.1693 -13.3103 -3.6814
# 4 -14.8033 -2.7556 -10.1693 54.1065 9.2161 3.5667
# 5 -14.6604 -12.6910 -13.3103 9.2161 22.9370 -1.3829
# 6 11.8145 36.8225 -3.6814 3.5667 -1.3829 39.7207
#
#
#
# Elastic Compliance Matrix: (Units=1/GPa)
#
#
# Indices 1 2 3 4 5 6 
#
# 1 0.014649 0.001043 0.002719 0.003212 0.009925 -0.005015
# 2 0.001043 0.015786 -0.002551 0.000432 0.006844 -0.014982
# 3 0.002719 -0.002551 0.019708 0.002192 0.011097 0.003572
# 4 0.003212 0.000432 0.002192 0.020859 -0.005010 -0.003200
# 5 0.009925 0.006844 0.011097 -0.005010 0.061839 -0.005666
# 6 -0.005015 -0.014982 0.003572 -0.003200 -0.005666 0.040977
#
#
# Mechanical properties :
#
#
# Convention : Reuss Voigt Hill
#
# Bulk Modulus (GPa) = 19.02404 32.97489 25.99946
# Shear Modulus (GPa) = 26.46662 38.68499 32.57580
#
# Velocity S-wave (km/s) = 3.33214 4.02851 3.69676
# Velocity P-wave (km/s) = 4.77337 5.95584 5.39708
#
# Compressibility (1/GPa) = 0.05256508
#
# Stress axis : x y z
#
# Youngs Moduli (GPa) = 68.26603 63.34665 50.74136
#
# Poissons Ratio (x) = -0.06609 -0.13795
# Poissons Ratio (y) = -0.07123 0.12943
# Poissons Ratio (z) = -0.18560 0.16159
#
# Static dielectric constant tensor:
#      x y z
#    x 2.061290 -0.112450 0.045240 
#    y -0.112450 2.134050 0.055380 
#    z 0.045240 0.055380 2.176130 
# 
# From -- ./inp_files/141693.got.cif
#   From: 2010.05.17/outbox.cif.g08.bks.cpg/sg2_71_cif.got.tgz:141693.got - 2010.06.03 11:33:40.
