data_PCOD9036145
_publ_section_title
;
Structure prediction by ZEFSAII (Michael W. Deem and Ramdas Pophale) SiO2 
 PCOD9036145
Probable space group: P -1
;
_chemical_formula_sum "Si O2"
_cell_formula_units_Z 14
_cell_length_a 16.452945
_cell_length_b 5.308948
_cell_length_c 6.070729
_cell_angle_alpha 90.826052
_cell_angle_beta 81.751809
_cell_angle_gamma 86.383850
_cell_volume 523.587227
_symmetry_space_group_name_H-M "P -1"
_symmetry_group_IT_number 2
_symmetry_cell_setting 'triclinic'
loop_
_space_group_symop_operation_xyz
x,y,z
-x,-y,-z
loop_
_atom_site_type_symbol
_atom_site_label
_atom_site_fract_x
_atom_site_fract_y
_atom_site_fract_z
Si Si1 0.954523 0.409929 0.235016
Si Si2 0.095533 0.074816 0.659024
Si Si3 0.478736 0.305451 0.815974
Si Si4 0.778376 0.262600 0.685479
Si Si5 0.819406 0.600876 0.038079
Si Si6 0.327305 0.041821 0.930817
Si Si7 0.630240 0.340781 0.467382
O O1 0.857804 0.400145 0.195834
O O2 0.973805 0.121641 0.279745
O O3 0.000000 0.500000 0.000000
O O4 0.946281 0.654028 0.395453
O O5 0.162276 0.946236 0.464902
O O6 0.136915 0.156479 0.877532
O O7 0.562738 0.229324 0.654225
O O8 0.420715 0.450116 0.654875
O O9 0.500000 0.500000 0.000000
O O10 0.421416 0.100000 0.937318
O O11 0.831701 0.459491 0.799505
O O12 0.708901 0.422515 0.572826
O O13 0.722642 0.108850 0.872892
O O14 0.724799 0.692939 0.077259
O O15 0.332220 0.878356 0.707060
#
# Coordination Sequence:
#
# PCOD9036145 Si02
#       7
#     2   2   2   2   2   2   2
#     4  10  22  47  76 108 152 197 240 304 368 435
#     4  10  24  44  76 106 151 193 245 301 366 435
#     4  11  26  45  65  98 138 189 245 304 376 440
#     4  12  26  45  72 106 145 188 250 302 371 439
#     4  10  24  41  73 103 146 184 246 295 368 431
#     4  12  24  43  68 101 137 192 238 313 363 445
#     4  11  24  44  67  97 139 188 243 307 372 438
#
# _framework density 26.738619
#
# number of rings (size 3 to 8) (size 9 to 14) (size 15 to 20)
#    0.857    0.286    1.429    4.286    4.000    5.714 
#    2.571    1.429    0.000    0.000    0.000    0.000 
#    0.000    0.000    0.000    0.000    0.000    0.000 
#
# Total GULP energy -78257.168302 kJ/mol
# GULP energy per Si atom -5589.797736 kJ/mol
# Density = 2.667776 g / cm^3
# Si number density = 26.738619 Si / 1000 Ang^3
#
#
#
# Elastic Constant Matrix: (Units=GPa)
#
#
# Indices 1 2 3 4 5 6 
#
# 1 87.3517 34.3576 48.1888 9.9124 -2.8200 5.9829
# 2 34.3576 144.3950 73.3572 22.3602 -7.0394 18.8637
# 3 48.1888 73.3572 141.4293 13.7225 -36.9324 20.6788
# 4 9.9124 22.3602 13.7225 56.8413 7.4939 0.7556
# 5 -2.8200 -7.0394 -36.9324 7.4939 69.3612 6.3209
# 6 5.9829 18.8637 20.6788 0.7556 6.3209 59.3957
#
#
#
# Elastic Compliance Matrix: (Units=1/GPa)
#
#
# Indices 1 2 3 4 5 6 
#
# 1 0.014598 -0.001006 -0.005102 -0.000635 -0.002236 0.000871
# 2 -0.001006 0.010077 -0.004762 -0.002468 -0.001170 -0.001285
# 3 -0.005102 -0.004762 0.013799 -0.001462 0.007135 -0.003518
# 4 -0.000635 -0.002468 -0.001462 0.019441 -0.003288 0.001459
# 5 -0.002236 -0.001170 0.007135 -0.003288 0.018712 -0.003837
# 6 0.000871 -0.001285 -0.003518 0.001459 -0.003837 0.018771
#
#
# Mechanical properties :
#
#
# Convention : Reuss Voigt Hill
#
# Bulk Modulus (GPa) = 59.75972 76.10925 67.93448
# Shear Modulus (GPa) = 40.74400 51.60447 46.17423
#
# Velocity S-wave (km/s) = 3.90781 4.39790 4.16008
# Velocity P-wave (km/s) = 6.53907 7.36985 6.96685
#
# Compressibility (1/GPa) = 0.01673368
#
# Stress axis : x y z
#
# Youngs Moduli (GPa) = 68.50047 99.23348 72.47054
#
# Poissons Ratio (x) = 0.09984 0.36973
# Poissons Ratio (y) = 0.06892 0.34513
# Poissons Ratio (z) = 0.34948 0.47258
#
# Static dielectric constant tensor:
#      x y z
#    x 2.122820 -0.018110 0.030610 
#    y -0.018110 2.119450 -0.082000 
#    z 0.030610 -0.082000 2.140700 
# 
# From -- ./inp_files/114069.got.cif
#   From: 2010.05.17/outbox.cif.g08.bks.cpg/sg2_58_cif.got.tgz:114069.got - 2010.06.03 11:33:40.
