data_PCOD9036367
_publ_section_title
;
Structure prediction by ZEFSAII (Michael W. Deem and Ramdas Pophale) SiO2 
 PCOD9036367
Probable space group: P -1
;
_chemical_formula_sum "Si O2"
_cell_formula_units_Z 14
_cell_length_a 7.046519
_cell_length_b 21.538110
_cell_length_c 6.999879
_cell_angle_alpha 40.551406
_cell_angle_beta 120.310143
_cell_angle_gamma 114.613025
_cell_volume 595.230219
_symmetry_space_group_name_H-M "P -1"
_symmetry_group_IT_number 2
_symmetry_cell_setting 'triclinic'
loop_
_space_group_symop_operation_xyz
x,y,z
-x,-y,-z
loop_
_atom_site_type_symbol
_atom_site_label
_atom_site_fract_x
_atom_site_fract_y
_atom_site_fract_z
Si Si1 0.068973 0.396319 0.228639
Si Si2 0.749669 0.024522 0.790679
Si Si3 0.758927 0.727296 0.678135
Si Si4 0.423274 0.266837 0.803894
Si Si5 0.153489 0.150066 0.215404
Si Si6 0.795621 0.228328 0.372689
Si Si7 0.296995 0.942967 0.763488
O O1 0.152159 0.376279 0.098095
O O2 0.273935 0.358248 0.540490
O O3 0.864834 0.317398 0.335303
O O4 0.000000 0.500000 0.000000
O O5 0.706448 0.125103 0.639439
O O6 0.715793 0.049245 0.492305
O O7 0.555251 0.947936 0.930513
O O8 0.000000 0.000000 0.000000
O O9 0.558157 0.737460 0.406325
O O10 0.746223 0.765019 0.795434
O O11 0.968263 0.791699 0.553916
O O12 0.268736 0.176801 0.011358
O O13 0.641023 0.265844 0.039669
O O14 0.889795 0.139157 0.090928
O O15 0.215943 0.045007 0.558185
#
# Coordination Sequence:
#
# PCOD9036367 Si02
#       7
#     2   2   2   2   2   2   2
#     4   8  19  37  63  92 114 152 203 245 301 367
#     4  11  22  38  59  86 121 165 205 246 295 344
#     4   8  21  36  58  84 120 150 196 245 294 358
#     4   9  20  37  66  79 124 161 186 252 304 346
#     4  11  19  40  57  92 118 160 205 244 295 358
#     4   9  18  38  59  85 117 162 197 241 302 357
#     4  10  23  34  58  82 125 154 212 247 280 363
#
# _framework density 23.520309999999998
#
# number of rings (size 3 to 8) (size 9 to 14) (size 15 to 20)
#    1.714    0.571    2.857    0.000    4.000    0.571 
#    0.000   12.857    0.000    0.857    0.000    0.000 
#    0.000    0.000    0.000    0.000    0.000    0.000 
#
# Total GULP energy -77971.545839 kJ/mol
# GULP energy per Si atom -5569.396131 kJ/mol
# Density = 2.346678 g / cm^3
# Si number density = 23.520310 Si / 1000 Ang^3
#
#
#
# Elastic Constant Matrix: (Units=GPa)
#
#
# Indices 1 2 3 4 5 6 
#
# 1 68.1917 31.3923 16.7129 12.3746 15.2558 4.6227
# 2 31.3923 127.7984 63.0900 -3.1402 23.9228 -16.0930
# 3 16.7129 63.0900 95.7180 -0.4542 38.8350 -2.3067
# 4 12.3746 -3.1402 -0.4542 55.7090 -2.1306 14.1691
# 5 15.2558 23.9228 38.8350 -2.1306 36.7564 8.1086
# 6 4.6227 -16.0930 -2.3067 14.1691 8.1086 40.2032
#
#
#
# Elastic Compliance Matrix: (Units=1/GPa)
#
#
# Indices 1 2 3 4 5 6 
#
# 1 0.018818 -0.004871 0.003177 -0.004564 -0.008110 -0.000687
# 2 -0.004871 0.013662 -0.008376 0.000494 0.000861 0.005201
# 3 0.003177 -0.008376 0.024783 -0.002686 -0.022929 0.003275
# 4 -0.004564 0.000494 -0.002686 0.021420 0.007527 -0.008499
# 5 -0.008110 0.000861 -0.022929 0.007527 0.057841 -0.014357
# 6 -0.000687 0.005201 0.003275 -0.008499 -0.014357 0.033113
#
#
# Mechanical properties :
#
#
# Convention : Reuss Voigt Hill
#
# Bulk Modulus (GPa) = 26.93847 57.12206 42.03026
# Shear Modulus (GPa) = 24.73387 38.56790 31.65088
#
# Velocity S-wave (km/s) = 3.24635 4.05380 3.67234
# Velocity P-wave (km/s) = 5.05271 6.80074 5.99082
#
# Compressibility (1/GPa) = 0.03712164
#
# Stress axis : x y z
#
# Youngs Moduli (GPa) = 53.14201 73.19344 40.35047
#
# Poissons Ratio (x) = 0.35656 -0.12820
# Poissons Ratio (y) = 0.25888 0.33799
# Poissons Ratio (z) = -0.16885 0.61309
#
# Static dielectric constant tensor:
#      x y z
#    x 1.949360 -0.040180 0.007370 
#    y -0.040180 1.962420 0.023540 
#    z 0.007370 0.023540 1.916880 
# 
# From -- ./inp_files/224496.got.cif
#   From: 2010.05.17/outbox.cif.g08.bks.cpg/sg2_113_cif.got.tgz:224496.got - 2010.06.03 11:33:40.
