data_PCOD9036837
_publ_section_title
;
Structure prediction by ZEFSAII (Michael W. Deem and Ramdas Pophale) SiO2 
 PCOD9036837
Probable space group: P -1
;
_chemical_formula_sum "Si O2"
_cell_formula_units_Z 16
_cell_length_a 13.174731
_cell_length_b 9.206353
_cell_length_c 8.713830
_cell_angle_alpha 121.299219
_cell_angle_beta 110.378116
_cell_angle_gamma 53.397369
_cell_volume 723.855391
_symmetry_space_group_name_H-M "P -1"
_symmetry_group_IT_number 2
_symmetry_cell_setting 'triclinic'
loop_
_space_group_symop_operation_xyz
x,y,z
-x,-y,-z
loop_
_atom_site_type_symbol
_atom_site_label
_atom_site_fract_x
_atom_site_fract_y
_atom_site_fract_z
Si Si1 0.374820 0.098537 0.383170
Si Si2 0.092048 0.276778 0.360351
Si Si3 0.456572 0.865921 0.990933
Si Si4 0.654594 0.497295 0.475707
Si Si5 0.982341 0.691577 0.010846
Si Si6 0.409084 0.564136 0.250968
Si Si7 0.796230 0.113611 0.194777
Si Si8 0.157937 0.859123 0.126577
O O1 0.238712 0.179638 0.435726
O O2 0.348832 0.300251 0.399714
O O3 0.500000 0.000000 0.500000
O O4 0.406236 0.948136 0.177825
O O5 0.082091 0.298611 0.181651
O O6 0.000000 0.500000 0.500000
O O7 0.073221 0.086822 0.269455
O O8 0.567021 0.636457 0.926240
O O9 0.339772 0.868284 0.846198
O O10 0.500000 0.000000 0.000000
O O11 0.542811 0.551520 0.323228
O O12 0.625853 0.440658 0.593688
O O13 0.781215 0.304660 0.376580
O O14 0.000000 0.500000 0.000000
O O15 0.101094 0.718731 0.052511
O O16 0.895277 0.890271 0.172958
O O17 0.295750 0.753397 0.216205
O O18 0.825299 0.127513 0.039155
#
# Coordination Sequence:
#
# PCOD9036837 Si02
#       8
#     2   2   2   2   2   2   2   2
#     4  12  25  41  69 103 140 176 235 279 345 407
#     4  11  26  48  69 101 141 179 230 289 345 408
#     4  11  22  41  66  95 140 180 220 285 342 403
#     4  10  23  39  63  95 137 173 217 280 339 402
#     4  11  26  45  70  97 129 182 233 280 345 413
#     4  10  23  40  63  96 133 178 220 274 345 401
#     4  10  23  44  64  93 133 178 225 277 337 408
#     4  11  24  44  71  96 134 178 233 279 341 412
#
# _framework density 22.103863
#
# number of rings (size 3 to 8) (size 9 to 14) (size 15 to 20)
#    0.000    1.250    3.750    2.250    8.750    2.000 
#    0.000    1.250    0.000    0.000    0.000    0.000 
#    0.000    0.000    0.000    0.000    0.000    0.000 
#
# Total GULP energy -89304.348539 kJ/mol
# GULP energy per Si atom -5581.521784 kJ/mol
# Density = 2.205355 g / cm^3
# Si number density = 22.103863 Si / 1000 Ang^3
#
#
#
# Elastic Constant Matrix: (Units=GPa)
#
#
# Indices 1 2 3 4 5 6 
#
# 1 86.0017 41.4643 6.6794 7.1174 4.6107 -1.4678
# 2 41.4643 161.4074 43.8736 32.7463 -7.8526 -1.5325
# 3 6.6794 43.8736 74.1489 32.8108 -11.4741 -14.3295
# 4 7.1174 32.7463 32.8108 33.4986 -15.0688 -4.3354
# 5 4.6107 -7.8526 -11.4741 -15.0688 26.9608 7.4519
# 6 -1.4678 -1.5325 -14.3295 -4.3354 7.4519 42.4247
#
#
#
# Elastic Compliance Matrix: (Units=1/GPa)
#
#
# Indices 1 2 3 4 5 6 
#
# 1 0.013773 -0.003617 0.001845 -0.003166 -0.004805 0.001489
# 2 -0.003617 0.009018 -0.002770 -0.005891 -0.000901 -0.001179
# 3 0.001845 -0.002770 0.026875 -0.025820 -0.006186 0.007489
# 4 -0.003166 -0.005891 -0.025820 0.074898 0.031618 -0.006943
# 5 -0.004805 -0.000901 -0.006186 0.031618 0.055104 -0.008736
# 6 0.001489 -0.001179 0.007489 -0.006943 -0.008736 0.026935
#
#
# Mechanical properties :
#
#
# Convention : Reuss Voigt Hill
#
# Bulk Modulus (GPa) = 24.64212 56.17696 40.40954
# Shear Modulus (GPa) = 21.81361 35.87953 28.84657
#
# Velocity S-wave (km/s) = 3.14485 4.03330 3.61646
# Velocity P-wave (km/s) = 4.93552 6.86732 5.97995
#
# Compressibility (1/GPa) = 0.04058092
#
# Stress axis : x y z
#
# Youngs Moduli (GPa) = 72.60407 110.89062 37.20938
#
# Poissons Ratio (x) = 0.40109 -0.06864
# Poissons Ratio (y) = 0.26261 0.10309
# Poissons Ratio (z) = -0.13394 0.30722
#
# Static dielectric constant tensor:
#      x y z
#    x 1.884490 -0.029140 0.045800 
#    y -0.029140 1.820900 0.027290 
#    z 0.045800 0.027290 1.806710 
# 
# From -- ./inp_files/245601.got.cif
#   From: 2010.05.17/outbox.cif.g08.bks.cpg/sg2_123_cif.got.tgz:245601.got - 2010.06.03 11:33:40.
