data_PCOD9036192
_publ_section_title
;
Structure prediction by ZEFSAII (Michael W. Deem and Ramdas Pophale) SiO2 
 PCOD9036192
Probable space group: P -1
;
_chemical_formula_sum "Si O2"
_cell_formula_units_Z 13
_cell_length_a 15.831164
_cell_length_b 7.079174
_cell_length_c 12.028691
_cell_angle_alpha 139.856864
_cell_angle_beta 140.581752
_cell_angle_gamma 51.169353
_cell_volume 549.665474
_symmetry_space_group_name_H-M "P -1"
_symmetry_group_IT_number 2
_symmetry_cell_setting 'triclinic'
loop_
_space_group_symop_operation_xyz
x,y,z
-x,-y,-z
loop_
_atom_site_type_symbol
_atom_site_label
_atom_site_fract_x
_atom_site_fract_y
_atom_site_fract_z
Si Si1 0.986936 0.664797 0.945633
Si Si2 0.148030 0.348010 0.595959
Si Si3 0.187864 0.760616 0.016255
Si Si4 0.242449 0.716959 0.485703
Si Si5 0.500000 0.500000 0.500000
Si Si6 0.560348 0.108599 0.773423
Si Si7 0.351292 0.660540 0.803905
O O1 0.873272 0.491639 0.692390
O O2 0.926047 0.000926 0.040598
O O3 0.000000 0.500000 0.000000
O O4 0.128019 0.660217 0.025130
O O5 0.235114 0.467553 0.640426
O O6 0.000000 0.500000 0.500000
O O7 0.169981 0.000719 0.478080
O O8 0.203455 0.484855 0.826464
O O9 0.324778 0.909900 0.210924
O O10 0.357055 0.559370 0.453065
O O11 0.313348 0.803905 0.711754
O O12 0.477113 0.830176 0.570034
O O13 0.477478 0.421538 0.812836
O O14 0.622739 0.122212 0.969233
#
# Coordination Sequence:
#
# PCOD9036192 Si02
#       7
#     2   2   2   2   1   2   2
#     4  11  24  43  66 100 141 180 228 284 343 407
#     4  11  23  44  69  99 140 179 231 285 339 417
#     4  10  23  43  66  97 134 184 224 277 351 406
#     4  12  26  44  70 107 135 184 234 283 345 409
#     4  12  24  46  70 108 136 178 240 286 348 406
#     4  10  22  48  69 102 139 182 229 290 347 407
#     4  10  24  45  71  99 140 182 230 282 348 415
#
# _framework density 23.650748
#
# number of rings (size 3 to 8) (size 9 to 14) (size 15 to 20)
#    0.000    1.231    3.077    1.846    0.000    8.615 
#    0.000    0.000    0.000    0.000    0.000    0.000 
#    0.000    0.000    0.000    0.000    0.000    0.000 
#
# Total GULP energy -72450.995439 kJ/mol
# GULP energy per Si atom -5573.153495 kJ/mol
# Density = 2.359692 g / cm^3
# Si number density = 23.650748 Si / 1000 Ang^3
#
#
#
# Elastic Constant Matrix: (Units=GPa)
#
#
# Indices 1 2 3 4 5 6 
#
# 1 162.7024 31.6548 21.3489 -8.9246 29.8476 16.0530
# 2 31.6548 85.6970 9.7253 -5.0748 -10.5782 5.7822
# 3 21.3489 9.7253 37.5268 -11.0596 -0.9235 10.5225
# 4 -8.9246 -5.0748 -11.0596 38.0538 5.7653 0.1327
# 5 29.8476 -10.5782 -0.9235 5.7653 34.2980 -3.3416
# 6 16.0530 5.7822 10.5225 0.1327 -3.3416 32.6861
#
#
#
# Elastic Compliance Matrix: (Units=1/GPa)
#
#
# Indices 1 2 3 4 5 6 
#
# 1 0.009900 -0.004231 -0.002825 0.002596 -0.010854 -0.004325
# 2 -0.004231 0.014326 -0.001593 -0.000802 0.008280 0.000906
# 3 -0.002825 -0.001593 0.033902 0.008938 0.000479 -0.009232
# 4 0.002596 -0.000802 0.008938 0.030591 -0.007889 -0.004941
# 5 -0.010854 0.008280 0.000479 -0.007889 0.043291 0.008170
# 6 -0.004325 0.000906 -0.009232 -0.004941 0.008170 0.036385
#
#
# Mechanical properties :
#
#
# Convention : Reuss Voigt Hill
#
# Bulk Modulus (GPa) = 24.49088 45.70934 35.10011
# Shear Modulus (GPa) = 25.08753 35.88741 30.48747
#
# Velocity S-wave (km/s) = 3.26045 3.89959 3.59426
# Velocity P-wave (km/s) = 4.95497 6.29639 5.66552
#
# Compressibility (1/GPa) = 0.04083153
#
# Stress axis : x y z
#
# Youngs Moduli (GPa) = 101.00718 69.80351 29.49663
#
# Poissons Ratio (x) = 0.29531 0.08334
# Poissons Ratio (y) = 0.42733 0.04697
# Poissons Ratio (z) = 0.28537 0.11116
#
# Static dielectric constant tensor:
#      x y z
#    x 1.884120 -0.024560 -0.001220 
#    y -0.024560 1.761480 0.029240 
#    z -0.001220 0.029240 2.000120 
# 
# From -- ./inp_files/23115.got.cif
#   From: 2010.05.17/outbox.cif.g08.bks.cpg/sg2_12_cif.got.tgz:23115.got - 2010.06.03 11:33:40.
