data_PCOD9036494
_publ_section_title
;
Structure prediction by ZEFSAII (Michael W. Deem and Ramdas Pophale) SiO2 
 PCOD9036494
Probable space group: P -1
;
_chemical_formula_sum "Si O2"
_cell_formula_units_Z 16
_cell_length_a 16.017758
_cell_length_b 15.364753
_cell_length_c 11.913194
_cell_angle_alpha 58.203275
_cell_angle_beta 25.202588
_cell_angle_gamma 40.190304
_cell_volume 645.851010
_symmetry_space_group_name_H-M "P -1"
_symmetry_group_IT_number 2
_symmetry_cell_setting 'triclinic'
loop_
_space_group_symop_operation_xyz
x,y,z
-x,-y,-z
loop_
_atom_site_type_symbol
_atom_site_label
_atom_site_fract_x
_atom_site_fract_y
_atom_site_fract_z
Si Si1 0.450394 0.523805 0.733602
Si Si2 0.586682 0.948367 0.676918
Si Si3 0.804977 0.987703 0.687005
Si Si4 0.032283 0.694947 0.921964
Si Si5 0.512573 0.791890 0.741607
Si Si6 0.326512 0.345567 0.607858
Si Si7 0.786356 0.068377 0.425422
Si Si8 0.559073 0.382381 0.922104
O O1 0.146474 0.672467 0.923134
O O2 0.701608 0.371677 0.441866
O O3 0.629914 0.552456 0.536894
O O4 0.397472 0.474794 0.937167
O O5 0.694373 0.808789 0.567817
O O6 0.844595 0.930246 0.396962
O O7 0.429391 0.969238 0.968538
O O8 0.305401 0.121581 0.832035
O O9 0.071633 0.798071 0.441928
O O10 0.629116 0.110110 0.709328
O O11 0.000000 0.000000 0.500000
O O12 0.001992 0.583209 0.019369
O O13 0.572960 0.749416 0.567001
O O14 0.569161 0.665775 0.828637
O O15 0.130635 0.975017 0.092038
O O16 0.569690 0.217590 0.499901
O O17 0.500000 0.500000 0.000000
#
# Coordination Sequence:
#
# PCOD9036494 Si02
#       8
#     2   2   2   2   2   2   2   2
#     4  11  22  41  65  84 129 163 210 255 312 373
#     4  11  21  41  64  94 125 159 214 267 307 374
#     4  11  21  40  67  91 129 164 214 263 312 373
#     4  10  24  39  64  94 116 167 211 258 311 372
#     4  11  23  41  64  92 129 162 208 261 319 372
#     4  11  23  41  62  91 128 161 209 257 314 380
#     4  10  23  37  64  96 120 165 208 259 327 363
#     4  11  22  41  65  92 124 175 204 253 322 376
#
# _framework density 24.773516000000001
#
# number of rings (size 3 to 8) (size 9 to 14) (size 15 to 20)
#    0.000    1.250    5.000    1.875    0.000    3.000 
#    0.000    3.125    0.000    0.000    0.000    0.000 
#    0.000    0.000    0.000    0.000    0.000    0.000 
#
# Total GULP energy -89535.513747 kJ/mol
# GULP energy per Si atom -5595.969609 kJ/mol
# Density = 2.471713 g / cm^3
# Si number density = 24.773516 Si / 1000 Ang^3
#
#
#
# Elastic Constant Matrix: (Units=GPa)
#
#
# Indices 1 2 3 4 5 6 
#
# 1 126.6266 44.1542 14.0790 -4.8010 15.4357 -22.6315
# 2 44.1542 97.1426 14.3484 -10.3372 8.4200 -12.9028
# 3 14.0790 14.3484 66.7788 -3.7351 8.0221 -8.4038
# 4 -4.8010 -10.3372 -3.7351 26.2298 8.4612 1.6250
# 5 15.4357 8.4200 8.0221 8.4612 38.2835 -16.1806
# 6 -22.6315 -12.9028 -8.4038 1.6250 -16.1806 60.0734
#
#
#
# Elastic Compliance Matrix: (Units=1/GPa)
#
#
# Indices 1 2 3 4 5 6 
#
# 1 0.010032 -0.003880 -0.000682 0.000813 -0.002294 0.002211
# 2 -0.003880 0.013003 -0.001424 0.004773 -0.001837 0.000508
# 3 -0.000682 -0.001424 0.016025 0.002508 -0.002983 0.000808
# 4 0.000813 0.004773 0.002508 0.044938 -0.013133 -0.003071
# 5 -0.002294 -0.001837 -0.002983 -0.013133 0.034327 0.007925
# 6 0.002211 0.000508 0.000808 -0.003071 0.007925 0.019919
#
#
# Mechanical properties :
#
#
# Convention : Reuss Voigt Hill
#
# Bulk Modulus (GPa) = 36.91887 48.41236 42.66562
# Shear Modulus (GPa) = 31.39834 39.44840 35.42337
#
# Velocity S-wave (km/s) = 3.56394 3.99477 3.78549
# Velocity P-wave (km/s) = 5.64539 6.39234 6.03044
#
# Compressibility (1/GPa) = 0.02708642
#
# Stress axis : x y z
#
# Youngs Moduli (GPa) = 99.68582 76.90755 62.40310
#
# Poissons Ratio (x) = 0.29840 0.04256
# Poissons Ratio (y) = 0.38678 0.08888
# Poissons Ratio (z) = 0.06799 0.10954
#
# Static dielectric constant tensor:
#      x y z
#    x 1.976790 0.046910 0.033530 
#    y 0.046910 1.987700 -0.000750 
#    z 0.033530 -0.000750 1.958790 
# 
# From -- ./inp_files/428466.got.cif
#   From: 2010.05.17/outbox.cif.g08.bks.cpg/sg2_215_cif.got.tgz:428466.got - 2010.06.03 11:33:40.
