data_PCOD9036617
_publ_section_title
;
Structure prediction by ZEFSAII (Michael W. Deem and Ramdas Pophale) SiO2 
 PCOD9036617
Probable space group: P -1
;
_chemical_formula_sum "Si O2"
_cell_formula_units_Z 12
_cell_length_a 14.427132
_cell_length_b 5.944252
_cell_length_c 8.950725
_cell_angle_alpha 119.765237
_cell_angle_beta 130.454686
_cell_angle_gamma 52.928239
_cell_volume 458.963501
_symmetry_space_group_name_H-M "P -1"
_symmetry_group_IT_number 2
_symmetry_cell_setting 'triclinic'
loop_
_space_group_symop_operation_xyz
x,y,z
-x,-y,-z
loop_
_atom_site_type_symbol
_atom_site_label
_atom_site_fract_x
_atom_site_fract_y
_atom_site_fract_z
Si Si1 0.777706 0.726984 0.378822
Si Si2 0.996232 0.090356 0.349118
Si Si3 0.361567 0.285763 0.463985
Si Si4 0.389193 0.935759 0.968047
Si Si5 0.451577 0.436018 0.234177
Si Si6 0.788715 0.012770 0.935949
O O1 0.886606 0.418244 0.340423
O O2 0.694613 0.685865 0.416639
O O3 0.689096 0.879288 0.194731
O O4 0.864007 0.910242 0.559439
O O5 0.940461 0.943081 0.116163
O O6 0.000000 0.000000 0.500000
O O7 0.421189 0.513007 0.555172
O O8 0.500000 0.000000 0.500000
O O9 0.241972 0.249182 0.239285
O O10 0.499190 0.652434 0.915471
O O11 0.438700 0.150394 0.176548
O O12 0.283400 0.898462 0.949965
O O13 0.308188 0.713085 0.175400
#
# Coordination Sequence:
#
# PCOD9036617 Si02
#       6
#     2   2   2   2   2   2
#     4  11  24  43  67 100 125 172 226 270 317 384
#     4  11  23  44  73  92 126 173 231 274 305 378
#     4  10  25  43  62  97 146 167 203 270 342 395
#     4  11  22  37  71  96 123 174 227 266 321 379
#     4  10  23  38  63  98 132 169 214 270 323 387
#     4  11  22  43  62  97 133 171 213 268 331 387
#
# _framework density 26.145869000000001
#
# number of rings (size 3 to 8) (size 9 to 14) (size 15 to 20)
#    0.000    1.333    3.333    1.500    9.333    1.333 
#    3.000    0.833    0.000    0.000    0.000    0.000 
#    0.000    0.000    0.000    0.000    0.000    0.000 
#
# Total GULP energy -67036.099244 kJ/mol
# GULP energy per Si atom -5586.341604 kJ/mol
# Density = 2.608636 g / cm^3
# Si number density = 26.145869 Si / 1000 Ang^3
#
#
#
# Elastic Constant Matrix: (Units=GPa)
#
#
# Indices 1 2 3 4 5 6 
#
# 1 90.1085 2.2876 15.6239 -5.6885 15.6138 11.9407
# 2 2.2876 48.4362 27.2183 -14.8004 8.9245 -10.9627
# 3 15.6239 27.2183 199.1203 6.6577 53.3858 13.6326
# 4 -5.6885 -14.8004 6.6577 44.0689 16.7360 0.7342
# 5 15.6138 8.9245 53.3858 16.7360 57.6516 7.6587
# 6 11.9407 -10.9627 13.6326 0.7342 7.6587 27.9300
#
#
#
# Elastic Compliance Matrix: (Units=1/GPa)
#
#
# Indices 1 2 3 4 5 6 
#
# 1 0.012533 -0.000108 0.000299 0.003114 -0.003954 -0.004544
# 2 -0.000108 0.032240 -0.003969 0.013997 -0.007519 0.016331
# 3 0.000299 -0.003969 0.007332 -0.000170 -0.005717 -0.003692
# 4 0.003114 0.013997 -0.000170 0.032752 -0.013295 0.007030
# 5 -0.003954 -0.007519 -0.005717 -0.013295 0.029561 -0.006227
# 6 -0.004544 0.016331 -0.003692 0.007030 -0.006227 0.047481
#
#
# Mechanical properties :
#
#
# Convention : Reuss Voigt Hill
#
# Bulk Modulus (GPa) = 22.44756 47.54719 34.99738
# Shear Modulus (GPa) = 27.12914 45.43242 36.28078
#
# Velocity S-wave (km/s) = 3.22469 4.17304 3.72913
# Velocity P-wave (km/s) = 4.74014 6.43769 5.65300
#
# Compressibility (1/GPa) = 0.04454826
#
# Stress axis : x y z
#
# Youngs Moduli (GPa) = 79.79211 31.01778 136.38398
#
# Poissons Ratio (x) = 0.00335 -0.04072
# Poissons Ratio (y) = 0.00862 0.54125
# Poissons Ratio (z) = -0.02382 0.12310
#
# Static dielectric constant tensor:
#      x y z
#    x 2.044130 0.028820 0.023960 
#    y 0.028820 2.041570 0.069190 
#    z 0.023960 0.069190 2.288920 
# 
# From -- ./inp_files/33815.got.cif
#   From: 2010.05.17/outbox.cif.g08.bks.cpg/sg2_17_cif.got.tgz:33815.got - 2010.06.03 11:33:40.
