data_PCOD9036384
_publ_section_title
;
Structure prediction by ZEFSAII (Michael W. Deem and Ramdas Pophale) SiO2 
 PCOD9036384
Probable space group: P -1
;
_chemical_formula_sum "Si O2"
_cell_formula_units_Z 16
_cell_length_a 17.079010
_cell_length_b 9.302098
_cell_length_c 7.401824
_cell_angle_alpha 100.030466
_cell_angle_beta 79.256704
_cell_angle_gamma 142.504581
_cell_volume 702.562465
_symmetry_space_group_name_H-M "P -1"
_symmetry_group_IT_number 2
_symmetry_cell_setting 'triclinic'
loop_
_space_group_symop_operation_xyz
x,y,z
-x,-y,-z
loop_
_atom_site_type_symbol
_atom_site_label
_atom_site_fract_x
_atom_site_fract_y
_atom_site_fract_z
Si Si1 0.829881 0.215506 0.982636
Si Si2 0.713045 0.400344 0.325999
Si Si3 0.425033 0.515448 0.427070
Si Si4 0.434202 0.090229 0.836416
Si Si5 0.182060 0.116102 0.206557
Si Si6 0.981325 0.384058 0.296784
Si Si7 0.908621 0.721405 0.615061
Si Si8 0.711645 0.478714 0.948501
O O1 0.677605 0.018863 0.004638
O O2 0.096896 0.575256 0.143522
O O3 0.871179 0.114272 0.877822
O O4 0.787517 0.518280 0.758493
O O5 0.631042 0.424563 0.427989
O O6 0.842177 0.576279 0.427574
O O7 0.621716 0.126976 0.300005
O O8 0.754796 0.483482 0.121017
O O9 0.500000 0.500000 0.500000
O O10 0.518899 0.716771 0.277893
O O11 0.297762 0.266062 0.331992
O O12 0.561516 0.236679 0.927836
O O13 0.081740 0.089135 0.326901
O O14 0.247702 0.293336 0.046613
O O15 0.865933 0.271956 0.192877
O O16 0.000000 0.500000 0.500000
O O17 0.978518 0.213519 0.335227
#
# Coordination Sequence:
#
# PCOD9036384 Si02
#       8
#     2   2   2   2   2   2   2   2
#     4  11  25  43  68  92 127 163 213 263 319 366
#     4  11  20  37  60  89 127 171 205 245 305 364
#     4  10  23  35  59  95 136 170 202 250 307 377
#     4  11  22  39  62  96 129 170 205 251 310 382
#     4   8  21  42  59  95 127 163 207 249 314 380
#     4  11  25  47  66  92 121 162 216 275 313 364
#     4   9  21  42  63  88 128 159 209 257 303 381
#     4   9  21  38  62  95 130 161 202 248 311 374
#
# _framework density 22.773775000000001
#
# number of rings (size 3 to 8) (size 9 to 14) (size 15 to 20)
#    0.750    1.250    1.250    2.250    3.500    4.500 
#    2.250    0.625    0.000    0.000    0.000    0.000 
#    0.000    0.000    0.000    0.000    0.000    0.000 
#
# Total GULP energy -89302.131780 kJ/mol
# GULP energy per Si atom -5581.383236 kJ/mol
# Density = 2.272194 g / cm^3
# Si number density = 22.773775 Si / 1000 Ang^3
#
#
#
# Elastic Constant Matrix: (Units=GPa)
#
#
# Indices 1 2 3 4 5 6 
#
# 1 75.0226 14.0046 23.0939 -0.4930 5.8496 -13.7695
# 2 14.0046 45.4169 14.3848 3.9351 6.2220 -8.3154
# 3 23.0939 14.3848 108.3744 -3.3520 20.7671 -6.1601
# 4 -0.4930 3.9351 -3.3520 22.2859 -12.3299 -11.3055
# 5 5.8496 6.2220 20.7671 -12.3299 36.4154 -8.7490
# 6 -13.7695 -8.3154 -6.1601 -11.3055 -8.7490 37.4782
#
#
#
# Elastic Compliance Matrix: (Units=1/GPa)
#
#
# Indices 1 2 3 4 5 6 
#
# 1 0.016053 -0.003699 -0.003022 0.006315 0.003680 0.007344
# 2 -0.003699 0.025144 -0.001781 -0.007282 -0.005017 0.000559
# 3 -0.003022 -0.001781 0.011275 -0.003308 -0.007328 -0.002361
# 4 0.006315 -0.007282 -0.003308 0.085514 0.039523 0.035183
# 5 0.003680 -0.005017 -0.007328 0.039523 0.050768 0.022808
# 6 0.007344 0.000559 -0.002361 0.035183 0.022808 0.045054
#
#
# Mechanical properties :
#
#
# Convention : Reuss Voigt Hill
#
# Bulk Modulus (GPa) = 28.19548 36.86450 32.52999
# Shear Modulus (GPa) = 19.03780 31.05793 25.04787
#
# Velocity S-wave (km/s) = 2.89442 3.69692 3.32001
# Velocity P-wave (km/s) = 4.85570 5.86901 5.38624
#
# Compressibility (1/GPa) = 0.03546668
#
# Stress axis : x y z
#
# Youngs Moduli (GPa) = 62.29474 39.77138 88.68955
#
# Poissons Ratio (x) = 0.14713 0.26802
# Poissons Ratio (y) = 0.23045 0.15796
# Poissons Ratio (z) = 0.18826 0.07084
#
# Static dielectric constant tensor:
#      x y z
#    x 1.882840 -0.043150 -0.014510 
#    y -0.043150 1.873690 -0.017550 
#    z -0.014510 -0.017550 1.840630 
# 
# From -- ./inp_files/293002.got.cif
#   From: 2010.05.17/outbox.cif.g08.bks.cpg/sg2_147_cif.got.tgz:293002.got - 2010.06.03 11:33:40.
