data_PCOD9036797
_publ_section_title
;
Structure prediction by ZEFSAII (Michael W. Deem and Ramdas Pophale) SiO2 
 PCOD9036797
Probable space group: P -1
;
_chemical_formula_sum "Si O2"
_cell_formula_units_Z 12
_cell_length_a 4.816398
_cell_length_b 20.321767
_cell_length_c 5.547218
_cell_angle_alpha 62.647063
_cell_angle_beta 92.406297
_cell_angle_gamma 86.200255
_cell_volume 479.573623
_symmetry_space_group_name_H-M "P -1"
_symmetry_group_IT_number 2
_symmetry_cell_setting 'triclinic'
loop_
_space_group_symop_operation_xyz
x,y,z
-x,-y,-z
loop_
_atom_site_type_symbol
_atom_site_label
_atom_site_fract_x
_atom_site_fract_y
_atom_site_fract_z
Si Si1 0.155801 0.591324 0.258652
Si Si2 0.682519 0.922619 0.124451
Si Si3 0.064467 0.192728 0.358640
Si Si4 0.364061 0.334337 0.077565
Si Si5 0.182829 0.840875 0.096053
Si Si6 0.620103 0.554621 0.720865
O O1 0.352935 0.585841 0.505556
O O2 0.171895 0.507031 0.301314
O O3 0.325607 0.645076 0.001807
O O4 0.842296 0.628158 0.200079
O O5 0.773666 0.888670 0.445816
O O6 0.506237 0.137098 0.902791
O O7 0.969365 0.915965 0.996524
O O8 0.500000 0.000000 0.000000
O O9 0.291043 0.251225 0.240048
O O10 0.885324 0.192751 0.107517
O O11 0.895680 0.204563 0.588517
O O12 0.263214 0.379966 0.236108
O O13 0.500000 0.500000 0.000000
#
# Coordination Sequence:
#
# PCOD9036797 Si02
#       6
#     2   2   2   2   2   2
#     4  10  23  39  62  89 122 162 216 265 324 378
#     4  10  24  45  72 100 134 176 220 270 326 391
#     4  10  27  42  67  98 138 175 220 272 329 393
#     4  11  24  38  63  88 125 167 212 262 326 380
#     4  10  25  42  67  97 136 169 223 266 329 389
#     4   9  21  41  61  90 121 162 212 268 318 384
#
# _framework density 25.022224999999999
#
# number of rings (size 3 to 8) (size 9 to 14) (size 15 to 20)
#    1.000    1.000    0.000    1.000    7.000   11.333 
#    0.000    0.000    0.000    0.000    0.000    0.000 
#    0.000    0.000    0.000    0.000    0.000    0.000 
#
# Total GULP energy -67066.962348 kJ/mol
# GULP energy per Si atom -5588.913529 kJ/mol
# Density = 2.496527 g / cm^3
# Si number density = 25.022225 Si / 1000 Ang^3
#
#
#
# Elastic Constant Matrix: (Units=GPa)
#
#
# Indices 1 2 3 4 5 6 
#
# 1 111.4990 5.8157 5.0625 14.5466 3.1607 2.6257
# 2 5.8157 63.0722 39.2881 7.7520 0.0510 11.4058
# 3 5.0625 39.2881 103.1595 23.3203 6.9998 4.9728
# 4 14.5466 7.7520 23.3203 37.3492 1.5066 7.7430
# 5 3.1607 0.0510 6.9998 1.5066 28.4461 1.0099
# 6 2.6257 11.4058 4.9728 7.7430 1.0099 34.8924
#
#
#
# Elastic Compliance Matrix: (Units=1/GPa)
#
#
# Indices 1 2 3 4 5 6 
#
# 1 0.009537 -0.001010 0.000899 -0.004111 -0.001076 0.000428
# 2 -0.001010 0.022363 -0.008892 0.002578 0.002358 -0.006607
# 3 0.000899 -0.008892 0.015015 -0.008288 -0.003433 0.002638
# 4 -0.004111 0.002578 -0.008288 0.034434 0.000917 -0.007020
# 5 -0.001076 0.002358 -0.003433 0.000917 0.036117 -0.001449
# 6 0.000428 -0.006607 0.002638 -0.007020 -0.001449 0.032011
#
#
# Mechanical properties :
#
#
# Convention : Reuss Voigt Hill
#
# Bulk Modulus (GPa) = 34.59166 42.00702 38.29934
# Shear Modulus (GPa) = 28.22935 35.30849 31.76892
#
# Velocity S-wave (km/s) = 3.36247 3.76052 3.56705
# Velocity P-wave (km/s) = 5.37860 5.97324 5.68370
#
# Compressibility (1/GPa) = 0.02890870
#
# Stress axis : x y z
#
# Youngs Moduli (GPa) = 104.85045 44.71741 66.59808
#
# Poissons Ratio (x) = 0.04518 -0.05984
# Poissons Ratio (y) = 0.10593 0.59216
# Poissons Ratio (z) = -0.09421 0.39761
#
# Static dielectric constant tensor:
#      x y z
#    x 2.031790 -0.112960 -0.087540 
#    y -0.112960 2.021250 0.056590 
#    z -0.087540 0.056590 2.082950 
# 
# From -- ./inp_files/10229.got.cif
#   From: 2010.05.17/outbox.cif.g08.bks.cpg/sg2_6_cif.got.tgz:10229.got - 2010.06.03 11:33:40.
