data_PCOD9036908
_publ_section_title
;
Structure prediction by ZEFSAII (Michael W. Deem and Ramdas Pophale) SiO2 
 PCOD9036908
Probable space group: P -1
;
_chemical_formula_sum "Si O2"
_cell_formula_units_Z 14
_cell_length_a 4.721234
_cell_length_b 20.476009
_cell_length_c 7.183610
_cell_angle_alpha 53.748378
_cell_angle_beta 106.372212
_cell_angle_gamma 116.848772
_cell_volume 499.551364
_symmetry_space_group_name_H-M "P -1"
_symmetry_group_IT_number 2
_symmetry_cell_setting 'triclinic'
loop_
_space_group_symop_operation_xyz
x,y,z
-x,-y,-z
loop_
_atom_site_type_symbol
_atom_site_label
_atom_site_fract_x
_atom_site_fract_y
_atom_site_fract_z
Si Si1 0.187291 0.942460 0.928012
Si Si2 0.650680 0.157522 0.217902
Si Si3 0.540811 0.447987 0.907403
Si Si4 0.530954 0.610833 0.652357
Si Si5 0.929293 0.219819 0.622184
Si Si6 0.787326 0.880199 0.473483
Si Si7 0.908435 0.330344 0.782819
O O1 0.309823 0.899896 0.849824
O O2 0.066821 0.019719 0.728649
O O3 0.982529 0.863880 0.158908
O O4 0.500000 0.000000 0.000000
O O5 0.327217 0.118874 0.335554
O O6 0.932141 0.156671 0.410377
O O7 0.697495 0.256272 0.010966
O O8 0.669318 0.541913 0.678681
O O9 0.219281 0.391530 0.845397
O O10 0.500000 0.500000 0.000000
O O11 0.653400 0.391263 0.167659
O O12 0.290509 0.619498 0.436813
O O13 0.827730 0.699967 0.582901
O O14 0.549020 0.180270 0.578639
O O15 0.978802 0.271402 0.740875
#
# Coordination Sequence:
#
# PCOD9036908 Si02
#       7
#     2   2   2   2   2   2   2
#     4   9  21  44  61  99 133 179 227 277 333 397
#     4  11  25  41  71  96 137 180 227 278 334 396
#     4   8  21  40  65  94 127 177 216 277 342 407
#     4   9  21  42  64  90 134 167 222 278 338 402
#     4  10  23  39  65  96 128 178 217 284 336 393
#     4  11  24  44  66  99 138 179 229 277 333 399
#     4  11  22  39  66  96 133 170 228 275 335 403
#
# _framework density 28.025144000000001
#
# number of rings (size 3 to 8) (size 9 to 14) (size 15 to 20)
#    0.857    1.143    0.000    2.143    8.000    0.571 
#    2.571    5.714    0.000    0.000    0.000    0.000 
#    0.000    0.000    0.000    0.000    0.000    0.000 
#
# Total GULP energy -77942.913930 kJ/mol
# GULP energy per Si atom -5567.350995 kJ/mol
# Density = 2.796136 g / cm^3
# Si number density = 28.025144 Si / 1000 Ang^3
#
#
#
# Elastic Constant Matrix: (Units=GPa)
#
#
# Indices 1 2 3 4 5 6 
#
# 1 99.2634 10.7730 32.1140 -16.6048 14.1180 24.9809
# 2 10.7730 164.2197 25.7285 -26.0625 -5.6230 38.8707
# 3 32.1140 25.7285 132.9881 -10.9230 11.8203 30.1611
# 4 -16.6048 -26.0625 -10.9230 39.7875 4.6964 4.3643
# 5 14.1180 -5.6230 11.8203 4.6964 -9.9334 27.8813
# 6 24.9809 38.8707 30.1611 4.3643 27.8813 24.3185
#
#
#
# Elastic Compliance Matrix: (Units=1/GPa)
#
#
# Indices 1 2 3 4 5 6 
#
# 1 0.016409 0.003586 0.000258 0.011937 -0.010211 -0.013343
# 2 0.003586 0.008242 0.000702 0.009123 -0.011563 -0.006108
# 3 0.000258 0.000702 0.009937 0.004846 -0.006363 -0.007285
# 4 0.011937 0.009123 0.004846 0.041707 -0.018003 -0.019698
# 5 -0.010211 -0.011563 -0.006363 -0.018003 -0.002888 0.043406
# 6 -0.013343 -0.006108 -0.007285 -0.019698 0.043406 0.027396
#
#
# Mechanical properties :
#
#
# Convention : Reuss Voigt Hill
#
# Bulk Modulus (GPa) = 22.89385 59.30024 41.09705
# Shear Modulus (GPa) = 47.04969 32.69156 39.87063
#
# Velocity S-wave (km/s) = 4.10181 3.41912 3.77593
# Velocity P-wave (km/s) = 5.53352 6.06571 5.80572
#
# Compressibility (1/GPa) = 0.04367985
#
# Stress axis : x y z
#
# Youngs Moduli (GPa) = 60.94378 121.33272 100.63100
#
# Poissons Ratio (x) = -0.43514 -0.02596
# Poissons Ratio (y) = -0.21856 -0.07062
# Poissons Ratio (z) = -0.01572 -0.08515
#
# Static dielectric constant tensor:
#      x y z
#    x 2.189550 -0.176320 -0.095570 
#    y -0.176320 2.110970 0.209660 
#    z -0.095570 0.209660 1.972810 
# 
# From -- ./inp_files/142487.got.cif
#   From: 2010.05.17/outbox.cif.g08.bks.cpg/sg2_72_cif.got.tgz:142487.got - 2010.06.03 11:33:40.
