data_PCOD9036183
_publ_section_title
;
Structure prediction by ZEFSAII (Michael W. Deem and Ramdas Pophale) SiO2 
 PCOD9036183
Probable space group: P -1
;
_chemical_formula_sum "Si O2"
_cell_formula_units_Z 13
_cell_length_a 11.720335
_cell_length_b 12.453480
_cell_length_c 8.570340
_cell_angle_alpha 121.888850
_cell_angle_beta 71.487026
_cell_angle_gamma 61.787432
_cell_volume 610.300140
_symmetry_space_group_name_H-M "P -1"
_symmetry_group_IT_number 2
_symmetry_cell_setting 'triclinic'
loop_
_space_group_symop_operation_xyz
x,y,z
-x,-y,-z
loop_
_atom_site_type_symbol
_atom_site_label
_atom_site_fract_x
_atom_site_fract_y
_atom_site_fract_z
Si Si1 0.500000 0.500000 0.500000
Si Si2 0.970903 0.377093 0.960174
Si Si3 0.576012 0.721284 0.595455
Si Si4 0.322228 0.747016 0.082813
Si Si5 0.074926 0.776401 0.423840
Si Si6 0.662790 0.891607 0.213084
Si Si7 0.683709 0.620004 0.820415
O O1 0.466625 0.679962 0.631757
O O2 0.427099 0.574785 0.773852
O O3 0.970532 0.285749 0.742133
O O4 0.152317 0.192154 0.853724
O O5 0.763546 0.542214 0.265377
O O6 0.000000 0.500000 0.000000
O O7 0.657918 0.684698 0.703716
O O8 0.439213 0.942146 0.750210
O O9 0.244990 0.727694 0.246253
O O10 0.476278 0.728868 0.046892
O O11 0.122246 0.977451 0.276164
O O12 0.154854 0.626226 0.417179
O O13 0.500000 0.000000 0.500000
O O14 0.731225 0.700261 0.966951
#
# Coordination Sequence:
#
# PCOD9036183 Si02
#       7
#     1   2   2   2   2   2   2
#     4  10  22  48  66  96 144 172 226 280 338 402
#     4  12  23  43  70  97 138 174 227 281 333 411
#     4  11  25  44  66 101 134 182 223 280 344 401
#     4  10  23  41  70  97 136 182 229 280 331 407
#     4  11  22  44  68 103 133 180 233 273 339 402
#     4  12  24  42  69  99 131 180 224 279 340 402
#     4  11  24  42  68  97 140 174 224 285 340 403
#
# _framework density 21.300993999999999
#
# number of rings (size 3 to 8) (size 9 to 14) (size 15 to 20)
#    0.000    0.923    4.615    1.846    0.000    3.077 
#   11.077    3.846    0.000    0.000    0.000    0.000 
#    0.000    0.000    0.000    0.000    0.000    0.000 
#
# Total GULP energy -72434.989889 kJ/mol
# GULP energy per Si atom -5571.922299 kJ/mol
# Density = 2.125251 g / cm^3
# Si number density = 21.300994 Si / 1000 Ang^3
#
#
#
# Elastic Constant Matrix: (Units=GPa)
#
#
# Indices 1 2 3 4 5 6 
#
# 1 53.8298 3.6356 -4.4772 -6.6382 -0.8345 1.8167
# 2 3.6356 119.1927 -1.0801 15.9534 -2.3562 -4.9178
# 3 -4.4772 -1.0801 33.5681 2.2075 7.3570 -7.8674
# 4 -6.6382 15.9534 2.2075 26.1854 -7.5563 -4.4311
# 5 -0.8345 -2.3562 7.3570 -7.5563 25.4256 0.9234
# 6 1.8167 -4.9178 -7.8674 -4.4311 0.9234 33.1068
#
#
#
# Elastic Compliance Matrix: (Units=1/GPa)
#
#
# Indices 1 2 3 4 5 6 
#
# 1 0.019609 -0.001377 0.001736 0.006183 0.001854 -0.000092
# 2 -0.001377 0.009302 0.001053 -0.006360 -0.001411 0.000896
# 3 0.001736 0.001053 0.034842 -0.005182 -0.011757 0.007975
# 4 0.006183 -0.006360 -0.005182 0.049184 0.015598 0.003632
# 5 0.001854 -0.001411 -0.011757 0.015598 0.047383 -0.002339
# 6 -0.000092 0.000896 0.007975 0.003632 -0.002339 0.032790
#
#
# Mechanical properties :
#
#
# Convention : Reuss Voigt Hill
#
# Bulk Modulus (GPa) = 15.02011 22.52747 18.77379
# Shear Modulus (GPa) = 23.53185 30.84438 27.18811
#
# Velocity S-wave (km/s) = 3.32735 3.80942 3.57652
# Velocity P-wave (km/s) = 4.67209 5.47245 5.08803
#
# Compressibility (1/GPa) = 0.06657741
#
# Stress axis : x y z
#
# Youngs Moduli (GPa) = 50.99739 107.50722 28.70076
#
# Poissons Ratio (x) = 0.14805 -0.04984
# Poissons Ratio (y) = 0.07023 -0.03022
# Poissons Ratio (z) = -0.08855 -0.11320
#
# Static dielectric constant tensor:
#      x y z
#    x 1.710240 -0.019030 -0.065800 
#    y -0.019030 1.789140 -0.009230 
#    z -0.065800 -0.009230 1.723340 
# 
# From -- ./inp_files/20316.got.cif
#   From: 2010.05.17/outbox.cif.g08.bks.cpg/sg2_11_cif.got.tgz:20316.got - 2010.06.03 11:33:40.
