data_PCOD9036883
_publ_section_title
;
Structure prediction by ZEFSAII (Michael W. Deem and Ramdas Pophale) SiO2 
 PCOD9036883
Probable space group: P -1
;
_chemical_formula_sum "Si O2"
_cell_formula_units_Z 12
_cell_length_a 13.607329
_cell_length_b 17.129149
_cell_length_c 9.367871
_cell_angle_alpha 41.048341
_cell_angle_beta 36.438711
_cell_angle_gamma 21.001655
_cell_volume 464.755213
_symmetry_space_group_name_H-M "P -1"
_symmetry_group_IT_number 2
_symmetry_cell_setting 'triclinic'
loop_
_space_group_symop_operation_xyz
x,y,z
-x,-y,-z
loop_
_atom_site_type_symbol
_atom_site_label
_atom_site_fract_x
_atom_site_fract_y
_atom_site_fract_z
Si Si1 0.158613 0.427586 0.563874
Si Si2 0.820164 0.837449 0.948846
Si Si3 0.255357 0.777821 0.917741
Si Si4 0.522452 0.461146 0.724985
Si Si5 0.995858 0.631961 0.749898
Si Si6 0.154660 0.953827 0.238001
O O1 0.475876 0.298536 0.340158
O O2 0.957173 0.628286 0.631883
O O3 0.000000 0.500000 0.500000
O O4 0.217327 0.265923 0.790622
O O5 0.176243 0.654108 0.815932
O O6 0.795671 0.835305 0.809409
O O7 0.652978 0.049195 0.926330
O O8 0.071257 0.858230 0.878543
O O9 0.400996 0.602762 0.107828
O O10 0.000000 0.000000 0.000000
O O11 0.682917 0.488865 0.458320
O O12 0.683551 0.253432 0.742295
O O13 0.000000 0.500000 0.000000
O O14 0.000000 0.000000 0.500000
#
# Coordination Sequence:
#
# PCOD9036883 Si02
#       6
#     2   2   2   2   2   2
#     4  11  23  43  70 105 135 183 237 281 351 414
#     4  11  23  43  70 104 136 182 233 288 342 418
#     4  10  24  44  67 103 139 180 231 287 344 411
#     4  11  22  43  72  99 141 181 233 287 347 410
#     4  10  23  39  65 105 137 175 232 287 337 411
#     4  11  24  42  71 102 136 185 232 280 347 417
#
# _framework density 25.820042999999998
#
# number of rings (size 3 to 8) (size 9 to 14) (size 15 to 20)
#    0.000    1.333    3.333    1.500    4.667    1.333 
#    0.000   10.833    0.000    0.000    0.000    0.000 
#    0.000    0.000    0.000    0.000    0.000    0.000 
#
# Total GULP energy -67163.177859 kJ/mol
# GULP energy per Si atom -5596.931488 kJ/mol
# Density = 2.576128 g / cm^3
# Si number density = 25.820043 Si / 1000 Ang^3
#
#
#
# Elastic Constant Matrix: (Units=GPa)
#
#
# Indices 1 2 3 4 5 6 
#
# 1 249.6117 58.1737 58.0536 2.3682 32.2248 28.9404
# 2 58.1737 111.1285 25.6080 -8.4931 8.1257 10.3205
# 3 58.0536 25.6080 158.4398 -7.8061 -2.3079 18.1960
# 4 2.3682 -8.4931 -7.8061 32.6192 12.4447 10.1550
# 5 32.2248 8.1257 -2.3079 12.4447 64.4350 -2.0700
# 6 28.9404 10.3205 18.1960 10.1550 -2.0700 52.2566
#
#
#
# Elastic Compliance Matrix: (Units=1/GPa)
#
#
# Indices 1 2 3 4 5 6 
#
# 1 0.005421 -0.002071 -0.001404 0.000464 -0.002664 -0.002300
# 2 -0.002071 0.010731 -0.000637 0.003682 -0.001100 -0.001510
# 3 -0.001404 -0.000637 0.007271 0.002082 0.000576 -0.002010
# 4 0.000464 0.003682 0.002082 0.038192 -0.008302 -0.009460
# 5 -0.002664 -0.001100 0.000576 -0.008302 0.018738 0.003848
# 6 -0.002300 -0.001510 -0.002010 -0.009460 0.003848 0.023399
#
#
# Mechanical properties :
#
#
# Convention : Reuss Voigt Hill
#
# Bulk Modulus (GPa) = 65.78497 89.20560 77.49529
# Shear Modulus (GPa) = 42.71940 55.01849 48.86895
#
# Velocity S-wave (km/s) = 4.07197 4.62111 4.35521
# Velocity P-wave (km/s) = 6.90228 7.94336 7.44105
#
# Compressibility (1/GPa) = 0.01520104
#
# Stress axis : x y z
#
# Youngs Moduli (GPa) = 184.45104 93.18437 137.53991
#
# Poissons Ratio (x) = 0.19296 0.19304
# Poissons Ratio (y) = 0.38195 0.08761
# Poissons Ratio (z) = 0.25888 0.05936
#
# Static dielectric constant tensor:
#      x y z
#    x 2.132660 0.046950 -0.040860 
#    y 0.046950 1.290430 0.032730 
#    z -0.040860 0.032730 2.026200 
# 
# From -- ./inp_files/244819.got.cif
#   From: 2010.05.17/outbox.cif.g08.bks.cpg/sg2_123_cif.got.tgz:244819.got - 2010.06.03 11:33:40.
