data_PCOD9036587
_publ_section_title
;
Structure prediction by ZEFSAII (Michael W. Deem and Ramdas Pophale) SiO2 
 PCOD9036587
Probable space group: P -1
;
_chemical_formula_sum "Si O2"
_cell_formula_units_Z 16
_cell_length_a 26.395417
_cell_length_b 17.613283
_cell_length_c 26.632462
_cell_angle_alpha 160.478296
_cell_angle_beta 168.948557
_cell_angle_gamma 20.372756
_cell_volume 778.091942
_symmetry_space_group_name_H-M "P -1"
_symmetry_group_IT_number 2
_symmetry_cell_setting 'triclinic'
loop_
_space_group_symop_operation_xyz
x,y,z
-x,-y,-z
loop_
_atom_site_type_symbol
_atom_site_label
_atom_site_fract_x
_atom_site_fract_y
_atom_site_fract_z
Si Si1 0.031817 0.568119 0.384942
Si Si2 0.863376 0.789974 0.546127
Si Si3 0.725241 0.310708 0.742038
Si Si4 0.169958 0.291924 0.246872
Si Si5 0.112839 0.774473 0.887306
Si Si6 0.438904 0.638843 0.970555
Si Si7 0.706657 0.586732 0.793382
Si Si8 0.448165 0.864915 0.019194
O O1 0.126995 0.468667 0.361339
O O2 0.236153 0.715723 0.699325
O O3 0.009053 0.347903 0.261332
O O4 0.741283 0.738448 0.206218
O O5 0.599948 0.709190 0.218849
O O6 0.922037 0.788149 0.661287
O O7 0.840932 0.055424 0.674198
O O8 0.128513 0.652094 0.690245
O O9 0.446729 0.294627 0.488759
O O10 0.693198 0.479956 0.769180
O O11 0.932701 0.355613 0.014804
O O12 0.165805 0.034633 0.104801
O O13 0.387765 0.592623 0.029272
O O14 0.452237 0.833187 0.063289
O O15 0.500000 0.500000 0.500000
O O16 0.000000 0.500000 0.000000
O O17 0.634853 0.864088 0.902887
#
# Coordination Sequence:
#
# PCOD9036587 Si02
#       8
#     2   2   2   2   2   2   2   2
#     4  11  24  44  64  89 125 168 214 266 310 357
#     4  11  21  36  56  87 125 161 195 247 309 371
#     4  11  24  42  64  94 125 162 212 258 311 380
#     4  11  24  44  64  89 125 168 214 266 310 357
#     4  10  23  38  62  92 124 168 217 256 306 378
#     4  11  21  36  56  87 125 161 195 247 309 371
#     4  12  24  44  71 100 129 164 200 252 316 382
#     4  11  24  42  64  94 125 162 212 258 311 380
#
# _framework density 20.563123000000001
#
# number of rings (size 3 to 8) (size 9 to 14) (size 15 to 20)
#    0.000    1.000    0.000    7.875    0.000    8.000 
#    0.000   10.000    0.000    0.000    0.000    0.000 
#    0.000    0.000    0.000    0.000    0.000    0.000 
#
# Total GULP energy -89521.945280 kJ/mol
# GULP energy per Si atom -5595.121580 kJ/mol
# Density = 2.051632 g / cm^3
# Si number density = 20.563123 Si / 1000 Ang^3
#
#
#
# Elastic Constant Matrix: (Units=GPa)
#
#
# Indices 1 2 3 4 5 6 
#
# 1 96.1125 71.8155 46.5275 8.6268 -0.4898 6.3254
# 2 71.8155 134.3546 48.1733 4.6932 0.5924 29.3646
# 3 46.5275 48.1733 137.4836 -13.6756 8.6505 -1.6348
# 4 8.6268 4.6932 -13.6756 23.9314 2.5840 0.4560
# 5 -0.4898 0.5924 8.6505 2.5840 14.3255 1.8060
# 6 6.3254 29.3646 -1.6348 0.4560 1.8060 33.5475
#
#
#
# Elastic Compliance Matrix: (Units=1/GPa)
#
#
# Indices 1 2 3 4 5 6 
#
# 1 0.020706 -0.010159 -0.004564 -0.008693 0.004869 0.004622
# 2 -0.010159 0.016800 -0.002898 -0.001319 0.002591 -0.013052
# 3 -0.004564 -0.002898 0.011426 0.009656 -0.009222 0.004319
# 4 -0.008693 -0.001319 0.009656 0.052354 -0.015947 0.003411
# 5 0.004869 0.002591 -0.009222 -0.015947 0.079279 -0.007687
# 6 0.004622 -0.013052 0.004319 0.003411 -0.007687 0.040940
#
#
# Mechanical properties :
#
#
# Convention : Reuss Voigt Hill
#
# Bulk Modulus (GPa) = 73.05001 77.88703 75.46852
# Shear Modulus (GPa) = 19.13449 27.78984 23.46216
#
# Velocity S-wave (km/s) = 3.05376 3.68018 3.38151
# Velocity P-wave (km/s) = 6.93079 7.48449 7.21295
#
# Compressibility (1/GPa) = 0.01368925
#
# Stress axis : x y z
#
# Youngs Moduli (GPa) = 48.29572 59.52432 87.52348
#
# Poissons Ratio (x) = 0.60473 0.39943
# Poissons Ratio (y) = 0.49066 0.25363
# Poissons Ratio (z) = 0.22041 0.17249
#
# Static dielectric constant tensor:
#      x y z
#    x 1.721000 0.026230 0.014980 
#    y 0.026230 1.745950 0.008800 
#    z 0.014980 0.008800 1.746660 
# 
# From -- ./inp_files/621362.got.cif
#   From: 2010.05.17/outbox.cif.g08.bks.cpg/sg2_311_cif.got.tgz:621362.got - 2010.06.03 11:33:40.
