data_PCOD9036804
_publ_section_title
;
Structure prediction by ZEFSAII (Michael W. Deem and Ramdas Pophale) SiO2 
 PCOD9036804
Probable space group: P -1
;
_chemical_formula_sum "Si O2"
_cell_formula_units_Z 13
_cell_length_a 11.917398
_cell_length_b 14.012081
_cell_length_c 8.054478
_cell_angle_alpha 63.655431
_cell_angle_beta 144.973108
_cell_angle_gamma 126.886928
_cell_volume 614.092982
_symmetry_space_group_name_H-M "P -1"
_symmetry_group_IT_number 2
_symmetry_cell_setting 'triclinic'
loop_
_space_group_symop_operation_xyz
x,y,z
-x,-y,-z
loop_
_atom_site_type_symbol
_atom_site_label
_atom_site_fract_x
_atom_site_fract_y
_atom_site_fract_z
Si Si1 0.349303 0.181757 0.220790
Si Si2 0.392205 0.815285 0.139507
Si Si3 0.094994 0.606814 0.718622
Si Si4 0.500000 0.000000 0.500000
Si Si5 0.640296 0.428390 0.210773
Si Si6 0.211715 0.987474 0.709725
Si Si7 0.898026 0.171796 0.636295
O O1 0.485213 0.195454 0.542935
O O2 0.324156 0.056598 0.219718
O O3 0.484667 0.293067 0.179478
O O4 0.117741 0.179598 0.975391
O O5 0.576333 0.885083 0.167241
O O6 0.210587 0.688173 0.953877
O O7 0.288763 0.906673 0.979420
O O8 0.259742 0.568907 0.852304
O O9 0.061147 0.699506 0.482905
O O10 0.857624 0.493977 0.538795
O O11 0.690950 0.117178 0.547236
O O12 0.500000 0.500000 0.000000
O O13 0.157955 0.916082 0.524099
O O14 0.000000 0.000000 0.500000
#
# Coordination Sequence:
#
# PCOD9036804 Si02
#       7
#     2   2   2   1   2   2   2
#     4  12  25  40  68 101 131 172 220 271 332 380
#     4  10  24  41  58  98 135 167 217 271 326 387
#     4  10  23  44  66  92 125 175 221 268 327 387
#     4  12  24  40  62 100 140 162 214 280 312 394
#     4  11  23  44  72  91 123 175 227 272 320 394
#     4  10  23  39  62  92 136 179 213 256 331 399
#     4  11  23  41  66  97 131 175 220 263 330 399
#
# _framework density 21.169432
#
# number of rings (size 3 to 8) (size 9 to 14) (size 15 to 20)
#    0.000    1.231    4.615    0.462    4.308    0.615 
#    0.000    0.769    0.000    0.000    0.000    0.000 
#    0.000    0.000    0.000    0.000    0.000    0.000 
#
# Total GULP energy -72461.302126 kJ/mol
# GULP energy per Si atom -5573.946317 kJ/mol
# Density = 2.112125 g / cm^3
# Si number density = 21.169432 Si / 1000 Ang^3
#
#
#
# Elastic Constant Matrix: (Units=GPa)
#
#
# Indices 1 2 3 4 5 6 
#
# 1 46.5147 -2.4374 25.6671 -1.2564 21.2583 -10.9414
# 2 -2.4374 49.4492 -12.3178 -2.0495 2.3185 -9.9163
# 3 25.6671 -12.3178 95.8842 -17.2529 14.0258 -8.5217
# 4 -1.2564 -2.0495 -17.2529 44.8951 -6.0587 3.7707
# 5 21.2583 2.3185 14.0258 -6.0587 43.4354 1.1514
# 6 -10.9414 -9.9163 -8.5217 3.7707 1.1514 29.3956
#
#
#
# Elastic Compliance Matrix: (Units=1/GPa)
#
#
# Indices 1 2 3 4 5 6 
#
# 1 0.036046 0.003617 -0.006320 -0.004707 -0.016823 0.014068
# 2 0.003617 0.023725 0.003871 0.001197 -0.004398 0.010490
# 3 -0.006320 0.003871 0.013869 0.005001 -0.000957 0.002370
# 4 -0.004707 0.001197 0.005001 0.024959 0.004193 -0.003264
# 5 -0.016823 -0.004398 -0.000957 0.004193 0.032646 -0.009839
# 6 0.014068 0.010490 0.002370 -0.003264 -0.009839 0.044285
#
#
# Mechanical properties :
#
#
# Convention : Reuss Voigt Hill
#
# Bulk Modulus (GPa) = 13.16226 23.74132 18.45179
# Shear Modulus (GPa) = 25.18645 35.60765 30.39705
#
# Velocity S-wave (km/s) = 3.45303 4.10571 3.79343
# Velocity P-wave (km/s) = 4.70414 5.80646 5.28412
#
# Compressibility (1/GPa) = 0.07597478
#
# Stress axis : x y z
#
# Youngs Moduli (GPa) = 27.74211 42.15008 72.10411
#
# Poissons Ratio (x) = -0.15246 0.45572
# Poissons Ratio (y) = -0.10035 -0.27908
# Poissons Ratio (z) = 0.17534 -0.16314
#
# Static dielectric constant tensor:
#      x y z
#    x 1.789420 -0.033510 -0.005500 
#    y -0.033510 1.749130 -0.012350 
#    z -0.005500 -0.012350 1.701050 
# 
# From -- ./inp_files/19099.got.cif
#   From: 2010.05.17/outbox.cif.g08.bks.cpg/sg2_10_cif.got.tgz:19099.got - 2010.06.03 11:33:40.
