data_PCOD9036737
_publ_section_title
;
Structure prediction by ZEFSAII (Michael W. Deem and Ramdas Pophale) SiO2 
 PCOD9036737
Probable space group: P -1
;
_chemical_formula_sum "Si O2"
_cell_formula_units_Z 14
_cell_length_a 9.368088
_cell_length_b 5.113612
_cell_length_c 17.692645
_cell_angle_alpha 109.667710
_cell_angle_beta 51.068526
_cell_angle_gamma 105.247264
_cell_volume 619.316805
_symmetry_space_group_name_H-M "P -1"
_symmetry_group_IT_number 2
_symmetry_cell_setting 'triclinic'
loop_
_space_group_symop_operation_xyz
x,y,z
-x,-y,-z
loop_
_atom_site_type_symbol
_atom_site_label
_atom_site_fract_x
_atom_site_fract_y
_atom_site_fract_z
Si Si1 0.922044 0.127352 0.320761
Si Si2 0.862878 0.960261 0.972382
Si Si3 0.449608 0.846964 0.154972
Si Si4 0.722472 0.583272 0.718733
Si Si5 0.473531 0.809673 0.564937
Si Si6 0.824524 0.118268 0.529556
Si Si7 0.871826 0.344759 0.864210
O O1 0.738981 0.178309 0.339847
O O2 0.871860 0.139292 0.427385
O O3 0.098672 0.347939 0.280803
O O4 0.987567 0.826921 0.247766
O O5 0.905826 0.674138 0.888757
O O6 0.878323 0.213070 0.932865
O O7 0.656330 0.917715 0.068282
O O8 0.000000 0.000000 0.000000
O O9 0.423321 0.610333 0.204062
O O10 0.328048 0.738632 0.113154
O O11 0.357497 0.122125 0.241943
O O12 0.783226 0.409894 0.609845
O O13 0.500000 0.500000 0.500000
O O14 0.500000 0.000000 0.500000
O O15 0.635685 0.920269 0.577620
O O16 0.000000 0.000000 0.500000
#
# Coordination Sequence:
#
# PCOD9036737 Si02
#       7
#     2   2   2   2   2   2   2
#     4  10  23  42  64  96 132 171 217 260 315 385
#     4  12  26  44  68  98 129 163 211 273 329 378
#     4  11  24  44  67  96 129 169 218 260 317 390
#     4  11  23  40  67  98 128 171 216 266 314 371
#     4  10  23  39  59  86 124 168 211 258 310 365
#     4  11  22  40  66  97 133 173 216 265 312 372
#     4  11  23  43  69  95 126 173 212 258 322 391
#
# _framework density 22.605556
#
# number of rings (size 3 to 8) (size 9 to 14) (size 15 to 20)
#    0.000    1.143    0.000    6.857    0.000   10.286 
#    0.000    0.000    0.000    1.714    0.000    0.000 
#    0.000    0.000    0.000    0.000    0.000    0.000 
#
# Total GULP energy -78392.829791 kJ/mol
# GULP energy per Si atom -5599.487842 kJ/mol
# Density = 2.255410 g / cm^3
# Si number density = 22.605556 Si / 1000 Ang^3
#
#
#
# Elastic Constant Matrix: (Units=GPa)
#
#
# Indices 1 2 3 4 5 6 
#
# 1 119.2025 15.8512 25.3870 19.0193 -0.9825 23.2981
# 2 15.8512 72.6009 4.1731 14.1064 -8.7579 11.4779
# 3 25.3870 4.1731 85.9643 18.5322 1.5334 18.2813
# 4 19.0193 14.1064 18.5322 34.4977 -14.1227 17.9718
# 5 -0.9825 -8.7579 1.5334 -14.1227 35.0951 -2.4544
# 6 23.2981 11.4779 18.2813 17.9718 -2.4544 31.4585
#
#
#
# Elastic Compliance Matrix: (Units=1/GPa)
#
#
# Indices 1 2 3 4 5 6 
#
# 1 0.010175 -0.001030 -0.001347 -0.002247 -0.001180 -0.005186
# 2 -0.001030 0.015420 0.001006 -0.003840 0.002013 -0.003097
# 3 -0.001347 0.001006 0.014352 -0.006541 -0.003342 -0.004234
# 4 -0.002247 -0.003840 -0.006541 0.055702 0.020044 -0.023392
# 5 -0.001180 0.002013 -0.003342 0.020044 0.036720 -0.006504
# 6 -0.005186 -0.003097 -0.004234 -0.023392 -0.006504 0.052075
#
#
# Mechanical properties :
#
#
# Convention : Reuss Voigt Hill
#
# Bulk Modulus (GPa) = 26.87786 40.95447 33.91617
# Shear Modulus (GPa) = 25.05177 35.70068 30.37623
#
# Velocity S-wave (km/s) = 3.33259 3.97834 3.66970
# Velocity P-wave (km/s) = 5.16953 6.26572 5.74383
#
# Compressibility (1/GPa) = 0.03720534
#
# Stress axis : x y z
#
# Youngs Moduli (GPa) = 98.27827 64.85233 69.67801
#
# Poissons Ratio (x) = 0.06681 0.09384
# Poissons Ratio (y) = 0.10124 -0.07012
# Poissons Ratio (z) = 0.13235 -0.06526
#
# Static dielectric constant tensor:
#      x y z
#    x 1.834300 0.008110 -0.006090 
#    y 0.008110 1.840510 -0.044990 
#    z -0.006090 -0.044990 1.849760 
# 
# From -- ./inp_files/553800.got.cif
#   From: 2010.05.17/outbox.cif.g08.bks.cpg/sg2_277_cif.got.tgz:553800.got - 2010.06.03 11:33:40.
