data_PCOD9036596
_publ_section_title
;
Structure prediction by ZEFSAII (Michael W. Deem and Ramdas Pophale) SiO2 
 PCOD9036596
Probable space group: P -1
;
_chemical_formula_sum "Si O2"
_cell_formula_units_Z 14
_cell_length_a 17.216675
_cell_length_b 10.528592
_cell_length_c 16.058781
_cell_angle_alpha 33.709113
_cell_angle_beta 24.168066
_cell_angle_gamma 38.183761
_cell_volume 656.694791
_symmetry_space_group_name_H-M "P -1"
_symmetry_group_IT_number 2
_symmetry_cell_setting 'triclinic'
loop_
_space_group_symop_operation_xyz
x,y,z
-x,-y,-z
loop_
_atom_site_type_symbol
_atom_site_label
_atom_site_fract_x
_atom_site_fract_y
_atom_site_fract_z
Si Si1 0.104255 0.071761 0.637250
Si Si2 0.300930 0.622513 0.595624
Si Si3 0.010441 0.282906 0.437477
Si Si4 0.596586 0.065640 0.456205
Si Si5 0.203568 0.205726 0.852027
Si Si6 0.698176 0.102322 0.727972
Si Si7 0.069627 0.734451 0.054066
O O1 0.050736 0.228352 0.524722
O O2 0.252986 0.118302 0.539963
O O3 0.209308 0.833022 0.625751
O O4 0.905223 0.010504 0.902471
O O5 0.500000 0.500000 0.500000
O O6 0.184551 0.402720 0.831488
O O7 0.324246 0.722030 0.424929
O O8 0.062339 0.541369 0.234564
O O9 0.805451 0.221052 0.634855
O O10 0.159106 0.114590 0.327981
O O11 0.500000 0.000000 0.500000
O O12 0.420060 0.136700 0.650759
O O13 0.728523 0.259864 0.192621
O O14 0.088314 0.326986 0.822080
O O15 0.500000 0.000000 0.000000
O O16 0.000000 0.000000 0.000000
#
# Coordination Sequence:
#
# PCOD9036596 Si02
#       7
#     2   2   2   2   2   2   2
#     4  10  24  39  63  95 132 168 209 269 330 385
#     4  11  21  37  62  99 129 167 213 256 323 393
#     4  10  23  42  60  96 134 167 215 263 328 392
#     4  11  23  42  66  91 124 167 228 266 314 382
#     4  11  22  40  64  93 127 169 216 265 316 385
#     4  10  23  38  62  94 136 174 203 260 333 388
#     4  11  23  42  69  89 123 174 222 268 315 380
#
# _framework density 21.318884000000001
#
# number of rings (size 3 to 8) (size 9 to 14) (size 15 to 20)
#    0.000    1.429    4.286    0.429    4.000    0.000 
#    0.000    3.571    0.000    0.000    0.000    0.000 
#    0.000    0.000    0.000    0.000    0.000    0.000 
#
# Total GULP energy -78024.925674 kJ/mol
# GULP energy per Si atom -5573.208977 kJ/mol
# Density = 2.127036 g / cm^3
# Si number density = 21.318884 Si / 1000 Ang^3
#
#
#
# Elastic Constant Matrix: (Units=GPa)
#
#
# Indices 1 2 3 4 5 6 
#
# 1 119.8413 32.9019 45.8668 -7.7724 -7.1333 -25.5792
# 2 32.9019 73.1961 51.7891 -6.9141 3.6964 -19.5486
# 3 45.8668 51.7891 160.2862 14.3281 -0.8950 -22.4479
# 4 -7.7724 -6.9141 14.3281 34.0814 -3.1186 4.1189
# 5 -7.1333 3.6964 -0.8950 -3.1186 34.5738 0.6956
# 6 -25.5792 -19.5486 -22.4479 4.1189 0.6956 29.1435
#
#
#
# Elastic Compliance Matrix: (Units=1/GPa)
#
#
# Indices 1 2 3 4 5 6 
#
# 1 0.011348 -0.001824 -0.001897 0.002420 0.002567 0.006872
# 2 -0.001824 0.021157 -0.005738 0.005156 -0.002473 0.007501
# 3 -0.001897 -0.005738 0.009541 -0.005943 -0.000121 0.002678
# 4 0.002420 0.005156 -0.005943 0.034179 0.002956 -0.003896
# 5 0.002567 -0.002473 -0.000121 0.002956 0.029994 -0.000632
# 6 0.006872 0.007501 0.002678 -0.003896 -0.000632 0.048004
#
#
# Mechanical properties :
#
#
# Convention : Reuss Voigt Hill
#
# Bulk Modulus (GPa) = 43.24014 68.27103 55.75559
# Shear Modulus (GPa) = 27.64701 34.41079 31.02890
#
# Velocity S-wave (km/s) = 3.60506 4.02194 3.81920
# Velocity P-wave (km/s) = 6.13638 7.32539 6.75709
#
# Compressibility (1/GPa) = 0.02312666
#
# Stress axis : x y z
#
# Youngs Moduli (GPa) = 88.12232 47.26571 104.80671
#
# Poissons Ratio (x) = 0.08622 0.19887
# Poissons Ratio (y) = 0.16076 0.60139
# Poissons Ratio (z) = 0.16721 0.27121
#
# Static dielectric constant tensor:
#      x y z
#    x 1.680180 0.003210 0.098070 
#    y 0.003210 1.811630 0.011300 
#    z 0.098070 0.011300 1.690920 
# 
# From -- ./inp_files/284432.got.cif
#   From: 2010.05.17/outbox.cif.g08.bks.cpg/sg2_143_cif.got.tgz:284432.got - 2010.06.03 11:33:40.
