data_PCOD9036212
_publ_section_title
;
Structure prediction by ZEFSAII (Michael W. Deem and Ramdas Pophale) SiO2 
 PCOD9036212
Probable space group: P -1
;
_chemical_formula_sum "Si O2"
_cell_formula_units_Z 16
_cell_length_a 16.796380
_cell_length_b 11.084559
_cell_length_c 12.408148
_cell_angle_alpha 36.847249
_cell_angle_beta 141.467299
_cell_angle_gamma 145.834617
_cell_volume 726.824738
_symmetry_space_group_name_H-M "P -1"
_symmetry_group_IT_number 2
_symmetry_cell_setting 'triclinic'
loop_
_space_group_symop_operation_xyz
x,y,z
-x,-y,-z
loop_
_atom_site_type_symbol
_atom_site_label
_atom_site_fract_x
_atom_site_fract_y
_atom_site_fract_z
Si Si1 0.914571 0.703789 0.677997
Si Si2 0.982590 0.287635 0.787151
Si Si3 0.343096 0.459664 0.327323
Si Si4 0.340787 0.812189 0.199703
Si Si5 0.119998 0.355951 0.555294
Si Si6 0.533524 0.239080 0.421027
Si Si7 0.865039 0.061718 0.060172
Si Si8 0.245757 0.237961 0.147485
O O1 0.779960 0.709976 0.591171
O O2 0.825517 0.415479 0.779758
O O3 0.949742 0.777683 0.538650
O O4 0.046596 0.804352 0.832133
O O5 0.959392 0.505678 0.589672
O O6 0.865572 0.050389 0.765826
O O7 0.932451 0.200819 0.920412
O O8 0.151076 0.337959 0.920287
O O9 0.500000 0.500000 0.500000
O O10 0.359025 0.717350 0.172773
O O11 0.286068 0.345970 0.232605
O O12 0.457943 0.810925 0.406943
O O13 0.309040 0.017022 0.043551
O O14 0.298187 0.549877 0.584065
O O15 0.114749 0.160836 0.765986
O O16 0.402658 0.290707 0.225051
O O17 0.500000 0.000000 0.500000
#
# Coordination Sequence:
#
# PCOD9036212 Si02
#       8
#     2   2   2   2   2   2   2   2
#     4   9  19  34  57  87 120 153 198 249 294 350
#     4  11  22  40  61  91 117 162 202 246 305 358
#     4  10  17  32  61  89 114 164 203 235 304 363
#     4   9  19  31  59  87 115 154 202 236 294 357
#     4  11  23  37  64  91 121 155 208 250 295 359
#     4  11  19  39  63  84 119 160 197 246 300 359
#     4  12  20  38  62  91 122 156 202 254 298 353
#     4  11  21  36  66  84 121 164 198 247 306 355
#
# _framework density 22.013559999999998
#
# number of rings (size 3 to 8) (size 9 to 14) (size 15 to 20)
#    0.750    0.750    6.250    0.750    1.750    0.000 
#    0.000    5.000    5.500    1.500    0.000    0.000 
#    0.000    0.000    0.000    0.000    0.000    0.000 
#
# Total GULP energy -89142.376820 kJ/mol
# GULP energy per Si atom -5571.398551 kJ/mol
# Density = 2.196346 g / cm^3
# Si number density = 22.013560 Si / 1000 Ang^3
#
#
#
# Elastic Constant Matrix: (Units=GPa)
#
#
# Indices 1 2 3 4 5 6 
#
# 1 74.8514 21.7488 25.1395 7.3355 29.4736 -19.1328
# 2 21.7488 62.7117 17.5421 20.2176 3.7506 -17.3347
# 3 25.1395 17.5421 106.7056 2.0268 47.2657 4.3351
# 4 7.3355 20.2176 2.0268 31.3792 2.8700 5.3121
# 5 29.4736 3.7506 47.2657 2.8700 41.4555 7.3194
# 6 -19.1328 -17.3347 4.3351 5.3121 7.3194 36.1573
#
#
#
# Elastic Compliance Matrix: (Units=1/GPa)
#
#
# Indices 1 2 3 4 5 6 
#
# 1 0.031336 -0.002432 0.007170 -0.006931 -0.033709 0.022398
# 2 -0.002432 0.029629 -0.007141 -0.021258 0.005888 0.015705
# 3 0.007170 -0.007141 0.022220 0.003722 -0.030637 0.003362
# 4 -0.006931 -0.021258 0.003722 0.050446 0.003058 -0.022335
# 5 -0.033709 0.005888 -0.030637 0.003058 0.087483 -0.029499
# 6 0.022398 0.015705 0.003362 -0.022335 -0.029499 0.055888
#
#
# Mechanical properties :
#
#
# Convention : Reuss Voigt Hill
#
# Bulk Modulus (GPa) = 12.75827 41.45882 27.10854
# Shear Modulus (GPa) = 16.23737 33.78762 25.01249
#
# Velocity S-wave (km/s) = 2.71884 3.92197 3.37446
# Velocity P-wave (km/s) = 3.95782 6.27562 5.24632
#
# Compressibility (1/GPa) = 0.07838056
#
# Stress axis : x y z
#
# Youngs Moduli (GPa) = 31.91263 33.75066 45.00520
#
# Poissons Ratio (x) = 0.08207 -0.32270
# Poissons Ratio (y) = 0.07760 0.32136
# Poissons Ratio (z) = -0.22882 0.24100
#
# Static dielectric constant tensor:
#      x y z
#    x 1.850820 -0.012070 0.016080 
#    y -0.012070 1.868440 -0.064240 
#    z 0.016080 -0.064240 1.935630 
# 
# From -- ./inp_files/541068.got.cif
#   From: 2010.05.17/outbox.cif.g08.bks.cpg/sg2_271_cif.got.tgz:541068.got - 2010.06.03 11:33:40.
