data_PCOD9036312
_publ_section_title
;
Structure prediction by ZEFSAII (Michael W. Deem and Ramdas Pophale) SiO2 
 PCOD9036312
Probable space group: P -1
;
_chemical_formula_sum "Si O2"
_cell_formula_units_Z 14
_cell_length_a 6.969768
_cell_length_b 9.000538
_cell_length_c 11.074078
_cell_angle_alpha 104.040835
_cell_angle_beta 122.180122
_cell_angle_gamma 106.555942
_cell_volume 492.528239
_symmetry_space_group_name_H-M "P -1"
_symmetry_group_IT_number 2
_symmetry_cell_setting 'triclinic'
loop_
_space_group_symop_operation_xyz
x,y,z
-x,-y,-z
loop_
_atom_site_type_symbol
_atom_site_label
_atom_site_fract_x
_atom_site_fract_y
_atom_site_fract_z
Si Si1 0.650633 0.224334 0.675187
Si Si2 0.713281 0.001499 0.975938
Si Si3 0.143574 0.207534 0.863121
Si Si4 0.244166 0.320324 0.463962
Si Si5 0.590149 0.389793 0.214011
Si Si6 0.980229 0.604654 0.822118
Si Si7 0.224999 0.010923 0.661441
O O1 0.109123 0.803950 0.284074
O O2 0.433617 0.235932 0.521239
O O3 0.821082 0.429671 0.813625
O O4 0.477265 0.065704 0.677405
O O5 0.921898 0.961354 0.106278
O O6 0.540119 0.811142 0.815442
O O7 0.500000 0.000000 0.000000
O O8 0.869836 0.204461 0.025548
O O9 0.351144 0.370353 0.045739
O O10 0.305228 0.179580 0.806415
O O11 0.310083 0.461162 0.622038
O O12 0.227221 0.390697 0.340957
O O13 0.940192 0.170325 0.358369
O O14 0.819467 0.418990 0.203462
O O15 0.000000 0.000000 0.500000
#
# Coordination Sequence:
#
# PCOD9036312 Si02
#       7
#     2   2   2   2   2   2   2
#     4  11  27  42  74 112 143 186 244 300 363 426
#     4   8  18  43  72  96 137 196 231 282 363 428
#     4  10  22  49  73 101 151 188 236 298 366 428
#     4  11  22  46  71 108 142 189 246 299 352 438
#     4   9  22  42  75 104 140 192 241 291 370 418
#     4  11  21  45  74 102 144 193 241 298 355 431
#     4  10  24  46  70 100 149 189 241 285 366 429
#
# _framework density 28.424766000000002
#
# number of rings (size 3 to 8) (size 9 to 14) (size 15 to 20)
#    0.857    1.143    1.429    0.857    4.000    3.429 
#    2.571    2.143    0.000    1.714    0.000    0.000 
#    0.000    0.000    0.000    0.000    0.000    0.000 
#
# Total GULP energy -78231.595325 kJ/mol
# GULP energy per Si atom -5587.971095 kJ/mol
# Density = 2.836007 g / cm^3
# Si number density = 28.424766 Si / 1000 Ang^3
#
#
#
# Elastic Constant Matrix: (Units=GPa)
#
#
# Indices 1 2 3 4 5 6 
#
# 1 155.2238 22.9952 37.5942 2.9300 26.1353 -20.5319
# 2 22.9952 141.4497 29.5200 37.1764 8.1846 11.3075
# 3 37.5942 29.5200 171.8082 23.0463 6.5885 -23.3981
# 4 2.9300 37.1764 23.0463 48.0902 -18.2885 13.9584
# 5 26.1353 8.1846 6.5885 -18.2885 48.7640 0.0213
# 6 -20.5319 11.3075 -23.3981 13.9584 0.0213 42.5546
#
#
#
# Elastic Compliance Matrix: (Units=1/GPa)
#
#
# Indices 1 2 3 4 5 6 
#
# 1 0.008296 -0.000378 -0.000328 -0.003734 -0.005741 0.005151
# 2 -0.000378 0.009955 -0.000104 -0.009629 -0.005065 0.000276
# 3 -0.000328 -0.000104 0.007828 -0.006813 -0.003423 0.006410
# 4 -0.003734 -0.009629 -0.006813 0.045043 0.021439 -0.017775
# 5 -0.005741 -0.005065 -0.003423 0.021439 0.032942 -0.010355
# 6 0.005151 0.000276 0.006410 -0.017775 -0.010355 0.035271
#
#
# Mechanical properties :
#
#
# Convention : Reuss Voigt Hill
#
# Bulk Modulus (GPa) = 40.88524 72.07783 56.48153
# Shear Modulus (GPa) = 33.53260 53.10657 43.31958
#
# Velocity S-wave (km/s) = 3.43840 4.32710 3.90809
# Velocity P-wave (km/s) = 5.49348 7.09771 6.34649
#
# Compressibility (1/GPa) = 0.02445871
#
# Stress axis : x y z
#
# Youngs Moduli (GPa) = 120.53626 100.45556 127.74248
#
# Poissons Ratio (x) = 0.03801 0.04186
# Poissons Ratio (y) = 0.04561 0.01330
# Poissons Ratio (z) = 0.03950 0.01046
#
# Static dielectric constant tensor:
#      x y z
#    x 2.227090 0.019670 -0.015090 
#    y 0.019670 2.268870 -0.017000 
#    z -0.015090 -0.017000 2.219550 
# 
# From -- ./inp_files/260369.got.cif
#   From: 2010.05.17/outbox.cif.g08.bks.cpg/sg2_131_cif.got.tgz:260369.got - 2010.06.03 11:33:40.
