data_PCOD9036681
_publ_section_title
;
Structure prediction by ZEFSAII (Michael W. Deem and Ramdas Pophale) SiO2 
 PCOD9036681
Probable space group: P -1
;
_chemical_formula_sum "Si O2"
_cell_formula_units_Z 16
_cell_length_a 22.150695
_cell_length_b 6.820832
_cell_length_c 11.793995
_cell_angle_alpha 52.070049
_cell_angle_beta 144.326022
_cell_angle_gamma 133.931377
_cell_volume 742.814815
_symmetry_space_group_name_H-M "P -1"
_symmetry_group_IT_number 2
_symmetry_cell_setting 'triclinic'
loop_
_space_group_symop_operation_xyz
x,y,z
-x,-y,-z
loop_
_atom_site_type_symbol
_atom_site_label
_atom_site_fract_x
_atom_site_fract_y
_atom_site_fract_z
Si Si1 0.392865 0.075300 0.290104
Si Si2 0.096851 0.534261 0.224037
Si Si3 0.264054 0.490164 0.344874
Si Si4 0.435400 0.029773 0.002671
Si Si5 0.250779 0.176337 0.209812
Si Si6 0.463091 0.624020 0.780285
Si Si7 0.179271 0.555493 0.810050
Si Si8 0.979749 0.688070 0.563328
O O1 0.366522 0.223177 0.303358
O O2 0.419655 0.264574 0.153094
O O3 0.500000 0.000000 0.500000
O O4 0.283770 0.783491 0.214662
O O5 0.157743 0.368184 0.310781
O O6 0.057128 0.448147 0.321081
O O7 0.182704 0.853428 0.240171
O O8 0.000000 0.500000 0.000000
O O9 0.267241 0.309515 0.310220
O O10 0.366713 0.560913 0.562467
O O11 0.427321 0.322642 0.883938
O O12 0.310563 0.785534 0.915802
O O13 0.522106 0.115189 0.211947
O O14 0.500000 0.000000 0.000000
O O15 0.186514 0.309830 0.983012
O O16 0.118976 0.450921 0.633108
O O17 0.094544 0.663840 0.704936
O O18 0.000000 0.000000 0.500000
#
# Coordination Sequence:
#
# PCOD9036681 Si02
#       8
#     2   2   2   2   2   2   2   2
#     4   9  20  40  62  95 133 177 226 273 344 404
#     4  11  25  43  68 100 131 177 229 289 355 406
#     4  10  23  38  67  96 133 176 226 284 341 407
#     4  11  25  40  65  95 139 183 223 277 340 412
#     4  11  23  42  70 100 137 178 230 295 341 416
#     4  10  23  39  60  96 133 179 227 273 333 406
#     4  11  26  45  69 105 136 185 240 280 356 417
#     4  11  27  46  72  97 140 185 231 297 347 418
#
# _framework density 21.539691000000001
#
# number of rings (size 3 to 8) (size 9 to 14) (size 15 to 20)
#    0.000    1.500    0.000    3.000    5.250   11.000 
#    0.000    0.000    0.000    0.000    0.000    0.000 
#    0.000    0.000    0.000    0.000    0.000    0.000 
#
# Total GULP energy -89225.303944 kJ/mol
# GULP energy per Si atom -5576.581497 kJ/mol
# Density = 2.149067 g / cm^3
# Si number density = 21.539691 Si / 1000 Ang^3
#
#
#
# Elastic Constant Matrix: (Units=GPa)
#
#
# Indices 1 2 3 4 5 6 
#
# 1 187.2559 66.8460 43.9590 15.2756 -17.7011 -26.7148
# 2 66.8460 79.1124 22.3527 4.2685 -9.2576 -5.7629
# 3 43.9590 22.3527 71.0832 7.6058 -14.5817 -16.6516
# 4 15.2756 4.2685 7.6058 32.8298 -8.9390 -11.4669
# 5 -17.7011 -9.2576 -14.5817 -8.9390 30.6982 -0.3661
# 6 -26.7148 -5.7629 -16.6516 -11.4669 -0.3661 43.9307
#
#
#
# Elastic Compliance Matrix: (Units=1/GPa)
#
#
# Indices 1 2 3 4 5 6 
#
# 1 0.008884 -0.006358 -0.002175 -0.001069 0.001902 0.003481
# 2 -0.006358 0.018584 -0.002266 0.000601 0.001012 -0.002122
# 3 -0.002175 -0.002266 0.018913 0.000991 0.007405 0.005870
# 4 -0.001069 0.000601 0.000991 0.036953 0.010910 0.009541
# 5 0.001902 0.001012 0.007405 0.010910 0.040758 0.007284
# 6 0.003481 -0.002122 0.005870 0.009541 0.007284 0.029377
#
#
# Mechanical properties :
#
#
# Convention : Reuss Voigt Hill
#
# Bulk Modulus (GPa) = 40.34803 67.08522 53.71662
# Shear Modulus (GPa) = 27.27322 35.11134 31.19228
#
# Velocity S-wave (km/s) = 3.56221 4.04180 3.80956
# Velocity P-wave (km/s) = 5.97425 7.27970 6.65905
#
# Compressibility (1/GPa) = 0.02478436
#
# Stress axis : x y z
#
# Youngs Moduli (GPa) = 112.55811 53.80865 52.87261
#
# Poissons Ratio (x) = 0.34214 0.11498
# Poissons Ratio (y) = 0.71570 0.11980
# Poissons Ratio (z) = 0.24477 0.12192
#
# Static dielectric constant tensor:
#      x y z
#    x 2.008520 0.104420 -0.178490 
#    y 0.104420 1.746050 -0.143800 
#    z -0.178490 -0.143800 1.937670 
# 
# From -- ./inp_files/468300.got.cif
#   From: 2010.05.17/outbox.cif.g08.bks.cpg/sg2_235_cif.got.tgz:468300.got - 2010.06.03 11:33:40.
