data_PCOD9036926
_publ_section_title
;
Structure prediction by ZEFSAII (Michael W. Deem and Ramdas Pophale) SiO2 
 PCOD9036926
Probable space group: P -1
;
_chemical_formula_sum "Si O2"
_cell_formula_units_Z 16
_cell_length_a 9.071986
_cell_length_b 9.398884
_cell_length_c 14.652364
_cell_angle_alpha 82.215579
_cell_angle_beta 127.477725
_cell_angle_gamma 65.118383
_cell_volume 754.867545
_symmetry_space_group_name_H-M "P -1"
_symmetry_group_IT_number 2
_symmetry_cell_setting 'triclinic'
loop_
_space_group_symop_operation_xyz
x,y,z
-x,-y,-z
loop_
_atom_site_type_symbol
_atom_site_label
_atom_site_fract_x
_atom_site_fract_y
_atom_site_fract_z
Si Si1 0.205143 0.276446 0.903556
Si Si2 0.799099 0.523018 0.863303
Si Si3 0.866361 0.101326 0.535190
Si Si4 0.379701 0.536557 0.699495
Si Si5 0.430315 0.116128 0.364207
Si Si6 0.302506 0.023920 0.797049
Si Si7 0.352899 0.235172 0.635837
Si Si8 0.008769 0.374459 0.329520
O O1 0.247771 0.127379 0.862798
O O2 0.161468 0.435894 0.809370
O O3 0.953525 0.379067 0.851792
O O4 0.430980 0.174334 0.067453
O O5 0.620930 0.489390 0.834084
O O6 0.640216 0.734404 0.751860
O O7 0.000000 0.500000 0.000000
O O8 0.710599 0.321968 0.432721
O O9 0.683403 0.064195 0.495310
O O10 0.081813 0.027709 0.691997
O O11 0.000000 0.000000 0.500000
O O12 0.419704 0.353171 0.697013
O O13 0.174107 0.645505 0.690264
O O14 0.223354 0.228627 0.352861
O O15 0.462668 0.945752 0.343866
O O16 0.299725 0.144612 0.703792
O O17 0.137160 0.373438 0.469896
#
# Coordination Sequence:
#
# PCOD9036926 Si02
#       8
#     2   2   2   2   2   2   2   2
#     4  10  23  40  65  96 135 178 217 279 326 394
#     4  10  23  45  67  90 134 179 225 265 330 413
#     4  11  21  39  67 102 127 182 229 262 324 405
#     4  11  23  39  72  98 125 173 223 269 340 382
#     4  10  23  39  66 100 135 170 223 275 327 390
#     4  11  21  39  69  95 138 177 225 267 331 403
#     4  12  21  40  70  99 136 172 214 283 332 384
#     4  11  21  41  66 101 137 167 220 281 331 381
#
# _framework density 21.195771000000001
#
# number of rings (size 3 to 8) (size 9 to 14) (size 15 to 20)
#    0.000    1.250    3.750    2.250    1.750    1.000 
#    0.000    8.750    5.500    0.000    0.000    0.000 
#    0.000    0.000    0.000    0.000    0.000    0.000 
#
# Total GULP energy -89239.683220 kJ/mol
# GULP energy per Si atom -5577.480201 kJ/mol
# Density = 2.114753 g / cm^3
# Si number density = 21.195771 Si / 1000 Ang^3
#
#
#
# Elastic Constant Matrix: (Units=GPa)
#
#
# Indices 1 2 3 4 5 6 
#
# 1 81.9963 46.8984 33.0549 9.1923 13.5598 4.7345
# 2 46.8984 118.3465 40.9319 1.7251 14.0437 2.1816
# 3 33.0549 40.9319 130.1264 6.9613 13.6850 16.9978
# 4 9.1923 1.7251 6.9613 34.1000 2.5399 -5.1485
# 5 13.5598 14.0437 13.6850 2.5399 31.8447 1.3776
# 6 4.7345 2.1816 16.9978 -5.1485 1.3776 32.8404
#
#
#
# Elastic Compliance Matrix: (Units=1/GPa)
#
#
# Indices 1 2 3 4 5 6 
#
# 1 0.017349 -0.005730 -0.001783 -0.003999 -0.003703 -0.001669
# 2 -0.005730 0.011699 -0.002330 0.001817 -0.001933 0.001621
# 3 -0.001783 -0.002330 0.009836 -0.001996 -0.002069 -0.004905
# 4 -0.003999 0.001817 -0.001996 0.031782 -0.001058 0.006516
# 5 -0.003703 -0.001933 -0.002069 -0.001058 0.034800 0.000107
# 6 -0.001669 0.001621 -0.004905 0.006516 0.000107 0.034139
#
#
# Mechanical properties :
#
#
# Convention : Reuss Voigt Hill
#
# Bulk Modulus (GPa) = 52.09005 63.58217 57.83611
# Shear Modulus (GPa) = 30.17674 33.72930 31.95302
#
# Velocity S-wave (km/s) = 3.77731 3.99347 3.88689
# Velocity P-wave (km/s) = 6.60705 7.16424 6.89128
#
# Compressibility (1/GPa) = 0.01919752
#
# Stress axis : x y z
#
# Youngs Moduli (GPa) = 57.64104 85.47487 101.66891
#
# Poissons Ratio (x) = 0.48975 0.18130
# Poissons Ratio (y) = 0.33027 0.23691
# Poissons Ratio (z) = 0.10279 0.19918
#
# Static dielectric constant tensor:
#      x y z
#    x 1.771980 -0.015370 0.009860 
#    y -0.015370 1.814850 -0.031520 
#    z 0.009860 -0.031520 1.844200 
# 
# From -- ./inp_files/494966.got.cif
#   From: 2010.05.17/outbox.cif.g08.bks.cpg/sg2_248_cif.got.tgz:494966.got - 2010.06.03 11:33:40.
