data_PCOD9036868
_publ_section_title
;
Structure prediction by ZEFSAII (Michael W. Deem and Ramdas Pophale) SiO2 
 PCOD9036868
Probable space group: P -1
;
_chemical_formula_sum "Si O2"
_cell_formula_units_Z 14
_cell_length_a 9.138162
_cell_length_b 6.800400
_cell_length_c 16.178637
_cell_angle_alpha 88.186840
_cell_angle_beta 53.991747
_cell_angle_gamma 50.445466
_cell_volume 523.896435
_symmetry_space_group_name_H-M "P -1"
_symmetry_group_IT_number 2
_symmetry_cell_setting 'triclinic'
loop_
_space_group_symop_operation_xyz
x,y,z
-x,-y,-z
loop_
_atom_site_type_symbol
_atom_site_label
_atom_site_fract_x
_atom_site_fract_y
_atom_site_fract_z
Si Si1 0.173356 0.643024 0.660460
Si Si2 0.382133 0.008613 0.421920
Si Si3 0.901171 0.230178 0.666047
Si Si4 0.578433 0.627761 0.199702
Si Si5 0.602482 0.935634 0.874708
Si Si6 0.881486 0.878937 0.050766
Si Si7 0.817347 0.973692 0.259437
O O1 0.449512 0.281683 0.569056
O O2 0.067186 0.876993 0.619466
O O3 0.215114 0.763011 0.720857
O O4 0.934200 0.684754 0.759855
O O5 0.444249 0.871270 0.312464
O O6 0.533254 0.092412 0.373331
O O7 0.062484 0.246923 0.552827
O O8 0.949241 0.257539 0.744038
O O9 0.586483 0.442212 0.740674
O O10 0.486952 0.779059 0.137143
O O11 0.908633 0.393326 0.082798
O O12 0.427364 0.927297 0.877852
O O13 0.500000 0.000000 0.000000
O O14 0.908473 0.828786 0.140792
O O15 0.000000 0.000000 0.000000
#
# Coordination Sequence:
#
# PCOD9036868 Si02
#       7
#     2   2   2   2   2   2   2
#     4   9  23  41  62  97 127 166 214 258 319 379
#     4  12  20  42  72  89 128 174 210 264 318 372
#     4   9  23  43  62  96 130 165 216 262 313 382
#     4  11  24  40  66  93 126 171 213 258 323 382
#     4  11  22  41  61  90 130 164 209 261 318 381
#     4  12  25  42  65  95 132 164 211 271 318 385
#     4  10  23  39  64  97 126 160 220 250 325 372
#
# _framework density 26.722842
#
# number of rings (size 3 to 8) (size 9 to 14) (size 15 to 20)
#    0.857    0.571    1.429    4.286    2.000    1.714 
#    0.000    0.000    0.000    3.429    0.000    0.000 
#    0.000    0.000    0.000    0.000    0.000    0.000 
#
# Total GULP energy -78229.690766 kJ/mol
# GULP energy per Si atom -5587.835055 kJ/mol
# Density = 2.666202 g / cm^3
# Si number density = 26.722842 Si / 1000 Ang^3
#
#
#
# Elastic Constant Matrix: (Units=GPa)
#
#
# Indices 1 2 3 4 5 6 
#
# 1 214.2891 14.4781 105.0987 -2.5539 -23.4298 1.5831
# 2 14.4781 33.5117 13.2940 -3.6619 -10.1218 2.3791
# 3 105.0987 13.2940 188.5476 -17.6032 -24.6222 -7.8308
# 4 -2.5539 -3.6619 -17.6032 22.6098 -6.6761 -3.4518
# 5 -23.4298 -10.1218 -24.6222 -6.6761 72.8016 -6.6849
# 6 1.5831 2.3791 -7.8308 -3.4518 -6.6849 38.2207
#
#
#
# Elastic Compliance Matrix: (Units=1/GPa)
#
#
# Indices 1 2 3 4 5 6 
#
# 1 0.006672 -0.001460 -0.003867 -0.002584 0.000293 -0.001160
# 2 -0.001460 0.032670 -0.000379 0.006028 0.004430 -0.000732
# 3 -0.003867 -0.000379 0.008651 0.007476 0.002598 0.003086
# 4 -0.002584 0.006028 0.007476 0.054320 0.008214 0.007606
# 5 0.000293 0.004430 0.002598 0.008214 0.016432 0.003860
# 6 -0.001160 -0.000732 0.003086 0.007606 0.003860 0.028252
#
#
# Mechanical properties :
#
#
# Convention : Reuss Voigt Hill
#
# Bulk Modulus (GPa) = 27.33655 78.00999 52.67327
# Shear Modulus (GPa) = 29.30797 46.95828 38.13312
#
# Velocity S-wave (km/s) = 3.31530 4.19648 3.78164
# Velocity P-wave (km/s) = 4.99067 7.26197 6.23069
#
# Compressibility (1/GPa) = 0.03658106
#
# Stress axis : x y z
#
# Youngs Moduli (GPa) = 149.88763 30.60923 115.58943
#
# Poissons Ratio (x) = 0.04469 0.44700
# Poissons Ratio (y) = 0.21882 0.04379
# Poissons Ratio (z) = 0.57964 0.01160
#
# Static dielectric constant tensor:
#      x y z
#    x 2.072810 0.037480 -0.006530 
#    y 0.037480 2.326040 0.062830 
#    z -0.006530 0.062830 2.074950 
# 
# From -- ./inp_files/291853.got.cif
#   From: 2010.05.17/outbox.cif.g08.bks.cpg/sg2_146_cif.got.tgz:291853.got - 2010.06.03 11:33:40.
