data_PCOD9036473
_publ_section_title
;
Structure prediction by ZEFSAII (Michael W. Deem and Ramdas Pophale) SiO2 
 PCOD9036473
Probable space group: P -1
;
_chemical_formula_sum "Si O2"
_cell_formula_units_Z 16
_cell_length_a 15.057107
_cell_length_b 11.749727
_cell_length_c 10.290431
_cell_angle_alpha 92.286606
_cell_angle_beta 78.813382
_cell_angle_gamma 151.904055
_cell_volume 806.444842
_symmetry_space_group_name_H-M "P -1"
_symmetry_group_IT_number 2
_symmetry_cell_setting 'triclinic'
loop_
_space_group_symop_operation_xyz
x,y,z
-x,-y,-z
loop_
_atom_site_type_symbol
_atom_site_label
_atom_site_fract_x
_atom_site_fract_y
_atom_site_fract_z
Si Si1 0.481863 0.054046 0.878649
Si Si2 0.507730 0.093788 0.380612
Si Si3 0.141299 0.845174 0.988300
Si Si4 0.063931 0.311549 0.694134
Si Si5 0.100181 0.365649 0.198053
Si Si6 0.686382 0.727514 0.053092
Si Si7 0.063078 0.070949 0.790333
Si Si8 0.910786 0.274349 0.489885
O O1 0.662756 0.349244 0.839775
O O2 0.512789 0.006235 0.745842
O O3 0.500000 0.000000 0.000000
O O4 0.263475 0.867137 0.933287
O O5 0.716284 0.392588 0.331577
O O6 0.500000 0.000000 0.500000
O O7 0.326233 0.977433 0.443119
O O8 0.070645 0.789288 0.153243
O O9 0.960009 0.661722 0.931272
O O10 0.295960 0.119087 0.918776
O O11 0.075725 0.187367 0.689376
O O12 0.986139 0.273138 0.578955
O O13 0.986127 0.316925 0.331169
O O14 0.017087 0.144364 0.233979
O O15 0.729743 0.710730 0.175839
O O16 0.500000 0.500000 0.000000
O O17 0.885962 0.918451 0.926219
O O18 0.000000 0.500000 0.500000
#
# Coordination Sequence:
#
# PCOD9036473 Si02
#       8
#     2   2   2   2   2   2   2   2
#     4  12  24  36  61  94 123 160 206 252 306 365
#     4  12  24  41  62  85 121 167 206 252 307 369
#     4  10  23  37  61  95 123 161 196 259 311 354
#     4  11  24  42  63  93 127 159 210 256 308 376
#     4  11  23  43  63  90 129 160 209 257 305 371
#     4   9  17  35  61  87 127 162 198 242 310 373
#     4   9  21  38  61  91 122 164 201 255 310 357
#     4  12  24  43  64  88 123 172 208 250 319 367
#
# _framework density 19.840166
#
# number of rings (size 3 to 8) (size 9 to 14) (size 15 to 20)
#    0.000    1.250    2.500    3.750    0.000    4.500 
#    0.000    0.625    0.000    0.000    0.000    0.000 
#    0.000    0.000    0.000    0.000    0.000    0.000 
#
# Total GULP energy -89317.727773 kJ/mol
# GULP energy per Si atom -5582.357986 kJ/mol
# Density = 1.979501 g / cm^3
# Si number density = 19.840166 Si / 1000 Ang^3
#
#
#
# Elastic Constant Matrix: (Units=GPa)
#
#
# Indices 1 2 3 4 5 6 
#
# 1 88.2812 27.6607 6.3269 -6.4341 10.1135 -5.5403
# 2 27.6607 80.1958 -4.0554 -3.1325 14.7145 9.5268
# 3 6.3269 -4.0554 53.2532 6.8229 4.2489 -8.1224
# 4 -6.4341 -3.1325 6.8229 23.3063 0.7483 -3.1400
# 5 10.1135 14.7145 4.2489 0.7483 36.8972 -1.8466
# 6 -5.5403 9.5268 -8.1224 -3.1400 -1.8466 37.9648
#
#
#
# Elastic Compliance Matrix: (Units=1/GPa)
#
#
# Indices 1 2 3 4 5 6 
#
# 1 0.013609 -0.004700 -0.001920 0.004145 -0.001567 0.003021
# 2 -0.004700 0.015692 0.001493 -0.000069 -0.005369 -0.004571
# 3 -0.001920 0.001493 0.020521 -0.005844 -0.002156 0.003147
# 4 0.004145 -0.000069 -0.005844 0.046214 -0.001216 0.003135
# 5 -0.001567 -0.005369 -0.002156 -0.001216 0.030047 0.002018
# 6 0.003021 -0.004571 0.003147 0.003135 0.002018 0.028959
#
#
# Mechanical properties :
#
#
# Convention : Reuss Voigt Hill
#
# Bulk Modulus (GPa) = 25.27321 31.28828 28.28075
# Shear Modulus (GPa) = 28.01364 32.42019 30.21692
#
# Velocity S-wave (km/s) = 3.76169 4.04675 3.90682
# Velocity P-wave (km/s) = 5.62434 6.13509 5.88525
#
# Compressibility (1/GPa) = 0.03956759
#
# Stress axis : x y z
#
# Youngs Moduli (GPa) = 73.48039 63.72824 48.73104
#
# Poissons Ratio (x) = 0.29955 0.09356
# Poissons Ratio (y) = 0.34539 -0.07278
# Poissons Ratio (z) = 0.14108 -0.09518
#
# Static dielectric constant tensor:
#      x y z
#    x 1.724040 -0.010510 0.003410 
#    y -0.010510 1.727160 0.017890 
#    z 0.003410 0.017890 1.686430 
# 
# From -- ./inp_files/307534.got.cif
#   From: 2010.05.17/outbox.cif.g08.bks.cpg/sg2_154_cif.got.tgz:307534.got - 2010.06.03 11:33:40.
