data_PCOD9036774
_publ_section_title
;
Structure prediction by ZEFSAII (Michael W. Deem and Ramdas Pophale) SiO2 
 PCOD9036774
Probable space group: P -1
;
_chemical_formula_sum "Si O2"
_cell_formula_units_Z 14
_cell_length_a 9.499578
_cell_length_b 11.821843
_cell_length_c 6.894534
_cell_angle_alpha 57.823937
_cell_angle_beta 53.621284
_cell_angle_gamma 68.817084
_cell_volume 526.460201
_symmetry_space_group_name_H-M "P -1"
_symmetry_group_IT_number 2
_symmetry_cell_setting 'triclinic'
loop_
_space_group_symop_operation_xyz
x,y,z
-x,-y,-z
loop_
_atom_site_type_symbol
_atom_site_label
_atom_site_fract_x
_atom_site_fract_y
_atom_site_fract_z
Si Si1 0.182492 0.419692 0.060456
Si Si2 0.154882 0.979124 0.734345
Si Si3 0.729795 0.859423 0.852363
Si Si4 0.141345 0.635541 0.373366
Si Si5 0.676095 0.100273 0.955492
Si Si6 0.795673 0.297753 0.178004
Si Si7 0.481379 0.467377 0.319133
O O1 0.203309 0.292779 0.017271
O O2 0.042722 0.393550 0.361322
O O3 0.148063 0.572288 0.867517
O O4 0.378780 0.434071 0.977275
O O5 0.144044 0.855363 0.705637
O O6 0.185619 0.102002 0.457759
O O7 0.313078 0.935711 0.792218
O O8 0.000000 0.000000 0.000000
O O9 0.756267 0.971373 0.889741
O O10 0.521417 0.867716 0.980654
O O11 0.221286 0.766242 0.285048
O O12 0.285393 0.511674 0.387064
O O13 0.133038 0.673571 0.120278
O O14 0.582719 0.323165 0.331810
O O15 0.500000 0.500000 0.500000
#
# Coordination Sequence:
#
# PCOD9036774 Si02
#       7
#     2   2   2   2   2   2   2
#     4  10  23  40  68  95 125 173 215 263 331 385
#     4  11  24  41  66 100 133 172 224 271 327 400
#     4  11  22  43  67  94 135 172 226 274 322 399
#     4  11  20  41  67  92 127 170 217 267 324 388
#     4  10  23  40  67  95 132 180 216 274 337 381
#     4   9  22  42  63  94 131 167 212 271 324 380
#     4  10  23  39  61  93 131 162 211 261 320 386
#
# _framework density 26.592706
#
# number of rings (size 3 to 8) (size 9 to 14) (size 15 to 20)
#    0.857    0.857    1.429    3.000    2.000    2.857 
#    0.000    2.857    0.000    0.000    0.000    0.000 
#    0.000    0.000    0.000    0.000    0.000    0.000 
#
# Total GULP energy -78327.746566 kJ/mol
# GULP energy per Si atom -5594.839040 kJ/mol
# Density = 2.653218 g / cm^3
# Si number density = 26.592706 Si / 1000 Ang^3
#
#
#
# Elastic Constant Matrix: (Units=GPa)
#
#
# Indices 1 2 3 4 5 6 
#
# 1 68.3489 33.5355 26.8771 -0.6943 -5.5331 -1.4276
# 2 33.5355 220.4698 45.4841 1.3423 -14.6566 -5.6379
# 3 26.8771 45.4841 116.7460 15.0095 -20.3269 -2.5218
# 4 -0.6943 1.3423 15.0095 47.0263 -4.3487 -1.1348
# 5 -5.5331 -14.6566 -20.3269 -4.3487 40.0397 6.7073
# 6 -1.4276 -5.6379 -2.5218 -1.1348 6.7073 45.1858
#
#
#
# Elastic Compliance Matrix: (Units=1/GPa)
#
#
# Indices 1 2 3 4 5 6 
#
# 1 0.016881 -0.001884 -0.003310 0.001371 0.000089 0.000135
# 2 -0.001884 0.005193 -0.001480 0.000386 0.000866 0.000387
# 3 -0.003310 -0.001480 0.011055 -0.003144 0.004338 -0.000395
# 4 0.001371 0.000386 -0.003144 0.022388 0.001114 0.000313
# 5 0.000089 0.000866 0.004338 0.001114 0.028267 -0.003815
# 6 0.000135 0.000387 -0.000395 0.000313 -0.003815 0.022735
#
#
# Mechanical properties :
#
#
# Convention : Reuss Voigt Hill
#
# Bulk Modulus (GPa) = 50.55349 68.59536 59.57442
# Shear Modulus (GPa) = 39.53821 46.42823 42.98322
#
# Velocity S-wave (km/s) = 3.86010 4.18293 4.02475
# Velocity P-wave (km/s) = 6.23848 7.01285 6.63697
#
# Compressibility (1/GPa) = 0.01978103
#
# Stress axis : x y z
#
# Youngs Moduli (GPa) = 59.23918 192.57660 90.45596
#
# Poissons Ratio (x) = 0.36277 0.29943
# Poissons Ratio (y) = 0.11159 0.13386
# Poissons Ratio (z) = 0.19609 0.28498
#
# Static dielectric constant tensor:
#      x y z
#    x 2.174990 0.040500 -0.067940 
#    y 0.040500 2.118830 -0.008430 
#    z -0.067940 -0.008430 2.058420 
# 
# From -- ./inp_files/256580.got.cif
#   From: 2010.05.17/outbox.cif.g08.bks.cpg/sg2_129_cif.got.tgz:256580.got - 2010.06.03 11:33:40.
