data_PCOD9036736
_publ_section_title
;
Structure prediction by ZEFSAII (Michael W. Deem and Ramdas Pophale) SiO2 
 PCOD9036736
Probable space group: P -1
;
_chemical_formula_sum "Si O2"
_cell_formula_units_Z 14
_cell_length_a 9.514314
_cell_length_b 6.220722
_cell_length_c 16.824300
_cell_angle_alpha 94.208391
_cell_angle_beta 89.110583
_cell_angle_gamma 34.339221
_cell_volume 555.034706
_symmetry_space_group_name_H-M "P -1"
_symmetry_group_IT_number 2
_symmetry_cell_setting 'triclinic'
loop_
_space_group_symop_operation_xyz
x,y,z
-x,-y,-z
loop_
_atom_site_type_symbol
_atom_site_label
_atom_site_fract_x
_atom_site_fract_y
_atom_site_fract_z
Si Si1 0.977018 0.264215 0.395630
Si Si2 0.637792 0.524958 0.538493
Si Si3 0.256068 0.530930 0.760602
Si Si4 0.336335 0.750730 0.893471
Si Si5 0.331662 0.027538 0.041224
Si Si6 0.359988 0.263455 0.186163
Si Si7 0.684904 0.818888 0.653297
O O1 0.744199 0.522761 0.463224
O O2 0.935225 0.284570 0.302015
O O3 0.100585 0.343124 0.403993
O O4 0.154895 0.851854 0.418077
O O5 0.500000 0.500000 0.500000
O O6 0.523630 0.844862 0.608831
O O7 0.189665 0.811442 0.826803
O O8 0.366906 0.196051 0.805252
O O9 0.511428 0.236683 0.697846
O O10 0.482319 0.381104 0.930880
O O11 0.552408 0.623107 0.847625
O O12 0.198744 0.068695 0.971342
O O13 0.215733 0.296439 0.125067
O O14 0.500000 0.000000 0.000000
O O15 0.218736 0.423605 0.275065
#
# Coordination Sequence:
#
# PCOD9036736 Si02
#       7
#     2   2   2   2   2   2   2
#     4  11  24  41  60  86 118 154 200 241 306 355
#     4  11  26  42  63  86 114 155 200 247 300 360
#     4   9  21  35  59  86 116 154 197 242 295 344
#     4   9  15  29  55  86 120 153 196 239 283 343
#     4   8  14  27  50  89 119 153 197 234 281 345
#     4   8  18  31  55  83 115 155 197 240 292 340
#     4  10  23  39  59  83 120 151 195 249 297 352
#
# _framework density 25.223649000000002
#
# number of rings (size 3 to 8) (size 9 to 14) (size 15 to 20)
#    0.857    1.714    0.000    1.286    4.000    5.714 
#    0.000    0.000    0.000    0.857    0.000   15.000 
#    0.000    0.000    0.000    0.000    0.000    0.000 
#
# Total GULP energy -78026.512105 kJ/mol
# GULP energy per Si atom -5573.322293 kJ/mol
# Density = 2.516624 g / cm^3
# Si number density = 25.223649 Si / 1000 Ang^3
#
#
#
# Elastic Constant Matrix: (Units=GPa)
#
#
# Indices 1 2 3 4 5 6 
#
# 1 96.4141 18.2200 60.6303 2.4432 5.0701 26.3484
# 2 18.2200 56.9106 44.0888 -16.9548 4.7781 16.5912
# 3 60.6303 44.0888 168.2372 -1.8622 36.7044 25.9944
# 4 2.4432 -16.9548 -1.8622 46.0992 9.6437 3.1967
# 5 5.0701 4.7781 36.7044 9.6437 64.1259 -6.6331
# 6 26.3484 16.5912 25.9944 3.1967 -6.6331 30.4882
#
#
#
# Elastic Compliance Matrix: (Units=1/GPa)
#
#
# Indices 1 2 3 4 5 6 
#
# 1 0.015802 0.001631 -0.004458 0.000326 0.000017 -0.010774
# 2 0.001631 0.029192 -0.005280 0.011994 -0.002597 -0.014616
# 3 -0.004458 -0.005280 0.010799 0.000218 -0.005859 -0.003779
# 4 0.000326 0.011994 0.000218 0.028235 -0.006466 -0.011362
# 5 0.000017 -0.002597 -0.005859 -0.006466 0.021324 0.011711
# 6 -0.010774 -0.014616 -0.003779 -0.011362 0.011711 0.057025
#
#
# Mechanical properties :
#
#
# Convention : Reuss Voigt Hill
#
# Bulk Modulus (GPa) = 25.26602 63.04890 44.15746
# Shear Modulus (GPa) = 26.07094 41.38418 33.72756
#
# Velocity S-wave (km/s) = 3.21844 4.05494 3.66066
# Velocity P-wave (km/s) = 4.88361 6.85373 5.95077
#
# Compressibility (1/GPa) = 0.03957884
#
# Stress axis : x y z
#
# Youngs Moduli (GPa) = 63.28273 34.25578 92.60383
#
# Poissons Ratio (x) = -0.05586 0.41280
# Poissons Ratio (y) = -0.10320 0.48896
# Poissons Ratio (z) = 0.28210 0.18087
#
# Static dielectric constant tensor:
#      x y z
#    x 1.978580 -0.036250 0.043790 
#    y -0.036250 2.110010 0.046860 
#    z 0.043790 0.046860 2.040810 
# 
# From -- ./inp_files/553530.got.cif
#   From: 2010.05.17/outbox.cif.g08.bks.cpg/sg2_277_cif.got.tgz:553530.got - 2010.06.03 11:33:40.
