data_PCOD9036404
_publ_section_title
;
Structure prediction by ZEFSAII (Michael W. Deem and Ramdas Pophale) SiO2 
 PCOD9036404
Probable space group: P -1
;
_chemical_formula_sum "Si O2"
_cell_formula_units_Z 12
_cell_length_a 12.632367
_cell_length_b 7.898175
_cell_length_c 16.250484
_cell_angle_alpha 154.400702
_cell_angle_beta 41.649485
_cell_angle_gamma 125.233266
_cell_volume 438.213140
_symmetry_space_group_name_H-M "P -1"
_symmetry_group_IT_number 2
_symmetry_cell_setting 'triclinic'
loop_
_space_group_symop_operation_xyz
x,y,z
-x,-y,-z
loop_
_atom_site_type_symbol
_atom_site_label
_atom_site_fract_x
_atom_site_fract_y
_atom_site_fract_z
Si Si1 0.481297 0.304838 0.064911
Si Si2 0.660405 0.150396 0.479254
Si Si3 0.049782 0.368797 0.675467
Si Si4 0.000386 0.853706 0.764044
Si Si5 0.571186 0.739111 0.629999
Si Si6 0.852397 0.120820 0.807997
O O1 0.667643 0.344022 0.974617
O O2 0.450652 0.164337 0.929936
O O3 0.344273 0.702709 0.358856
O O4 0.500000 0.000000 0.000000
O O5 0.857007 0.946521 0.254504
O O6 0.616598 0.477648 0.572957
O O7 0.500000 0.000000 0.500000
O O8 0.971166 0.782482 0.845417
O O9 0.250886 0.251301 0.502546
O O10 0.972611 0.354065 0.803019
O O11 0.000000 0.000000 0.500000
O O12 0.079865 0.366914 0.473202
O O13 0.845026 0.083090 0.894890
O O14 0.500000 0.500000 0.500000
#
# Coordination Sequence:
#
# PCOD9036404 Si02
#       6
#     2   2   2   2   2   2
#     4  10  18  38  61  86 116 159 201 242 298 362
#     4  10  21  38  60  83 123 154 199 253 297 354
#     4   9  16  33  56  87 117 155 197 240 298 355
#     4   9  18  32  57  89 111 152 202 243 295 358
#     4  10  20  35  60  87 119 155 194 244 303 355
#     4  10  17  32  63  85 111 160 200 242 298 358
#
# _framework density 27.383937
#
# number of rings (size 3 to 8) (size 9 to 14) (size 15 to 20)
#    0.000    2.333    6.667    0.000    2.333    0.000 
#    0.000    1.667    7.333    2.000    0.000    0.000 
#    0.000    0.000    0.000    0.000    0.000    0.000 
#
# Total GULP energy -67003.066849 kJ/mol
# GULP energy per Si atom -5583.588904 kJ/mol
# Density = 2.732161 g / cm^3
# Si number density = 27.383937 Si / 1000 Ang^3
#
#
#
# Elastic Constant Matrix: (Units=GPa)
#
#
# Indices 1 2 3 4 5 6 
#
# 1 152.7954 62.5142 60.3680 -20.5528 39.2627 -7.0080
# 2 62.5142 201.1606 41.0819 -28.2914 5.7818 7.9058
# 3 60.3680 41.0819 121.5701 -29.1379 43.5100 -0.1986
# 4 -20.5528 -28.2914 -29.1379 33.9806 -8.4010 -5.6267
# 5 39.2627 5.7818 43.5100 -8.4010 39.3669 -6.8861
# 6 -7.0080 7.9058 -0.1986 -5.6267 -6.8861 58.7745
#
#
#
# Elastic Compliance Matrix: (Units=1/GPa)
#
#
# Indices 1 2 3 4 5 6 
#
# 1 0.010394 -0.002647 -0.000863 0.001330 -0.008615 0.000710
# 2 -0.002647 0.006481 -0.001477 0.003449 0.003987 -0.000395
# 3 -0.000863 -0.001477 0.016942 0.008686 -0.015947 -0.000884
# 4 0.001330 0.003449 0.008686 0.040567 -0.002191 0.003351
# 5 -0.008615 0.003987 -0.015947 -0.002191 0.051299 0.004183
# 6 0.000710 -0.000395 -0.000884 0.003351 0.004183 0.017960
#
#
# Mechanical properties :
#
#
# Convention : Reuss Voigt Hill
#
# Bulk Modulus (GPa) = 41.94174 89.27268 65.60721
# Shear Modulus (GPa) = 30.94725 47.19518 39.07122
#
# Velocity S-wave (km/s) = 3.36538 4.15596 3.78139
# Velocity P-wave (km/s) = 5.51819 7.46328 6.56319
#
# Compressibility (1/GPa) = 0.02384260
#
# Stress axis : x y z
#
# Youngs Moduli (GPa) = 96.20729 154.28770 59.02609
#
# Poissons Ratio (x) = 0.40841 0.05097
# Poissons Ratio (y) = 0.25467 0.08717
# Poissons Ratio (z) = 0.08307 0.22785
#
# Static dielectric constant tensor:
#      x y z
#    x 2.354330 0.122190 0.557180 
#    y 0.122190 2.231330 0.500210 
#    z 0.557180 0.500210 3.891420 
# 
# From -- ./inp_files/572153.got.cif
#   From: 2010.05.17/outbox.cif.g08.bks.cpg/sg2_287_cif.got.tgz:572153.got - 2010.06.03 11:33:40.
