data_PCOD9036335
_publ_section_title
;
Structure prediction by ZEFSAII (Michael W. Deem and Ramdas Pophale) SiO2 
 PCOD9036335
Probable space group: P -1
;
_chemical_formula_sum "Si O2"
_cell_formula_units_Z 13
_cell_length_a 5.651154
_cell_length_b 6.647555
_cell_length_c 19.372339
_cell_angle_alpha 45.278334
_cell_angle_beta 112.838276
_cell_angle_gamma 112.380710
_cell_volume 470.068725
_symmetry_space_group_name_H-M "P -1"
_symmetry_group_IT_number 2
_symmetry_cell_setting 'triclinic'
loop_
_space_group_symop_operation_xyz
x,y,z
-x,-y,-z
loop_
_atom_site_type_symbol
_atom_site_label
_atom_site_fract_x
_atom_site_fract_y
_atom_site_fract_z
Si Si1 0.333010 0.864124 0.854120
Si Si2 0.481655 0.320449 0.215132
Si Si3 0.888639 0.315511 0.467579
Si Si4 0.055593 0.658314 0.041133
Si Si5 0.309982 0.267144 0.353894
Si Si6 0.500000 0.000000 0.000000
Si Si7 0.010104 0.353468 0.732839
O O1 0.483925 0.894022 0.936767
O O2 0.120431 0.075021 0.786582
O O3 0.508831 0.881968 0.800555
O O4 0.165359 0.548154 0.894856
O O5 0.351761 0.597870 0.109284
O O6 0.333325 0.168219 0.301157
O O7 0.749932 0.454096 0.247601
O O8 0.587524 0.314551 0.412300
O O9 0.048670 0.474885 0.384100
O O10 0.000000 0.500000 0.500000
O O11 0.883104 0.986944 0.568775
O O12 0.000000 0.500000 0.000000
O O13 0.166338 0.989427 0.963573
O O14 0.224847 0.579411 0.262320
#
# Coordination Sequence:
#
# PCOD9036335 Si02
#       7
#     2   2   2   2   2   1   2
#     4  11  25  47  73 108 144 195 242 299 369 430
#     4  11  24  46  72 104 150 189 244 302 360 437
#     4  10  24  45  72 109 142 195 242 299 366 434
#     4  10  23  44  71 104 141 189 239 301 361 429
#     4  10  24  49  70 105 151 190 241 306 358 431
#     4  10  22  50  72 106 146 188 240 300 360 438
#     4  11  24  46  75 106 148 192 246 304 357 433
#
# _framework density 27.655532000000001
#
# number of rings (size 3 to 8) (size 9 to 14) (size 15 to 20)
#    0.000    1.538    1.538    1.385    4.308    5.538 
#    5.538    2.308    0.000    0.000    0.000    0.000 
#    0.000    0.000    0.000    0.000    0.000    0.000 
#
# Total GULP energy -72406.757985 kJ/mol
# GULP energy per Si atom -5569.750614 kJ/mol
# Density = 2.759259 g / cm^3
# Si number density = 27.655532 Si / 1000 Ang^3
#
#
#
# Elastic Constant Matrix: (Units=GPa)
#
#
# Indices 1 2 3 4 5 6 
#
# 1 38.3576 39.1646 22.2782 -4.2540 7.3366 -23.9955
# 2 39.1646 225.1189 66.4427 9.5217 8.6162 1.1283
# 3 22.2782 66.4427 128.7853 21.6049 -5.2775 -28.9352
# 4 -4.2540 9.5217 21.6049 64.4292 -6.4093 6.2250
# 5 7.3366 8.6162 -5.2775 -6.4093 47.7020 -0.9503
# 6 -23.9955 1.1283 -28.9352 6.2250 -0.9503 51.6450
#
#
#
# Elastic Compliance Matrix: (Units=1/GPa)
#
#
# Indices 1 2 3 4 5 6 
#
# 1 0.051282 -0.009132 0.000779 0.001596 -0.005456 0.024170
# 2 -0.009132 0.007129 -0.003579 0.000126 -0.000390 -0.006426
# 3 0.000779 -0.003579 0.011924 -0.004010 0.001459 0.007631
# 4 0.001596 0.000126 -0.004010 0.017454 0.001562 -0.003583
# 5 -0.005456 -0.000390 0.001459 0.001562 0.022215 -0.001488
# 6 0.024170 -0.006426 0.007631 -0.003583 -0.001488 0.035413
#
#
# Mechanical properties :
#
#
# Convention : Reuss Voigt Hill
#
# Bulk Modulus (GPa) = 21.51849 72.00362 46.76105
# Shear Modulus (GPa) = 27.06056 50.38034 38.72045
#
# Velocity S-wave (km/s) = 3.13147 4.27278 3.74585
# Velocity P-wave (km/s) = 4.56865 7.10173 5.97106
#
# Compressibility (1/GPa) = 0.04647167
#
# Stress axis : x y z
#
# Youngs Moduli (GPa) = 19.49990 140.27299 83.86663
#
# Poissons Ratio (x) = 1.28091 -0.06534
# Poissons Ratio (y) = 0.17806 0.30018
# Poissons Ratio (z) = -0.01519 0.50207
#
# Static dielectric constant tensor:
#      x y z
#    x 2.693940 0.099560 -0.358550 
#    y 0.099560 2.813710 -0.671010 
#    z -0.358550 -0.671010 2.753470 
# 
# From -- ./inp_files/7219.got.cif
#   From: 2010.05.17/outbox.cif.g08.bks.cpg/sg2_4_cif.got.tgz:7219.got - 2010.06.03 11:33:40.
