data_PCOD9036625
_publ_section_title
;
Structure prediction by ZEFSAII (Michael W. Deem and Ramdas Pophale) SiO2 
 PCOD9036625
Probable space group: P -1
;
_chemical_formula_sum "Si O2"
_cell_formula_units_Z 16
_cell_length_a 9.871596
_cell_length_b 8.844793
_cell_length_c 27.747628
_cell_angle_alpha 41.025997
_cell_angle_beta 36.493261
_cell_angle_gamma 66.997250
_cell_volume 788.267300
_symmetry_space_group_name_H-M "P -1"
_symmetry_group_IT_number 2
_symmetry_cell_setting 'triclinic'
loop_
_space_group_symop_operation_xyz
x,y,z
-x,-y,-z
loop_
_atom_site_type_symbol
_atom_site_label
_atom_site_fract_x
_atom_site_fract_y
_atom_site_fract_z
Si Si1 0.235654 0.280931 0.157857
Si Si2 0.918331 0.365782 0.149091
Si Si3 0.070463 0.726122 0.673172
Si Si4 0.020972 0.278227 0.412620
Si Si5 0.552523 0.161493 0.646564
Si Si6 0.471487 0.364390 0.414840
Si Si7 0.566692 0.605451 0.226971
Si Si8 0.545347 0.075730 0.163330
O O1 0.299033 0.052397 0.208712
O O2 0.994351 0.242226 0.202135
O O3 0.208699 0.401429 0.187169
O O4 0.500000 0.500000 0.000000
O O5 0.770051 0.519120 0.171913
O O6 0.709476 0.105437 0.238714
O O7 0.199669 0.604054 0.985572
O O8 0.237195 0.596881 0.672899
O O9 0.050301 0.723088 0.622349
O O10 0.244407 0.044119 0.565434
O O11 0.333003 0.519309 0.275370
O O12 0.807680 0.275329 0.510644
O O13 0.000000 0.000000 0.500000
O O14 0.527518 0.417210 0.603356
O O15 0.572510 0.051444 0.719804
O O16 0.428789 0.425637 0.357907
O O17 0.662303 0.909529 0.144628
#
# Coordination Sequence:
#
# PCOD9036625 Si02
#       8
#     2   2   2   2   2   2   2   2
#     4  10  23  41  66  89 121 164 213 253 307 368
#     4  11  21  43  66  87 128 164 214 255 310 367
#     4  11  22  42  63  89 128 167 204 253 322 368
#     4  12  23  38  61  93 129 158 203 258 317 362
#     4  11  24  40  62  97 128 159 211 262 307 372
#     4  10  23  38  64  91 123 169 206 255 314 374
#     4  11  22  41  63  95 125 165 208 261 308 374
#     4  10  24  40  66  91 123 169 210 254 313 365
#
# _framework density 20.297684
#
# number of rings (size 3 to 8) (size 9 to 14) (size 15 to 20)
#    0.000    1.250    3.750    1.500    3.500    2.500 
#    0.000    0.000    0.000    3.000    0.000    0.000 
#    0.000    0.000    0.000    0.000    0.000    0.000 
#
# Total GULP energy -89272.261593 kJ/mol
# GULP energy per Si atom -5579.516350 kJ/mol
# Density = 2.025149 g / cm^3
# Si number density = 20.297684 Si / 1000 Ang^3
#
#
#
# Elastic Constant Matrix: (Units=GPa)
#
#
# Indices 1 2 3 4 5 6 
#
# 1 103.4392 53.9291 22.7552 -6.5811 3.8380 -4.7123
# 2 53.9291 141.8962 37.1744 14.1972 6.8639 -7.7251
# 3 22.7552 37.1744 57.5275 14.9066 3.0805 3.5828
# 4 -6.5811 14.1972 14.9066 29.6854 2.4242 1.7426
# 5 3.8380 6.8639 3.0805 2.4242 24.9875 4.0040
# 6 -4.7123 -7.7251 3.5828 1.7426 4.0040 27.7559
#
#
#
# Elastic Compliance Matrix: (Units=1/GPa)
#
#
# Indices 1 2 3 4 5 6 
#
# 1 0.013626 -0.004664 -0.004320 0.007444 -0.001206 0.001280
# 2 -0.004664 0.010539 -0.004004 -0.004103 -0.001796 0.003175
# 3 -0.004320 -0.004004 0.024857 -0.011307 0.000504 -0.004419
# 4 0.007444 -0.004103 -0.011307 0.043241 -0.002698 -0.000744
# 5 -0.001206 -0.001796 0.000504 -0.002698 0.041964 -0.006654
# 6 0.001280 0.003175 -0.004419 -0.000744 -0.006654 0.038706
#
#
# Mechanical properties :
#
#
# Convention : Reuss Voigt Hill
#
# Bulk Modulus (GPa) = 43.38990 58.95338 51.17164
# Shear Modulus (GPa) = 24.20227 29.08605 26.64416
#
# Velocity S-wave (km/s) = 3.45681 3.78957 3.62701
# Velocity P-wave (km/s) = 6.11195 6.94660 6.54260
#
# Compressibility (1/GPa) = 0.02304684
#
# Stress axis : x y z
#
# Youngs Moduli (GPa) = 73.38906 94.88440 40.22971
#
# Poissons Ratio (x) = 0.44251 0.17380
# Poissons Ratio (y) = 0.34226 0.16108
# Poissons Ratio (z) = 0.31705 0.37992
#
# Static dielectric constant tensor:
#      x y z
#    x 1.743840 -0.029300 -0.039720 
#    y -0.029300 1.765180 0.031220 
#    z -0.039720 0.031220 1.786750 
# 
# From -- ./inp_files/189546.got.cif
#   From: 2010.05.17/outbox.cif.g08.bks.cpg/sg2_95_cif.got.tgz:189546.got - 2010.06.03 11:33:40.
