data_PCOD9036861
_publ_section_title
;
Structure prediction by ZEFSAII (Michael W. Deem and Ramdas Pophale) SiO2 
 PCOD9036861
Probable space group: P -1
;
_chemical_formula_sum "Si O2"
_cell_formula_units_Z 16
_cell_length_a 11.750680
_cell_length_b 11.728794
_cell_length_c 14.124843
_cell_angle_alpha 123.580945
_cell_angle_beta 37.447437
_cell_angle_gamma 142.911752
_cell_volume 696.518983
_symmetry_space_group_name_H-M "P -1"
_symmetry_group_IT_number 2
_symmetry_cell_setting 'triclinic'
loop_
_space_group_symop_operation_xyz
x,y,z
-x,-y,-z
loop_
_atom_site_type_symbol
_atom_site_label
_atom_site_fract_x
_atom_site_fract_y
_atom_site_fract_z
Si Si1 0.041379 0.245626 0.157555
Si Si2 0.304365 0.737271 0.700600
Si Si3 0.935300 0.837927 0.255886
Si Si4 0.572908 0.417377 0.810393
Si Si5 0.600504 0.834142 0.353522
Si Si6 0.601762 0.711758 0.808632
Si Si7 0.295238 0.194698 0.422252
Si Si8 0.904008 0.373664 0.910457
O O1 0.194382 0.447201 0.204420
O O2 0.886426 0.230495 0.164082
O O3 0.280615 0.267542 0.982146
O O4 0.818047 0.057543 0.281533
O O5 0.438765 0.793256 0.534654
O O6 0.533605 0.849112 0.679649
O O7 0.119652 0.515293 0.751732
O O8 0.765606 0.783226 0.250158
O O9 0.735245 0.735013 0.430004
O O10 0.102719 0.787639 0.130862
O O11 0.127946 0.067724 0.246839
O O12 0.582694 0.299190 0.675557
O O13 0.588453 0.568739 0.812724
O O14 0.587737 0.675336 0.688448
O O15 0.365800 0.695739 0.976081
O O16 0.000000 0.000000 0.500000
O O17 0.000000 0.500000 0.000000
#
# Coordination Sequence:
#
# PCOD9036861 Si02
#       8
#     2   2   2   2   2   2   2   2
#     4  11  24  47  65  95 133 168 225 269 321 384
#     4  11  24  41  65  95 132 173 214 271 321 387
#     4  10  23  39  64  96 130 169 215 267 329 394
#     4  11  24  42  71  95 128 174 219 271 324 386
#     4  11  24  43  67  94 128 175 220 268 326 383
#     4  11  20  42  64  95 134 168 212 270 331 390
#     4   9  21  39  63  95 127 167 207 261 331 389
#     4  12  23  39  61  97 133 167 216 266 327 390
#
# _framework density 22.971378000000001
#
# number of rings (size 3 to 8) (size 9 to 14) (size 15 to 20)
#    0.000    1.250    3.750    1.875    1.750    1.500 
#    0.000    2.500    0.000    0.000    0.000    0.000 
#    0.000    0.000    0.000    0.000    0.000    0.000 
#
# Total GULP energy -89418.051370 kJ/mol
# GULP energy per Si atom -5588.628211 kJ/mol
# Density = 2.291909 g / cm^3
# Si number density = 22.971378 Si / 1000 Ang^3
#
#
#
# Elastic Constant Matrix: (Units=GPa)
#
#
# Indices 1 2 3 4 5 6 
#
# 1 97.3425 7.2965 5.9253 -7.8175 -12.2536 4.0741
# 2 7.2965 62.0044 17.2635 -14.6582 4.9820 -2.2977
# 3 5.9253 17.2635 62.3546 -22.0254 8.1495 -2.2002
# 4 -7.8175 -14.6582 -22.0254 27.5122 -0.0044 3.1705
# 5 -12.2536 4.9820 8.1495 -0.0044 40.5889 -1.1875
# 6 4.0741 -2.2977 -2.2002 3.1705 -1.1875 27.9035
#
#
#
# Elastic Compliance Matrix: (Units=1/GPa)
#
#
# Indices 1 2 3 4 5 6 
#
# 1 0.011090 -0.000940 -0.000424 0.002527 0.003494 -0.001868
# 2 -0.000940 0.018913 -0.001949 0.008190 -0.002198 0.000517
# 3 -0.000424 -0.001949 0.023441 0.017659 -0.004607 -0.000453
# 4 0.002527 0.008190 0.017659 0.056124 -0.003924 -0.004846
# 5 0.003494 -0.002198 -0.004607 -0.003924 0.026902 0.000536
# 6 -0.001868 0.000517 -0.000453 -0.004846 0.000536 0.036691
#
#
# Mechanical properties :
#
#
# Convention : Reuss Voigt Hill
#
# Bulk Modulus (GPa) = 21.35831 31.40804 26.38317
# Shear Modulus (GPa) = 25.58968 31.94866 28.76917
#
# Velocity S-wave (km/s) = 3.34126 3.73339 3.54275
# Velocity P-wave (km/s) = 4.91969 5.68214 5.31460
#
# Compressibility (1/GPa) = 0.04682018
#
# Stress axis : x y z
#
# Youngs Moduli (GPa) = 90.16941 52.87421 42.66072
#
# Poissons Ratio (x) = 0.04968 0.01807
# Poissons Ratio (y) = 0.08473 0.08313
# Poissons Ratio (z) = 0.03819 0.10303
#
# Static dielectric constant tensor:
#      x y z
#    x 1.910960 0.022890 0.003900 
#    y 0.022890 1.847120 0.003240 
#    z 0.003900 0.003240 1.903380 
# 
# From -- ./inp_files/434265.got.cif
#   From: 2010.05.17/outbox.cif.g08.bks.cpg/sg2_218_cif.got.tgz:434265.got - 2010.06.03 11:33:40.
