data_PCOD9036091
_publ_section_title
;
Structure prediction by ZEFSAII (Michael W. Deem and Ramdas Pophale) SiO2 
 PCOD9036091
Probable space group: P -1
;
_chemical_formula_sum "Si O2"
_cell_formula_units_Z 12
_cell_length_a 8.928483
_cell_length_b 7.419248
_cell_length_c 9.186366
_cell_angle_alpha 101.087901
_cell_angle_beta 112.982397
_cell_angle_gamma 61.713885
_cell_volume 493.311548
_symmetry_space_group_name_H-M "P -1"
_symmetry_group_IT_number 2
_symmetry_cell_setting 'triclinic'
loop_
_space_group_symop_operation_xyz
x,y,z
-x,-y,-z
loop_
_atom_site_type_symbol
_atom_site_label
_atom_site_fract_x
_atom_site_fract_y
_atom_site_fract_z
Si Si1 0.346786 0.106531 0.573486
Si Si2 0.929039 0.389990 0.838859
Si Si3 0.036878 0.679905 0.619268
Si Si4 0.680072 0.999543 0.134021
Si Si5 0.158116 0.784173 0.968730
Si Si6 0.323476 0.501188 0.506188
O O1 0.368159 0.990858 0.713164
O O2 0.355930 0.325894 0.612716
O O3 0.157583 0.131295 0.439651
O O4 0.500000 0.000000 0.500000
O O5 0.117189 0.197119 0.828826
O O6 0.802788 0.512314 0.675863
O O7 0.000000 0.500000 0.000000
O O8 0.793694 0.334389 0.879657
O O9 0.091589 0.667556 0.805921
O O10 0.187929 0.698924 0.577175
O O11 0.000000 0.500000 0.500000
O O12 0.705288 0.165512 0.067935
O O13 0.500000 0.000000 0.000000
O O14 0.000000 0.000000 0.000000
O O15 0.500000 0.500000 0.500000
#
# Coordination Sequence:
#
# PCOD9036091 Si02
#       6
#     2   2   2   2   2   2
#     4  11  26  43  70 101 145 190 243 298 360 432
#     4  11  24  47  74 102 146 193 240 304 366 440
#     4  10  22  47  73 101 141 191 242 301 360 431
#     4  11  27  45  68 107 148 191 241 297 368 438
#     4  10  25  44  72 106 144 189 239 294 372 435
#     4  11  26  44  72 106 138 191 251 302 363 429
#
# _framework density 24.325398
#
# number of rings (size 3 to 8) (size 9 to 14) (size 15 to 20)
#    0.000    1.333    1.667    2.000   14.000    2.000 
#    0.000    1.667    0.000    0.000    0.000    0.000 
#    0.000    0.000    0.000    0.000    0.000    0.000 
#
# Total GULP energy -66850.115539 kJ/mol
# GULP energy per Si atom -5570.842962 kJ/mol
# Density = 2.427003 g / cm^3
# Si number density = 24.325398 Si / 1000 Ang^3
#
#
#
# Elastic Constant Matrix: (Units=GPa)
#
#
# Indices 1 2 3 4 5 6 
#
# 1 213.1290 28.5084 62.1025 -2.1451 -35.4045 -8.4981
# 2 28.5084 24.2769 12.4541 6.3928 -6.9593 -0.9322
# 3 62.1025 12.4541 128.5225 0.2431 -32.7622 4.8652
# 4 -2.1451 6.3928 0.2431 30.5868 0.9743 -10.8225
# 5 -35.4045 -6.9593 -32.7622 0.9743 56.1489 -2.0821
# 6 -8.4981 -0.9322 4.8652 -10.8225 -2.0821 48.8589
#
#
#
# Elastic Compliance Matrix: (Units=1/GPa)
#
#
# Indices 1 2 3 4 5 6 
#
# 1 0.006659 -0.006705 -0.002089 0.002481 0.002175 0.001881
# 2 -0.006705 0.053494 -0.001379 -0.012664 0.001716 -0.002740
# 3 -0.002089 -0.001379 0.010086 -0.000548 0.004357 -0.001330
# 4 0.002481 -0.012664 -0.000548 0.038646 -0.000670 0.008776
# 5 0.002175 0.001716 0.004357 -0.000670 0.021976 0.000765
# 6 0.001881 -0.002740 -0.001330 0.008776 0.000765 0.022851
#
#
# Mechanical properties :
#
#
# Convention : Reuss Voigt Hill
#
# Bulk Modulus (GPa) = 20.04298 63.56202 41.80250
# Shear Modulus (GPa) = 26.22064 44.64315 35.43190
#
# Velocity S-wave (km/s) = 3.28672 4.28863 3.82066
# Velocity P-wave (km/s) = 4.76033 7.12108 6.05684
#
# Compressibility (1/GPa) = 0.04989279
#
# Stress axis : x y z
#
# Youngs Moduli (GPa) = 150.17226 18.69358 99.14861
#
# Poissons Ratio (x) = 0.12535 0.20715
# Poissons Ratio (y) = 1.00697 0.13668
# Poissons Ratio (z) = 0.31375 0.02577
#
# Static dielectric constant tensor:
#      x y z
#    x 1.488950 1.296040 0.255710 
#    y 1.296040 -0.746750 -0.560320 
#    z 0.255710 -0.560320 1.770950 
# 
# From -- ./inp_files/155661.got.cif
#   From: 2010.05.17/outbox.cif.g08.bks.cpg/sg2_78_cif.got.tgz:155661.got - 2010.06.03 11:33:40.
