data_PCOD9036153
_publ_section_title
;
Structure prediction by ZEFSAII (Michael W. Deem and Ramdas Pophale) SiO2 
 PCOD9036153
Probable space group: P -1
;
_chemical_formula_sum "Si O2"
_cell_formula_units_Z 16
_cell_length_a 5.089288
_cell_length_b 25.036418
_cell_length_c 5.432995
_cell_angle_alpha 89.769957
_cell_angle_beta 84.493016
_cell_angle_gamma 62.404295
_cell_volume 610.032680
_symmetry_space_group_name_H-M "P -1"
_symmetry_group_IT_number 2
_symmetry_cell_setting 'triclinic'
loop_
_space_group_symop_operation_xyz
x,y,z
-x,-y,-z
loop_
_atom_site_type_symbol
_atom_site_label
_atom_site_fract_x
_atom_site_fract_y
_atom_site_fract_z
Si Si1 0.231686 0.068119 0.835545
Si Si2 0.865349 0.960745 0.652060
Si Si3 0.057105 0.448137 0.303026
Si Si4 0.349868 0.590351 0.954848
Si Si5 0.260937 0.184419 0.891659
Si Si6 0.119192 0.352149 0.634011
Si Si7 0.928239 0.281406 0.275601
Si Si8 0.368763 0.759118 0.325728
O O1 0.100139 0.085693 0.568987
O O2 0.342042 0.115328 0.914990
O O3 0.518433 0.004415 0.749668
O O4 0.028910 0.064564 0.079374
O O5 0.000000 0.000000 0.500000
O O6 0.294685 0.442862 0.073349
O O7 0.237582 0.386319 0.442802
O O8 0.000000 0.500000 0.500000
O O9 0.775844 0.442466 0.221249
O O10 0.214671 0.661097 0.892713
O O11 0.175423 0.595725 0.220269
O O12 0.489261 0.196136 0.707303
O O13 0.931103 0.214903 0.803139
O O14 0.209254 0.223997 0.138833
O O15 0.380108 0.307003 0.788712
O O16 0.024166 0.308802 0.495536
O O17 0.711609 0.255821 0.397899
#
# Coordination Sequence:
#
# PCOD9036153 Si02
#       8
#     2   2   2   2   2   2   2   2
#     4  10  25  44  68 110 141 186 247 299 358 426
#     4  10  22  47  76  99 142 195 242 295 364 429
#     4  11  26  44  67 101 131 172 231 291 345 415
#     4  11  24  41  70  93 135 175 222 281 352 418
#     4  12  29  42  69 106 145 180 234 296 346 421
#     4  11  25  43  72  95 137 182 229 279 355 431
#     4  11  24  43  68  99 136 183 230 280 351 429
#     4  12  25  44  65 100 139 183 229 278 354 422
#
# _framework density 26.228103000000001
#
# number of rings (size 3 to 8) (size 9 to 14) (size 15 to 20)
#    0.000    1.000    3.750    0.750    8.750    1.000 
#    0.000    0.000    0.000    0.000    0.000    0.000 
#    0.000    0.000    0.000    0.000    0.000    0.000 
#
# Total GULP energy -89512.973153 kJ/mol
# GULP energy per Si atom -5594.560822 kJ/mol
# Density = 2.616841 g / cm^3
# Si number density = 26.228103 Si / 1000 Ang^3
#
#
#
# Elastic Constant Matrix: (Units=GPa)
#
#
# Indices 1 2 3 4 5 6 
#
# 1 114.0044 22.8210 23.8998 0.7321 -6.9235 8.9432
# 2 22.8210 99.4588 39.7380 8.9465 -3.1850 28.7096
# 3 23.8998 39.7380 148.4312 2.5584 -15.0682 19.5750
# 4 0.7321 8.9465 2.5584 38.6469 11.5586 -4.4499
# 5 -6.9235 -3.1850 -15.0682 11.5586 39.3510 2.3888
# 6 8.9432 28.7096 19.5750 -4.4499 2.3888 44.1752
#
#
#
# Elastic Compliance Matrix: (Units=1/GPa)
#
#
# Indices 1 2 3 4 5 6 
#
# 1 0.009397 -0.001578 -0.000881 -0.000205 0.001283 -0.000576
# 2 -0.001578 0.014228 -0.002148 -0.004689 0.001948 -0.008553
# 3 -0.000881 -0.002148 0.008118 -0.001277 0.003296 -0.002330
# 4 -0.000205 -0.004689 -0.001277 0.031024 -0.010463 0.007346
# 5 0.001283 0.001948 0.003296 -0.010463 0.030477 -0.005688
# 6 -0.000576 -0.008553 -0.002330 0.007346 -0.005688 0.030392
#
#
# Mechanical properties :
#
#
# Convention : Reuss Voigt Hill
#
# Bulk Modulus (GPa) = 44.38994 59.42355 51.90675
# Shear Modulus (GPa) = 35.62267 42.79701 39.20984
#
# Velocity S-wave (km/s) = 3.68936 4.04384 3.87066
# Velocity P-wave (km/s) = 5.92535 6.67152 6.30948
#
# Compressibility (1/GPa) = 0.02252763
#
# Stress axis : x y z
#
# Youngs Moduli (GPa) = 106.42126 70.28401 123.18312
#
# Poissons Ratio (x) = 0.11093 0.10848
# Poissons Ratio (y) = 0.16797 0.26466
# Poissons Ratio (z) = 0.09372 0.15100
#
# Static dielectric constant tensor:
#      x y z
#    x 2.082260 -0.038630 0.049330 
#    y -0.038630 2.046930 -0.024110 
#    z 0.049330 -0.024110 2.125240 
# 
# From -- ./inp_files/13239.got.cif
#   From: 2010.05.17/outbox.cif.g08.bks.cpg/sg2_7_cif.got.tgz:13239.got - 2010.06.03 11:33:40.
