data_PCOD9036568
_publ_section_title
;
Structure prediction by ZEFSAII (Michael W. Deem and Ramdas Pophale) SiO2 
 PCOD9036568
Probable space group: P -1
;
_chemical_formula_sum "Si O2"
_cell_formula_units_Z 16
_cell_length_a 13.864728
_cell_length_b 24.332000
_cell_length_c 17.602555
_cell_angle_alpha 158.479259
_cell_angle_beta 29.644482
_cell_angle_gamma 160.285960
_cell_volume 733.772387
_symmetry_space_group_name_H-M "P -1"
_symmetry_group_IT_number 2
_symmetry_cell_setting 'triclinic'
loop_
_space_group_symop_operation_xyz
x,y,z
-x,-y,-z
loop_
_atom_site_type_symbol
_atom_site_label
_atom_site_fract_x
_atom_site_fract_y
_atom_site_fract_z
Si Si1 0.777360 0.097984 0.298278
Si Si2 0.699314 0.737571 0.928553
Si Si3 0.820616 0.827211 0.130045
Si Si4 0.741799 0.184150 0.131112
Si Si5 0.100814 0.294711 0.815168
Si Si6 0.181264 0.582152 0.241608
Si Si7 0.852374 0.946864 0.417701
Si Si8 0.305470 0.741029 0.580636
O O1 0.745200 0.201827 0.520914
O O2 0.703170 0.136183 0.319002
O O3 0.601728 0.848197 0.112481
O O4 0.100306 0.221268 0.219788
O O5 0.870633 0.864774 0.053952
O O6 0.434473 0.483439 0.803915
O O7 0.471928 0.647907 0.141904
O O8 0.912425 0.994298 0.348601
O O9 0.011386 0.795193 0.986553
O O10 0.589640 0.144738 0.262514
O O11 0.933196 0.420369 0.265577
O O12 0.500000 0.000000 0.000000
O O13 0.031279 0.135158 0.724491
O O14 0.058514 0.435870 0.061253
O O15 0.942308 0.144008 0.655886
O O16 0.514386 0.738940 0.397182
O O17 0.000000 0.500000 0.500000
#
# Coordination Sequence:
#
# PCOD9036568 Si02
#       8
#     2   2   2   2   2   2   2   2
#     4  11  22  41  65  93 118 159 224 257 303 365
#     4  10  24  41  66  87 123 166 212 261 304 371
#     4  11  22  39  64  90 127 162 208 251 313 365
#     4  12  24  36  59  97 129 157 197 259 321 365
#     4  10  23  38  61  90 129 165 197 254 322 363
#     4  11  22  39  64  91 122 165 210 259 303 372
#     4  11  22  38  60  94 128 158 203 257 314 373
#     4  12  22  37  63  91 118 162 206 259 306 367
#
# _framework density 21.805126999999999
#
# number of rings (size 3 to 8) (size 9 to 14) (size 15 to 20)
#    0.000    1.000    5.000    1.875    5.250    2.000 
#    0.000    0.625    2.750    2.250    0.000    0.000 
#    0.000    0.000    0.000    0.000    0.000    0.000 
#
# Total GULP energy -89159.457787 kJ/mol
# GULP energy per Si atom -5572.466112 kJ/mol
# Density = 2.175550 g / cm^3
# Si number density = 21.805127 Si / 1000 Ang^3
#
#
#
# Elastic Constant Matrix: (Units=GPa)
#
#
# Indices 1 2 3 4 5 6 
#
# 1 67.9936 8.3356 29.5076 17.0513 8.5713 0.9675
# 2 8.3356 51.3637 31.5544 -5.7183 -1.4796 4.8384
# 3 29.5076 31.5544 101.0163 -12.1002 21.1445 2.4905
# 4 17.0513 -5.7183 -12.1002 28.1143 -2.6472 2.1676
# 5 8.5713 -1.4796 21.1445 -2.6472 45.0757 -6.3505
# 6 0.9675 4.8384 2.4905 2.1676 -6.3505 23.8219
#
#
#
# Elastic Compliance Matrix: (Units=1/GPa)
#
#
# Indices 1 2 3 4 5 6 
#
# 1 0.023138 -0.000746 -0.008444 -0.018051 -0.001328 0.001383
# 2 -0.000746 0.025414 -0.008262 0.002748 0.004547 -0.003306
# 3 -0.008444 -0.008262 0.017685 0.010620 -0.006701 -0.002581
# 4 -0.018051 0.002748 0.010620 0.052146 0.000834 -0.005458
# 5 -0.001328 0.004547 -0.006701 0.000834 0.026749 0.006886
# 6 0.001383 -0.003306 -0.002581 -0.005458 0.006886 0.045196
#
#
# Mechanical properties :
#
#
# Convention : Reuss Voigt Hill
#
# Bulk Modulus (GPa) = 31.91431 39.90765 35.91098
# Shear Modulus (GPa) = 21.21565 29.46745 25.34155
#
# Velocity S-wave (km/s) = 3.12262 3.68013 3.41278
# Velocity P-wave (km/s) = 5.26013 6.03320 5.65988
#
# Compressibility (1/GPa) = 0.03133391
#
# Stress axis : x y z
#
# Youngs Moduli (GPa) = 43.21964 39.34863 56.54449
#
# Poissons Ratio (x) = 0.02934 0.47746
# Poissons Ratio (y) = 0.03222 0.46716
# Poissons Ratio (z) = 0.36495 0.32509
#
# Static dielectric constant tensor:
#      x y z
#    x 1.829910 0.040830 0.024600 
#    y 0.040830 1.833830 -0.024820 
#    z 0.024600 -0.024820 1.874510 
# 
# From -- ./inp_files/574482.got.cif
#   From: 2010.05.17/outbox.cif.g08.bks.cpg/sg2_288_cif.got.tgz:574482.got - 2010.06.03 11:33:40.
