data_PCOD9036397
_publ_section_title
;
Structure prediction by ZEFSAII (Michael W. Deem and Ramdas Pophale) SiO2 
 PCOD9036397
Probable space group: P -1
;
_chemical_formula_sum "Si O2"
_cell_formula_units_Z 12
_cell_length_a 6.861074
_cell_length_b 11.162340
_cell_length_c 12.114397
_cell_angle_alpha 122.698093
_cell_angle_beta 97.990718
_cell_angle_gamma 45.686163
_cell_volume 513.012405
_symmetry_space_group_name_H-M "P -1"
_symmetry_group_IT_number 2
_symmetry_cell_setting 'triclinic'
loop_
_space_group_symop_operation_xyz
x,y,z
-x,-y,-z
loop_
_atom_site_type_symbol
_atom_site_label
_atom_site_fract_x
_atom_site_fract_y
_atom_site_fract_z
Si Si1 0.433089 0.398512 0.689526
Si Si2 0.067205 0.564188 0.369403
Si Si3 0.005200 0.164588 0.055429
Si Si4 0.251142 0.033349 0.554412
Si Si5 0.311565 0.906173 0.744547
Si Si6 0.062647 0.737178 0.667871
O O1 0.159932 0.431534 0.688630
O O2 0.708109 0.143013 0.588830
O O3 0.379274 0.500667 0.616302
O O4 0.319784 0.584892 0.853927
O O5 0.382087 0.322820 0.297211
O O6 0.963729 0.687335 0.539428
O O7 0.045606 0.712646 0.360810
O O8 0.181268 0.081438 0.915097
O O9 0.000000 0.000000 0.000000
O O10 0.120860 0.162217 0.181781
O O11 0.316193 0.973171 0.658088
O O12 0.500000 0.000000 0.500000
O O13 0.104680 0.876464 0.705026
#
# Coordination Sequence:
#
# PCOD9036397 Si02
#       6
#     2   2   2   2   2   2
#     4   9  19  38  57  81 113 148 184 226 278 330
#     4  11  21  35  60  85 112 145 190 232 275 327
#     4   8  18  35  60  80 110 152 181 223 285 330
#     4  10  23  36  56  85 113 148 186 230 280 326
#     4  11  20  38  58  82 117 144 187 233 273 331
#     4   9  19  36  60  81 108 152 181 226 283 323
#
# _framework density 23.391248000000001
#
# number of rings (size 3 to 8) (size 9 to 14) (size 15 to 20)
#    1.000    1.333    1.667    1.000    2.333    1.333 
#    0.000    5.000    0.000    5.000    0.000    0.000 
#    0.000    0.000    0.000    0.000    0.000    0.000 
#
# Total GULP energy -66845.205852 kJ/mol
# GULP energy per Si atom -5570.433821 kJ/mol
# Density = 2.333801 g / cm^3
# Si number density = 23.391248 Si / 1000 Ang^3
#
#
#
# Elastic Constant Matrix: (Units=GPa)
#
#
# Indices 1 2 3 4 5 6 
#
# 1 39.3715 24.4254 11.3782 10.3134 -5.0420 11.1016
# 2 24.4254 183.4602 66.9032 13.3022 -13.2353 7.6670
# 3 11.3782 66.9032 164.5242 19.2033 -8.7251 2.4232
# 4 10.3134 13.3022 19.2033 40.7183 12.0757 -4.7372
# 5 -5.0420 -13.2353 -8.7251 12.0757 20.7243 6.8797
# 6 11.1016 7.6670 2.4232 -4.7372 6.8797 44.8675
#
#
#
# Elastic Compliance Matrix: (Units=1/GPa)
#
#
# Indices 1 2 3 4 5 6 
#
# 1 0.038683 -0.002000 0.001963 -0.019348 0.025299 -0.015257
# 2 -0.002000 0.007136 -0.002168 -0.002536 0.005190 -0.001671
# 3 0.001963 -0.002168 0.007850 -0.005629 0.006379 -0.002112
# 4 -0.019348 -0.002536 -0.005629 0.047343 -0.041909 0.016949
# 5 0.025299 0.005190 0.006379 -0.041909 0.093544 -0.026259
# 6 -0.015257 -0.001671 -0.002112 0.016949 -0.026259 0.032279
#
#
# Mechanical properties :
#
#
# Convention : Reuss Voigt Hill
#
# Bulk Modulus (GPa) = 20.30092 65.86327 43.08210
# Shear Modulus (GPa) = 20.18858 40.23864 30.21361
#
# Velocity S-wave (km/s) = 2.94101 4.15208 3.59787
# Velocity P-wave (km/s) = 4.49783 7.15575 5.97642
#
# Compressibility (1/GPa) = 0.04925885
#
# Stress axis : x y z
#
# Youngs Moduli (GPa) = 25.85113 140.14131 127.38542
#
# Poissons Ratio (x) = 0.28033 -0.25004
# Poissons Ratio (y) = 0.05171 0.27611
# Poissons Ratio (z) = -0.05074 0.30376
#
# Static dielectric constant tensor:
#      x y z
#    x 2.075340 -0.044690 -0.047580 
#    y -0.044690 1.960400 0.042370 
#    z -0.047580 0.042370 1.923090 
# 
# From -- ./inp_files/374931.got.cif
#   From: 2010.05.17/outbox.cif.g08.bks.cpg/sg2_188_cif.got.tgz:374931.got - 2010.06.03 11:33:40.
