data_PCOD9036228
_publ_section_title
;
Structure prediction by ZEFSAII (Michael W. Deem and Ramdas Pophale) SiO2 
 PCOD9036228
Probable space group: P -1
;
_chemical_formula_sum "Si O2"
_cell_formula_units_Z 14
_cell_length_a 15.389961
_cell_length_b 12.133919
_cell_length_c 8.748904
_cell_angle_alpha 52.845023
_cell_angle_beta 62.337702
_cell_angle_gamma 26.715240
_cell_volume 572.327149
_symmetry_space_group_name_H-M "P -1"
_symmetry_group_IT_number 2
_symmetry_cell_setting 'triclinic'
loop_
_space_group_symop_operation_xyz
x,y,z
-x,-y,-z
loop_
_atom_site_type_symbol
_atom_site_label
_atom_site_fract_x
_atom_site_fract_y
_atom_site_fract_z
Si Si1 0.326466 0.086048 0.015149
Si Si2 0.176967 0.137184 0.512484
Si Si3 0.789520 0.362491 0.968583
Si Si4 0.926101 0.466425 0.921042
Si Si5 0.462799 0.391828 0.555496
Si Si6 0.588856 0.009248 0.306302
Si Si7 0.071522 0.827323 0.322300
O O1 0.137276 0.215192 0.039251
O O2 0.364547 0.105348 0.802312
O O3 0.248861 0.303388 0.005271
O O4 0.485641 0.790589 0.210447
O O5 0.377518 0.834377 0.521786
O O6 0.235955 0.127115 0.636433
O O7 0.102938 0.357634 0.293957
O O8 0.005852 0.233769 0.568059
O O9 0.900429 0.368853 0.914195
O O10 0.564477 0.682624 0.871507
O O11 0.836011 0.252446 0.852688
O O12 0.868851 0.163995 0.201239
O O13 0.500000 0.500000 0.500000
O O14 0.239356 0.651693 0.455955
O O15 0.500000 0.000000 0.500000
#
# Coordination Sequence:
#
# PCOD9036228 Si02
#       7
#     2   2   2   2   2   2   2
#     4  10  25  44  71 108 141 191 240 300 361 428
#     4  11  25  45  75 105 142 190 243 299 360 422
#     4  11  24  45  72 109 144 191 245 295 356 430
#     4  10  22  48  72 105 145 187 243 299 358 427
#     4  11  25  49  71 106 149 190 239 298 367 437
#     4  12  25  46  75 107 146 189 245 301 357 427
#     4  11  26  46  74 106 148 191 242 298 359 435
#
# _framework density 24.461531999999998
#
# number of rings (size 3 to 8) (size 9 to 14) (size 15 to 20)
#    0.000    1.143    2.857    1.714    4.000    4.000 
#    7.714    0.000    0.000    0.000    0.000    0.000 
#    0.000    0.000    0.000    0.000    0.000    0.000 
#
# Total GULP energy -78358.843803 kJ/mol
# GULP energy per Si atom -5597.060272 kJ/mol
# Density = 2.440586 g / cm^3
# Si number density = 24.461532 Si / 1000 Ang^3
#
#
#
# Elastic Constant Matrix: (Units=GPa)
#
#
# Indices 1 2 3 4 5 6 
#
# 1 161.6866 20.3408 70.4392 -14.4282 23.3026 -29.1959
# 2 20.3408 67.0903 58.2479 -8.8330 16.8409 3.6320
# 3 70.4392 58.2479 148.4170 -17.5189 24.4900 -16.8072
# 4 -14.4282 -8.8330 -17.5189 43.8271 -5.0565 8.1474
# 5 23.3026 16.8409 24.4900 -5.0565 39.2918 -4.4121
# 6 -29.1959 3.6320 -16.8072 8.1474 -4.4121 29.4332
#
#
#
# Elastic Compliance Matrix: (Units=1/GPa)
#
#
# Indices 1 2 3 4 5 6 
#
# 1 0.009199 0.000437 -0.003287 0.000231 -0.002811 0.006708
# 2 0.000437 0.026120 -0.010366 0.002503 -0.005826 -0.010274
# 3 -0.003287 -0.010366 0.013261 0.001042 -0.001164 0.005129
# 4 0.000231 0.002503 0.001042 0.025065 0.000656 -0.006324
# 5 -0.002811 -0.005826 -0.001164 0.000656 0.030613 0.001673
# 6 0.006708 -0.010274 0.005129 -0.006324 0.001673 0.046827
#
#
# Mechanical properties :
#
#
# Convention : Reuss Voigt Hill
#
# Bulk Modulus (GPa) = 45.14442 75.02773 60.08608
# Shear Modulus (GPa) = 27.04185 37.72149 32.38167
#
# Velocity S-wave (km/s) = 3.32849 3.93119 3.64232
# Velocity P-wave (km/s) = 5.76777 7.16547 6.50427
#
# Compressibility (1/GPa) = 0.02215113
#
# Stress axis : x y z
#
# Youngs Moduli (GPa) = 108.71056 38.28474 75.40626
#
# Poissons Ratio (x) = -0.01675 0.24783
# Poissons Ratio (y) = -0.04756 0.78162
# Poissons Ratio (z) = 0.35728 0.39684
#
# Static dielectric constant tensor:
#      x y z
#    x 1.901630 0.007700 0.014290 
#    y 0.007700 2.109350 0.021250 
#    z 0.014290 0.021250 1.921870 
# 
# From -- ./inp_files/306468.got.cif
#   From: 2010.05.17/outbox.cif.g08.bks.cpg/sg2_154_cif.got.tgz:306468.got - 2010.06.03 11:33:40.
