data_PCOD9036897
_publ_section_title
;
Structure prediction by ZEFSAII (Michael W. Deem and Ramdas Pophale) SiO2 
 PCOD9036897
Probable space group: P -1
;
_chemical_formula_sum "Si O2"
_cell_formula_units_Z 16
_cell_length_a 13.555364
_cell_length_b 7.151963
_cell_length_c 21.288506
_cell_angle_alpha 64.055902
_cell_angle_beta 159.841473
_cell_angle_gamma 119.837759
_cell_volume 613.936162
_symmetry_space_group_name_H-M "P -1"
_symmetry_group_IT_number 2
_symmetry_cell_setting 'triclinic'
loop_
_space_group_symop_operation_xyz
x,y,z
-x,-y,-z
loop_
_atom_site_type_symbol
_atom_site_label
_atom_site_fract_x
_atom_site_fract_y
_atom_site_fract_z
Si Si1 0.880707 0.719709 0.325725
Si Si2 0.716757 0.768500 0.645376
Si Si3 0.677300 0.564060 0.356198
Si Si4 0.339543 0.112938 0.938685
Si Si5 0.184924 0.690033 0.252968
Si Si6 0.628645 0.856816 0.907040
Si Si7 0.864826 0.699897 0.879692
Si Si8 0.626744 0.922021 0.374987
O O1 0.056138 0.540068 0.458622
O O2 0.682093 0.681286 0.275317
O O3 0.711369 0.695286 0.162260
O O4 0.107381 0.960075 0.435962
O O5 0.418159 0.797315 0.431622
O O6 0.802331 0.556749 0.701573
O O7 0.678277 0.709547 0.704069
O O8 0.008488 0.964724 0.780146
O O9 0.387609 0.354181 0.211466
O O10 0.669933 0.731769 0.383262
O O11 0.487578 0.155316 0.089234
O O12 0.500000 0.000000 0.000000
O O13 0.341402 0.813188 0.265148
O O14 0.850753 0.705282 0.057963
O O15 0.867596 0.087452 0.998031
O O16 0.382025 0.881159 0.706488
O O17 0.000000 0.500000 0.000000
#
# Coordination Sequence:
#
# PCOD9036897 Si02
#       8
#     2   2   2   2   2   2   2   2
#     4  11  26  44  70  98 132 185 225 271 328 410
#     4  10  23  39  65  94 127 174 211 275 332 391
#     4  11  24  43  69 100 132 175 231 269 333 398
#     4  11  25  46  65  92 137 177 220 271 337 400
#     4  11  22  41  65 101 131 165 227 275 337 395
#     4  11  25  40  70 100 133 171 221 282 335 398
#     4  11  21  39  65  94 129 171 214 274 331 387
#     4  12  22  46  68 101 139 173 221 282 337 393
#
# _framework density 26.061340999999999
#
# number of rings (size 3 to 8) (size 9 to 14) (size 15 to 20)
#    0.000    1.000    3.750    2.250    3.500    2.000 
#    2.250    0.625    0.000    0.000    0.000    0.000 
#    0.000    0.000    0.000    0.000    0.000    0.000 
#
# Total GULP energy -89527.958187 kJ/mol
# GULP energy per Si atom -5595.497387 kJ/mol
# Density = 2.600202 g / cm^3
# Si number density = 26.061341 Si / 1000 Ang^3
#
#
#
# Elastic Constant Matrix: (Units=GPa)
#
#
# Indices 1 2 3 4 5 6 
#
# 1 129.2315 23.1864 33.5123 -18.1949 -7.8565 16.8591
# 2 23.1864 87.5586 10.7853 -3.0942 4.4204 3.2845
# 3 33.5123 10.7853 72.2165 -31.7591 -26.3221 2.8757
# 4 -18.1949 -3.0942 -31.7591 44.5418 6.9564 -1.2846
# 5 -7.8565 4.4204 -26.3221 6.9564 46.9617 -7.3182
# 6 16.8591 3.2845 2.8757 -1.2846 -7.3182 40.4918
#
#
#
# Elastic Compliance Matrix: (Units=1/GPa)
#
#
# Indices 1 2 3 4 5 6 
#
# 1 0.009683 -0.001822 -0.004078 0.001004 -0.001233 -0.003785
# 2 -0.001822 0.012338 -0.002566 -0.001296 -0.002807 -0.000608
# 3 -0.004078 -0.002566 0.027911 0.016067 0.013265 0.002831
# 4 0.001004 -0.001296 0.016067 0.033553 0.004388 0.000403
# 5 -0.001233 -0.002807 0.013265 0.004388 0.028942 0.005169
# 6 -0.003785 -0.000608 0.002831 0.000403 0.005169 0.027068
#
#
# Mechanical properties :
#
#
# Convention : Reuss Voigt Hill
#
# Bulk Modulus (GPa) = 30.30385 47.10828 38.70606
# Shear Modulus (GPa) = 29.86366 41.16725 35.51545
#
# Velocity S-wave (km/s) = 3.38879 3.97877 3.69557
# Velocity P-wave (km/s) = 5.19278 6.26280 5.75272
#
# Compressibility (1/GPa) = 0.03299911
#
# Stress axis : x y z
#
# Youngs Moduli (GPa) = 103.27649 81.04869 35.82829
#
# Poissons Ratio (x) = 0.14767 0.14612
# Poissons Ratio (y) = 0.18817 0.09194
# Poissons Ratio (z) = 0.42119 0.20798
#
# Static dielectric constant tensor:
#      x y z
#    x 2.115910 -0.082640 -0.032720 
#    y -0.082640 2.066670 0.014190 
#    z -0.032720 0.014190 2.198160 
# 
# From -- ./inp_files/611622.got.cif
#   From: 2010.05.17/outbox.cif.g08.bks.cpg/sg2_306_cif.got.tgz:611622.got - 2010.06.03 11:33:40.
