data_PCOD9036869
_publ_section_title
;
Structure prediction by ZEFSAII (Michael W. Deem and Ramdas Pophale) SiO2 
 PCOD9036869
Probable space group: P -1
;
_chemical_formula_sum "Si O2"
_cell_formula_units_Z 14
_cell_length_a 8.302558
_cell_length_b 16.679873
_cell_length_c 19.268608
_cell_angle_alpha 20.767935
_cell_angle_beta 138.879596
_cell_angle_gamma 129.876035
_cell_volume 598.920684
_symmetry_space_group_name_H-M "P -1"
_symmetry_group_IT_number 2
_symmetry_cell_setting 'triclinic'
loop_
_space_group_symop_operation_xyz
x,y,z
-x,-y,-z
loop_
_atom_site_type_symbol
_atom_site_label
_atom_site_fract_x
_atom_site_fract_y
_atom_site_fract_z
Si Si1 0.832297 0.041562 0.343420
Si Si2 0.509764 0.534966 0.056846
Si Si3 0.971185 0.037280 0.159728
Si Si4 0.762982 0.299101 0.740193
Si Si5 0.548547 0.028041 0.140934
Si Si6 0.222714 0.185235 0.251887
Si Si7 0.202316 0.521018 0.671688
O O1 0.721118 0.895537 0.368792
O O2 0.012968 0.137887 0.272611
O O3 0.570473 0.196032 0.166815
O O4 0.000000 0.000000 0.500000
O O5 0.278705 0.429998 0.089746
O O6 0.742537 0.425678 0.272221
O O7 0.500000 0.500000 0.000000
O O8 0.727142 0.002860 0.151632
O O9 0.121587 0.162844 0.159991
O O10 0.881521 0.195265 0.936144
O O11 0.143251 0.774154 0.411510
O O12 0.500000 0.500000 0.500000
O O13 0.961504 0.416747 0.673313
O O14 0.682976 0.085571 0.850653
O O15 0.438680 0.308881 0.893457
O O16 0.500000 0.000000 0.500000
#
# Coordination Sequence:
#
# PCOD9036869 Si02
#       7
#     2   2   2   2   2   2   2
#     4  10  23  39  64  97 131 169 216 270 329 398
#     4  11  22  39  65  93 131 174 219 271 329 393
#     4  11  24  45  69  96 135 175 220 280 331 390
#     4  12  25  44  71  97 131 177 225 272 338 394
#     4  10  24  45  66  98 133 173 223 275 328 396
#     4  11  21  39  66  95 130 169 216 266 331 392
#     4  11  24  45  66  97 134 172 228 271 330 399
#
# _framework density 23.375381999999998
#
# number of rings (size 3 to 8) (size 9 to 14) (size 15 to 20)
#    0.000    1.143    2.857    3.000    2.000    2.857 
#    2.571    0.000    0.000    0.000    0.000    0.000 
#    0.000    0.000    0.000    0.000    0.000    0.000 
#
# Total GULP energy -78109.078005 kJ/mol
# GULP energy per Si atom -5579.219857 kJ/mol
# Density = 2.332218 g / cm^3
# Si number density = 23.375382 Si / 1000 Ang^3
#
#
#
# Elastic Constant Matrix: (Units=GPa)
#
#
# Indices 1 2 3 4 5 6 
#
# 1 37.0986 7.3931 -3.4841 2.3851 10.6880 -1.6301
# 2 7.3931 110.5177 6.7475 10.2391 -6.7655 8.3349
# 3 -3.4841 6.7475 104.1783 13.7435 7.3003 -22.2759
# 4 2.3851 10.2391 13.7435 38.1755 -6.6074 1.1959
# 5 10.6880 -6.7655 7.3003 -6.6074 29.5567 3.7359
# 6 -1.6301 8.3349 -22.2759 1.1959 3.7359 34.0784
#
#
#
# Elastic Compliance Matrix: (Units=1/GPa)
#
#
# Indices 1 2 3 4 5 6 
#
# 1 0.033633 -0.003593 0.004973 -0.006034 -0.016543 0.007763
# 2 -0.003593 0.010084 -0.001889 -0.000900 0.004420 -0.004326
# 3 0.004973 -0.001889 0.013638 -0.006507 -0.008414 0.010765
# 4 -0.006034 -0.000900 -0.006507 0.031344 0.011434 -0.006676
# 5 -0.016543 0.004420 -0.008414 0.011434 0.047097 -0.012937
# 6 0.007763 -0.004326 0.010765 -0.006676 -0.012937 0.039463
#
#
# Mechanical properties :
#
#
# Convention : Reuss Voigt Hill
#
# Bulk Modulus (GPa) = 17.75046 30.34530 24.04788
# Shear Modulus (GPa) = 25.63372 36.43799 31.03586
#
# Velocity S-wave (km/s) = 3.31511 3.95247 3.64774
# Velocity P-wave (km/s) = 4.71841 5.81715 5.29635
#
# Compressibility (1/GPa) = 0.05633656
#
# Stress axis : x y z
#
# Youngs Moduli (GPa) = 29.73252 99.16520 73.32689
#
# Poissons Ratio (x) = 0.35626 -0.36464
# Poissons Ratio (y) = 0.10682 0.13854
# Poissons Ratio (z) = -0.14785 0.18736
#
# Static dielectric constant tensor:
#      x y z
#    x 1.864710 -0.050320 -0.022810 
#    y -0.050320 2.140920 0.043790 
#    z -0.022810 0.043790 2.034790 
# 
# From -- ./inp_files/258962.got.cif
#   From: 2010.05.17/outbox.cif.g08.bks.cpg/sg2_130_cif.got.tgz:258962.got - 2010.06.03 11:33:40.
