data_PCOD9036522
_publ_section_title
;
Structure prediction by ZEFSAII (Michael W. Deem and Ramdas Pophale) SiO2 
 PCOD9036522
Probable space group: P -1
;
_chemical_formula_sum "Si O2"
_cell_formula_units_Z 16
_cell_length_a 8.843260
_cell_length_b 16.359333
_cell_length_c 14.936328
_cell_angle_alpha 44.130811
_cell_angle_beta 107.191360
_cell_angle_gamma 143.075918
_cell_volume 674.955700
_symmetry_space_group_name_H-M "P -1"
_symmetry_group_IT_number 2
_symmetry_cell_setting 'triclinic'
loop_
_space_group_symop_operation_xyz
x,y,z
-x,-y,-z
loop_
_atom_site_type_symbol
_atom_site_label
_atom_site_fract_x
_atom_site_fract_y
_atom_site_fract_z
Si Si1 0.459728 0.585013 0.051386
Si Si2 0.249192 0.468359 0.561607
Si Si3 0.807082 0.837769 0.218650
Si Si4 0.327835 0.896183 0.955090
Si Si5 0.364897 0.779888 0.406037
Si Si6 0.454707 0.857124 0.545721
Si Si7 0.553656 0.387458 0.181701
Si Si8 0.304515 0.627009 0.155283
O O1 0.383396 0.397200 0.173380
O O2 0.250641 0.506462 0.156677
O O3 0.423530 0.609058 0.924822
O O4 0.842527 0.869207 0.927001
O O5 0.585177 0.683776 0.391237
O O6 0.156122 0.273600 0.720387
O O7 0.296103 0.595384 0.548430
O O8 0.955413 0.343338 0.554446
O O9 0.587410 0.762539 0.165185
O O10 0.472185 0.091128 0.763317
O O11 0.402013 0.818666 0.984285
O O12 0.929786 0.649793 0.079949
O O13 0.500000 0.000000 0.000000
O O14 0.582840 0.957796 0.388726
O O15 0.593205 0.829024 0.635437
O O16 0.044064 0.578124 0.692003
O O17 0.500000 0.000000 0.500000
#
# Coordination Sequence:
#
# PCOD9036522 Si02
#       8
#     2   2   2   2   2   2   2   2
#     4  11  24  43  69  92 135 176 219 274 335 385
#     4  10  23  37  67  95 136 163 216 271 331 388
#     4  11  22  42  65 100 131 170 218 276 329 390
#     4  11  24  42  73  98 130 170 228 272 326 389
#     4  11  23  42  66  99 131 175 216 273 334 380
#     4  11  27  44  68  93 138 174 222 270 330 399
#     4  10  26  45  66  96 133 171 224 273 326 400
#     4  11  24  42  67  99 127 171 230 274 320 395
#
# _framework density 23.705261
#
# number of rings (size 3 to 8) (size 9 to 14) (size 15 to 20)
#    0.000    1.250    1.250    3.375   12.250    1.000 
#    0.000    0.625    0.000    0.000    0.000    0.000 
#    0.000    0.000    0.000    0.000    0.000    0.000 
#
# Total GULP energy -89437.249824 kJ/mol
# GULP energy per Si atom -5589.828114 kJ/mol
# Density = 2.365131 g / cm^3
# Si number density = 23.705261 Si / 1000 Ang^3
#
#
#
# Elastic Constant Matrix: (Units=GPa)
#
#
# Indices 1 2 3 4 5 6 
#
# 1 92.3755 11.6840 14.8989 5.6928 24.7677 -6.7018
# 2 11.6840 119.1710 7.9652 15.1932 12.3471 -14.8814
# 3 14.8989 7.9652 52.3723 1.9973 13.5112 -1.6473
# 4 5.6928 15.1932 1.9973 30.8765 -0.8508 -8.9657
# 5 24.7677 12.3471 13.5112 -0.8508 45.8466 -8.6569
# 6 -6.7018 -14.8814 -1.6473 -8.9657 -8.6569 22.5237
#
#
#
# Elastic Compliance Matrix: (Units=1/GPa)
#
#
# Indices 1 2 3 4 5 6 
#
# 1 0.013041 -0.000159 -0.001931 -0.002308 -0.006430 0.000244
# 2 -0.000159 0.009588 -0.000752 -0.003441 -0.001532 0.004274
# 3 -0.001931 -0.000752 0.021142 -0.001423 -0.005422 -0.002176
# 4 -0.002308 -0.003441 -0.001423 0.039076 0.006120 0.014843
# 5 -0.006430 -0.001532 -0.005422 0.006120 0.029374 0.010404
# 6 0.000244 0.004274 -0.002176 0.014843 0.010404 0.057042
#
#
# Mechanical properties :
#
#
# Convention : Reuss Voigt Hill
#
# Bulk Modulus (GPa) = 26.25548 37.00166 31.62857
# Shear Modulus (GPa) = 26.64615 35.14076 30.89345
#
# Velocity S-wave (km/s) = 3.35634 3.85438 3.61395
# Velocity P-wave (km/s) = 5.11076 5.95409 5.54847
#
# Compressibility (1/GPa) = 0.03808729
#
# Stress axis : x y z
#
# Youngs Moduli (GPa) = 76.68222 104.29383 47.29811
#
# Poissons Ratio (x) = 0.01654 0.09134
# Poissons Ratio (y) = 0.01216 0.03558
# Poissons Ratio (z) = 0.14809 0.07846
#
# Static dielectric constant tensor:
#      x y z
#    x 1.910740 -0.005000 -0.039110 
#    y -0.005000 1.892830 -0.028150 
#    z -0.039110 -0.028150 1.985280 
# 
# From -- ./inp_files/206403.got.cif
#   From: 2010.05.17/outbox.cif.g08.bks.cpg/sg2_104_cif.got.tgz:206403.got - 2010.06.03 11:33:40.
