data_PCOD9036355
_publ_section_title
;
Structure prediction by ZEFSAII (Michael W. Deem and Ramdas Pophale) SiO2 
 PCOD9036355
Probable space group: P -1
;
_chemical_formula_sum "Si O2"
_cell_formula_units_Z 10
_cell_length_a 10.492678
_cell_length_b 10.392590
_cell_length_c 8.341053
_cell_angle_alpha 82.492394
_cell_angle_beta 96.933667
_cell_angle_gamma 27.563636
_cell_volume 357.529659
_symmetry_space_group_name_H-M "P -1"
_symmetry_group_IT_number 2
_symmetry_cell_setting 'triclinic'
loop_
_space_group_symop_operation_xyz
x,y,z
-x,-y,-z
loop_
_atom_site_type_symbol
_atom_site_label
_atom_site_fract_x
_atom_site_fract_y
_atom_site_fract_z
Si Si1 0.108090 0.532436 0.786369
Si Si2 0.830629 0.268613 0.096527
Si Si3 0.637741 0.669327 0.822539
Si Si4 0.627143 0.711209 0.463089
Si Si5 0.959205 0.140494 0.616897
O O1 0.233914 0.565628 0.801422
O O2 0.189876 0.404432 0.645226
O O3 0.288710 0.313979 0.009448
O O4 0.734868 0.911323 0.683623
O O5 0.500000 0.500000 0.000000
O O6 0.876335 0.325990 0.947571
O O7 0.077184 0.927955 0.231141
O O8 0.713245 0.667820 0.667053
O O9 0.282677 0.933208 0.713517
O O10 0.682949 0.504069 0.512951
O O11 0.000000 0.000000 0.500000
#
# Coordination Sequence:
#
# PCOD9036355 Si02
#       5
#     2   2   2   2   2
#     4  10  23  33  44  54  62  70  86  88 102 113
#     4   8  17  32  38  51  59  71  77  91  97 109
#     4   9  21  34  42  51  65  72  79  95 100 109
#     4  12  21  34  44  54  60  74  81  92 101 112
#     4  11  18  32  42  53  60  72  82  89 101 112
#
# _framework density 27.969707
#
# number of rings (size 3 to 8) (size 9 to 14) (size 15 to 20)
#    1.200    0.800    4.000    0.000    2.800    4.000 
#    0.000    0.000    0.000    0.000    0.000    0.000 
#    0.000    0.000    0.000    0.000    0.000    0.000 
#
# Total GULP energy -55816.264470 kJ/mol
# GULP energy per Si atom -5581.626447 kJ/mol
# Density = 2.790605 g / cm^3
# Si number density = 27.969707 Si / 1000 Ang^3
#
#
#
# Elastic Constant Matrix: (Units=GPa)
#
#
# Indices 1 2 3 4 5 6 
#
# 1 95.3711 35.5862 68.1645 -9.6640 -12.6581 -7.5974
# 2 35.5862 118.3712 87.7981 -0.5854 26.2111 -23.0167
# 3 68.1645 87.7981 196.0556 22.7961 18.3958 -1.6009
# 4 -9.6640 -0.5854 22.7961 36.1147 14.9946 -6.6622
# 5 -12.6581 26.2111 18.3958 14.9946 16.8506 21.2764
# 6 -7.5974 -23.0167 -1.6009 -6.6622 21.2764 29.2921
#
#
#
# Elastic Compliance Matrix: (Units=1/GPa)
#
#
# Indices 1 2 3 4 5 6 
#
# 1 0.017478 0.001781 -0.008187 0.010391 0.001695 0.006617
# 2 0.001781 0.004443 -0.003617 -0.006681 0.018072 -0.010891
# 3 -0.008187 -0.003617 0.011030 -0.005372 -0.008867 0.000856
# 4 0.010391 -0.006681 -0.005372 0.021933 0.022242 -0.014015
# 5 0.001695 0.018072 -0.008867 0.022242 -0.022495 0.035553
# 6 0.006617 -0.010891 0.000856 -0.014015 0.035553 -0.001667
#
#
# Mechanical properties :
#
#
# Convention : Reuss Voigt Hill
#
# Bulk Modulus (GPa) = 77.48909 88.09950 82.79430
# Shear Modulus (GPa) = 90.79598 31.00142 60.89870
#
# Velocity S-wave (km/s) = 5.70375 3.33286 4.67123
# Velocity P-wave (km/s) = 8.43456 6.81008 7.66547
#
# Compressibility (1/GPa) = 0.01290504
#
# Stress axis : x y z
#
# Youngs Moduli (GPa) = 57.21638 225.08811 90.65794
#
# Poissons Ratio (x) = -0.40092 0.74225
# Poissons Ratio (y) = -0.10191 0.32787
# Poissons Ratio (z) = 0.46845 0.81406
#
# Static dielectric constant tensor:
#      x y z
#    x 2.397800 0.001600 -0.015220 
#    y 0.001600 2.135290 0.085930 
#    z -0.015220 0.085930 2.518660 
# 
# From -- ./inp_files/309701.got.cif
#   From: 2010.05.17/outbox.cif.g08.bks.cpg/sg2_155_cif.got.tgz:309701.got - 2010.06.03 11:33:40.
