data_PCOD9036655
_publ_section_title
;
Structure prediction by ZEFSAII (Michael W. Deem and Ramdas Pophale) SiO2 
 PCOD9036655
Probable space group: P -1
;
_chemical_formula_sum "Si O2"
_cell_formula_units_Z 12
_cell_length_a 8.904117
_cell_length_b 14.859031
_cell_length_c 5.388220
_cell_angle_alpha 126.570667
_cell_angle_beta 98.639839
_cell_angle_gamma 60.097856
_cell_volume 485.166258
_symmetry_space_group_name_H-M "P -1"
_symmetry_group_IT_number 2
_symmetry_cell_setting 'triclinic'
loop_
_space_group_symop_operation_xyz
x,y,z
-x,-y,-z
loop_
_atom_site_type_symbol
_atom_site_label
_atom_site_fract_x
_atom_site_fract_y
_atom_site_fract_z
Si Si1 0.714401 0.276618 0.098628
Si Si2 0.405036 0.463283 0.701984
Si Si3 0.915960 0.846957 0.843149
Si Si4 0.290967 0.100663 0.609044
Si Si5 0.621328 0.682694 0.133756
Si Si6 0.943362 0.458459 0.665447
O O1 0.572816 0.366554 0.417621
O O2 0.744348 0.385814 0.149857
O O3 0.898157 0.162025 0.062441
O O4 0.590149 0.242378 0.846358
O O5 0.346339 0.370052 0.664412
O O6 0.500000 0.500000 0.000000
O O7 0.807771 0.917513 0.682428
O O8 0.982246 0.694422 0.561872
O O9 0.797841 0.894567 0.141514
O O10 0.292538 0.233717 0.781276
O O11 0.500000 0.000000 0.500000
O O12 0.728312 0.551045 0.778236
O O13 0.000000 0.500000 0.500000
O O14 0.000000 0.500000 0.000000
#
# Coordination Sequence:
#
# PCOD9036655 Si02
#       6
#     2   2   2   2   2   2
#     4  10  23  38  66 101 137 177 216 276 350 405
#     4   9  19  36  61  98 145 171 211 258 351 414
#     4  12  25  46  72 100 136 177 231 289 338 409
#     4  12  29  50  70  95 136 187 236 286 337 393
#     4  11  24  41  69 100 141 179 220 280 338 415
#     4  12  23  38  65 109 138 171 220 273 346 409
#
# _framework density 24.733789999999999
#
# number of rings (size 3 to 8) (size 9 to 14) (size 15 to 20)
#    0.000    1.000    3.333    3.500   14.000    0.000 
#    0.000    1.667    0.000    0.000    0.000    0.000 
#    0.000    0.000    0.000    0.000    0.000    0.000 
#
# Total GULP energy -67026.511572 kJ/mol
# GULP energy per Si atom -5585.542631 kJ/mol
# Density = 2.467749 g / cm^3
# Si number density = 24.733790 Si / 1000 Ang^3
#
#
#
# Elastic Constant Matrix: (Units=GPa)
#
#
# Indices 1 2 3 4 5 6 
#
# 1 107.7681 29.8989 43.4083 -12.7360 -12.4955 -42.2661
# 2 29.8989 82.9289 41.9374 -19.0550 -7.8140 -44.9796
# 3 43.4083 41.9374 75.4478 -20.0379 -23.5738 -14.0611
# 4 -12.7360 -19.0550 -20.0379 34.0188 -5.1448 3.8013
# 5 -12.4955 -7.8140 -23.5738 -5.1448 40.0063 1.5578
# 6 -42.2661 -44.9796 -14.0611 3.8013 1.5578 65.5844
#
#
#
# Elastic Compliance Matrix: (Units=1/GPa)
#
#
# Indices 1 2 3 4 5 6 
#
# 1 0.017220 0.007131 -0.010446 0.002840 0.000453 0.013573
# 2 0.007131 0.031113 -0.015038 0.008712 -0.000301 0.022212
# 3 -0.010446 -0.015038 0.033166 0.010712 0.015146 -0.010915
# 4 0.002840 0.008712 0.010712 0.042974 0.014144 0.007275
# 5 0.000453 -0.000301 0.015146 0.014144 0.035758 0.001663
# 6 0.013573 0.022212 -0.010915 0.007275 0.001663 0.036427
#
#
# Mechanical properties :
#
#
# Convention : Reuss Voigt Hill
#
# Bulk Modulus (GPa) = 22.32419 55.18154 38.75286
# Shear Modulus (GPa) = 20.13749 37.98192 29.05970
#
# Velocity S-wave (km/s) = 2.85646 3.92296 3.43140
# Velocity P-wave (km/s) = 4.46369 6.54814 5.60369
#
# Compressibility (1/GPa) = 0.04479447
#
# Stress axis : x y z
#
# Youngs Moduli (GPa) = 58.07306 32.14083 30.15159
#
# Poissons Ratio (x) = -0.22921 0.31495
# Poissons Ratio (y) = -0.41414 0.45341
# Poissons Ratio (z) = 0.60661 0.48332
#
# Static dielectric constant tensor:
#      x y z
#    x 2.099500 -0.021890 0.049840 
#    y -0.021890 2.186840 -0.144030 
#    z 0.049840 -0.144030 2.077150 
# 
# From -- ./inp_files/25694.got.cif
#   From: 2010.05.17/outbox.cif.g08.bks.cpg/sg2_13_cif.got.tgz:25694.got - 2010.06.03 11:33:40.
