data_PCOD9036836
_publ_section_title
;
Structure prediction by ZEFSAII (Michael W. Deem and Ramdas Pophale) SiO2 
 PCOD9036836
Probable space group: P -1
;
_chemical_formula_sum "Si O2"
_cell_formula_units_Z 14
_cell_length_a 5.179888
_cell_length_b 22.314677
_cell_length_c 6.594059
_cell_angle_alpha 116.348114
_cell_angle_beta 99.662863
_cell_angle_gamma 107.749711
_cell_volume 608.076350
_symmetry_space_group_name_H-M "P -1"
_symmetry_group_IT_number 2
_symmetry_cell_setting 'triclinic'
loop_
_space_group_symop_operation_xyz
x,y,z
-x,-y,-z
loop_
_atom_site_type_symbol
_atom_site_label
_atom_site_fract_x
_atom_site_fract_y
_atom_site_fract_z
Si Si1 0.650002 0.489801 0.807764
Si Si2 0.649016 0.342512 0.509223
Si Si3 0.917768 0.569763 0.618641
Si Si4 0.596176 0.926756 0.528086
Si Si5 0.832853 0.756494 0.985039
Si Si6 0.403381 0.763286 0.288131
Si Si7 0.973772 0.079880 0.757999
O O1 0.749695 0.424479 0.743198
O O2 0.863708 0.566450 0.846185
O O3 0.385320 0.452096 0.561192
O O4 0.500000 0.500000 0.000000
O O5 0.336077 0.302627 0.299160
O O6 0.664393 0.289084 0.604609
O O7 0.855059 0.361455 0.368118
O O8 0.000000 0.500000 0.500000
O O9 0.543069 0.849532 0.507609
O O10 0.284734 0.926031 0.440595
O O11 0.758717 0.923667 0.333737
O O12 0.813282 0.006800 0.763892
O O13 0.624802 0.751309 0.142773
O O14 0.115309 0.752031 0.108096
O O15 0.921434 0.837752 0.020745
#
# Coordination Sequence:
#
# PCOD9036836 Si02
#       7
#     2   2   2   2   2   2   2
#     4  10  23  44  68  91 120 160 211 260 320 386
#     4  11  25  41  65  94 130 165 210 268 324 389
#     4   9  22  43  62  91 120 155 203 259 314 388
#     4   8  14  29  53  84 119 164 217 256 302 373
#     4  10  23  40  61  94 132 172 215 263 323 382
#     4  10  23  39  63  95 130 174 215 260 326 381
#     4   8  14  29  54  81 120 168 210 259 309 360
#
# _framework density 23.023425
#
# number of rings (size 3 to 8) (size 9 to 14) (size 15 to 20)
#    0.000    2.571    0.000    0.000    4.000    6.857 
#    0.000    0.714    0.000    0.000    0.000   20.000 
#    0.000    0.000    0.000    0.000    0.000    0.000 
#
# Total GULP energy -78074.444623 kJ/mol
# GULP energy per Si atom -5576.746044 kJ/mol
# Density = 2.297102 g / cm^3
# Si number density = 23.023425 Si / 1000 Ang^3
#
#
#
# Elastic Constant Matrix: (Units=GPa)
#
#
# Indices 1 2 3 4 5 6 
#
# 1 96.8892 8.7144 13.9091 -7.3414 -3.0926 -5.3436
# 2 8.7144 163.9361 59.4764 -2.4073 -15.3773 -7.2500
# 3 13.9091 59.4764 72.4821 -6.0275 -3.0167 1.5360
# 4 -7.3414 -2.4073 -6.0275 21.9291 -4.1265 5.6311
# 5 -3.0926 -15.3773 -3.0167 -4.1265 33.1867 2.6050
# 6 -5.3436 -7.2500 1.5360 5.6311 2.6050 26.7486
#
#
#
# Elastic Compliance Matrix: (Units=1/GPa)
#
#
# Indices 1 2 3 4 5 6 
#
# 1 0.010953 0.000460 -0.002221 0.002906 0.001259 0.001706
# 2 0.000460 0.009308 -0.007744 -0.001098 0.003282 0.002971
# 3 -0.002221 -0.007744 0.021081 0.005268 -0.000849 -0.004780
# 4 0.002906 -0.001098 0.005268 0.052375 0.007679 -0.011794
# 5 0.001259 0.003282 -0.000849 0.007679 0.032934 -0.003634
# 6 0.001706 0.002971 -0.004780 -0.011794 -0.003634 0.041642
#
#
# Mechanical properties :
#
#
# Convention : Reuss Voigt Hill
#
# Bulk Modulus (GPa) = 44.77920 55.27857 50.02889
# Shear Modulus (GPa) = 25.67415 33.12003 29.39709
#
# Velocity S-wave (km/s) = 3.34298 3.79692 3.57716
# Velocity P-wave (km/s) = 5.86450 6.57905 6.23203
#
# Compressibility (1/GPa) = 0.02233180
#
# Stress axis : x y z
#
# Youngs Moduli (GPa) = 91.29888 107.43308 47.43556
#
# Poissons Ratio (x) = -0.04941 0.10537
# Poissons Ratio (y) = -0.04199 0.36733
# Poissons Ratio (z) = 0.20281 0.83195
#
# Static dielectric constant tensor:
#      x y z
#    x 1.880000 -0.021560 -0.013990 
#    y -0.021560 1.996200 0.069020 
#    z -0.013990 0.069020 1.859510 
# 
# From -- ./inp_files/10211.got.cif
#   From: 2010.05.17/outbox.cif.g08.bks.cpg/sg2_6_cif.got.tgz:10211.got - 2010.06.03 11:33:40.
