data_PCOD9036090
_publ_section_title
;
Structure prediction by ZEFSAII (Michael W. Deem and Ramdas Pophale) SiO2 
 PCOD9036090
Probable space group: P -1
;
_chemical_formula_sum "Si O2"
_cell_formula_units_Z 14
_cell_length_a 7.178173
_cell_length_b 16.422515
_cell_length_c 9.546887
_cell_angle_alpha 54.667326
_cell_angle_beta 130.577258
_cell_angle_gamma 131.498288
_cell_volume 618.376544
_symmetry_space_group_name_H-M "P -1"
_symmetry_group_IT_number 2
_symmetry_cell_setting 'triclinic'
loop_
_space_group_symop_operation_xyz
x,y,z
-x,-y,-z
loop_
_atom_site_type_symbol
_atom_site_label
_atom_site_fract_x
_atom_site_fract_y
_atom_site_fract_z
Si Si1 0.918297 0.236652 0.980286
Si Si2 0.809418 0.310562 0.126100
Si Si3 0.490847 0.200716 0.580162
Si Si4 0.807080 0.015447 0.185656
Si Si5 0.443122 0.416541 0.930282
Si Si6 0.452490 0.426719 0.409373
Si Si7 0.580955 0.898819 0.665292
O O1 0.746543 0.200600 0.789439
O O2 0.219381 0.303018 0.000935
O O3 0.811728 0.301579 0.967287
O O4 0.907283 0.139189 0.174675
O O5 0.606751 0.190246 0.219314
O O6 0.124940 0.365511 0.275416
O O7 0.693046 0.395962 0.024740
O O8 0.510998 0.320268 0.516139
O O9 0.487998 0.172458 0.443579
O O10 0.241813 0.090525 0.639484
O O11 0.083368 0.043608 0.199611
O O12 0.500000 0.000000 0.000000
O O13 0.365404 0.474777 0.708659
O O14 0.500000 0.500000 0.000000
O O15 0.500000 0.500000 0.500000
O O16 0.500000 0.000000 0.500000
#
# Coordination Sequence:
#
# PCOD9036090 Si02
#       7
#     2   2   2   2   2   2   2
#     4  11  24  47  73 103 138 193 235 295 357 440
#     4  12  25  46  70 103 141 187 246 290 357 434
#     4  11  25  46  71 103 145 182 235 302 362 418
#     4  10  22  47  73 101 141 187 236 289 361 440
#     4  12  25  45  71  97 143 193 242 282 359 430
#     4  12  27  44  71 106 143 188 241 299 354 426
#     4  12  24  44  75 111 145 183 238 308 369 426
#
# _framework density 22.639925999999999
#
# number of rings (size 3 to 8) (size 9 to 14) (size 15 to 20)
#    0.000    0.571    2.857    5.143    4.000    0.571 
#    5.143    4.286    0.000    0.000    0.000    0.000 
#    0.000    0.000    0.000    0.000    0.000    0.000 
#
# Total GULP energy -77948.226828 kJ/mol
# GULP energy per Si atom -5567.730488 kJ/mol
# Density = 2.258840 g / cm^3
# Si number density = 22.639926 Si / 1000 Ang^3
#
#
#
# Elastic Constant Matrix: (Units=GPa)
#
#
# Indices 1 2 3 4 5 6 
#
# 1 95.5824 22.0805 28.8754 3.0835 -3.8117 -4.6605
# 2 22.0805 77.3969 34.8259 -14.5934 -3.6632 -8.7444
# 3 28.8754 34.8259 83.0739 -7.0830 -8.1138 -7.7549
# 4 3.0835 -14.5934 -7.0830 49.3899 -6.8054 5.3830
# 5 -3.8117 -3.6632 -8.1138 -6.8054 49.4755 -0.6502
# 6 -4.6605 -8.7444 -7.7549 5.3830 -0.6502 45.2558
#
#
#
# Elastic Compliance Matrix: (Units=1/GPa)
#
#
# Indices 1 2 3 4 5 6 
#
# 1 0.012088 -0.002243 -0.003391 -0.001962 -0.000055 0.000463
# 2 -0.002243 0.017223 -0.005849 0.004321 0.000758 0.001591
# 3 -0.003391 -0.005849 0.016064 0.000945 0.002086 0.001191
# 4 -0.001962 0.004321 0.000945 0.022448 0.003387 -0.001827
# 5 -0.000055 0.000758 0.002086 0.003387 0.021077 0.000398
# 6 0.000463 0.001591 0.001191 -0.001827 0.000398 0.022879
#
#
# Mechanical properties :
#
#
# Convention : Reuss Voigt Hill
#
# Bulk Modulus (GPa) = 44.62629 47.51298 46.06963
# Shear Modulus (GPa) = 35.15819 40.17566 37.66693
#
# Velocity S-wave (km/s) = 3.94500 4.21711 4.08332
# Velocity P-wave (km/s) = 6.36434 6.68909 6.52873
#
# Compressibility (1/GPa) = 0.02240832
#
# Stress axis : x y z
#
# Youngs Moduli (GPa) = 82.72390 58.06260 62.25253
#
# Poissons Ratio (x) = 0.13024 0.21109
# Poissons Ratio (y) = 0.18556 0.36414
# Poissons Ratio (z) = 0.28050 0.33963
#
# Static dielectric constant tensor:
#      x y z
#    x 1.816550 0.054420 0.024660 
#    y 0.054420 1.855090 0.003410 
#    z 0.024660 0.003410 1.887100 
# 
# From -- ./inp_files/134006.got.cif
#   From: 2010.05.17/outbox.cif.g08.bks.cpg/sg2_68_cif.got.tgz:134006.got - 2010.06.03 11:33:40.
