data_PCOD9036146
_publ_section_title
;
Structure prediction by ZEFSAII (Michael W. Deem and Ramdas Pophale) SiO2 
 PCOD9036146
Probable space group: P -1
;
_chemical_formula_sum "Si O2"
_cell_formula_units_Z 12
_cell_length_a 22.593377
_cell_length_b 11.414191
_cell_length_c 5.126882
_cell_angle_alpha 130.554473
_cell_angle_beta 133.851816
_cell_angle_gamma 28.884352
_cell_volume 456.939704
_symmetry_space_group_name_H-M "P -1"
_symmetry_group_IT_number 2
_symmetry_cell_setting 'triclinic'
loop_
_space_group_symop_operation_xyz
x,y,z
-x,-y,-z
loop_
_atom_site_type_symbol
_atom_site_label
_atom_site_fract_x
_atom_site_fract_y
_atom_site_fract_z
Si Si1 0.118208 0.260393 0.351924
Si Si2 0.698775 0.752789 0.223168
Si Si3 0.335840 0.405137 0.610248
Si Si4 0.713156 0.186285 0.401539
Si Si5 0.891389 0.047899 0.359510
Si Si6 0.470316 0.739268 0.397120
O O1 0.177497 0.317585 0.460381
O O2 0.000000 0.500000 0.500000
O O3 0.230833 0.024279 0.541268
O O4 0.074471 0.175835 0.934303
O O5 0.670943 0.688627 0.293083
O O6 0.580754 0.046526 0.276659
O O7 0.714882 0.627807 0.833104
O O8 0.240060 0.687666 0.776670
O O9 0.467642 0.279769 0.705756
O O10 0.838506 0.106591 0.581470
O O11 0.586960 0.473605 0.501814
O O12 0.649814 0.190182 0.962510
O O13 0.000000 0.000000 0.500000
#
# Coordination Sequence:
#
# PCOD9036146 Si02
#       6
#     2   2   2   2   2   2
#     4  12  28  47  78 106 148 204 254 317 374 453
#     4  12  25  48  73 117 152 198 250 312 379 450
#     4  11  27  45  76 115 154 198 248 311 382 450
#     4  10  24  47  73 111 148 196 250 312 382 446
#     4  11  26  48  73 103 146 203 254 316 372 451
#     4  10  22  47  76 112 155 196 246 307 378 457
#
# _framework density 26.261672000000001
#
# number of rings (size 3 to 8) (size 9 to 14) (size 15 to 20)
#    0.000    1.000    1.667    3.000    7.000    3.333 
#    3.000    0.000    0.000    0.000    0.000    0.000 
#    0.000    0.000    0.000    0.000    0.000    0.000 
#
# Total GULP energy -67195.748657 kJ/mol
# GULP energy per Si atom -5599.645721 kJ/mol
# Density = 2.620190 g / cm^3
# Si number density = 26.261672 Si / 1000 Ang^3
#
#
#
# Elastic Constant Matrix: (Units=GPa)
#
#
# Indices 1 2 3 4 5 6 
#
# 1 182.7938 43.3498 34.7664 -16.8286 32.0063 -19.8992
# 2 43.3498 115.4412 14.8649 28.5860 -5.7052 10.0148
# 3 34.7664 14.8649 79.8454 13.7222 12.9358 4.1735
# 4 -16.8286 28.5860 13.7222 41.9904 0.7811 1.1085
# 5 32.0063 -5.7052 12.9358 0.7811 48.7081 -9.5061
# 6 -19.8992 10.0148 4.1735 1.1085 -9.5061 50.3950
#
#
#
# Elastic Compliance Matrix: (Units=1/GPa)
#
#
# Indices 1 2 3 4 5 6 
#
# 1 0.010113 -0.006312 -0.004222 0.009719 -0.005574 0.004332
# 2 -0.006312 0.014654 0.001717 -0.013041 0.004766 -0.004361
# 3 -0.004222 0.001717 0.015878 -0.007924 -0.001795 -0.003488
# 4 0.009719 -0.013041 -0.007924 0.039141 -0.005422 0.005202
# 5 -0.005574 0.004766 -0.001795 -0.005422 0.025699 0.001968
# 6 0.004332 -0.004361 -0.003488 0.005202 0.001968 0.022966
#
#
# Mechanical properties :
#
#
# Convention : Reuss Voigt Hill
#
# Bulk Modulus (GPa) = 43.45623 62.67140 53.06381
# Shear Modulus (GPa) = 32.51940 47.22530 39.87235
#
# Velocity S-wave (km/s) = 3.52274 4.24519 3.90073
# Velocity P-wave (km/s) = 5.75583 6.92422 6.36689
#
# Compressibility (1/GPa) = 0.02301166
#
# Stress axis : x y z
#
# Youngs Moduli (GPa) = 98.88579 68.23864 62.98084
#
# Poissons Ratio (x) = 0.43070 0.26590
# Poissons Ratio (y) = 0.62413 -0.10813
# Poissons Ratio (z) = 0.41749 -0.11716
#
# Static dielectric constant tensor:
#      x y z
#    x 2.068540 0.016610 -0.016700 
#    y 0.016610 2.043710 -0.042120 
#    z -0.016700 -0.042120 2.125860 
# 
# From -- ./inp_files/24659.got.cif
#   From: 2010.05.17/outbox.cif.g08.bks.cpg/sg2_13_cif.got.tgz:24659.got - 2010.06.03 11:33:40.
