data_PCOD9036455
_publ_section_title
;
Structure prediction by ZEFSAII (Michael W. Deem and Ramdas Pophale) SiO2 
 PCOD9036455
Probable space group: P -1
;
_chemical_formula_sum "Si O2"
_cell_formula_units_Z 16
_cell_length_a 15.903628
_cell_length_b 8.622265
_cell_length_c 14.947012
_cell_angle_alpha 141.136609
_cell_angle_beta 137.183497
_cell_angle_gamma 61.724819
_cell_volume 850.946241
_symmetry_space_group_name_H-M "P -1"
_symmetry_group_IT_number 2
_symmetry_cell_setting 'triclinic'
loop_
_space_group_symop_operation_xyz
x,y,z
-x,-y,-z
loop_
_atom_site_type_symbol
_atom_site_label
_atom_site_fract_x
_atom_site_fract_y
_atom_site_fract_z
Si Si1 0.386049 0.782766 0.351342
Si Si2 0.500575 0.330280 0.239618
Si Si3 0.460437 0.227124 0.799926
Si Si4 0.703280 0.534448 0.347884
Si Si5 0.688425 0.105848 0.009690
Si Si6 0.341337 0.704536 0.490088
Si Si7 0.149430 0.008849 0.222069
Si Si8 0.859030 0.797642 0.899970
O O1 0.413988 0.516920 0.223130
O O2 0.388832 0.758047 0.449910
O O3 0.500000 0.000000 0.500000
O O4 0.254112 0.846142 0.248479
O O5 0.615435 0.354261 0.270723
O O6 0.571147 0.412508 0.426846
O O7 0.407384 0.065676 0.071634
O O8 0.387224 0.292806 0.686035
O O9 0.595183 0.144768 0.872507
O O10 0.360381 0.997908 0.669014
O O11 0.500000 0.500000 0.000000
O O12 0.813109 0.734007 0.574017
O O13 0.741936 0.367484 0.222689
O O14 0.785914 0.947641 0.978305
O O15 0.209097 0.500484 0.289239
O O16 0.154233 0.092286 0.159882
O O17 0.007685 0.854667 0.063549
#
# Coordination Sequence:
#
# PCOD9036455 Si02
#       8
#     2   2   2   2   2   2   2   2
#     4  12  21  34  61  92 117 146 191 255 305 350
#     4  11  21  33  60  93 118 146 195 251 301 355
#     4   9  20  34  56  91 118 148 192 243 302 349
#     4  11  20  39  58  90 117 157 195 248 300 358
#     4  10  23  37  60  85 123 156 193 244 308 358
#     4  11  20  36  61  87 121 154 193 247 302 347
#     4  11  25  39  62  85 118 157 209 247 291 352
#     4  11  24  42  57  87 118 163 204 245 292 351
#
# _framework density 18.802596999999999
#
# number of rings (size 3 to 8) (size 9 to 14) (size 15 to 20)
#    0.000    1.250    5.000    0.750    7.000    1.000 
#    0.000    0.000    0.000    0.000    0.000    6.125 
#    0.000    0.000    0.000    0.000    0.000    0.000 
#
# Total GULP energy -89126.831738 kJ/mol
# GULP energy per Si atom -5570.426984 kJ/mol
# Density = 1.875980 g / cm^3
# Si number density = 18.802597 Si / 1000 Ang^3
#
#
#
# Elastic Constant Matrix: (Units=GPa)
#
#
# Indices 1 2 3 4 5 6 
#
# 1 63.8301 30.8426 55.8903 -0.4314 15.3583 4.7090
# 2 30.8426 70.1197 43.2497 -6.4680 17.2930 2.4474
# 3 55.8903 43.2497 139.4362 5.8655 15.4250 -14.3850
# 4 -0.4314 -6.4680 5.8655 32.5930 2.2724 -0.0662
# 5 15.3583 17.2930 15.4250 2.2724 25.0705 0.7197
# 6 4.7090 2.4474 -14.3850 -0.0662 0.7197 22.6608
#
#
#
# Elastic Compliance Matrix: (Units=1/GPa)
#
#
# Indices 1 2 3 4 5 6 
#
# 1 0.030756 -0.003338 -0.011744 0.002470 -0.009159 -0.013188
# 2 -0.003338 0.022191 -0.005106 0.006003 -0.010532 -0.004592
# 3 -0.011744 -0.005106 0.014708 -0.003907 0.001669 0.012264
# 4 0.002470 0.006003 -0.003907 0.033030 -0.006148 -0.003350
# 5 -0.009159 -0.010532 0.001669 -0.006148 0.052223 0.002424
# 6 -0.013188 -0.004592 0.012264 -0.003350 0.002424 0.055064
#
#
# Mechanical properties :
#
#
# Convention : Reuss Voigt Hill
#
# Bulk Modulus (GPa) = 36.65909 59.26125 47.96017
# Shear Modulus (GPa) = 19.42200 25.62508 22.52354
#
# Velocity S-wave (km/s) = 3.21743 3.69568 3.46482
# Velocity P-wave (km/s) = 5.77422 7.05668 6.44742
#
# Compressibility (1/GPa) = 0.02727837
#
# Stress axis : x y z
#
# Youngs Moduli (GPa) = 32.51441 45.06422 67.99137
#
# Poissons Ratio (x) = 0.15041 0.79847
# Poissons Ratio (y) = 0.10852 0.34719
# Poissons Ratio (z) = 0.38184 0.23011
#
# Static dielectric constant tensor:
#      x y z
#    x 1.670900 0.001200 -0.054580 
#    y 0.001200 1.685220 0.029270 
#    z -0.054580 0.029270 1.710860 
# 
# From -- ./inp_files/304804.got.cif
#   From: 2010.05.17/outbox.cif.g08.bks.cpg/sg2_153_cif.got.tgz:304804.got - 2010.06.03 11:33:40.
