data_PCOD9036472
_publ_section_title
;
Structure prediction by ZEFSAII (Michael W. Deem and Ramdas Pophale) SiO2 
 PCOD9036472
Probable space group: P -1
;
_chemical_formula_sum "Si O2"
_cell_formula_units_Z 16
_cell_length_a 24.162702
_cell_length_b 17.679677
_cell_length_c 6.278776
_cell_angle_alpha 76.736316
_cell_angle_beta 114.325222
_cell_angle_gamma 160.463770
_cell_volume 697.604056
_symmetry_space_group_name_H-M "P -1"
_symmetry_group_IT_number 2
_symmetry_cell_setting 'triclinic'
loop_
_space_group_symop_operation_xyz
x,y,z
-x,-y,-z
loop_
_atom_site_type_symbol
_atom_site_label
_atom_site_fract_x
_atom_site_fract_y
_atom_site_fract_z
Si Si1 0.882797 0.407656 0.700881
Si Si2 0.952400 0.066145 0.431245
Si Si3 0.360705 0.238007 0.559826
Si Si4 0.746321 0.332254 0.905031
Si Si5 0.398801 0.989386 0.826523
Si Si6 0.867314 0.096650 0.973152
Si Si7 0.165019 0.203119 0.939317
Si Si8 0.276267 0.982474 0.845281
O O1 0.730550 0.278800 0.673212
O O2 0.777492 0.219246 0.496708
O O3 0.049502 0.666165 0.685302
O O4 0.000000 0.500000 0.000000
O O5 0.758300 0.847027 0.421638
O O6 0.891870 0.929168 0.245876
O O7 0.133999 0.249101 0.742461
O O8 0.986290 0.188189 0.276967
O O9 0.261869 0.117321 0.247493
O O10 0.299301 0.077888 0.651231
O O11 0.607686 0.539670 0.778123
O O12 0.595199 0.209725 0.851716
O O13 0.689967 0.189531 0.055562
O O14 0.968915 0.646826 0.048315
O O15 0.427270 0.097312 0.952817
O O16 0.709887 0.959341 0.942129
O O17 0.000000 0.000000 0.000000
#
# Coordination Sequence:
#
# PCOD9036472 Si02
#       8
#     2   2   2   2   2   2   2   2
#     4  11  21  37  60  86 122 168 222 265 315 380
#     4  10  24  46  69 100 137 168 222 268 331 398
#     4  11  24  44  69  98 137 177 219 268 341 391
#     4  10  23  40  60  90 128 168 217 276 330 376
#     4  11  22  38  61  91 124 172 223 274 325 381
#     4  10  23  43  66  97 132 176 215 275 329 395
#     4  11  25  45  73 103 132 175 214 272 331 409
#     4  10  23  37  61  94 125 173 221 269 320 392
#
# _framework density 22.935645000000001
#
# number of rings (size 3 to 8) (size 9 to 14) (size 15 to 20)
#    0.000    1.500    1.250    2.625    3.500    8.000 
#    2.250    1.250    0.000    0.000    0.000    0.000 
#    0.000    0.000    0.000    0.000    0.000    0.000 
#
# Total GULP energy -89351.767377 kJ/mol
# GULP energy per Si atom -5584.485461 kJ/mol
# Density = 2.288344 g / cm^3
# Si number density = 22.935645 Si / 1000 Ang^3
#
#
#
# Elastic Constant Matrix: (Units=GPa)
#
#
# Indices 1 2 3 4 5 6 
#
# 1 152.0895 43.4944 19.8090 -5.8479 -19.4237 27.0364
# 2 43.4944 78.5424 18.8552 -10.7295 -5.5638 7.3921
# 3 19.8090 18.8552 45.8590 -6.6508 -18.0423 2.1051
# 4 -5.8479 -10.7295 -6.6508 19.5142 -0.6244 0.6593
# 5 -19.4237 -5.5638 -18.0423 -0.6244 30.9184 -11.7844
# 6 27.0364 7.3921 2.1051 0.6593 -11.7844 40.2243
#
#
#
# Elastic Compliance Matrix: (Units=1/GPa)
#
#
# Indices 1 2 3 4 5 6 
#
# 1 0.009025 -0.004123 -0.000872 0.000379 0.002722 -0.004471
# 2 -0.004123 0.017064 -0.005455 0.006228 -0.002979 -0.001054
# 3 -0.000872 -0.005455 0.033388 0.008577 0.020278 0.005641
# 4 0.000379 0.006228 0.008577 0.057961 0.007281 -0.000665
# 5 0.002722 -0.002979 0.020278 0.007281 0.050160 0.012232
# 6 -0.004471 -0.001054 0.005641 -0.000665 0.012232 0.031359
#
#
# Mechanical properties :
#
#
# Convention : Reuss Voigt Hill
#
# Bulk Modulus (GPa) = 25.92262 48.97868 37.45065
# Shear Modulus (GPa) = 21.48549 31.08688 26.28619
#
# Velocity S-wave (km/s) = 3.06400 3.68556 3.38906
# Velocity P-wave (km/s) = 4.88306 6.28589 5.62835
#
# Compressibility (1/GPa) = 0.03857635
#
# Stress axis : x y z
#
# Youngs Moduli (GPa) = 110.80600 58.60407 29.95062
#
# Poissons Ratio (x) = 0.24162 0.02612
# Poissons Ratio (y) = 0.45685 0.16339
# Poissons Ratio (z) = 0.09662 0.31970
#
# Static dielectric constant tensor:
#      x y z
#    x 1.902890 0.010450 0.032270 
#    y 0.010450 1.840970 -0.003580 
#    z 0.032270 -0.003580 1.892020 
# 
# From -- ./inp_files/124738.got.cif
#   From: 2010.05.17/outbox.cif.g08.bks.cpg/sg2_63_cif.got.tgz:124738.got - 2010.06.03 11:33:40.
