data_PCOD9036433
_publ_section_title
;
Structure prediction by ZEFSAII (Michael W. Deem and Ramdas Pophale) SiO2 
 PCOD9036433
Probable space group: P -1
;
_chemical_formula_sum "Si O2"
_cell_formula_units_Z 16
_cell_length_a 10.617414
_cell_length_b 14.335738
_cell_length_c 7.733538
_cell_angle_alpha 136.753572
_cell_angle_beta 86.554745
_cell_angle_gamma 107.334288
_cell_volume 747.362589
_symmetry_space_group_name_H-M "P -1"
_symmetry_group_IT_number 2
_symmetry_cell_setting 'triclinic'
loop_
_space_group_symop_operation_xyz
x,y,z
-x,-y,-z
loop_
_atom_site_type_symbol
_atom_site_label
_atom_site_fract_x
_atom_site_fract_y
_atom_site_fract_z
Si Si1 0.325998 0.368192 0.450649
Si Si2 0.086731 0.996785 0.654445
Si Si3 0.830928 0.926316 0.791597
Si Si4 0.663300 0.860877 0.367072
Si Si5 0.729905 0.158473 0.626020
Si Si6 0.652811 0.105636 0.171843
Si Si7 0.372234 0.602803 0.062509
Si Si8 0.625117 0.399164 0.527027
O O1 0.204991 0.214990 0.276739
O O2 0.467044 0.339587 0.399943
O O3 0.311765 0.460417 0.411098
O O4 0.344442 0.467717 0.755490
O O5 0.987363 0.990708 0.809198
O O6 0.124621 0.852406 0.437395
O O7 0.000000 0.000000 0.500000
O O8 0.234778 0.123944 0.782617
O O9 0.742322 0.860902 0.536266
O O10 0.765416 0.039555 0.020951
O O11 0.523262 0.725554 0.185930
O O12 0.655973 0.023927 0.580479
O O13 0.654763 0.120063 0.397535
O O14 0.727226 0.315066 0.878888
O O15 0.678775 0.267538 0.315526
O O16 0.500000 0.000000 0.000000
O O17 0.361456 0.567586 0.221914
#
# Coordination Sequence:
#
# PCOD9036433 Si02
#       8
#     2   2   2   2   2   2   2   2
#     4  11  23  36  58  86 126 161 185 242 315 358
#     4   8  19  36  57  84 119 150 207 247 278 358
#     4  11  20  38  59  86 121 156 196 243 301 351
#     4   9  19  35  58  88 113 149 198 249 293 348
#     4   9  21  35  58  92 112 152 199 247 301 342
#     4  11  21  36  59  86 121 151 196 257 295 351
#     4  11  20  37  61  86 124 153 194 247 310 360
#     4  10  23  37  52  91 119 151 199 241 299 361
#
# _framework density 21.408617
#
# number of rings (size 3 to 8) (size 9 to 14) (size 15 to 20)
#    0.750    1.250    2.500    1.500    3.500    0.500 
#    0.000    0.625    0.000    3.000    0.000    0.000 
#    0.000    0.000    0.000    0.000    0.000    0.000 
#
# Total GULP energy -89285.304890 kJ/mol
# GULP energy per Si atom -5580.331556 kJ/mol
# Density = 2.135989 g / cm^3
# Si number density = 21.408617 Si / 1000 Ang^3
#
#
#
# Elastic Constant Matrix: (Units=GPa)
#
#
# Indices 1 2 3 4 5 6 
#
# 1 84.5695 37.6672 36.1776 16.7151 -26.3152 3.9216
# 2 37.6672 168.8033 49.1402 14.1261 -11.2083 1.1296
# 3 36.1776 49.1402 77.0278 15.8334 -21.7327 9.9574
# 4 16.7151 14.1261 15.8334 24.1193 -6.8150 -9.2721
# 5 -26.3152 -11.2083 -21.7327 -6.8150 27.2460 -7.9890
# 6 3.9216 1.1296 9.9574 -9.2721 -7.9890 33.0076
#
#
#
# Elastic Compliance Matrix: (Units=1/GPa)
#
#
# Indices 1 2 3 4 5 6 
#
# 1 0.019644 -0.002168 -0.002395 -0.006610 0.014556 0.000129
# 2 -0.002168 0.007590 -0.004522 -0.000438 -0.002502 0.000633
# 3 -0.002395 -0.004522 0.022727 -0.010820 0.009123 -0.007248
# 4 -0.006610 -0.000438 -0.010820 0.065078 0.008218 0.024334
# 5 0.014556 -0.002502 0.009123 0.008218 0.062918 0.013141
# 6 0.000129 0.000633 -0.007248 0.024334 0.013141 0.042462
#
#
# Mechanical properties :
#
#
# Convention : Reuss Voigt Hill
#
# Bulk Modulus (GPa) = 31.45329 64.04119 47.74724
# Shear Modulus (GPa) = 20.06541 30.70229 25.38385
#
# Velocity S-wave (km/s) = 3.06479 3.79107 3.44711
# Velocity P-wave (km/s) = 5.21993 7.01011 6.18018
#
# Compressibility (1/GPa) = 0.03179317
#
# Stress axis : x y z
#
# Youngs Moduli (GPa) = 50.90575 131.74474 44.00068
#
# Poissons Ratio (x) = 0.28557 0.10537
# Poissons Ratio (y) = 0.11034 0.19897
# Poissons Ratio (z) = 0.12190 0.59574
#
# Static dielectric constant tensor:
#      x y z
#    x 1.550230 -0.088150 0.109860 
#    y -0.088150 1.795250 0.021530 
#    z 0.109860 0.021530 1.693970 
# 
# From -- ./inp_files/271200.got.cif
#   From: 2010.05.17/outbox.cif.g08.bks.cpg/sg2_136_cif.got.tgz:271200.got - 2010.06.03 11:33:40.
