data_PCOD9036527
_publ_section_title
;
Structure prediction by ZEFSAII (Michael W. Deem and Ramdas Pophale) SiO2 
 PCOD9036527
Probable space group: P -1
;
_chemical_formula_sum "Si O2"
_cell_formula_units_Z 12
_cell_length_a 8.586962
_cell_length_b 4.905246
_cell_length_c 16.854263
_cell_angle_alpha 98.608080
_cell_angle_beta 141.662531
_cell_angle_gamma 77.749368
_cell_volume 430.166453
_symmetry_space_group_name_H-M "P -1"
_symmetry_group_IT_number 2
_symmetry_cell_setting 'triclinic'
loop_
_space_group_symop_operation_xyz
x,y,z
-x,-y,-z
loop_
_atom_site_type_symbol
_atom_site_label
_atom_site_fract_x
_atom_site_fract_y
_atom_site_fract_z
Si Si1 0.229658 0.603748 0.022097
Si Si2 0.032526 0.063221 0.856874
Si Si3 0.461602 0.585402 0.722622
Si Si4 0.252457 0.718094 0.391126
Si Si5 0.745357 0.945802 0.441997
Si Si6 0.771806 0.408085 0.209221
O O1 0.170231 0.322348 0.945649
O O2 0.281344 0.550734 0.134584
O O3 0.513784 0.629398 0.105463
O O4 0.036789 0.866876 0.927009
O O5 0.785714 0.186732 0.711410
O O6 0.182991 0.843548 0.845006
O O7 0.473263 0.827568 0.675810
O O8 0.287634 0.705945 0.733003
O O9 0.313472 0.357236 0.614566
O O10 0.500000 0.500000 0.500000
O O11 0.248582 0.977666 0.460081
O O12 0.010366 0.568882 0.308051
O O13 0.000000 0.000000 0.500000
#
# Coordination Sequence:
#
# PCOD9036527 Si02
#       6
#     2   2   2   2   2   2
#     4  10  23  37  71 104 133 158 231 291 346 374
#     4  12  22  41  65 101 140 170 215 291 341 387
#     4  10  24  37  69 102 125 168 216 292 335 375
#     4  12  29  44  66 100 144 188 219 262 339 414
#     4  12  22  44  66  95 136 175 229 272 324 399
#     4  10  23  39  67 107 132 169 224 283 341 384
#
# _framework density 27.896179
#
# number of rings (size 3 to 8) (size 9 to 14) (size 15 to 20)
#    1.000    0.000    3.333    3.500    4.667    0.667 
#    0.000    0.000    0.000    6.000    0.000    0.000 
#    0.000    0.000    0.000    0.000    0.000    0.000 
#
# Total GULP energy -67363.663299 kJ/mol
# GULP energy per Si atom -5613.638608 kJ/mol
# Density = 2.783269 g / cm^3
# Si number density = 27.896179 Si / 1000 Ang^3
#
#
#
# Elastic Constant Matrix: (Units=GPa)
#
#
# Indices 1 2 3 4 5 6 
#
# 1 101.7937 18.8638 53.9899 -1.0309 -6.3093 1.5697
# 2 18.8638 130.4832 72.8805 -7.7982 -5.7244 19.3429
# 3 53.9899 72.8805 202.9201 -13.0192 -18.6098 6.4498
# 4 -1.0309 -7.7982 -13.0192 76.2093 -3.9947 -11.9257
# 5 -6.3093 -5.7244 -18.6098 -3.9947 56.7558 -9.6298
# 6 1.5697 19.3429 6.4498 -11.9257 -9.6298 50.0277
#
#
#
# Elastic Compliance Matrix: (Units=1/GPa)
#
#
# Indices 1 2 3 4 5 6 
#
# 1 0.011452 0.000048 -0.003064 -0.000354 0.000245 -0.000020
# 2 0.000048 0.010188 -0.003641 -0.000195 -0.000798 -0.003671
# 3 -0.003064 -0.003641 0.007264 0.001119 0.001958 0.001211
# 4 -0.000354 -0.000195 0.001119 0.013957 0.001907 0.003637
# 5 0.000245 -0.000798 0.001958 0.001907 0.019050 0.004170
# 6 -0.000020 -0.003671 0.001211 0.003637 0.004170 0.022922
#
#
# Mechanical properties :
#
#
# Convention : Reuss Voigt Hill
#
# Bulk Modulus (GPa) = 64.14108 80.74060 72.44084
# Shear Modulus (GPa) = 48.38250 55.89607 52.13929
#
# Velocity S-wave (km/s) = 4.16910 4.48115 4.32794
# Velocity P-wave (km/s) = 6.79838 7.46862 7.14137
#
# Compressibility (1/GPa) = 0.01559063
#
# Stress axis : x y z
#
# Youngs Moduli (GPa) = 87.32267 98.15421 137.66883
#
# Poissons Ratio (x) = -0.00474 0.42180
# Poissons Ratio (y) = -0.00422 0.50125
# Poissons Ratio (z) = 0.26755 0.35738
#
# Static dielectric constant tensor:
#      x y z
#    x 2.211160 -0.046710 0.006460 
#    y -0.046710 2.131230 -0.135380 
#    z 0.006460 -0.135380 2.227120 
# 
# From -- ./inp_files/592848.got.cif
#   From: 2010.05.17/outbox.cif.g08.bks.cpg/sg2_297_cif.got.tgz:592848.got - 2010.06.03 11:33:40.
