data_PCOD9036143
_publ_section_title
;
Structure prediction by ZEFSAII (Michael W. Deem and Ramdas Pophale) SiO2 
 PCOD9036143
Probable space group: P -1
;
_chemical_formula_sum "Si O2"
_cell_formula_units_Z 16
_cell_length_a 11.494311
_cell_length_b 9.531802
_cell_length_c 12.637094
_cell_angle_alpha 97.080214
_cell_angle_beta 86.974348
_cell_angle_gamma 28.531029
_cell_volume 617.206729
_symmetry_space_group_name_H-M "P -1"
_symmetry_group_IT_number 2
_symmetry_cell_setting 'triclinic'
loop_
_space_group_symop_operation_xyz
x,y,z
-x,-y,-z
loop_
_atom_site_type_symbol
_atom_site_label
_atom_site_fract_x
_atom_site_fract_y
_atom_site_fract_z
Si Si1 0.656564 0.785942 0.367187
Si Si2 0.209513 0.875164 0.535057
Si Si3 0.029625 0.713812 0.027909
Si Si4 0.142682 0.209622 0.411569
Si Si5 0.577743 0.089899 0.229145
Si Si6 0.283428 0.836581 0.092350
Si Si7 0.481261 0.942380 0.107499
Si Si8 0.830782 0.276559 0.768526
O O1 0.924847 0.419757 0.351003
O O2 0.500000 0.000000 0.500000
O O3 0.438062 0.923637 0.335509
O O4 0.693608 0.889576 0.308054
O O5 0.500000 0.500000 0.500000
O O6 0.182980 0.044262 0.481044
O O7 0.000000 0.000000 0.500000
O O8 0.096233 0.017585 0.671620
O O9 0.171991 0.634226 0.112408
O O10 0.793647 0.890624 0.112909
O O11 0.214320 0.415148 0.921435
O O12 0.931923 0.928603 0.965933
O O13 0.000000 0.500000 0.500000
O O14 0.396174 0.423265 0.269715
O O15 0.383091 0.175882 0.206430
O O16 0.358392 0.920575 0.108331
O O17 0.207178 0.843574 0.205675
O O18 0.500000 0.500000 0.000000
O O19 0.500000 0.000000 0.000000
#
# Coordination Sequence:
#
# PCOD9036143 Si02
#       8
#     2   2   2   2   2   2   2   2
#     4  10  23  41  71 110 146 187 254 316 372 446
#     4  12  30  54  80 114 162 202 266 333 392 468
#     4  12  24  43  77 101 154 192 252 305 391 457
#     4  10  22  47  76 104 148 190 248 319 380 445
#     4  12  26  43  78 111 145 203 256 315 394 461
#     4  12  24  47  70 109 154 196 251 310 377 472
#     4  12  24  46  67 113 153 188 249 324 373 455
#     4  12  27  47  80 106 145 211 255 306 403 469
#
# _framework density 25.923242999999999
#
# number of rings (size 3 to 8) (size 9 to 14) (size 15 to 20)
#    0.000    0.500    5.000    3.000    7.000    1.000 
#    4.500    0.000    0.000    0.000    0.000    0.000 
#    0.000    0.000    0.000    0.000    0.000    0.000 
#
# Total GULP energy -89446.838308 kJ/mol
# GULP energy per Si atom -5590.427394 kJ/mol
# Density = 2.586424 g / cm^3
# Si number density = 25.923243 Si / 1000 Ang^3
#
#
#
# Elastic Constant Matrix: (Units=GPa)
#
#
# Indices 1 2 3 4 5 6 
#
# 1 139.6320 56.9154 23.9348 -11.0334 -28.3160 13.5467
# 2 56.9154 240.1383 59.0185 -21.7821 -33.9013 7.9471
# 3 23.9348 59.0185 105.3770 -14.1059 -35.1821 14.6194
# 4 -11.0334 -21.7821 -14.1059 46.4735 7.1384 -17.2872
# 5 -28.3160 -33.9013 -35.1821 7.1384 55.4735 -12.7370
# 6 13.5467 7.9471 14.6194 -17.2872 -12.7370 52.5203
#
#
#
# Elastic Compliance Matrix: (Units=1/GPa)
#
#
# Indices 1 2 3 4 5 6 
#
# 1 0.008556 -0.001544 0.000222 0.000469 0.003253 -0.001092
# 2 -0.001544 0.005343 -0.002189 0.001683 0.001107 0.001022
# 3 0.000222 -0.002189 0.013292 0.001552 0.006710 -0.001288
# 4 0.000469 0.001683 0.001552 0.025686 0.000744 0.007828
# 5 0.003253 0.001107 0.006710 0.000744 0.025330 0.003514
# 6 -0.001092 0.001022 -0.001288 0.007828 0.003514 0.022954
#
#
# Mechanical properties :
#
#
# Convention : Reuss Voigt Hill
#
# Bulk Modulus (GPa) = 49.58123 84.98720 67.28422
# Shear Modulus (GPa) = 43.51332 53.91203 48.71268
#
# Velocity S-wave (km/s) = 4.10145 4.56530 4.33958
# Velocity P-wave (km/s) = 6.44956 7.78746 7.14988
#
# Compressibility (1/GPa) = 0.02016892
#
# Stress axis : x y z
#
# Youngs Moduli (GPa) = 116.87917 187.14684 75.23416
#
# Poissons Ratio (x) = 0.28904 -0.01671
# Poissons Ratio (y) = 0.18052 0.16466
# Poissons Ratio (z) = -0.02595 0.40960
#
# Static dielectric constant tensor:
#      x y z
#    x 2.363570 -0.179180 0.257420 
#    y -0.179180 -0.064220 0.010140 
#    z 0.257420 0.010140 2.284650 
# 
# From -- ./inp_files/515527.got.cif
#   From: 2010.05.17/outbox.cif.g08.bks.cpg/sg2_258_cif.got.tgz:515527.got - 2010.06.03 11:33:40.
