data_PCOD9036919
_publ_section_title
;
Structure prediction by ZEFSAII (Michael W. Deem and Ramdas Pophale) SiO2 
 PCOD9036919
Probable space group: P -1
;
_chemical_formula_sum "Si O2"
_cell_formula_units_Z 14
_cell_length_a 7.284269
_cell_length_b 12.090761
_cell_length_c 8.307154
_cell_angle_alpha 131.066464
_cell_angle_beta 76.713133
_cell_angle_gamma 105.423015
_cell_volume 530.215816
_symmetry_space_group_name_H-M "P -1"
_symmetry_group_IT_number 2
_symmetry_cell_setting 'triclinic'
loop_
_space_group_symop_operation_xyz
x,y,z
-x,-y,-z
loop_
_atom_site_type_symbol
_atom_site_label
_atom_site_fract_x
_atom_site_fract_y
_atom_site_fract_z
Si Si1 0.639182 0.226146 0.761128
Si Si2 0.944013 0.107514 0.786292
Si Si3 0.629340 0.372561 0.342584
Si Si4 0.728209 0.782645 0.584913
Si Si5 0.691264 0.991411 0.284071
Si Si6 0.934082 0.228426 0.254872
Si Si7 0.783507 0.505748 0.105689
O O1 0.844107 0.193079 0.753195
O O2 0.473243 0.147900 0.838683
O O3 0.603988 0.126216 0.513344
O O4 0.655749 0.401308 0.901671
O O5 0.153166 0.064085 0.681702
O O6 0.803104 0.953220 0.694825
O O7 0.972437 0.201199 0.035074
O O8 0.500000 0.500000 0.500000
O O9 0.472944 0.234042 0.297517
O O10 0.804564 0.358041 0.411339
O O11 0.722216 0.403713 0.178594
O O12 0.736980 0.666558 0.323508
O O13 0.883135 0.737385 0.637463
O O14 0.813880 0.071727 0.190543
O O15 0.000000 0.500000 0.000000
#
# Coordination Sequence:
#
# PCOD9036919 Si02
#       7
#     2   2   2   2   2   2   2
#     4  11  23  42  65  93 133 174 213 263 324 387
#     4  11  22  39  70  97 128 167 218 266 320 384
#     4  10  23  41  64  95 128 172 214 268 321 387
#     4  10  23  41  67  98 134 167 215 270 324 386
#     4  10  23  39  65  99 132 164 215 269 322 385
#     4  11  22  40  69  99 126 168 218 272 320 383
#     4  11  23  41  63  90 131 175 209 264 326 383
#
# _framework density 26.404343999999998
#
# number of rings (size 3 to 8) (size 9 to 14) (size 15 to 20)
#    0.000    1.429    1.429    4.714    4.000    3.429 
#    0.000    1.429    0.000   18.857    0.000    0.000 
#    0.000    0.000    0.000    0.000    0.000    0.000 
#
# Total GULP energy -78253.855625 kJ/mol
# GULP energy per Si atom -5589.561116 kJ/mol
# Density = 2.634425 g / cm^3
# Si number density = 26.404344 Si / 1000 Ang^3
#
#
#
# Elastic Constant Matrix: (Units=GPa)
#
#
# Indices 1 2 3 4 5 6 
#
# 1 123.9012 37.3296 9.1609 6.5151 -11.4722 6.8365
# 2 37.3296 71.6104 20.3212 12.8533 -4.1558 15.0280
# 3 9.1609 20.3212 121.1815 9.1156 -5.4493 18.0699
# 4 6.5151 12.8533 9.1156 48.8547 11.5330 -2.5492
# 5 -11.4722 -4.1558 -5.4493 11.5330 37.0158 4.9780
# 6 6.8365 15.0280 18.0699 -2.5492 4.9780 50.4548
#
#
#
# Elastic Compliance Matrix: (Units=1/GPa)
#
#
# Indices 1 2 3 4 5 6 
#
# 1 0.009827 -0.004837 0.000302 -0.000779 0.002832 -0.000318
# 2 -0.004837 0.019012 -0.001598 -0.004930 0.002601 -0.004941
# 3 0.000302 -0.001598 0.009237 -0.002065 0.002349 -0.003209
# 4 -0.000779 -0.004930 -0.002065 0.024709 -0.009401 0.004490
# 5 0.002832 0.002601 0.002349 -0.009401 0.032221 -0.005654
# 6 -0.000318 -0.004941 -0.003209 0.004490 -0.005654 0.023268
#
#
# Mechanical properties :
#
#
# Convention : Reuss Voigt Hill
#
# Bulk Modulus (GPa) = 38.74673 50.03518 44.39095
# Shear Modulus (GPa) = 35.93406 43.92383 39.92895
#
# Velocity S-wave (km/s) = 3.69306 4.08304 3.89293
# Velocity P-wave (km/s) = 5.73508 6.42020 6.08729
#
# Compressibility (1/GPa) = 0.02580863
#
# Stress axis : x y z
#
# Youngs Moduli (GPa) = 101.76236 52.59758 108.26343
#
# Poissons Ratio (x) = 0.25443 -0.03266
# Poissons Ratio (y) = 0.49225 0.17300
# Poissons Ratio (z) = -0.03070 0.08405
#
# Static dielectric constant tensor:
#      x y z
#    x 2.034910 0.017840 -0.023060 
#    y 0.017840 2.097280 -0.021630 
#    z -0.023060 -0.021630 2.282100 
# 
# From -- ./inp_files/183069.got.cif
#   From: 2010.05.17/outbox.cif.g08.bks.cpg/sg2_92_cif.got.tgz:183069.got - 2010.06.03 11:33:40.
