data_PCOD9036651
_publ_section_title
;
Structure prediction by ZEFSAII (Michael W. Deem and Ramdas Pophale) SiO2 
 PCOD9036651
Probable space group: P -1
;
_chemical_formula_sum "Si O2"
_cell_formula_units_Z 16
_cell_length_a 8.684630
_cell_length_b 13.408624
_cell_length_c 12.545180
_cell_angle_alpha 61.821510
_cell_angle_beta 128.160330
_cell_angle_gamma 75.838394
_cell_volume 641.169204
_symmetry_space_group_name_H-M "P -1"
_symmetry_group_IT_number 2
_symmetry_cell_setting 'triclinic'
loop_
_space_group_symop_operation_xyz
x,y,z
-x,-y,-z
loop_
_atom_site_type_symbol
_atom_site_label
_atom_site_fract_x
_atom_site_fract_y
_atom_site_fract_z
Si Si1 0.921195 0.924819 0.678040
Si Si2 0.297686 0.687233 0.764754
Si Si3 0.196003 0.621054 0.422661
Si Si4 0.782196 0.990787 0.938268
Si Si5 0.243343 0.164786 0.182844
Si Si6 0.122543 0.488013 0.281045
Si Si7 0.566379 0.277869 0.407619
Si Si8 0.083059 0.324629 0.511028
O O1 0.981344 0.789980 0.846973
O O2 0.146367 0.827714 0.723341
O O3 0.567960 0.060328 0.421349
O O4 0.879538 0.062869 0.651025
O O5 0.486825 0.671473 0.764539
O O6 0.023919 0.747208 0.550351
O O7 0.500000 0.500000 0.000000
O O8 0.306516 0.486574 0.445568
O O9 0.419016 0.606368 0.587946
O O10 0.053144 0.610937 0.461845
O O11 0.951963 0.818617 0.167515
O O12 0.452032 0.172287 0.752822
O O13 0.701777 0.963482 0.808067
O O14 0.000000 0.000000 0.000000
O O15 0.095008 0.331121 0.968154
O O16 0.315822 0.334751 0.350647
O O17 0.964684 0.470276 0.302346
#
# Coordination Sequence:
#
# PCOD9036651 Si02
#       8
#     2   2   2   2   2   2   2   2
#     4  11  22  43  65  96 139 170 233 273 335 396
#     4  11  25  44  66  99 140 176 221 278 338 402
#     4  10  23  42  64  99 136 178 224 283 334 399
#     4  11  21  41  69 100 131 178 229 274 341 400
#     4  10  23  38  65  99 129 180 218 285 328 397
#     4  11  23  41  66  95 136 174 233 270 346 393
#     4  11  24  41  68  99 130 185 223 280 333 402
#     4  11  23  42  66  98 136 177 223 281 342 396
#
# _framework density 24.954412000000001
#
# number of rings (size 3 to 8) (size 9 to 14) (size 15 to 20)
#    0.000    1.250    1.250    4.500    3.500    1.500 
#    0.000    3.750    0.000    0.000    0.000    0.000 
#    0.000    0.000    0.000    0.000    0.000    0.000 
#
# Total GULP energy -89488.826412 kJ/mol
# GULP energy per Si atom -5593.051651 kJ/mol
# Density = 2.489761 g / cm^3
# Si number density = 24.954412 Si / 1000 Ang^3
#
#
#
# Elastic Constant Matrix: (Units=GPa)
#
#
# Indices 1 2 3 4 5 6 
#
# 1 142.8395 60.0467 40.7258 2.4376 -41.1183 -25.1799
# 2 60.0467 124.1390 3.0147 -7.2395 -5.6643 -27.2139
# 3 40.7258 3.0147 77.1408 -16.4077 -29.7958 -7.6780
# 4 2.4376 -7.2395 -16.4077 30.6840 7.3861 0.9024
# 5 -41.1183 -5.6643 -29.7958 7.3861 55.0637 8.8784
# 6 -25.1799 -27.2139 -7.6780 0.9024 8.8784 59.0415
#
#
#
# Elastic Compliance Matrix: (Units=1/GPa)
#
#
# Indices 1 2 3 4 5 6 
#
# 1 0.013715 -0.006327 -0.005603 -0.007384 0.007354 0.001211
# 2 -0.006327 0.012029 0.003261 0.005718 -0.003078 0.003646
# 3 -0.005603 0.003261 0.020301 0.010705 0.005579 0.000751
# 4 -0.007384 0.005718 0.010705 0.041387 -0.004842 0.000974
# 5 0.007354 -0.003078 0.005579 -0.004842 0.027259 -0.001582
# 6 0.001211 0.003646 0.000751 0.000974 -0.001582 0.019455
#
#
# Mechanical properties :
#
#
# Convention : Reuss Voigt Hill
#
# Bulk Modulus (GPa) = 34.83736 61.29928 48.06832
# Shear Modulus (GPa) = 31.04574 44.97998 38.01286
#
# Velocity S-wave (km/s) = 3.53100 4.25018 3.90717
# Velocity P-wave (km/s) = 5.53305 6.97876 6.29753
#
# Compressibility (1/GPa) = 0.02870482
#
# Stress axis : x y z
#
# Youngs Moduli (GPa) = 72.91510 83.13187 49.25984
#
# Poissons Ratio (x) = 0.52601 0.27600
# Poissons Ratio (y) = 0.46136 -0.16061
# Poissons Ratio (z) = 0.40853 -0.27106
#
# Static dielectric constant tensor:
#      x y z
#    x 2.082420 0.044430 0.018480 
#    y 0.044430 1.990470 0.033390 
#    z 0.018480 0.033390 1.968270 
# 
# From -- ./inp_files/398815.got.cif
#   From: 2010.05.17/outbox.cif.g08.bks.cpg/sg2_200_cif.got.tgz:398815.got - 2010.06.03 11:33:40.
