data_PCOD9036174
_publ_section_title
;
Structure prediction by ZEFSAII (Michael W. Deem and Ramdas Pophale) SiO2 
 PCOD9036174
Probable space group: P -1
;
_chemical_formula_sum "Si O2"
_cell_formula_units_Z 12
_cell_length_a 9.394702
_cell_length_b 8.735166
_cell_length_c 5.635631
_cell_angle_alpha 76.242392
_cell_angle_beta 97.171762
_cell_angle_gamma 104.042572
_cell_volume 434.683433
_symmetry_space_group_name_H-M "P -1"
_symmetry_group_IT_number 2
_symmetry_cell_setting 'triclinic'
loop_
_space_group_symop_operation_xyz
x,y,z
-x,-y,-z
loop_
_atom_site_type_symbol
_atom_site_label
_atom_site_fract_x
_atom_site_fract_y
_atom_site_fract_z
Si Si1 0.436890 0.364728 0.234702
Si Si2 0.576483 0.982707 0.776954
Si Si3 0.825889 0.758051 0.428445
Si Si4 0.127273 0.874193 0.737911
Si Si5 0.729052 0.302097 0.508788
Si Si6 0.002129 0.369384 0.842010
O O1 0.394085 0.193915 0.153722
O O2 0.291732 0.346469 0.376449
O O3 0.423106 0.640693 0.562939
O O4 0.500000 0.500000 0.000000
O O5 0.500000 0.000000 0.500000
O O6 0.703839 0.140051 0.721745
O O7 0.500000 0.000000 0.000000
O O8 0.991914 0.822014 0.542236
O O9 0.793230 0.936986 0.313013
O O10 0.846825 0.648648 0.246431
O O11 0.236907 0.760576 0.722274
O O12 0.046284 0.806495 0.983707
O O13 0.877563 0.399504 0.623398
O O14 0.000000 0.500000 0.000000
#
# Coordination Sequence:
#
# PCOD9036174 Si02
#       6
#     2   2   2   2   2   2
#     4  11  25  51  81 123 167 209 268 357 429 485
#     4  10  23  47  79 117 161 223 275 333 420 525
#     4  10  23  48  76 119 156 206 280 339 410 508
#     4  10  22  47  81 109 152 213 273 335 415 496
#     4  10  24  46  82 116 158 216 283 328 423 518
#     4  11  26  48  80 114 160 216 272 346 425 499
#
# _framework density 27.606293999999998
#
# number of rings (size 3 to 8) (size 9 to 14) (size 15 to 20)
#    0.000    1.667    1.667    0.500    4.667    4.000 
#    9.000    6.667    3.667    0.000    0.000    0.000 
#    0.000    0.000    0.000    0.000    0.000    0.000 
#
# Total GULP energy -67114.669623 kJ/mol
# GULP energy per Si atom -5592.889135 kJ/mol
# Density = 2.754346 g / cm^3
# Si number density = 27.606294 Si / 1000 Ang^3
#
#
#
# Elastic Constant Matrix: (Units=GPa)
#
#
# Indices 1 2 3 4 5 6 
#
# 1 127.0626 53.8519 54.7512 23.6782 -24.8683 4.3506
# 2 53.8519 154.8295 76.6480 -10.5147 -17.4006 3.1446
# 3 54.7512 76.6480 163.8396 2.4740 -52.9104 0.9354
# 4 23.6782 -10.5147 2.4740 73.5790 8.0974 -10.7919
# 5 -24.8683 -17.4006 -52.9104 8.0974 65.5249 2.0911
# 6 4.3506 3.1446 0.9354 -10.7919 2.0911 47.7656
#
#
#
# Elastic Compliance Matrix: (Units=1/GPa)
#
#
# Indices 1 2 3 4 5 6 
#
# 1 0.011323 -0.003299 -0.001142 -0.004716 0.003146 -0.001995
# 2 -0.003299 0.009620 -0.004257 0.002933 -0.002514 0.000523
# 3 -0.001142 -0.004257 0.010906 -0.001499 0.007443 -0.000494
# 4 -0.004716 0.002933 -0.001499 0.016684 -0.004418 0.004229
# 5 0.003146 -0.002514 0.007443 -0.004418 0.022416 -0.002246
# 6 -0.001995 0.000523 -0.000494 0.004229 -0.002246 0.022146
#
#
# Mechanical properties :
#
#
# Convention : Reuss Voigt Hill
#
# Bulk Modulus (GPa) = 69.19322 90.69266 79.94294
# Shear Modulus (GPa) = 43.36168 54.73927 49.05048
#
# Velocity S-wave (km/s) = 3.96753 4.45776 4.21977
# Velocity P-wave (km/s) = 6.79022 7.70837 7.26381
#
# Compressibility (1/GPa) = 0.01445228
#
# Stress axis : x y z
#
# Youngs Moduli (GPa) = 88.31375 103.95407 91.69305
#
# Poissons Ratio (x) = 0.34297 0.10472
# Poissons Ratio (y) = 0.29137 0.39033
# Poissons Ratio (z) = 0.10086 0.44253
#
# Static dielectric constant tensor:
#      x y z
#    x 2.222260 0.134680 -0.082580 
#    y 0.134680 1.616810 0.382600 
#    z -0.082580 0.382600 2.015900 
# 
# From -- ./inp_files/57608.got.cif
#   From: 2010.05.17/outbox.cif.g08.bks.cpg/sg2_29_cif.got.tgz:57608.got - 2010.06.03 11:33:40.
