data_PCOD9036968
_publ_section_title
;
Structure prediction by ZEFSAII (Michael W. Deem and Ramdas Pophale) SiO2 
 PCOD9036968
Probable space group: P -1
;
_chemical_formula_sum "Si O2"
_cell_formula_units_Z 12
_cell_length_a 5.105685
_cell_length_b 9.703893
_cell_length_c 16.275308
_cell_angle_alpha 58.229552
_cell_angle_beta 61.573743
_cell_angle_gamma 100.703909
_cell_volume 489.545947
_symmetry_space_group_name_H-M "P -1"
_symmetry_group_IT_number 2
_symmetry_cell_setting 'triclinic'
loop_
_space_group_symop_operation_xyz
x,y,z
-x,-y,-z
loop_
_atom_site_type_symbol
_atom_site_label
_atom_site_fract_x
_atom_site_fract_y
_atom_site_fract_z
Si Si1 0.113838 0.359759 0.553598
Si Si2 0.703682 0.263166 0.098077
Si Si3 0.799538 0.889776 0.941217
Si Si4 0.609654 0.279734 0.428812
Si Si5 0.174302 0.751769 0.207007
Si Si6 0.356579 0.036864 0.390987
O O1 0.500000 0.500000 0.500000
O O2 0.230019 0.259862 0.503321
O O3 0.000000 0.500000 0.500000
O O4 0.803498 0.211776 0.710472
O O5 0.442439 0.214093 0.073565
O O6 0.471331 0.146776 0.251813
O O7 0.942408 0.180987 0.065828
O O8 0.000000 0.500000 0.000000
O O9 0.990396 0.127635 0.834027
O O10 0.531492 0.827163 0.078314
O O11 0.654548 0.197687 0.363170
O O12 0.921353 0.514469 0.309227
O O13 0.620420 0.150462 0.540638
O O14 0.000000 0.000000 0.500000
#
# Coordination Sequence:
#
# PCOD9036968 Si02
#       6
#     2   2   2   2   2   2
#     4  10  23  39  67 101 134 179 223 284 354 413
#     4  12  28  49  75 101 147 187 237 291 353 419
#     4  11  27  46  72 107 138 190 241 284 351 435
#     4  10  24  45  68 105 145 182 237 298 361 413
#     4  10  24  45  73 101 145 185 234 294 356 418
#     4  11  27  43  74 105 139 190 244 294 351 428
#
# _framework density 24.512509999999999
#
# number of rings (size 3 to 8) (size 9 to 14) (size 15 to 20)
#    0.000    1.333    0.000    2.500   14.000    8.000 
#    0.000    0.000    0.000    0.000    0.000    0.000 
#    0.000    0.000    0.000    0.000    0.000    0.000 
#
# Total GULP energy -67087.191784 kJ/mol
# GULP energy per Si atom -5590.599315 kJ/mol
# Density = 2.445672 g / cm^3
# Si number density = 24.512510 Si / 1000 Ang^3
#
#
#
# Elastic Constant Matrix: (Units=GPa)
#
#
# Indices 1 2 3 4 5 6 
#
# 1 103.5275 28.1359 13.9395 -1.0196 5.5750 -20.3936
# 2 28.1359 161.7970 56.1412 -16.4230 -3.0899 -11.9501
# 3 13.9395 56.1412 151.7583 -2.0422 8.3825 -6.6540
# 4 -1.0196 -16.4230 -2.0422 59.6895 6.5824 1.8411
# 5 5.5750 -3.0899 8.3825 6.5824 24.8119 2.4568
# 6 -20.3936 -11.9501 -6.6540 1.8411 2.4568 54.0764
#
#
#
# Elastic Compliance Matrix: (Units=1/GPa)
#
#
# Indices 1 2 3 4 5 6 
#
# 1 0.011061 -0.001678 -0.000055 -0.000060 -0.003049 0.003934
# 2 -0.001678 0.007677 -0.002732 0.001782 0.001725 0.000589
# 3 -0.000055 -0.002732 0.007787 -0.000174 -0.002959 0.000474
# 4 -0.000060 0.001782 -0.000174 0.017724 -0.004402 -0.000054
# 5 -0.003049 0.001725 -0.002959 -0.004402 0.043665 -0.002967
# 6 0.003934 0.000589 0.000474 -0.000054 -0.002967 0.020301
#
#
# Mechanical properties :
#
#
# Convention : Reuss Voigt Hill
#
# Bulk Modulus (GPa) = 56.83017 68.16846 62.49931
# Shear Modulus (GPa) = 40.64695 48.97330 44.81012
#
# Velocity S-wave (km/s) = 4.07653 4.47463 4.28021
# Velocity P-wave (km/s) = 6.73736 7.38691 7.06960
#
# Compressibility (1/GPa) = 0.01759629
#
# Stress axis : x y z
#
# Youngs Moduli (GPa) = 90.40425 130.25076 128.42105
#
# Poissons Ratio (x) = 0.21858 0.00707
# Poissons Ratio (y) = 0.15171 0.35079
# Poissons Ratio (z) = 0.00498 0.35579
#
# Static dielectric constant tensor:
#      x y z
#    x 1.943290 0.133020 -0.043040 
#    y 0.133020 2.074040 -0.051680 
#    z -0.043040 -0.051680 1.976270 
# 
# From -- ./inp_files/134665.got.cif
#   From: 2010.05.17/outbox.cif.g08.bks.cpg/sg2_68_cif.got.tgz:134665.got - 2010.06.03 11:33:40.
