data_PCOD9036732
_publ_section_title
;
Structure prediction by ZEFSAII (Michael W. Deem and Ramdas Pophale) SiO2 
 PCOD9036732
Probable space group: P -1
;
_chemical_formula_sum "Si O2"
_cell_formula_units_Z 14
_cell_length_a 13.715750
_cell_length_b 9.591399
_cell_length_c 9.422299
_cell_angle_alpha 99.160555
_cell_angle_beta 151.355941
_cell_angle_gamma 74.164961
_cell_volume 562.916634
_symmetry_space_group_name_H-M "P -1"
_symmetry_group_IT_number 2
_symmetry_cell_setting 'triclinic'
loop_
_space_group_symop_operation_xyz
x,y,z
-x,-y,-z
loop_
_atom_site_type_symbol
_atom_site_label
_atom_site_fract_x
_atom_site_fract_y
_atom_site_fract_z
Si Si1 0.609201 0.494901 0.406685
Si Si2 0.044533 0.762406 0.281297
Si Si3 0.430571 0.207324 0.759714
Si Si4 0.924018 0.655977 0.503298
Si Si5 0.869798 0.097729 0.192268
Si Si6 0.007623 0.155227 0.091710
Si Si7 0.793967 0.541767 0.953313
O O1 0.550209 0.647822 0.273259
O O2 0.736530 0.524750 0.713949
O O3 0.405953 0.457873 0.206124
O O4 0.736291 0.365980 0.441974
O O5 0.033026 0.759423 0.093907
O O6 0.863565 0.689215 0.087784
O O7 0.009620 0.928870 0.318721
O O8 0.245084 0.142643 0.449747
O O9 0.324953 0.268036 0.784807
O O10 0.661338 0.097977 0.012988
O O11 0.021793 0.781399 0.587553
O O12 0.000000 0.500000 0.500000
O O13 0.016039 0.598505 0.771689
O O14 0.834380 0.168884 0.999592
O O15 0.000000 0.000000 0.000000
#
# Coordination Sequence:
#
# PCOD9036732 Si02
#       7
#     2   2   2   2   2   2   2
#     4  11  21  35  64  91 125 156 195 246 304 362
#     4  11  21  35  58  88 129 157 191 250 301 353
#     4  11  20  38  63  87 120 162 201 246 299 362
#     4  11  24  43  64  87 118 159 209 254 295 361
#     4  10  23  39  58  91 122 158 206 242 301 364
#     4   9  20  33  53  87 130 159 188 235 302 362
#     4  11  22  37  61  93 121 160 205 244 297 361
#
# _framework density 24.870469
#
# number of rings (size 3 to 8) (size 9 to 14) (size 15 to 20)
#    0.000    1.429    4.286    2.143    2.000    6.286 
#    0.000    0.714    0.000    1.714    0.000    0.000 
#    0.000    0.000    0.000    0.000    0.000    0.000 
#
# Total GULP energy -78109.409743 kJ/mol
# GULP energy per Si atom -5579.243553 kJ/mol
# Density = 2.481386 g / cm^3
# Si number density = 24.870469 Si / 1000 Ang^3
#
#
#
# Elastic Constant Matrix: (Units=GPa)
#
#
# Indices 1 2 3 4 5 6 
#
# 1 65.0626 31.3597 24.0332 -1.2522 22.5107 -7.6416
# 2 31.3597 175.2665 39.1212 13.5997 32.6564 -13.0672
# 3 24.0332 39.1212 61.1999 6.9395 15.6666 -15.9752
# 4 -1.2522 13.5997 6.9395 29.2548 -0.7067 9.4391
# 5 22.5107 32.6564 15.6666 -0.7067 45.9117 -9.3271
# 6 -7.6416 -13.0672 -15.9752 9.4391 -9.3271 49.4231
#
#
#
# Elastic Compliance Matrix: (Units=1/GPa)
#
#
# Indices 1 2 3 4 5 6 
#
# 1 0.020704 -0.001310 -0.006050 0.003100 -0.007326 -0.001075
# 2 -0.001310 0.007562 -0.002796 -0.003263 -0.003665 0.000824
# 3 -0.006050 -0.002796 0.023530 -0.006809 -0.001778 0.006896
# 4 0.003100 -0.003263 -0.006809 0.040727 0.001711 -0.010039
# 5 -0.007326 -0.003665 -0.001778 0.001711 0.029119 0.002492
# 6 -0.001075 0.000824 0.006896 -0.010039 0.002492 0.024902
#
#
# Mechanical properties :
#
#
# Convention : Reuss Voigt Hill
#
# Bulk Modulus (GPa) = 31.76196 54.50636 43.13416
# Shear Modulus (GPa) = 28.19282 38.71893 33.45587
#
# Velocity S-wave (km/s) = 3.37053 3.94994 3.67168
# Velocity P-wave (km/s) = 5.28639 6.53960 5.94611
#
# Compressibility (1/GPa) = 0.03148420
#
# Stress axis : x y z
#
# Youngs Moduli (GPa) = 48.30010 132.24881 42.49839
#
# Poissons Ratio (x) = 0.17322 0.25712
# Poissons Ratio (y) = 0.06326 0.11882
# Poissons Ratio (z) = 0.29222 0.36976
#
# Static dielectric constant tensor:
#      x y z
#    x 2.155490 -0.112630 -0.144860 
#    y -0.112630 2.076380 0.049710 
#    z -0.144860 0.049710 2.068580 
# 
# From -- ./inp_files/431461.got.cif
#   From: 2010.05.17/outbox.cif.g08.bks.cpg/sg2_216_cif.got.tgz:431461.got - 2010.06.03 11:33:40.
