data_PCOD9036597
_publ_section_title
;
Structure prediction by ZEFSAII (Michael W. Deem and Ramdas Pophale) SiO2 
 PCOD9036597
Probable space group: P -1
;
_chemical_formula_sum "Si O2"
_cell_formula_units_Z 16
_cell_length_a 11.234229
_cell_length_b 16.228360
_cell_length_c 8.393532
_cell_angle_alpha 53.557762
_cell_angle_beta 36.960029
_cell_angle_gamma 55.616025
_cell_volume 727.208692
_symmetry_space_group_name_H-M "P -1"
_symmetry_group_IT_number 2
_symmetry_cell_setting 'triclinic'
loop_
_space_group_symop_operation_xyz
x,y,z
-x,-y,-z
loop_
_atom_site_type_symbol
_atom_site_label
_atom_site_fract_x
_atom_site_fract_y
_atom_site_fract_z
Si Si1 0.830807 0.120083 0.370198
Si Si2 0.861483 0.556854 0.218539
Si Si3 0.088990 0.128786 0.403955
Si Si4 0.431604 0.585853 0.342123
Si Si5 0.875095 0.215628 0.864226
Si Si6 0.527950 0.613231 0.896506
Si Si7 0.062342 0.384347 0.630460
Si Si8 0.449426 0.243502 0.801754
O O1 0.601854 0.176341 0.591880
O O2 0.974069 0.148603 0.330603
O O3 0.850125 0.995962 0.503331
O O4 0.882187 0.148288 0.099394
O O5 0.745664 0.461503 0.502117
O O6 0.010039 0.604388 0.124499
O O7 0.700121 0.654809 0.220065
O O8 0.000000 0.500000 0.000000
O O9 0.955590 0.165470 0.665556
O O10 0.293752 0.177917 0.123073
O O11 0.500000 0.500000 0.500000
O O12 0.400286 0.701173 0.313874
O O13 0.602628 0.590638 0.022904
O O14 0.009350 0.299824 0.669550
O O15 0.654800 0.290044 0.008565
O O16 0.699095 0.641769 0.571650
O O17 0.500000 0.500000 0.000000
O O18 0.000000 0.500000 0.500000
#
# Coordination Sequence:
#
# PCOD9036597 Si02
#       8
#     2   2   2   2   2   2   2   2
#     4  11  26  48  76  98 133 179 231 298 352 402
#     4  11  25  38  63 100 141 177 226 263 322 418
#     4  11  26  50  71 104 131 174 240 293 350 410
#     4  10  23  38  62  94 137 179 216 266 330 392
#     4  12  26  43  72 101 140 180 226 282 349 403
#     4  12  23  41  60  95 139 176 222 266 322 407
#     4  12  25  39  62  96 138 183 218 268 328 401
#     4  11  24  42  73  98 138 180 225 280 348 402
#
# _framework density 22.001937000000002
#
# number of rings (size 3 to 8) (size 9 to 14) (size 15 to 20)
#    0.000    0.750    2.500    3.750   12.250    0.000 
#    0.000    0.000    0.000    7.500    0.000    0.000 
#    0.000    0.000    0.000    0.000    0.000    0.000 
#
# Total GULP energy -89081.159059 kJ/mol
# GULP energy per Si atom -5567.572441 kJ/mol
# Density = 2.195186 g / cm^3
# Si number density = 22.001937 Si / 1000 Ang^3
#
#
#
# Elastic Constant Matrix: (Units=GPa)
#
#
# Indices 1 2 3 4 5 6 
#
# 1 85.3887 48.1360 29.0719 -3.0486 18.9971 8.8506
# 2 48.1360 141.8456 49.9730 6.0040 0.3848 12.4930
# 3 29.0719 49.9730 107.4487 -2.8119 12.0626 5.1112
# 4 -3.0486 6.0040 -2.8119 42.5693 3.2432 2.7118
# 5 18.9971 0.3848 12.0626 3.2432 40.2238 1.7201
# 6 8.8506 12.4930 5.1112 2.7118 1.7201 36.7832
#
#
#
# Elastic Compliance Matrix: (Units=1/GPa)
#
#
# Indices 1 2 3 4 5 6 
#
# 1 0.017145 -0.005342 -0.001111 0.002632 -0.007840 -0.001984
# 2 -0.005342 0.010449 -0.003821 -0.002289 0.003828 -0.001743
# 3 -0.001111 -0.003821 0.011771 0.001474 -0.003086 -0.000035
# 4 0.002632 -0.002289 0.001474 0.024480 -0.003564 -0.001699
# 5 -0.007840 0.003828 -0.003086 -0.003564 0.029745 -0.000113
# 6 -0.001984 -0.001743 -0.000035 -0.001699 -0.000113 0.028391
#
#
# Mechanical properties :
#
#
# Convention : Reuss Voigt Hill
#
# Bulk Modulus (GPa) = 53.14373 65.44941 59.29657
# Shear Modulus (GPa) = 33.60196 37.74872 35.67534
#
# Velocity S-wave (km/s) = 3.91222 4.14659 4.03111
# Velocity P-wave (km/s) = 6.67936 7.26205 6.97679
#
# Compressibility (1/GPa) = 0.01881689
#
# Stress axis : x y z
#
# Youngs Moduli (GPa) = 58.32672 95.70270 84.95354
#
# Poissons Ratio (x) = 0.51127 0.09436
# Poissons Ratio (y) = 0.31160 0.32461
# Poissons Ratio (z) = 0.06479 0.36568
#
# Static dielectric constant tensor:
#      x y z
#    x 1.990520 0.037270 0.006640 
#    y 0.037270 1.807010 0.036420 
#    z 0.006640 0.036420 1.969420 
# 
# From -- ./inp_files/271712.got.cif
#   From: 2010.05.17/outbox.cif.g08.bks.cpg/sg2_136_cif.got.tgz:271712.got - 2010.06.03 11:33:40.
