data_PCOD9036694
_publ_section_title
;
Structure prediction by ZEFSAII (Michael W. Deem and Ramdas Pophale) SiO2 
 PCOD9036694
Probable space group: P -1
;
_chemical_formula_sum "Si O2"
_cell_formula_units_Z 12
_cell_length_a 12.892092
_cell_length_b 9.226775
_cell_length_c 7.220706
_cell_angle_alpha 61.565348
_cell_angle_beta 131.919263
_cell_angle_gamma 98.684712
_cell_volume 543.370624
_symmetry_space_group_name_H-M "P -1"
_symmetry_group_IT_number 2
_symmetry_cell_setting 'triclinic'
loop_
_space_group_symop_operation_xyz
x,y,z
-x,-y,-z
loop_
_atom_site_type_symbol
_atom_site_label
_atom_site_fract_x
_atom_site_fract_y
_atom_site_fract_z
Si Si1 0.315892 0.393129 0.755050
Si Si2 0.216129 0.064685 0.727204
Si Si3 0.981277 0.026687 0.742790
Si Si4 0.880907 0.426895 0.301678
Si Si5 0.725804 0.492074 0.740195
Si Si6 0.460601 0.743869 0.161596
O O1 0.482045 0.315926 0.940725
O O2 0.253729 0.536206 0.437175
O O3 0.271060 0.471865 0.851261
O O4 0.238283 0.242090 0.717118
O O5 0.629593 0.064081 0.047585
O O6 0.131332 0.989654 0.831484
O O7 0.119584 0.074764 0.421279
O O8 0.910200 0.226733 0.493962
O O9 0.000000 0.000000 0.000000
O O10 0.000000 0.500000 0.500000
O O11 0.867368 0.469853 0.042904
O O12 0.612885 0.680279 0.491667
O O13 0.640967 0.365655 0.806629
#
# Coordination Sequence:
#
# PCOD9036694 Si02
#       6
#     2   2   2   2   2   2
#     4  10  23  38  68  91 123 163 205 254 313 359
#     4  11  22  45  61  92 131 161 206 259 306 372
#     4  11  27  40  64  91 127 170 205 253 315 364
#     4  12  24  43  62  96 123 160 218 254 302 377
#     4   9  22  41  63  95 123 164 203 257 310 366
#     4   9  20  43  64  91 125 166 204 251 317 360
#
# _framework density 22.084375000000001
#
# number of rings (size 3 to 8) (size 9 to 14) (size 15 to 20)
#    1.000    0.667    3.333    0.500    4.667    1.333 
#    3.000    0.833    0.000    0.000    0.000    0.000 
#    0.000    0.000    0.000    0.000    0.000    0.000 
#
# Total GULP energy -66941.004544 kJ/mol
# GULP energy per Si atom -5578.417045 kJ/mol
# Density = 2.203411 g / cm^3
# Si number density = 22.084375 Si / 1000 Ang^3
#
#
#
# Elastic Constant Matrix: (Units=GPa)
#
#
# Indices 1 2 3 4 5 6 
#
# 1 78.4199 13.0596 8.9597 -13.8361 -4.0933 -18.9862
# 2 13.0596 60.0304 -3.1177 1.0383 6.4235 -3.4844
# 3 8.9597 -3.1177 91.1138 6.8261 -5.3078 -3.0270
# 4 -13.8361 1.0383 6.8261 17.5905 -2.8138 5.1372
# 5 -4.0933 6.4235 -5.3078 -2.8138 29.5678 1.2589
# 6 -18.9862 -3.4844 -3.0270 5.1372 1.2589 40.4321
#
#
#
# Elastic Compliance Matrix: (Units=1/GPa)
#
#
# Indices 1 2 3 4 5 6 
#
# 1 0.017936 -0.004375 -0.002549 0.014282 0.004083 0.005913
# 2 -0.004375 0.018338 0.001232 -0.005949 -0.004957 0.000528
# 3 -0.002549 0.001232 0.011841 -0.006721 0.000839 0.000623
# 4 0.014282 -0.005949 -0.006721 0.073676 0.009243 -0.003958
# 5 0.004083 -0.004957 0.000839 0.009243 0.036525 -0.000759
# 6 0.005913 0.000528 0.000623 -0.003958 -0.000759 0.028128
#
#
# Mechanical properties :
#
#
# Convention : Reuss Voigt Hill
#
# Bulk Modulus (GPa) = 27.22471 29.70745 28.46608
# Shear Modulus (GPa) = 23.80128 31.56226 27.68177
#
# Velocity S-wave (km/s) = 3.28646 3.78453 3.54426
# Velocity P-wave (km/s) = 5.17257 5.70771 5.44671
#
# Compressibility (1/GPa) = 0.03673133
#
# Stress axis : x y z
#
# Youngs Moduli (GPa) = 55.75308 54.53158 84.45085
#
# Poissons Ratio (x) = 0.23858 0.21528
# Poissons Ratio (y) = 0.24393 -0.10406
# Poissons Ratio (z) = 0.14212 -0.06719
#
# Static dielectric constant tensor:
#      x y z
#    x 1.873080 0.024770 0.017760 
#    y 0.024770 1.797150 0.006290 
#    z 0.017760 0.006290 1.802750 
# 
# From -- ./inp_files/63230.got.cif
#   From: 2010.05.17/outbox.cif.g08.bks.cpg/sg2_32_cif.got.tgz:63230.got - 2010.06.03 11:33:40.
