data_PCOD9036043
_publ_section_title
;
Structure prediction by ZEFSAII (Michael W. Deem and Ramdas Pophale) SiO2 
 PCOD9036043
Probable space group: P -1
;
_chemical_formula_sum "Si O2"
_cell_formula_units_Z 16
_cell_length_a 15.494620
_cell_length_b 8.843736
_cell_length_c 16.435725
_cell_angle_alpha 117.603539
_cell_angle_beta 156.402335
_cell_angle_gamma 51.583016
_cell_volume 664.776255
_symmetry_space_group_name_H-M "P -1"
_symmetry_group_IT_number 2
_symmetry_cell_setting 'triclinic'
loop_
_space_group_symop_operation_xyz
x,y,z
-x,-y,-z
loop_
_atom_site_type_symbol
_atom_site_label
_atom_site_fract_x
_atom_site_fract_y
_atom_site_fract_z
Si Si1 0.774264 0.961216 0.316942
Si Si2 0.880702 0.473521 0.471685
Si Si3 0.250776 0.779449 0.183346
Si Si4 0.083406 0.271274 0.002639
Si Si5 0.628656 0.041303 0.940296
Si Si6 0.846487 0.265871 0.086154
Si Si7 0.403851 0.116865 0.563975
Si Si8 0.514023 0.313299 0.067264
O O1 0.537525 0.161794 0.120000
O O2 0.000000 0.000000 0.500000
O O3 0.905486 0.727316 0.342745
O O4 0.639726 0.953367 0.283149
O O5 0.722529 0.688284 0.434833
O O6 0.702563 0.393098 0.266828
O O7 0.000000 0.500000 0.500000
O O8 0.486703 0.807197 0.393199
O O9 0.261830 0.658906 0.080503
O O10 0.163769 0.720640 0.173089
O O11 0.000000 0.000000 0.000000
O O12 0.353149 0.096564 0.240702
O O13 0.000000 0.500000 0.000000
O O14 0.152471 0.193612 0.950097
O O15 0.724534 0.146520 0.986290
O O16 0.610629 0.164630 0.036048
O O17 0.156313 0.119572 0.321667
O O18 0.752107 0.465207 0.109217
#
# Coordination Sequence:
#
# PCOD9036043 Si02
#       8
#     2   2   2   2   2   2   2   2
#     4  10  24  40  65  98 142 186 218 276 356 411
#     4  11  20  40  68 103 137 181 224 275 349 420
#     4  10  22  47  70  96 140 178 236 290 337 397
#     4  11  26  47  71  95 138 188 228 294 346 395
#     4  12  23  43  67  99 144 177 234 285 338 421
#     4  12  23  42  76 106 134 185 230 284 345 417
#     4  11  23  43  73 101 134 183 231 283 342 412
#     4  11  23  40  65 103 144 174 218 292 348 408
#
# _framework density 24.068248000000001
#
# number of rings (size 3 to 8) (size 9 to 14) (size 15 to 20)
#    0.000    1.000    3.750    3.750    1.750    3.000 
#    0.000    1.875    0.000    0.000    0.000    0.000 
#    0.000    0.000    0.000    0.000    0.000    0.000 
#
# Total GULP energy -89071.326060 kJ/mol
# GULP energy per Si atom -5566.957879 kJ/mol
# Density = 2.401347 g / cm^3
# Si number density = 24.068248 Si / 1000 Ang^3
#
#
#
# Elastic Constant Matrix: (Units=GPa)
#
#
# Indices 1 2 3 4 5 6 
#
# 1 106.5330 48.7382 44.4856 1.3840 45.7461 -6.6507
# 2 48.7382 186.5665 43.4500 -12.7722 21.9859 -6.8004
# 3 44.4856 43.4500 125.5423 5.7749 28.8168 22.5140
# 4 1.3840 -12.7722 5.7749 40.8393 5.8144 6.5010
# 5 45.7461 21.9859 28.8168 5.8144 41.2015 5.6200
# 6 -6.6507 -6.8004 22.5140 6.5010 5.6200 46.9305
#
#
#
# Elastic Compliance Matrix: (Units=1/GPa)
#
#
# Indices 1 2 3 4 5 6 
#
# 1 0.021138 -0.001962 -0.003169 0.001091 -0.021264 0.006627
# 2 -0.001962 0.006553 -0.001775 0.002244 -0.000568 0.001280
# 3 -0.003169 -0.001775 0.011362 -0.000772 -0.002589 -0.005740
# 4 0.001091 0.002244 -0.000772 0.026359 -0.005293 -0.002167
# 5 -0.021264 -0.000568 -0.002589 -0.005293 0.051740 -0.007316
# 6 0.006627 0.001280 -0.005740 -0.002167 -0.007316 0.026363
#
#
# Mechanical properties :
#
#
# Convention : Reuss Voigt Hill
#
# Bulk Modulus (GPa) = 39.61778 76.88771 58.25275
# Shear Modulus (GPa) = 30.16768 44.59214 37.37991
#
# Velocity S-wave (km/s) = 3.54421 4.30901 3.94519
# Velocity P-wave (km/s) = 5.76584 7.53471 6.70883
#
# Compressibility (1/GPa) = 0.02524119
#
# Stress axis : x y z
#
# Youngs Moduli (GPa) = 47.30785 152.59551 88.01344
#
# Poissons Ratio (x) = 0.29939 0.27890
# Poissons Ratio (y) = 0.09282 0.15625
# Poissons Ratio (z) = 0.14991 0.27090
#
# Static dielectric constant tensor:
#      x y z
#    x 2.080650 -0.060590 -0.061090 
#    y -0.060590 1.927700 0.020360 
#    z -0.061090 0.020360 2.170610 
# 
# From -- ./inp_files/599523.got.cif
#   From: 2010.05.17/outbox.cif.g08.bks.cpg/sg2_300_cif.got.tgz:599523.got - 2010.06.03 11:33:40.
