data_PCOD9036769
_publ_section_title
;
Structure prediction by ZEFSAII (Michael W. Deem and Ramdas Pophale) SiO2 
 PCOD9036769
Probable space group: P -1
;
_chemical_formula_sum "Si O2"
_cell_formula_units_Z 14
_cell_length_a 14.110475
_cell_length_b 12.290659
_cell_length_c 10.924179
_cell_angle_alpha 62.713938
_cell_angle_beta 31.057155
_cell_angle_gamma 49.390805
_cell_volume 717.821973
_symmetry_space_group_name_H-M "P -1"
_symmetry_group_IT_number 2
_symmetry_cell_setting 'triclinic'
loop_
_space_group_symop_operation_xyz
x,y,z
-x,-y,-z
loop_
_atom_site_type_symbol
_atom_site_label
_atom_site_fract_x
_atom_site_fract_y
_atom_site_fract_z
Si Si1 0.164328 0.554159 0.778837
Si Si2 0.626068 0.415205 0.227448
Si Si3 0.829395 0.796094 0.848951
Si Si4 0.117765 0.888318 0.038785
Si Si5 0.345342 0.921193 0.984324
Si Si6 0.465058 0.281827 0.903143
Si Si7 0.120522 0.019245 0.502993
O O1 0.406478 0.432932 0.517217
O O2 0.219452 0.599645 0.822546
O O3 0.040707 0.694586 0.752339
O O4 0.000000 0.500000 0.000000
O O5 0.546020 0.569052 0.169743
O O6 0.759002 0.276884 0.062491
O O7 0.863205 0.865140 0.655268
O O8 0.742244 0.699464 0.947315
O O9 0.647915 0.939425 0.057157
O O10 0.926700 0.932105 0.328064
O O11 0.301167 0.902142 0.902688
O O12 0.000000 0.000000 0.000000
O O13 0.517752 0.777892 0.946980
O O14 0.107327 0.967410 0.280295
O O15 0.672897 0.145585 0.669397
#
# Coordination Sequence:
#
# PCOD9036769 Si02
#       7
#     2   2   2   2   2   2   2
#     4  11  23  40  63  94 122 160 204 258 305 359
#     4  11  24  41  65  92 126 160 206 254 312 369
#     4  11  19  37  61  93 124 157 217 254 294 371
#     4  10  23  39  61  89 123 164 205 249 318 370
#     4   9  19  35  61  87 120 160 207 246 307 354
#     4  11  20  36  64  94 120 161 210 258 303 357
#     4   9  20  36  61  88 118 163 206 251 301 359
#
# _framework density 19.503442
#
# number of rings (size 3 to 8) (size 9 to 14) (size 15 to 20)
#    0.857    0.857    1.429    6.000    4.000    0.571 
#    0.000    3.571    0.000    6.000    0.000    0.000 
#    0.000    0.000    0.000    0.000    0.000    0.000 
#
# Total GULP energy -78018.022361 kJ/mol
# GULP energy per Si atom -5572.715883 kJ/mol
# Density = 1.945905 g / cm^3
# Si number density = 19.503442 Si / 1000 Ang^3
#
#
#
# Elastic Constant Matrix: (Units=GPa)
#
#
# Indices 1 2 3 4 5 6 
#
# 1 133.8430 49.8726 27.9142 3.3162 13.8639 -12.6520
# 2 49.8726 114.5923 36.3741 2.6105 16.7331 -0.9902
# 3 27.9142 36.3741 45.7722 -3.6786 5.1761 7.1122
# 4 3.3162 2.6105 -3.6786 21.1058 7.5870 -3.2378
# 5 13.8639 16.7331 5.1761 7.5870 33.4798 2.1297
# 6 -12.6520 -0.9902 7.1122 -3.2378 2.1297 34.0764
#
#
#
# Elastic Compliance Matrix: (Units=1/GPa)
#
#
# Indices 1 2 3 4 5 6 
#
# 1 0.010088 -0.002507 -0.004667 -0.000500 -0.002391 0.004749
# 2 -0.002507 0.013263 -0.008866 -0.001109 -0.004061 0.001453
# 3 -0.004667 -0.008866 0.033517 0.006276 0.000295 -0.008408
# 4 -0.000500 -0.001109 0.006276 0.053932 -0.012710 0.004391
# 5 -0.002391 -0.004061 0.000295 -0.012710 0.036011 -0.004526
# 6 0.004749 0.001453 -0.008408 0.004391 -0.004526 0.033606
#
#
# Mechanical properties :
#
#
# Convention : Reuss Voigt Hill
#
# Bulk Modulus (GPa) = 40.34541 58.05883 49.20212
# Shear Modulus (GPa) = 22.64875 29.73551 26.19213
#
# Velocity S-wave (km/s) = 3.41144 3.90889 3.66860
# Velocity P-wave (km/s) = 6.02067 7.08559 6.57473
#
# Compressibility (1/GPa) = 0.02478597
#
# Stress axis : x y z
#
# Youngs Moduli (GPa) = 99.12599 75.39735 29.83543
#
# Poissons Ratio (x) = 0.18905 0.13925
# Poissons Ratio (y) = 0.24855 0.26454
# Poissons Ratio (z) = 0.46266 0.66851
#
# Static dielectric constant tensor:
#      x y z
#    x 1.731210 -0.001450 -0.012110 
#    y -0.001450 1.695950 -0.030690 
#    z -0.012110 -0.030690 1.703550 
# 
# From -- ./inp_files/449849.got.cif
#   From: 2010.05.17/outbox.cif.g08.bks.cpg/sg2_225_cif.got.tgz:449849.got - 2010.06.03 11:33:40.
