data_PCOD9036386
_publ_section_title
;
Structure prediction by ZEFSAII (Michael W. Deem and Ramdas Pophale) SiO2 
 PCOD9036386
Probable space group: P -1
;
_chemical_formula_sum "Si O2"
_cell_formula_units_Z 16
_cell_length_a 5.668333
_cell_length_b 17.800194
_cell_length_c 11.638976
_cell_angle_alpha 134.438725
_cell_angle_beta 63.630592
_cell_angle_gamma 87.993694
_cell_volume 631.879715
_symmetry_space_group_name_H-M "P -1"
_symmetry_group_IT_number 2
_symmetry_cell_setting 'triclinic'
loop_
_space_group_symop_operation_xyz
x,y,z
-x,-y,-z
loop_
_atom_site_type_symbol
_atom_site_label
_atom_site_fract_x
_atom_site_fract_y
_atom_site_fract_z
Si Si1 0.555841 0.079792 0.883308
Si Si2 0.016835 0.049059 0.924099
Si Si3 0.685944 0.475005 0.103532
Si Si4 0.450210 0.286128 0.970860
Si Si5 0.207658 0.513448 0.639646
Si Si6 0.644535 0.256742 0.654667
Si Si7 0.808329 0.740562 0.398466
Si Si8 0.647595 0.738248 0.693124
O O1 0.635115 0.157310 0.861561
O O2 0.310734 0.175710 0.136400
O O3 0.352728 0.032181 0.818073
O O4 0.866751 0.002212 0.811175
O O5 0.728581 0.196948 0.146511
O O6 0.000000 0.000000 0.000000
O O7 0.556004 0.385103 0.060436
O O8 0.747400 0.506701 0.252502
O O9 0.452057 0.606088 0.228322
O O10 0.973925 0.389632 0.860836
O O11 0.102710 0.353737 0.166539
O O12 0.435659 0.267162 0.819033
O O13 0.500000 0.500000 0.500000
O O14 0.170397 0.407028 0.477663
O O15 0.978201 0.201258 0.585719
O O16 0.529792 0.203546 0.524358
O O17 0.745700 0.743707 0.549807
#
# Coordination Sequence:
#
# PCOD9036386 Si02
#       8
#     2   2   2   2   2   2   2   2
#     4  10  24  39  64  93 122 153 200 249 317 369
#     4  10  23  45  67  92 119 151 199 261 323 374
#     4  11  22  36  53  79 124 176 217 235 282 339
#     4  11  23  37  55  85 129 169 203 244 295 354
#     4  12  22  34  54  82 132 168 204 242 294 349
#     4  11  22  35  56  78 117 172 213 241 274 338
#     4  11  21  35  55  81 113 160 208 253 279 336
#     4  10  23  35  60  91 122 155 206 250 301 356
#
# _framework density 25.321276000000001
#
# number of rings (size 3 to 8) (size 9 to 14) (size 15 to 20)
#    0.750    0.500    2.500    5.250    3.500    4.000 
#    0.000    0.000    0.000    0.000    0.000   12.250 
#    0.000    0.000    0.000    0.000    0.000    0.000 
#
# Total GULP energy -89278.142267 kJ/mol
# GULP energy per Si atom -5579.883892 kJ/mol
# Density = 2.526364 g / cm^3
# Si number density = 25.321276 Si / 1000 Ang^3
#
#
#
# Elastic Constant Matrix: (Units=GPa)
#
#
# Indices 1 2 3 4 5 6 
#
# 1 112.7565 32.5478 12.0721 0.3734 -1.9606 3.4647
# 2 32.5478 91.7962 14.5021 -9.9416 10.0874 -1.8943
# 3 12.0721 14.5021 64.2429 -14.8649 12.7133 7.1118
# 4 0.3734 -9.9416 -14.8649 30.4777 3.6221 1.4157
# 5 -1.9606 10.0874 12.7133 3.6221 55.7448 -1.6262
# 6 3.4647 -1.8943 7.1118 1.4157 -1.6262 42.6036
#
#
#
# Elastic Compliance Matrix: (Units=1/GPa)
#
#
# Indices 1 2 3 4 5 6 
#
# 1 0.010214 -0.003776 -0.001894 -0.002448 0.001618 -0.000539
# 2 -0.003776 0.013119 -0.000870 0.004168 -0.002556 0.000800
# 3 -0.001894 -0.000870 0.019944 0.010263 -0.005234 -0.003755
# 4 -0.002448 0.004168 0.010263 0.040037 -0.005867 -0.002883
# 5 0.001618 -0.002556 -0.005234 -0.005867 0.020080 0.001590
# 6 -0.000539 0.000800 -0.003755 -0.002883 0.001590 0.024335
#
#
# Mechanical properties :
#
#
# Convention : Reuss Voigt Hill
#
# Bulk Modulus (GPa) = 33.11600 43.00437 38.06019
# Shear Modulus (GPa) = 33.13980 39.74346 36.44163
#
# Velocity S-wave (km/s) = 3.62162 3.96608 3.79776
# Velocity P-wave (km/s) = 5.53127 6.16388 5.85612
#
# Compressibility (1/GPa) = 0.03019689
#
# Stress axis : x y z
#
# Youngs Moduli (GPa) = 97.90162 76.22584 50.13917
#
# Poissons Ratio (x) = 0.28787 0.09495
# Poissons Ratio (y) = 0.36972 0.04363
# Poissons Ratio (z) = 0.18540 0.06633
#
# Static dielectric constant tensor:
#      x y z
#    x 2.079510 0.012270 -0.042340 
#    y 0.012270 2.001110 0.039190 
#    z -0.042340 0.039190 2.080830 
# 
# From -- ./inp_files/369479.got.cif
#   From: 2010.05.17/outbox.cif.g08.bks.cpg/sg2_185_cif.got.tgz:369479.got - 2010.06.03 11:33:40.
