data_PCOD9036762
_publ_section_title
;
Structure prediction by ZEFSAII (Michael W. Deem and Ramdas Pophale) SiO2 
 PCOD9036762
Probable space group: P -1
;
_chemical_formula_sum "Si O2"
_cell_formula_units_Z 16
_cell_length_a 18.344013
_cell_length_b 8.117254
_cell_length_c 9.140934
_cell_angle_alpha 109.333453
_cell_angle_beta 44.694561
_cell_angle_gamma 128.002409
_cell_volume 740.255249
_symmetry_space_group_name_H-M "P -1"
_symmetry_group_IT_number 2
_symmetry_cell_setting 'triclinic'
loop_
_space_group_symop_operation_xyz
x,y,z
-x,-y,-z
loop_
_atom_site_type_symbol
_atom_site_label
_atom_site_fract_x
_atom_site_fract_y
_atom_site_fract_z
Si Si1 0.706283 0.242164 0.626084
Si Si2 0.132490 0.464042 0.761191
Si Si3 0.123506 0.783210 0.058282
Si Si4 0.539163 0.056774 0.288459
Si Si5 0.358797 0.515738 0.611261
Si Si6 0.263382 0.961025 0.190727
Si Si7 0.349190 0.242019 0.790192
Si Si8 0.356088 0.409825 0.137908
O O1 0.823843 0.371523 0.387058
O O2 0.732766 0.157577 0.708498
O O3 0.668931 0.409472 0.753893
O O4 0.588853 0.043090 0.648591
O O5 0.112642 0.573753 0.958620
O O6 0.250663 0.458281 0.634495
O O7 0.002988 0.249645 0.833131
O O8 0.250046 0.988663 0.868053
O O9 0.143796 0.818187 0.212808
O O10 0.626877 0.311911 0.242687
O O11 0.500000 0.000000 0.500000
O O12 0.618005 0.985905 0.067391
O O13 0.330970 0.317135 0.683516
O O14 0.499412 0.641511 0.380485
O O15 0.278738 0.181926 0.265709
O O16 0.322501 0.336846 0.995580
O O17 0.500000 0.500000 0.000000
#
# Coordination Sequence:
#
# PCOD9036762 Si02
#       8
#     2   2   2   2   2   2   2   2
#     4  12  24  39  64  96 128 172 211 265 325 384
#     4  11  23  42  67  93 122 172 218 262 321 388
#     4  10  23  45  66  89 127 168 216 269 322 377
#     4  12  20  37  63  93 129 164 209 266 323 372
#     4  11  21  37  67  94 127 160 217 264 323 379
#     4  11  23  40  63  91 132 169 212 265 321 380
#     4  10  23  39  60  97 129 163 206 275 319 375
#     4  11  22  37  57  91 134 166 206 256 319 390
#
# _framework density 21.614166999999998
#
# number of rings (size 3 to 8) (size 9 to 14) (size 15 to 20)
#    0.000    1.000    3.750    4.125    1.750    1.000 
#    2.250    2.500    0.000    0.000    0.000    0.000 
#    0.000    0.000    0.000    0.000    0.000    0.000 
#
# Total GULP energy -89311.982042 kJ/mol
# GULP energy per Si atom -5581.998878 kJ/mol
# Density = 2.156497 g / cm^3
# Si number density = 21.614167 Si / 1000 Ang^3
#
#
#
# Elastic Constant Matrix: (Units=GPa)
#
#
# Indices 1 2 3 4 5 6 
#
# 1 170.1642 70.2795 47.0358 -17.9998 7.2135 10.6026
# 2 70.2795 72.7533 19.5615 4.4770 3.7531 11.3781
# 3 47.0358 19.5615 44.5585 -6.5846 6.5492 2.2369
# 4 -17.9998 4.4770 -6.5846 32.0618 5.9500 -2.5904
# 5 7.2135 3.7531 6.5492 5.9500 24.1784 -7.1587
# 6 10.6026 11.3781 2.2369 -2.5904 -7.1587 40.7979
#
#
#
# Elastic Compliance Matrix: (Units=1/GPa)
#
#
# Indices 1 2 3 4 5 6 
#
# 1 0.013830 -0.011644 -0.007986 0.008158 -0.002091 0.000242
# 2 -0.011644 0.026637 -0.000903 -0.010994 0.000837 -0.004904
# 3 -0.007986 -0.000903 0.032953 0.003756 -0.007492 -0.000556
# 4 0.008158 -0.010994 0.003756 0.040273 -0.011264 0.001321
# 5 -0.002091 0.000837 -0.007492 -0.011264 0.049213 0.008641
# 6 0.000242 -0.004904 -0.000556 0.001321 0.008641 0.027446
#
#
# Mechanical properties :
#
#
# Convention : Reuss Voigt Hill
#
# Bulk Modulus (GPa) = 30.91012 62.35886 46.63449
# Shear Modulus (GPa) = 20.64381 29.44758 25.04569
#
# Velocity S-wave (km/s) = 3.09383 3.69510 3.40775
# Velocity P-wave (km/s) = 5.20522 6.86430 6.09151
#
# Compressibility (1/GPa) = 0.03235187
#
# Stress axis : x y z
#
# Youngs Moduli (GPa) = 72.30754 37.54226 30.34610
#
# Poissons Ratio (x) = 0.43715 0.24235
# Poissons Ratio (y) = 0.84197 0.02742
# Poissons Ratio (z) = 0.57746 0.03392
#
# Static dielectric constant tensor:
#      x y z
#    x 1.825500 -0.036930 -0.034500 
#    y -0.036930 1.817710 0.030350 
#    z -0.034500 0.030350 1.846900 
# 
# From -- ./inp_files/327713.got.cif
#   From: 2010.05.17/outbox.cif.g08.bks.cpg/sg2_164_cif.got.tgz:327713.got - 2010.06.03 11:33:40.
