data_PCOD9036013
_publ_section_title
;
Structure prediction by ZEFSAII (Michael W. Deem and Ramdas Pophale) SiO2 
 PCOD9036013
Probable space group: P -1
;
_chemical_formula_sum "Si O2"
_cell_formula_units_Z 16
_cell_length_a 5.831634
_cell_length_b 15.226301
_cell_length_c 12.691025
_cell_angle_alpha 129.453688
_cell_angle_beta 57.192514
_cell_angle_gamma 94.587432
_cell_volume 667.922124
_symmetry_space_group_name_H-M "P -1"
_symmetry_group_IT_number 2
_symmetry_cell_setting 'triclinic'
loop_
_space_group_symop_operation_xyz
x,y,z
-x,-y,-z
loop_
_atom_site_type_symbol
_atom_site_label
_atom_site_fract_x
_atom_site_fract_y
_atom_site_fract_z
Si Si1 0.191111 0.022462 0.704016
Si Si2 0.317208 0.402421 0.801900
Si Si3 0.188775 0.070497 0.066130
Si Si4 0.580954 0.204087 0.404896
Si Si5 0.592472 0.161453 0.669644
Si Si6 0.341700 0.405011 0.450987
Si Si7 0.426857 0.833491 0.087160
Si Si8 0.676783 0.560503 0.763650
O O1 0.315333 0.119508 0.702860
O O2 0.847943 0.104569 0.877889
O O3 0.409352 0.930223 0.667492
O O4 0.200209 0.920821 0.537114
O O5 0.366208 0.303154 0.618330
O O6 0.488652 0.305984 0.778702
O O7 0.483712 0.483175 0.775758
O O8 0.000000 0.500000 0.000000
O O9 0.940813 0.166930 0.281141
O O10 0.295703 0.139071 0.000694
O O11 0.500000 0.000000 0.000000
O O12 0.000000 0.000000 0.000000
O O13 0.483794 0.271062 0.368244
O O14 0.702373 0.125268 0.732582
O O15 0.500000 0.500000 0.500000
O O16 0.328369 0.395814 0.322331
O O17 0.017132 0.473725 0.634641
O O18 0.547096 0.686449 0.955011
#
# Coordination Sequence:
#
# PCOD9036013 Si02
#       8
#     2   2   2   2   2   2   2   2
#     4  10  22  47  69 106 142 192 252 315 386 465
#     4  11  25  47  73 107 152 197 261 314 386 471
#     4  12  28  48  76 117 159 202 261 324 400 480
#     4  11  24  45  77 107 148 203 248 327 391 464
#     4  10  24  45  70 100 147 195 249 313 389 455
#     4  11  24  48  73 103 149 194 253 312 393 457
#     4  12  25  43  73 103 152 191 255 313 394 458
#     4  11  27  45  73 110 146 197 257 319 382 473
#
# _framework density 23.954886999999999
#
# number of rings (size 3 to 8) (size 9 to 14) (size 15 to 20)
#    0.000    1.000    2.500    2.625    5.250    2.500 
#   11.250    0.000    0.000    0.000    0.000    0.000 
#    0.000    0.000    0.000    0.000    0.000    0.000 
#
# Total GULP energy -89276.345043 kJ/mol
# GULP energy per Si atom -5579.771565 kJ/mol
# Density = 2.390036 g / cm^3
# Si number density = 23.954887 Si / 1000 Ang^3
#
#
#
# Elastic Constant Matrix: (Units=GPa)
#
#
# Indices 1 2 3 4 5 6 
#
# 1 48.6698 5.8273 19.8055 10.1024 -13.3251 -17.5179
# 2 5.8273 125.0401 26.5622 17.8454 -13.7026 -18.7798
# 3 19.8055 26.5622 123.1763 1.4440 -22.8230 -2.9107
# 4 10.1024 17.8454 1.4440 17.6753 -0.1012 -6.6101
# 5 -13.3251 -13.7026 -22.8230 -0.1012 39.5130 2.7358
# 6 -17.5179 -18.7798 -2.9107 -6.6101 2.7358 32.4507
#
#
#
# Elastic Compliance Matrix: (Units=1/GPa)
#
#
# Indices 1 2 3 4 5 6 
#
# 1 0.034106 0.005514 -0.004256 -0.018433 0.009756 0.016644
# 2 0.005514 0.011359 -0.002303 -0.011951 0.003983 0.006574
# 3 -0.004256 -0.002303 0.009882 0.003063 0.003650 -0.002428
# 4 -0.018433 -0.011951 0.003063 0.078953 -0.008403 0.000199
# 5 0.009756 0.003983 0.003650 -0.008403 0.031824 0.003504
# 6 0.016644 0.006574 -0.002428 0.000199 0.003504 0.043132
#
#
# Mechanical properties :
#
#
# Convention : Reuss Voigt Hill
#
# Bulk Modulus (GPa) = 18.77631 44.58625 31.68128
# Shear Modulus (GPa) = 21.82468 34.24055 28.03261
#
# Velocity S-wave (km/s) = 3.02167 3.78481 3.42457
# Velocity P-wave (km/s) = 4.47540 6.14432 5.37503
#
# Compressibility (1/GPa) = 0.05325859
#
# Stress axis : x y z
#
# Youngs Moduli (GPa) = 29.32019 88.03628 101.19002
#
# Poissons Ratio (x) = -0.48545 0.43066
# Poissons Ratio (y) = -0.16168 0.23301
# Poissons Ratio (z) = 0.12479 0.20272
#
# Static dielectric constant tensor:
#      x y z
#    x 1.987990 -0.049410 0.050410 
#    y -0.049410 1.922850 -0.042010 
#    z 0.050410 -0.042010 1.950370 
# 
# From -- ./inp_files/484383.got.cif
#   From: 2010.05.17/outbox.cif.g08.bks.cpg/sg2_243_cif.got.tgz:484383.got - 2010.06.03 11:33:40.
