data_PCOD9036653
_publ_section_title
;
Structure prediction by ZEFSAII (Michael W. Deem and Ramdas Pophale) SiO2 
 PCOD9036653
Probable space group: P -1
;
_chemical_formula_sum "Si O2"
_cell_formula_units_Z 16
_cell_length_a 18.814423
_cell_length_b 27.620364
_cell_length_c 30.136309
_cell_angle_alpha 8.620549
_cell_angle_beta 18.198957
_cell_angle_gamma 18.505219
_cell_volume 719.299637
_symmetry_space_group_name_H-M "P -1"
_symmetry_group_IT_number 2
_symmetry_cell_setting 'triclinic'
loop_
_space_group_symop_operation_xyz
x,y,z
-x,-y,-z
loop_
_atom_site_type_symbol
_atom_site_label
_atom_site_fract_x
_atom_site_fract_y
_atom_site_fract_z
Si Si1 0.199110 0.122964 0.417421
Si Si2 0.035494 0.851274 0.677461
Si Si3 0.726632 0.223201 0.744730
Si Si4 0.238468 0.735567 0.179129
Si Si5 0.483804 0.427526 0.222931
Si Si6 0.720787 0.482541 0.416877
Si Si7 0.380165 0.866330 0.382475
Si Si8 0.975005 0.435494 0.680953
O O1 0.962545 0.343775 0.374872
O O2 0.124923 0.858023 0.667790
O O3 0.360483 0.925391 0.538439
O O4 0.346887 0.337561 0.107152
O O5 0.220693 0.953062 0.441688
O O6 0.789135 0.087600 0.600988
O O7 0.000000 0.500000 0.000000
O O8 0.713878 0.257382 0.668197
O O9 0.510135 0.491143 0.647718
O O10 0.945557 0.355703 0.515143
O O11 0.724600 0.852941 0.094929
O O12 0.348139 0.566348 0.222595
O O13 0.142857 0.488982 0.491879
O O14 0.433819 0.898755 0.939425
O O15 0.032065 0.047208 0.009395
O O16 0.285703 0.435527 0.296472
O O17 0.500000 0.500000 0.500000
#
# Coordination Sequence:
#
# PCOD9036653 Si02
#       8
#     2   2   2   2   2   2   2   2
#     4  12  27  44  69  97 140 176 229 276 339 399
#     4  11  24  39  64  99 138 175 211 271 351 408
#     4  11  25  45  70  97 132 172 238 274 326 393
#     4  11  21  40  65 103 141 179 216 273 334 415
#     4  12  24  44  65 102 137 179 223 278 340 402
#     4  12  27  49  71  97 131 182 228 279 330 397
#     4  10  23  38  65  99 133 173 215 277 337 406
#     4  11  24  41  71  98 137 179 226 273 338 395
#
# _framework density 22.243860999999999
#
# number of rings (size 3 to 8) (size 9 to 14) (size 15 to 20)
#    0.000    0.750    1.250    6.375   10.500    0.000 
#    0.000    3.750    0.000    0.000    0.000    0.000 
#    0.000    0.000    0.000    0.000    0.000    0.000 
#
# Total GULP energy -89642.192947 kJ/mol
# GULP energy per Si atom -5602.637059 kJ/mol
# Density = 2.219323 g / cm^3
# Si number density = 22.243861 Si / 1000 Ang^3
#
#
#
# Elastic Constant Matrix: (Units=GPa)
#
#
# Indices 1 2 3 4 5 6 
#
# 1 93.6473 37.2589 -5.5086 10.4384 -4.7234 -17.7304
# 2 37.2589 93.7854 1.9733 4.7861 -17.0128 -21.9682
# 3 -5.5086 1.9733 42.3636 -1.9495 3.3780 9.1073
# 4 10.4384 4.7861 -1.9495 23.3790 2.0724 0.3337
# 5 -4.7234 -17.0128 3.3780 2.0724 31.8226 -0.1235
# 6 -17.7304 -21.9682 9.1073 0.3337 -0.1235 23.2995
#
#
#
# Elastic Compliance Matrix: (Units=1/GPa)
#
#
# Indices 1 2 3 4 5 6 
#
# 1 0.014166 -0.003427 0.000044 -0.005788 0.000672 0.007618
# 2 -0.003427 0.018145 -0.005912 -0.003817 0.010133 0.016919
# 3 0.000044 -0.005912 0.028185 0.004354 -0.006494 -0.016654
# 4 -0.005788 -0.003817 0.004354 0.047225 -0.006478 -0.010416
# 5 0.000672 0.010133 -0.006494 -0.006478 0.038103 0.012899
# 6 0.007618 0.016919 -0.016654 -0.010416 0.012899 0.071396
#
#
# Mechanical properties :
#
#
# Convention : Reuss Voigt Hill
#
# Bulk Modulus (GPa) = 23.86306 33.02705 28.44506
# Shear Modulus (GPa) = 20.01781 28.77173 24.39477
#
# Velocity S-wave (km/s) = 3.00313 3.60038 3.31523
# Velocity P-wave (km/s) = 4.77245 5.67130 5.24118
#
# Compressibility (1/GPa) = 0.04190577
#
# Stress axis : x y z
#
# Youngs Moduli (GPa) = 70.59251 55.11273 35.48012
#
# Poissons Ratio (x) = 0.18887 -0.00156
# Poissons Ratio (y) = 0.24191 0.20975
# Poissons Ratio (z) = -0.00310 0.32581
#
# Static dielectric constant tensor:
#      x y z
#    x 1.836970 -0.018510 0.006480 
#    y -0.018510 1.813940 0.010890 
#    z 0.006480 0.010890 1.792460 
# 
# From -- ./inp_files/623953.got.cif
#   From: 2010.05.17/outbox.cif.g08.bks.cpg/sg2_312_cif.got.tgz:623953.got - 2010.06.03 11:33:40.
