data_PCOD9036045
_publ_section_title
;
Structure prediction by ZEFSAII (Michael W. Deem and Ramdas Pophale) SiO2 
 PCOD9036045
Probable space group: P -1
;
_chemical_formula_sum "Si O2"
_cell_formula_units_Z 16
_cell_length_a 9.411762
_cell_length_b 14.839613
_cell_length_c 12.397840
_cell_angle_alpha 155.986029
_cell_angle_beta 72.008134
_cell_angle_gamma 103.457804
_cell_volume 664.734296
_symmetry_space_group_name_H-M "P -1"
_symmetry_group_IT_number 2
_symmetry_cell_setting 'triclinic'
loop_
_space_group_symop_operation_xyz
x,y,z
-x,-y,-z
loop_
_atom_site_type_symbol
_atom_site_label
_atom_site_fract_x
_atom_site_fract_y
_atom_site_fract_z
Si Si1 0.420453 0.685856 0.141774
Si Si2 0.076868 0.396027 0.151654
Si Si3 0.593493 0.704046 0.686126
Si Si4 0.888397 0.367130 0.818240
Si Si5 0.577859 0.918124 0.711777
Si Si6 0.078616 0.179716 0.247295
Si Si7 0.108248 0.969542 0.250690
Si Si8 0.642045 0.942087 0.258679
O O1 0.265815 0.613095 0.058607
O O2 0.534157 0.753550 0.100978
O O3 0.363394 0.904332 0.466416
O O4 0.500000 0.500000 0.000000
O O5 0.141440 0.514289 0.161839
O O6 0.032668 0.591152 0.460529
O O7 0.194452 0.191347 0.943162
O O8 0.931803 0.281106 0.022083
O O9 0.500000 0.500000 0.500000
O O10 0.758927 0.741991 0.734874
O O11 0.611907 0.715338 0.564321
O O12 0.483161 0.891456 0.980405
O O13 0.975137 0.120104 0.509794
O O14 0.000000 0.500000 0.000000
O O15 0.441375 0.905133 0.647587
O O16 0.729149 0.983444 0.692886
O O17 0.104436 0.065907 0.234888
O O18 0.000000 0.000000 0.000000
#
# Coordination Sequence:
#
# PCOD9036045 Si02
#       8
#     2   2   2   2   2   2   2   2
#     4  11  24  44  63  97 140 174 230 278 330 411
#     4  11  23  44  67  99 137 180 229 283 339 416
#     4  10  22  47  70  98 134 175 234 281 338 423
#     4  11  25  41  66  98 134 182 227 279 341 403
#     4  10  24  42  67  99 130 179 222 284 339 403
#     4  10  24  44  71 101 135 177 229 288 349 406
#     4  10  23  44  64  97 140 171 230 282 332 419
#     4  11  25  43  67  98 135 181 224 281 344 403
#
# _framework density 24.069766999999999
#
# number of rings (size 3 to 8) (size 9 to 14) (size 15 to 20)
#    0.000    1.500    2.500    0.750    5.250    2.000 
#    6.750    0.000    0.000    0.000    0.000    0.000 
#    0.000    0.000    0.000    0.000    0.000    0.000 
#
# Total GULP energy -89429.635461 kJ/mol
# GULP energy per Si atom -5589.352216 kJ/mol
# Density = 2.401498 g / cm^3
# Si number density = 24.069767 Si / 1000 Ang^3
#
#
#
# Elastic Constant Matrix: (Units=GPa)
#
#
# Indices 1 2 3 4 5 6 
#
# 1 152.8644 25.0034 37.9437 9.0368 5.6957 17.3756
# 2 25.0034 50.4014 -5.5534 9.0027 8.5734 10.6163
# 3 37.9437 -5.5534 98.2171 3.2158 11.0878 10.4106
# 4 9.0368 9.0027 3.2158 14.8363 7.8438 10.4220
# 5 5.6957 8.5734 11.0878 7.8438 35.9196 2.4244
# 6 17.3756 10.6163 10.4106 10.4220 2.4244 43.4558
#
#
#
# Elastic Compliance Matrix: (Units=1/GPa)
#
#
# Indices 1 2 3 4 5 6 
#
# 1 0.008235 -0.004125 -0.003368 -0.001566 0.001139 -0.001166
# 2 -0.004125 0.025413 0.004165 -0.009288 -0.004461 -0.003080
# 3 -0.003368 0.004165 0.012457 0.000979 -0.004340 -0.002647
# 4 -0.001566 -0.009288 0.000979 0.096883 -0.017671 -0.019589
# 5 0.001139 -0.004461 -0.004340 -0.017671 0.033650 0.004035
# 6 -0.001166 -0.003080 -0.002647 -0.019589 0.004035 0.029338
#
#
# Mechanical properties :
#
#
# Convention : Reuss Voigt Hill
#
# Bulk Modulus (GPa) = 25.35033 46.25226 35.80129
# Shear Modulus (GPa) = 22.14519 35.11495 28.63007
#
# Velocity S-wave (km/s) = 3.03651 3.82367 3.45260
# Velocity P-wave (km/s) = 4.78004 6.22508 5.54979
#
# Compressibility (1/GPa) = 0.03944722
#
# Stress axis : x y z
#
# Youngs Moduli (GPa) = 121.42941 39.35054 80.27710
#
# Poissons Ratio (x) = 0.16232 0.27041
# Poissons Ratio (y) = 0.50089 -0.33433
# Poissons Ratio (z) = 0.40903 -0.16388
#
# Static dielectric constant tensor:
#      x y z
#    x 1.960700 -0.019680 -0.003680 
#    y -0.019680 2.003490 0.061360 
#    z -0.003680 0.061360 1.944030 
# 
# From -- ./inp_files/90398.got.cif
#   From: 2010.05.17/outbox.cif.g08.bks.cpg/sg2_46_cif.got.tgz:90398.got - 2010.06.03 11:33:40.
