data_PCOD9036559
_publ_section_title
;
Structure prediction by ZEFSAII (Michael W. Deem and Ramdas Pophale) SiO2 
 PCOD9036559
Probable space group: P -1
;
_chemical_formula_sum "Si O2"
_cell_formula_units_Z 16
_cell_length_a 9.490452
_cell_length_b 9.206225
_cell_length_c 10.062102
_cell_angle_alpha 84.319802
_cell_angle_beta 48.424664
_cell_angle_gamma 64.192625
_cell_volume 568.044482
_symmetry_space_group_name_H-M "P -1"
_symmetry_group_IT_number 2
_symmetry_cell_setting 'triclinic'
loop_
_space_group_symop_operation_xyz
x,y,z
-x,-y,-z
loop_
_atom_site_type_symbol
_atom_site_label
_atom_site_fract_x
_atom_site_fract_y
_atom_site_fract_z
Si Si1 0.086633 0.118983 0.340512
Si Si2 0.521875 0.673451 0.868447
Si Si3 0.407428 0.267351 0.587604
Si Si4 0.823890 0.320437 0.746273
Si Si5 0.017986 0.411433 0.184534
Si Si6 0.477556 0.007322 0.266162
Si Si7 0.837942 0.972281 0.335749
Si Si8 0.305192 0.524874 0.829463
O O1 0.934480 0.221518 0.551309
O O2 0.126055 0.251642 0.224235
O O3 0.323373 0.981239 0.260319
O O4 0.962344 0.050746 0.333540
O O5 0.764952 0.513214 0.748040
O O6 0.472650 0.858641 0.843794
O O7 0.426738 0.607926 0.816804
O O8 0.400243 0.673999 0.079478
O O9 0.189963 0.416219 0.645999
O O10 0.468989 0.374504 0.642321
O O11 0.356315 0.155231 0.737637
O O12 0.631531 0.134618 0.386285
O O13 0.960515 0.211492 0.801046
O O14 0.893854 0.361399 0.154393
O O15 0.189308 0.451457 0.004226
O O16 0.300050 0.093921 0.486711
#
# Coordination Sequence:
#
# PCOD9036559 Si02
#       8
#     2   2   2   2   2   2   2   2
#     4  11  21  39  68 102 124 166 214 275 319 366
#     4  11  23  40  63  96 132 176 201 264 328 390
#     4   8  18  41  65  92 126 163 221 259 311 373
#     4  10  23  38  60  96 135 162 210 260 329 381
#     4   9  21  39  70  95 124 170 216 267 314 373
#     4   9  21  38  64  98 125 161 217 261 328 365
#     4   9  20  39  62  91 133 160 213 273 301 377
#     4   9  20  42  66  92 129 166 218 260 310 386
#
# _framework density 28.166808
#
# number of rings (size 3 to 8) (size 9 to 14) (size 15 to 20)
#    1.500    1.000    0.000    2.250    5.250    3.500 
#    0.000    2.500    0.000    2.250    0.000    0.000 
#    0.000    0.000    0.000    0.000    0.000    0.000 
#
# Total GULP energy -89189.627112 kJ/mol
# GULP energy per Si atom -5574.351694 kJ/mol
# Density = 2.810270 g / cm^3
# Si number density = 28.166808 Si / 1000 Ang^3
#
#
#
# Elastic Constant Matrix: (Units=GPa)
#
#
# Indices 1 2 3 4 5 6 
#
# 1 113.3372 26.7243 -1.0079 4.0626 -21.1800 -12.2848
# 2 26.7243 88.5473 16.1859 -15.4287 4.7014 -13.0471
# 3 -1.0079 16.1859 46.6962 -4.8326 -1.9908 -10.2109
# 4 4.0626 -15.4287 -4.8326 59.4009 -8.7842 -2.7837
# 5 -21.1800 4.7014 -1.9908 -8.7842 38.0403 3.1320
# 6 -12.2848 -13.0471 -10.2109 -2.7837 3.1320 66.4597
#
#
#
# Elastic Compliance Matrix: (Units=1/GPa)
#
#
# Indices 1 2 3 4 5 6 
#
# 1 0.011185 -0.004035 0.002136 -0.000605 0.006594 0.001267
# 2 -0.004035 0.014330 -0.004515 0.003168 -0.003661 0.001679
# 3 0.002136 -0.004515 0.023959 0.001223 0.003028 0.003098
# 4 -0.000605 0.003168 0.001223 0.018373 0.003471 0.001304
# 5 0.006594 -0.003661 0.003028 0.003471 0.031402 -0.000369
# 6 0.001267 0.001679 0.003098 0.001304 -0.000369 0.016159
#
#
# Mechanical properties :
#
#
# Convention : Reuss Voigt Hill
#
# Bulk Modulus (GPa) = 27.28845 36.93172 32.11009
# Shear Modulus (GPa) = 35.59929 46.55875 41.07902
#
# Velocity S-wave (km/s) = 3.55896 4.07008 3.82307
# Velocity P-wave (km/s) = 5.15727 5.93529 5.55990
#
# Compressibility (1/GPa) = 0.03664553
#
# Stress axis : x y z
#
# Youngs Moduli (GPa) = 89.40617 69.78241 41.73734
#
# Poissons Ratio (x) = 0.28156 -0.08914
# Poissons Ratio (y) = 0.36074 0.18846
# Poissons Ratio (z) = -0.19094 0.31509
#
# Static dielectric constant tensor:
#      x y z
#    x 2.363840 0.038870 0.018190 
#    y 0.038870 2.205010 0.031500 
#    z 0.018190 0.031500 2.156420 
# 
# From -- ./inp_files/513087.got.cif
#   From: 2010.05.17/outbox.cif.g08.bks.cpg/sg2_257_cif.got.tgz:513087.got - 2010.06.03 11:33:40.
