data_PCOD9036528
_publ_section_title
;
Structure prediction by ZEFSAII (Michael W. Deem and Ramdas Pophale) SiO2 
 PCOD9036528
Probable space group: P -1
;
_chemical_formula_sum "Si O2"
_cell_formula_units_Z 16
_cell_length_a 13.443331
_cell_length_b 8.628256
_cell_length_c 9.133068
_cell_angle_alpha 90.822117
_cell_angle_beta 49.656202
_cell_angle_gamma 71.778186
_cell_volume 731.742024
_symmetry_space_group_name_H-M "P -1"
_symmetry_group_IT_number 2
_symmetry_cell_setting 'triclinic'
loop_
_space_group_symop_operation_xyz
x,y,z
-x,-y,-z
loop_
_atom_site_type_symbol
_atom_site_label
_atom_site_fract_x
_atom_site_fract_y
_atom_site_fract_z
Si Si1 0.985021 0.564108 0.782357
Si Si2 0.574834 0.811878 0.355336
Si Si3 0.306749 0.358733 0.486798
Si Si4 0.668500 0.310951 0.439286
Si Si5 0.920776 0.302209 0.013686
Si Si6 0.555333 0.024435 0.104467
Si Si7 0.863618 0.890000 0.721170
Si Si8 0.100207 0.005652 0.624110
O O1 0.906729 0.451292 0.915941
O O2 0.146696 0.438643 0.575658
O O3 0.900326 0.701321 0.743053
O O4 0.013913 0.663131 0.896332
O O5 0.706641 0.705711 0.335823
O O6 0.473831 0.712311 0.462138
O O7 0.500000 0.000000 0.500000
O O8 0.588462 0.861712 0.177324
O O9 0.353503 0.514111 0.458011
O O10 0.431137 0.196509 0.290659
O O11 0.759855 0.152232 0.454374
O O12 0.770880 0.298025 0.202842
O O13 0.027437 0.129978 0.830536
O O14 0.710955 0.023015 0.931959
O O15 0.500000 0.000000 0.000000
O O16 0.988207 0.936837 0.667047
O O17 0.862754 0.903741 0.547032
#
# Coordination Sequence:
#
# PCOD9036528 Si02
#       8
#     2   2   2   2   2   2   2   2
#     4  10  23  44  68 104 132 169 226 283 331 389
#     4  10  24  39  68  93 134 178 219 271 334 398
#     4  10  23  44  67  96 139 170 221 284 330 391
#     4  11  22  43  68 103 135 172 230 278 340 389
#     4  10  23  37  71  97 137 166 222 280 335 380
#     4  11  26  46  66  96 133 186 221 268 334 413
#     4  11  25  45  67  96 137 173 232 263 340 403
#     4  11  24  42  69  98 132 180 220 283 327 400
#
# _framework density 21.865629999999999
#
# number of rings (size 3 to 8) (size 9 to 14) (size 15 to 20)
#    0.000    1.500    2.500    1.500   14.000    0.500 
#    0.000    2.500    0.000    0.000    0.000    0.000 
#    0.000    0.000    0.000    0.000    0.000    0.000 
#
# Total GULP energy -89472.564099 kJ/mol
# GULP energy per Si atom -5592.035256 kJ/mol
# Density = 2.181586 g / cm^3
# Si number density = 21.865630 Si / 1000 Ang^3
#
#
#
# Elastic Constant Matrix: (Units=GPa)
#
#
# Indices 1 2 3 4 5 6 
#
# 1 40.6681 15.4812 29.3997 2.1247 -2.8519 -13.7236
# 2 15.4812 109.8730 41.7903 -1.6779 15.0346 -21.4069
# 3 29.3997 41.7903 103.6300 1.7627 -6.0281 -15.7969
# 4 2.1247 -1.6779 1.7627 44.0544 -1.7433 -2.4512
# 5 -2.8519 15.0346 -6.0281 -1.7433 30.3353 -1.1861
# 6 -13.7236 -21.4069 -15.7969 -2.4512 -1.1861 39.7400
#
#
#
# Elastic Compliance Matrix: (Units=1/GPa)
#
#
# Indices 1 2 3 4 5 6 
#
# 1 0.033428 -0.000379 -0.007951 -0.000773 0.002026 0.008192
# 2 -0.000379 0.012891 -0.004797 0.000682 -0.007154 0.004735
# 3 -0.007951 -0.004797 0.014166 -0.000166 0.004452 0.000424
# 4 -0.000773 0.000682 -0.000166 0.022888 0.000930 0.001474
# 5 0.002026 -0.007154 0.004452 0.000930 0.037631 -0.000203
# 6 0.008192 0.004735 0.000424 0.001474 -0.000203 0.030797
#
#
# Mechanical properties :
#
#
# Convention : Reuss Voigt Hill
#
# Bulk Modulus (GPa) = 29.21239 47.50151 38.35695
# Shear Modulus (GPa) = 26.38999 33.99259 30.19129
#
# Velocity S-wave (km/s) = 3.47784 3.94714 3.71990
# Velocity P-wave (km/s) = 5.43287 6.52262 6.00253
#
# Compressibility (1/GPa) = 0.03423205
#
# Stress axis : x y z
#
# Youngs Moduli (GPa) = 29.91469 77.57254 70.58996
#
# Poissons Ratio (x) = 0.02939 0.56126
# Poissons Ratio (y) = 0.01133 0.33862
# Poissons Ratio (z) = 0.23785 0.37211
#
# Static dielectric constant tensor:
#      x y z
#    x 1.792380 -0.000290 -0.007790 
#    y -0.000290 1.803500 -0.010360 
#    z -0.007790 -0.010360 1.826220 
# 
# From -- ./inp_files/292467.got.cif
#   From: 2010.05.17/outbox.cif.g08.bks.cpg/sg2_147_cif.got.tgz:292467.got - 2010.06.03 11:33:40.
