data_PCOD9036970
_publ_section_title
;
Structure prediction by ZEFSAII (Michael W. Deem and Ramdas Pophale) SiO2 
 PCOD9036970
Probable space group: P -1
;
_chemical_formula_sum "Si O2"
_cell_formula_units_Z 12
_cell_length_a 5.274943
_cell_length_b 8.611132
_cell_length_c 14.507301
_cell_angle_alpha 130.086654
_cell_angle_beta 76.890297
_cell_angle_gamma 89.138468
_cell_volume 479.405951
_symmetry_space_group_name_H-M "P -1"
_symmetry_group_IT_number 2
_symmetry_cell_setting 'triclinic'
loop_
_space_group_symop_operation_xyz
x,y,z
-x,-y,-z
loop_
_atom_site_type_symbol
_atom_site_label
_atom_site_fract_x
_atom_site_fract_y
_atom_site_fract_z
Si Si1 0.721257 0.302990 0.934046
Si Si2 0.513661 0.146582 0.466349
Si Si3 0.090792 0.129649 0.332366
Si Si4 0.026494 0.425476 0.102705
Si Si5 0.802945 0.399792 0.303753
Si Si6 0.295297 0.992840 0.932623
O O1 0.950854 0.367521 0.872892
O O2 0.770343 0.059813 0.818013
O O3 0.500000 0.500000 0.000000
O O4 0.769508 0.356136 0.056024
O O5 0.301937 0.126424 0.395676
O O6 0.422714 0.392197 0.590179
O O7 0.814879 0.096048 0.385860
O O8 0.500000 0.000000 0.500000
O O9 0.985149 0.329204 0.351434
O O10 0.993555 0.441799 0.220493
O O11 0.255500 0.223002 0.979765
O O12 0.669606 0.204886 0.212857
O O13 0.500000 0.000000 0.000000
O O14 0.000000 0.000000 0.000000
#
# Coordination Sequence:
#
# PCOD9036970 Si02
#       6
#     2   2   2   2   2   2
#     4  11  26  43  73 106 151 191 246 300 374 442
#     4  12  29  51  78 107 148 202 250 304 370 441
#     4  12  28  50  76 112 147 196 252 308 365 444
#     4  10  24  44  67 109 144 195 237 304 371 436
#     4  11  25  49  76 108 153 193 250 307 368 440
#     4  10  23  39  67 104 141 184 233 289 362 427
#
# _framework density 25.030977
#
# number of rings (size 3 to 8) (size 9 to 14) (size 15 to 20)
#    0.000    1.000    1.667    2.500   11.667    5.333 
#    0.000    0.000    0.000    0.000    0.000    0.000 
#    0.000    0.000    0.000    0.000    0.000    0.000 
#
# Total GULP energy -67067.740074 kJ/mol
# GULP energy per Si atom -5588.978340 kJ/mol
# Density = 2.497401 g / cm^3
# Si number density = 25.030977 Si / 1000 Ang^3
#
#
#
# Elastic Constant Matrix: (Units=GPa)
#
#
# Indices 1 2 3 4 5 6 
#
# 1 116.0171 29.7564 41.4777 -4.6928 3.0723 -36.2951
# 2 29.7564 159.0827 35.8251 -8.8348 12.3372 -21.8719
# 3 41.4777 35.8251 121.8858 15.6316 -11.0859 -12.9998
# 4 -4.6928 -8.8348 15.6316 59.5079 -5.3597 0.9850
# 5 3.0723 12.3372 -11.0859 -5.3597 49.3771 -4.9718
# 6 -36.2951 -21.8719 -12.9998 0.9850 -4.9718 44.8932
#
#
#
# Elastic Compliance Matrix: (Units=1/GPa)
#
#
# Indices 1 2 3 4 5 6 
#
# 1 0.012934 -0.000204 -0.003623 0.001748 -0.000449 0.009220
# 2 -0.000204 0.007398 -0.002191 0.001443 -0.001913 0.002562
# 3 -0.003623 -0.002191 0.010683 -0.003158 0.002775 -0.000527
# 4 0.001748 0.001443 -0.003158 0.018050 0.000872 0.000903
# 5 -0.000449 -0.001913 0.002775 0.000872 0.021666 0.001889
# 6 0.009220 0.002562 -0.000527 0.000903 0.001889 0.031015
#
#
# Mechanical properties :
#
#
# Convention : Reuss Voigt Hill
#
# Bulk Modulus (GPa) = 52.68979 67.90046 60.29513
# Shear Modulus (GPa) = 41.62906 50.08405 45.85656
#
# Velocity S-wave (km/s) = 4.08254 4.47798 4.28482
# Velocity P-wave (km/s) = 6.58167 7.34315 6.97281
#
# Compressibility (1/GPa) = 0.01897901
#
# Stress axis : x y z
#
# Youngs Moduli (GPa) = 77.31429 135.16637 93.60898
#
# Poissons Ratio (x) = 0.02754 0.33917
# Poissons Ratio (y) = 0.01575 0.20510
# Poissons Ratio (z) = 0.28013 0.29616
#
# Static dielectric constant tensor:
#      x y z
#    x 2.040310 0.435330 0.001770 
#    y 0.435330 1.582870 -0.019640 
#    z 0.001770 -0.019640 1.996330 
# 
# From -- ./inp_files/230087.got.cif
#   From: 2010.05.17/outbox.cif.g08.bks.cpg/sg2_116_cif.got.tgz:230087.got - 2010.06.03 11:33:40.
