data_PCOD9036552
_publ_section_title
;
Structure prediction by ZEFSAII (Michael W. Deem and Ramdas Pophale) SiO2 
 PCOD9036552
Probable space group: P -1
;
_chemical_formula_sum "Si O2"
_cell_formula_units_Z 16
_cell_length_a 20.394261
_cell_length_b 8.141309
_cell_length_c 13.859136
_cell_angle_alpha 148.328627
_cell_angle_beta 144.047230
_cell_angle_gamma 38.853533
_cell_volume 678.581626
_symmetry_space_group_name_H-M "P -1"
_symmetry_group_IT_number 2
_symmetry_cell_setting 'triclinic'
loop_
_space_group_symop_operation_xyz
x,y,z
-x,-y,-z
loop_
_atom_site_type_symbol
_atom_site_label
_atom_site_fract_x
_atom_site_fract_y
_atom_site_fract_z
Si Si1 0.827553 0.196905 0.091890
Si Si2 0.957116 0.176267 0.935836
Si Si3 0.349179 0.358752 0.020843
Si Si4 0.082676 0.686977 0.388437
Si Si5 0.426571 0.606911 0.782880
Si Si6 0.286366 0.398138 0.361694
Si Si7 0.728134 0.580131 0.355208
Si Si8 0.317768 0.680557 0.344391
O O1 0.778015 0.441139 0.066075
O O2 0.766127 0.905454 0.865546
O O3 0.791898 0.396435 0.246160
O O4 0.964970 0.043485 0.164374
O O5 0.821475 0.249318 0.797179
O O6 0.995235 0.504604 0.149558
O O7 0.000000 0.000000 0.000000
O O8 0.437255 0.442157 0.090391
O O9 0.373707 0.481551 0.216845
O O10 0.370307 0.973217 0.858102
O O11 0.174898 0.692101 0.415562
O O12 0.172237 0.474456 0.469841
O O13 0.000000 0.000000 0.500000
O O14 0.383222 0.356851 0.539358
O O15 0.369276 0.582701 0.804773
O O16 0.343678 0.483901 0.376094
O O17 0.666300 0.961240 0.453678
#
# Coordination Sequence:
#
# PCOD9036552 Si02
#       8
#     2   2   2   2   2   2   2   2
#     4  11  24  41  64  94 128 165 210 253 309 369
#     4  11  22  40  60  92 130 164 210 251 305 371
#     4  11  23  43  70  91 121 165 202 265 318 366
#     4  10  23  38  60  88 124 170 207 252 308 358
#     4  10  24  45  66  93 123 158 212 259 317 371
#     4  10  24  41  61  94 126 162 210 255 304 374
#     4  11  24  41  61  93 126 165 210 254 307 371
#     4  12  24  40  65  93 129 168 207 255 309 367
#
# _framework density 23.578593000000001
#
# number of rings (size 3 to 8) (size 9 to 14) (size 15 to 20)
#    0.000    1.250    2.500    3.000    7.000    5.500 
#    0.000    0.000    0.000    0.000    0.000    0.000 
#    0.000    0.000    0.000    0.000    0.000    0.000 
#
# Total GULP energy -89537.264700 kJ/mol
# GULP energy per Si atom -5596.079044 kJ/mol
# Density = 2.352493 g / cm^3
# Si number density = 23.578593 Si / 1000 Ang^3
#
#
#
# Elastic Constant Matrix: (Units=GPa)
#
#
# Indices 1 2 3 4 5 6 
#
# 1 94.2656 -7.0035 5.5202 3.2441 -13.0549 -7.3837
# 2 -7.0035 48.3564 -3.5099 3.7516 2.2262 -8.2976
# 3 5.5202 -3.5099 47.9158 0.6293 2.0215 -13.4257
# 4 3.2441 3.7516 0.6293 15.2990 -4.3194 -1.5729
# 5 -13.0549 2.2262 2.0215 -4.3194 42.9232 -4.5142
# 6 -7.3837 -8.2976 -13.4257 -1.5729 -4.5142 26.3923
#
#
#
# Elastic Compliance Matrix: (Units=1/GPa)
#
#
# Indices 1 2 3 4 5 6 
#
# 1 0.011724 0.002429 -0.000028 -0.001546 0.003768 0.004582
# 2 0.002429 0.023473 0.004288 -0.005486 -0.000194 0.009881
# 3 -0.000028 0.004288 0.025145 -0.000630 0.000004 0.014095
# 4 -0.001546 -0.005486 -0.000630 0.069371 0.007127 0.002876
# 5 0.003768 -0.000194 0.000004 0.007127 0.025784 0.005830
# 6 0.004582 0.009881 0.014095 0.002876 0.005830 0.050616
#
#
# Mechanical properties :
#
#
# Convention : Reuss Voigt Hill
#
# Bulk Modulus (GPa) = 13.56479 20.06128 16.81304
# Shear Modulus (GPa) = 23.00893 29.95831 26.48362
#
# Velocity S-wave (km/s) = 3.12723 3.56838 3.35506
# Velocity P-wave (km/s) = 4.33647 5.05020 4.70688
#
# Compressibility (1/GPa) = 0.07372026
#
# Stress axis : x y z
#
# Youngs Moduli (GPa) = 85.29345 42.60259 39.77000
#
# Poissons Ratio (x) = -0.10347 0.00110
# Poissons Ratio (y) = -0.20715 -0.17054
# Poissons Ratio (z) = 0.00236 -0.18269
#
# Static dielectric constant tensor:
#      x y z
#    x 1.916620 0.009530 0.011550 
#    y 0.009530 1.880170 -0.007870 
#    z 0.011550 -0.007870 1.870450 
# 
# From -- ./inp_files/188080.got.cif
#   From: 2010.05.17/outbox.cif.g08.bks.cpg/sg2_95_cif.got.tgz:188080.got - 2010.06.03 11:33:40.
