data_PCOD9036845
_publ_section_title
;
Structure prediction by ZEFSAII (Michael W. Deem and Ramdas Pophale) SiO2 
 PCOD9036845
Probable space group: P -1
;
_chemical_formula_sum "Si O2"
_cell_formula_units_Z 14
_cell_length_a 19.587581
_cell_length_b 11.666977
_cell_length_c 14.448702
_cell_angle_alpha 149.831564
_cell_angle_beta 157.874731
_cell_angle_gamma 40.425128
_cell_volume 611.115424
_symmetry_space_group_name_H-M "P -1"
_symmetry_group_IT_number 2
_symmetry_cell_setting 'triclinic'
loop_
_space_group_symop_operation_xyz
x,y,z
-x,-y,-z
loop_
_atom_site_type_symbol
_atom_site_label
_atom_site_fract_x
_atom_site_fract_y
_atom_site_fract_z
Si Si1 0.735426 0.708107 0.161561
Si Si2 0.309815 0.497080 0.527605
Si Si3 0.347472 0.054372 0.156389
Si Si4 0.289393 0.521303 0.731374
Si Si5 0.774207 0.200549 0.846548
Si Si6 0.959649 0.868208 0.729288
Si Si7 0.208461 0.976879 0.724022
O O1 0.882383 0.851189 0.517391
O O2 0.718094 0.861774 0.157947
O O3 0.531601 0.610667 0.881064
O O4 0.807637 0.475670 0.065525
O O5 0.270235 0.262547 0.253143
O O6 0.255802 0.443403 0.528503
O O7 0.215626 0.708381 0.525897
O O8 0.560794 0.098489 0.486249
O O9 0.265480 0.786639 0.891762
O O10 0.326507 0.060041 0.022985
O O11 0.159071 0.360976 0.528178
O O12 0.500000 0.500000 0.000000
O O13 0.894654 0.082179 0.845894
O O14 0.834301 0.138064 0.981463
O O15 0.000000 0.000000 0.500000
#
# Coordination Sequence:
#
# PCOD9036845 Si02
#       7
#     2   2   2   2   2   2   2
#     4  11  23  42  69  93 133 178 217 261 332 392
#     4  10  23  42  68  97 126 179 219 264 332 390
#     4  10  23  44  66  96 130 176 220 267 326 389
#     4  11  20  39  68  97 141 168 214 271 325 386
#     4  10  23  39  64 102 131 169 219 265 324 388
#     4  11  22  41  64 102 138 171 212 269 324 390
#     4  11  26  46  67  96 131 168 224 283 326 381
#
# _framework density 22.908929000000001
#
# number of rings (size 3 to 8) (size 9 to 14) (size 15 to 20)
#    0.000    1.429    2.857    1.714    4.000    5.714 
#    5.143    0.000    0.000    0.000    0.000    0.000 
#    0.000    0.000    0.000    0.000    0.000    0.000 
#
# Total GULP energy -78404.983372 kJ/mol
# GULP energy per Si atom -5600.355955 kJ/mol
# Density = 2.285679 g / cm^3
# Si number density = 22.908929 Si / 1000 Ang^3
#
#
#
# Elastic Constant Matrix: (Units=GPa)
#
#
# Indices 1 2 3 4 5 6 
#
# 1 100.8434 52.4610 42.3989 6.6893 -28.9829 3.8848
# 2 52.4610 166.8867 38.3017 15.8324 -25.1948 -17.5137
# 3 42.3989 38.3017 91.5127 -6.1006 -13.3847 -15.1611
# 4 6.6893 15.8324 -6.1006 39.5561 -12.2209 -9.6351
# 5 -28.9829 -25.1948 -13.3847 -12.2209 39.3102 -1.1853
# 6 3.8848 -17.5137 -15.1611 -9.6351 -1.1853 22.9681
#
#
#
# Elastic Compliance Matrix: (Units=1/GPa)
#
#
# Indices 1 2 3 4 5 6 
#
# 1 0.017839 -0.003725 -0.008080 -0.003813 0.006453 -0.012457
# 2 -0.003725 0.008371 -0.000274 -0.000276 0.002647 0.006853
# 3 -0.008080 -0.000274 0.019063 0.010095 0.004045 0.018185
# 4 -0.003813 -0.000276 0.010095 0.037215 0.012723 0.023366
# 5 0.006453 0.002647 0.004045 0.012723 0.037553 0.010872
# 6 -0.012457 0.006853 0.018185 0.023366 0.010872 0.073238
#
#
# Mechanical properties :
#
#
# Convention : Reuss Voigt Hill
#
# Bulk Modulus (GPa) = 47.35948 69.50733 58.43341
# Shear Modulus (GPa) = 22.27432 35.43897 28.85664
#
# Velocity S-wave (km/s) = 3.12155 3.93740 3.55297
# Velocity P-wave (km/s) = 5.80603 7.14684 6.51104
#
# Compressibility (1/GPa) = 0.02111510
#
# Stress axis : x y z
#
# Youngs Moduli (GPa) = 56.05813 119.46546 52.45783
#
# Poissons Ratio (x) = 0.44495 0.42387
# Poissons Ratio (y) = 0.20879 0.01436
# Poissons Ratio (z) = 0.45296 0.03271
#
# Static dielectric constant tensor:
#      x y z
#    x 1.874060 -0.024290 0.022600 
#    y -0.024290 1.830910 -0.007210 
#    z 0.022600 -0.007210 1.876500 
# 
# From -- ./inp_files/179820.got.cif
#   From: 2010.05.17/outbox.cif.g08.bks.cpg/sg2_90_cif.got.tgz:179820.got - 2010.06.03 11:33:40.
