data_PCOD9036852
_publ_section_title
;
Structure prediction by ZEFSAII (Michael W. Deem and Ramdas Pophale) SiO2 
 PCOD9036852
Probable space group: P -1
;
_chemical_formula_sum "Si O2"
_cell_formula_units_Z 14
_cell_length_a 17.731037
_cell_length_b 17.872805
_cell_length_c 12.136224
_cell_angle_alpha 156.588967
_cell_angle_beta 43.910097
_cell_angle_gamma 149.746690
_cell_volume 717.980326
_symmetry_space_group_name_H-M "P -1"
_symmetry_group_IT_number 2
_symmetry_cell_setting 'triclinic'
loop_
_space_group_symop_operation_xyz
x,y,z
-x,-y,-z
loop_
_atom_site_type_symbol
_atom_site_label
_atom_site_fract_x
_atom_site_fract_y
_atom_site_fract_z
Si Si1 0.184160 0.233181 0.148341
Si Si2 0.656917 0.191237 0.169833
Si Si3 0.838816 0.163731 0.218818
Si Si4 0.878527 0.113195 0.858611
Si Si5 0.225270 0.370712 0.836021
Si Si6 0.618727 0.494101 0.912182
Si Si7 0.469811 0.008905 0.718858
O O1 0.250149 0.490475 0.499549
O O2 0.262332 0.368708 0.130452
O O3 0.197138 0.048782 0.944679
O O4 0.000000 0.000000 0.000000
O O5 0.576605 0.062900 0.201022
O O6 0.789410 0.191888 0.015095
O O7 0.500000 0.000000 0.000000
O O8 0.000000 0.500000 0.500000
O O9 0.693114 0.118260 0.331679
O O10 0.833042 0.060217 0.964095
O O11 0.071718 0.317736 0.929922
O O12 0.813211 0.855690 0.507881
O O13 0.280984 0.364666 0.889534
O O14 0.377338 0.670821 0.031301
O O15 0.510517 0.170461 0.595671
O O16 0.500000 0.500000 0.000000
#
# Coordination Sequence:
#
# PCOD9036852 Si02
#       7
#     2   2   2   2   2   2   2
#     4  11  23  40  66  94 122 169 217 272 324 372
#     4  10  24  41  65  95 133 164 222 273 326 382
#     4  11  22  42  69  92 126 165 226 269 310 391
#     4  10  24  41  65  93 131 173 209 270 322 390
#     4  11  23  42  63  94 135 172 216 254 329 398
#     4  11  24  40  62  96 129 166 213 268 321 382
#     4  10  23  39  64  91 120 175 217 260 320 381
#
# _framework density 19.499141000000002
#
# number of rings (size 3 to 8) (size 9 to 14) (size 15 to 20)
#    0.000    1.429    0.000    5.571    8.000    3.429 
#    0.000    0.714    0.000    0.000    0.000    0.000 
#    0.000    0.000    0.000    0.000    0.000    0.000 
#
# Total GULP energy -77985.914637 kJ/mol
# GULP energy per Si atom -5570.422474 kJ/mol
# Density = 1.945476 g / cm^3
# Si number density = 19.499141 Si / 1000 Ang^3
#
#
#
# Elastic Constant Matrix: (Units=GPa)
#
#
# Indices 1 2 3 4 5 6 
#
# 1 141.8740 35.7502 73.0797 10.6677 -5.0381 14.5742
# 2 35.7502 88.6991 50.1443 17.0853 -0.3006 15.8983
# 3 73.0797 50.1443 123.2352 15.9299 5.6387 4.0826
# 4 10.6677 17.0853 15.9299 36.5955 -1.0178 2.3485
# 5 -5.0381 -0.3006 5.6387 -1.0178 27.6880 4.2276
# 6 14.5742 15.8983 4.0826 2.3485 4.2276 37.1968
#
#
#
# Elastic Compliance Matrix: (Units=1/GPa)
#
#
# Indices 1 2 3 4 5 6 
#
# 1 0.010982 0.000023 -0.006571 0.000018 0.003955 -0.004042
# 2 0.000023 0.016807 -0.006133 -0.004705 0.002252 -0.006478
# 3 -0.006571 -0.006133 0.014867 -0.002107 -0.005019 0.004267
# 4 0.000018 -0.004705 -0.002107 0.030466 0.001479 0.000144
# 5 0.003955 0.002252 -0.005019 0.001479 0.038926 -0.006479
# 6 -0.004042 -0.006478 0.004267 0.000144 -0.006479 0.031495
#
#
# Mechanical properties :
#
#
# Convention : Reuss Voigt Hill
#
# Bulk Modulus (GPa) = 57.82094 74.63963 66.23028
# Shear Modulus (GPa) = 28.62544 33.28499 30.95522
#
# Velocity S-wave (km/s) = 3.83565 4.13607 3.98869
# Velocity P-wave (km/s) = 7.02380 7.82118 7.43319
#
# Compressibility (1/GPa) = 0.01729477
#
# Stress axis : x y z
#
# Youngs Moduli (GPa) = 91.06012 59.49968 67.26249
#
# Poissons Ratio (x) = -0.00137 0.44198
# Poissons Ratio (y) = -0.00210 0.41249
# Poissons Ratio (z) = 0.59836 0.36488
#
# Static dielectric constant tensor:
#      x y z
#    x 1.883830 0.130770 -0.087900 
#    y 0.130770 1.711630 -0.074500 
#    z -0.087900 -0.074500 1.737910 
# 
# From -- ./inp_files/157320.got.cif
#   From: 2010.05.17/outbox.cif.g08.bks.cpg/sg2_79_cif.got.tgz:157320.got - 2010.06.03 11:33:40.
