data_PCOD9036426
_publ_section_title
;
Structure prediction by ZEFSAII (Michael W. Deem and Ramdas Pophale) SiO2 
 PCOD9036426
Probable space group: P -1
;
_chemical_formula_sum "Si O2"
_cell_formula_units_Z 16
_cell_length_a 8.595431
_cell_length_b 15.394015
_cell_length_c 9.109477
_cell_angle_alpha 88.102480
_cell_angle_beta 118.688702
_cell_angle_gamma 135.267835
_cell_volume 645.019557
_symmetry_space_group_name_H-M "P -1"
_symmetry_group_IT_number 2
_symmetry_cell_setting 'triclinic'
loop_
_space_group_symop_operation_xyz
x,y,z
-x,-y,-z
loop_
_atom_site_type_symbol
_atom_site_label
_atom_site_fract_x
_atom_site_fract_y
_atom_site_fract_z
Si Si1 0.798787 0.676733 0.495597
Si Si2 0.760383 0.014273 0.891346
Si Si3 0.267512 0.855418 0.494237
Si Si4 0.949709 0.606916 0.136983
Si Si5 0.733612 0.459849 0.333203
Si Si6 0.556076 0.759589 0.338825
Si Si7 0.849719 0.703297 0.857931
Si Si8 0.045795 0.030128 0.758239
O O1 0.769867 0.569403 0.420211
O O2 0.555365 0.656483 0.377972
O O3 0.861594 0.687227 0.693888
O O4 0.048927 0.821185 0.503381
O O5 0.955900 0.066566 0.835864
O O6 0.445229 0.869875 0.695287
O O7 0.834041 0.142000 0.954175
O O8 0.831769 0.995791 0.076401
O O9 0.091565 0.730397 0.307975
O O10 0.500000 0.000000 0.500000
O O11 0.225423 0.663055 0.196503
O O12 0.753012 0.473934 0.164545
O O13 0.782189 0.596845 0.940032
O O14 0.393567 0.314740 0.228765
O O15 0.000000 0.500000 0.500000
O O16 0.712269 0.845435 0.253130
O O17 0.760505 0.885605 0.548502
#
# Coordination Sequence:
#
# PCOD9036426 Si02
#       8
#     2   2   2   2   2   2   2   2
#     4  11  26  44  73 101 135 183 232 288 342 409
#     4  11  22  38  65 102 145 181 232 271 338 411
#     4  11  22  40  65  99 145 189 223 271 346 405
#     4  11  25  43  71 101 138 184 231 280 343 413
#     4  11  27  52  76  93 131 182 235 294 354 405
#     4  11  22  43  66 102 143 182 227 272 348 395
#     4  12  25  45  71 106 136 179 239 289 336 403
#     4  10  23  36  66 103 145 184 222 277 327 425
#
# _framework density 24.805447000000001
#
# number of rings (size 3 to 8) (size 9 to 14) (size 15 to 20)
#    0.000    1.000    3.750    2.250    5.250    1.500 
#    0.000    1.250    0.000    0.000    0.000    0.000 
#    0.000    0.000    0.000    0.000    0.000    0.000 
#
# Total GULP energy -89426.403738 kJ/mol
# GULP energy per Si atom -5589.150234 kJ/mol
# Density = 2.474899 g / cm^3
# Si number density = 24.805447 Si / 1000 Ang^3
#
#
#
# Elastic Constant Matrix: (Units=GPa)
#
#
# Indices 1 2 3 4 5 6 
#
# 1 101.5057 21.5077 58.5234 -12.9580 8.5328 5.2077
# 2 21.5077 63.2774 42.2403 -16.1715 -15.2710 12.8770
# 3 58.5234 42.2403 138.4888 -20.3269 -2.4843 6.0843
# 4 -12.9580 -16.1715 -20.3269 45.0840 -3.9070 -6.7630
# 5 8.5328 -15.2710 -2.4843 -3.9070 32.8059 3.9985
# 6 5.2077 12.8770 6.0843 -6.7630 3.9985 35.3688
#
#
#
# Elastic Compliance Matrix: (Units=1/GPa)
#
#
# Indices 1 2 3 4 5 6 
#
# 1 0.013793 -0.002499 -0.005122 0.000375 -0.005145 0.000413
# 2 -0.002499 0.027628 -0.005742 0.006528 0.014968 -0.009147
# 3 -0.005122 -0.005742 0.011327 0.001729 -0.000433 0.001276
# 4 0.000375 0.006528 0.001729 0.026169 0.005994 0.001597
# 5 -0.005145 0.014968 -0.000433 0.005994 0.040450 -0.008044
# 6 0.000413 -0.009147 0.001276 0.001597 -0.008044 0.032538
#
#
# Mechanical properties :
#
#
# Convention : Reuss Voigt Hill
#
# Bulk Modulus (GPa) = 38.42967 60.86828 49.64897
# Shear Modulus (GPa) = 26.69439 34.71844 30.70641
#
# Velocity S-wave (km/s) = 3.28403 3.74522 3.52218
# Velocity P-wave (km/s) = 5.46863 6.57980 6.04978
#
# Compressibility (1/GPa) = 0.02602156
#
# Stress axis : x y z
#
# Youngs Moduli (GPa) = 72.49818 36.19502 88.28678
#
# Poissons Ratio (x) = 0.09045 0.45222
# Poissons Ratio (y) = 0.18117 0.50697
# Poissons Ratio (z) = 0.37135 0.20784
#
# Static dielectric constant tensor:
#      x y z
#    x 1.998040 -0.024830 0.069990 
#    y -0.024830 2.093330 0.037060 
#    z 0.069990 0.037060 1.953080 
# 
# From -- ./inp_files/217537.got.cif
#   From: 2010.05.17/outbox.cif.g08.bks.cpg/sg2_109_cif.got.tgz:217537.got - 2010.06.03 11:33:40.
