data_PCOD9036994
_publ_section_title
;
Structure prediction by ZEFSAII (Michael W. Deem and Ramdas Pophale) SiO2 
 PCOD9036994
Probable space group: P -1
;
_chemical_formula_sum "Si O2"
_cell_formula_units_Z 14
_cell_length_a 7.775855
_cell_length_b 10.420608
_cell_length_c 8.642884
_cell_angle_alpha 84.056308
_cell_angle_beta 123.843523
_cell_angle_gamma 75.721862
_cell_volume 537.856074
_symmetry_space_group_name_H-M "P -1"
_symmetry_group_IT_number 2
_symmetry_cell_setting 'triclinic'
loop_
_space_group_symop_operation_xyz
x,y,z
-x,-y,-z
loop_
_atom_site_type_symbol
_atom_site_label
_atom_site_fract_x
_atom_site_fract_y
_atom_site_fract_z
Si Si1 0.780362 0.548116 0.281768
Si Si2 0.987498 0.682126 0.810359
Si Si3 0.112784 0.010195 0.389555
Si Si4 0.510629 0.275386 0.388098
Si Si5 0.587840 0.799409 0.950971
Si Si6 0.743683 0.030765 0.981361
Si Si7 0.336371 0.677695 0.233238
O O1 0.556831 0.578392 0.265911
O O2 0.000000 0.500000 0.500000
O O3 0.836104 0.431651 0.193432
O O4 0.750917 0.693138 0.165174
O O5 0.919273 0.831226 0.674393
O O6 0.750987 0.664578 0.708663
O O7 0.117801 0.672643 0.039379
O O8 0.357586 0.892255 0.520775
O O9 0.000000 0.000000 0.500000
O O10 0.988918 0.980682 0.180209
O O11 0.502417 0.290091 0.196923
O O12 0.635443 0.337100 0.566010
O O13 0.697499 0.898879 0.912617
O O14 0.391214 0.907804 0.936055
O O15 0.666853 0.168013 0.824020
#
# Coordination Sequence:
#
# PCOD9036994 Si02
#       7
#     2   2   2   2   2   2   2
#     4  11  23  47  71  95 137 189 228 268 345 418
#     4  11  26  44  70  99 141 180 226 280 334 413
#     4  11  24  41  68 103 135 180 223 277 344 403
#     4  12  25  42  71 104 139 174 227 289 341 389
#     4  10  23  39  68 100 138 177 227 280 332 405
#     4   9  21  41  65  99 137 177 225 274 332 408
#     4  10  24  44  69 100 133 183 225 277 342 398
#
# _framework density 26.029267999999998
#
# number of rings (size 3 to 8) (size 9 to 14) (size 15 to 20)
#    0.000    1.429    2.857    0.857    8.000    1.714 
#    0.000    0.714    0.000    0.000    0.000    0.000 
#    0.000    0.000    0.000    0.000    0.000    0.000 
#
# Total GULP energy -78325.120535 kJ/mol
# GULP energy per Si atom -5594.651467 kJ/mol
# Density = 2.597002 g / cm^3
# Si number density = 26.029268 Si / 1000 Ang^3
#
#
#
# Elastic Constant Matrix: (Units=GPa)
#
#
# Indices 1 2 3 4 5 6 
#
# 1 38.7462 34.9441 -0.9513 -10.1416 5.9988 -29.9230
# 2 34.9441 130.9576 44.5335 -10.5686 5.5273 -28.7103
# 3 -0.9513 44.5335 151.3943 -6.5287 13.4069 -6.8064
# 4 -10.1416 -10.5686 -6.5287 50.9853 -15.0476 -3.5994
# 5 5.9988 5.5273 13.4069 -15.0476 30.4053 -7.8063
# 6 -29.9230 -28.7103 -6.8064 -3.5994 -7.8063 53.7955
#
#
#
# Elastic Compliance Matrix: (Units=1/GPa)
#
#
# Indices 1 2 3 4 5 6 
#
# 1 0.063100 -0.010796 0.005396 0.013793 0.001978 0.031229
# 2 -0.010796 0.011731 -0.003660 0.000354 0.001807 0.000078
# 3 0.005396 -0.003660 0.008103 0.000489 -0.003313 0.001625
# 4 0.013793 0.000354 0.000489 0.027311 0.013522 0.011713
# 5 0.001978 0.001807 -0.003313 0.013522 0.042564 0.008726
# 6 0.031229 0.000078 0.001625 0.011713 0.008726 0.038257
#
#
# Mechanical properties :
#
#
# Convention : Reuss Voigt Hill
#
# Bulk Modulus (GPa) = 15.42872 53.12785 34.27829
# Shear Modulus (GPa) = 21.66471 43.20867 32.43669
#
# Velocity S-wave (km/s) = 2.88813 4.07873 3.53393
# Velocity P-wave (km/s) = 4.13062 6.52967 5.46345
#
# Compressibility (1/GPa) = 0.06481418
#
# Stress axis : x y z
#
# Youngs Moduli (GPa) = 15.84790 85.24516 123.40714
#
# Poissons Ratio (x) = 0.92031 -0.66589
# Poissons Ratio (y) = 0.17109 0.45164
# Poissons Ratio (z) = -0.08551 0.31197
#
# Static dielectric constant tensor:
#      x y z
#    x 2.227660 0.038250 -0.066730 
#    y 0.038250 2.015900 0.008520 
#    z -0.066730 0.008520 2.057520 
# 
# From -- ./inp_files/188821.got.cif
#   From: 2010.05.17/outbox.cif.g08.bks.cpg/sg2_95_cif.got.tgz:188821.got - 2010.06.03 11:33:40.
