data_PCOD9036853
_publ_section_title
;
Structure prediction by ZEFSAII (Michael W. Deem and Ramdas Pophale) SiO2 
 PCOD9036853
Probable space group: P -1
;
_chemical_formula_sum "Si O2"
_cell_formula_units_Z 14
_cell_length_a 8.243035
_cell_length_b 13.789686
_cell_length_c 10.530918
_cell_angle_alpha 44.184881
_cell_angle_beta 43.961477
_cell_angle_gamma 67.185542
_cell_volume 558.379973
_symmetry_space_group_name_H-M "P -1"
_symmetry_group_IT_number 2
_symmetry_cell_setting 'triclinic'
loop_
_space_group_symop_operation_xyz
x,y,z
-x,-y,-z
loop_
_atom_site_type_symbol
_atom_site_label
_atom_site_fract_x
_atom_site_fract_y
_atom_site_fract_z
Si Si1 0.161497 0.353252 0.394134
Si Si2 0.442380 0.410935 0.936953
Si Si3 0.853750 0.075121 0.740079
Si Si4 0.867606 0.583233 0.133821
Si Si5 0.279483 0.736200 0.574442
Si Si6 0.169711 0.201983 0.848216
Si Si7 0.743262 0.214745 0.896340
O O1 0.255804 0.422054 0.142585
O O2 0.101455 0.182856 0.556210
O O3 0.906517 0.354674 0.597607
O O4 0.357196 0.438775 0.301859
O O5 0.315279 0.384971 0.898645
O O6 0.554084 0.275455 0.023312
O O7 0.812757 0.142314 0.565083
O O8 0.662356 0.106708 0.924201
O O9 0.860405 0.913607 0.911337
O O10 0.793966 0.409783 0.332312
O O11 0.827354 0.647196 0.230231
O O12 0.129779 0.674138 0.844464
O O13 0.570043 0.790260 0.368545
O O14 0.935197 0.163595 0.924765
#
# Coordination Sequence:
#
# PCOD9036853 Si02
#       7
#     2   2   2   2   2   2   2
#     4   9  22  37  67  91 126 161 216 256 316 364
#     4  11  20  41  67  94 125 166 209 269 311 369
#     4  10  23  46  63  91 133 168 213 256 319 379
#     4  11  25  41  68  99 125 164 219 259 320 372
#     4  11  24  44  65  95 129 168 210 266 312 377
#     4  12  25  42  65  97 131 169 206 263 320 383
#     4  10  23  39  64  91 124 166 214 254 313 371
#
# _framework density 25.07253
#
# number of rings (size 3 to 8) (size 9 to 14) (size 15 to 20)
#    0.857    0.571    1.429    3.429    2.000    2.857 
#    2.571    0.714    0.000    0.000    0.000    0.000 
#    0.000    0.000    0.000    0.000    0.000    0.000 
#
# Total GULP energy -78087.455406 kJ/mol
# GULP energy per Si atom -5577.675386 kJ/mol
# Density = 2.501546 g / cm^3
# Si number density = 25.072530 Si / 1000 Ang^3
#
#
#
# Elastic Constant Matrix: (Units=GPa)
#
#
# Indices 1 2 3 4 5 6 
#
# 1 75.6760 1.6284 15.3836 2.1848 28.5505 -18.7265
# 2 1.6284 33.8044 10.9771 1.1625 8.4954 -7.2497
# 3 15.3836 10.9771 94.8114 -6.7394 9.1998 -18.1838
# 4 2.1848 1.1625 -6.7394 30.6392 -2.1171 6.4551
# 5 28.5505 8.4954 9.1998 -2.1171 40.8479 -2.3605
# 6 -18.7265 -7.2497 -18.1838 6.4551 -2.3605 32.2642
#
#
#
# Elastic Compliance Matrix: (Units=1/GPa)
#
#
# Indices 1 2 3 4 5 6 
#
# 1 0.023545 0.006781 -0.000529 -0.006383 -0.017217 0.014909
# 2 0.006781 0.035355 -0.002424 -0.005403 -0.011204 0.010775
# 3 -0.000529 -0.002424 0.012247 0.001534 -0.001479 0.005635
# 4 -0.006383 -0.005403 0.001534 0.036372 0.006497 -0.010856
# 5 -0.017217 -0.011204 -0.001479 0.006497 0.038833 -0.011803
# 6 0.014909 0.010775 0.005635 -0.010856 -0.011803 0.046553
#
#
# Mechanical properties :
#
#
# Convention : Reuss Voigt Hill
#
# Bulk Modulus (GPa) = 12.68973 28.91887 20.80430
# Shear Modulus (GPa) = 23.63886 32.50376 28.07131
#
# Velocity S-wave (km/s) = 3.07387 3.60445 3.34968
# Velocity P-wave (km/s) = 4.20362 5.37418 4.82453
#
# Compressibility (1/GPa) = 0.07880386
#
# Stress axis : x y z
#
# Youngs Moduli (GPa) = 42.47165 28.28469 81.65166
#
# Poissons Ratio (x) = -0.19181 0.04321
# Poissons Ratio (y) = -0.28802 0.19792
# Poissons Ratio (z) = 0.02248 0.06856
#
# Static dielectric constant tensor:
#      x y z
#    x 2.023890 -0.034680 -0.006620 
#    y -0.034680 1.945850 0.016380 
#    z -0.006620 0.016380 2.032200 
# 
# From -- ./inp_files/393576.got.cif
#   From: 2010.05.17/outbox.cif.g08.bks.cpg/sg2_197_cif.got.tgz:393576.got - 2010.06.03 11:33:40.
