data_PCOD9036670
_publ_section_title
;
Structure prediction by ZEFSAII (Michael W. Deem and Ramdas Pophale) SiO2 
 PCOD9036670
Probable space group: P -1
;
_chemical_formula_sum "Si O2"
_cell_formula_units_Z 16
_cell_length_a 9.877969
_cell_length_b 9.447558
_cell_length_c 14.491821
_cell_angle_alpha 61.181826
_cell_angle_beta 96.776649
_cell_angle_gamma 136.961074
_cell_volume 744.033145
_symmetry_space_group_name_H-M "P -1"
_symmetry_group_IT_number 2
_symmetry_cell_setting 'triclinic'
loop_
_space_group_symop_operation_xyz
x,y,z
-x,-y,-z
loop_
_atom_site_type_symbol
_atom_site_label
_atom_site_fract_x
_atom_site_fract_y
_atom_site_fract_z
Si Si1 0.721722 0.518052 0.745561
Si Si2 0.015618 0.943606 0.357823
Si Si3 0.534123 0.193304 0.003733
Si Si4 0.075024 0.885699 0.023151
Si Si5 0.759100 0.969485 0.216267
Si Si6 0.292485 0.910283 0.373058
Si Si7 0.728618 0.292692 0.188417
Si Si8 0.958772 0.608270 0.580959
O O1 0.685865 0.441986 0.873394
O O2 0.891924 0.558229 0.696302
O O3 0.819176 0.784999 0.664059
O O4 0.492471 0.286025 0.749654
O O5 0.856873 0.906628 0.297284
O O6 0.894619 0.718436 0.491980
O O7 0.168278 0.956572 0.312492
O O8 0.630511 0.247566 0.093828
O O9 0.500000 0.000000 0.000000
O O10 0.303120 0.064960 0.034204
O O11 0.911744 0.592769 0.129258
O O12 0.121238 0.906207 0.911272
O O13 0.000000 0.000000 0.000000
O O14 0.785375 0.157018 0.218486
O O15 0.181319 0.659615 0.391518
O O16 0.206512 0.818966 0.500925
O O17 0.541373 0.138938 0.297781
#
# Coordination Sequence:
#
# PCOD9036670 Si02
#       8
#     2   2   2   2   2   2   2   2
#     4  11  21  40  66  92 125 163 213 253 314 373
#     4  10  23  38  67  91 125 163 209 262 313 361
#     4  11  23  41  67  93 127 174 205 251 319 379
#     4  11  27  40  61  98 131 162 218 262 303 379
#     4  11  24  41  61  97 128 165 210 256 312 383
#     4   9  21  40  67  90 123 171 206 254 322 367
#     4  12  23  44  67  89 135 171 204 258 318 381
#     4   9  19  42  65  92 122 165 213 258 310 375
#
# _framework density 21.504417
#
# number of rings (size 3 to 8) (size 9 to 14) (size 15 to 20)
#    0.750    0.750    3.750    1.500    7.000    1.000 
#    0.000    0.000    0.000    2.250    0.000    0.000 
#    0.000    0.000    0.000    0.000    0.000    0.000 
#
# Total GULP energy -89338.876725 kJ/mol
# GULP energy per Si atom -5583.679795 kJ/mol
# Density = 2.145547 g / cm^3
# Si number density = 21.504417 Si / 1000 Ang^3
#
#
#
# Elastic Constant Matrix: (Units=GPa)
#
#
# Indices 1 2 3 4 5 6 
#
# 1 96.1810 32.1023 60.8047 -18.6573 -0.5171 2.4412
# 2 32.1023 66.0115 46.5323 -17.2043 1.0557 2.3616
# 3 60.8047 46.5323 43.6134 19.4181 -45.2226 -27.4147
# 4 -18.6573 -17.2043 19.4181 -8.6518 8.7952 36.9121
# 5 -0.5171 1.0557 -45.2226 8.7952 37.4612 -12.1288
# 6 2.4412 2.3616 -27.4147 36.9121 -12.1288 7.0641
#
#
#
# Elastic Compliance Matrix: (Units=1/GPa)
#
#
# Indices 1 2 3 4 5 6 
#
# 1 0.016483 -0.002949 -0.013561 -0.016057 -0.008306 0.012306
# 2 -0.002949 0.020306 -0.010744 -0.013524 -0.006519 0.012009
# 3 -0.013561 -0.010744 0.044168 0.050651 0.031586 -0.030751
# 4 -0.016057 -0.013524 0.050651 0.056311 0.044407 -0.011356
# 5 -0.008306 -0.006519 0.031586 0.044407 0.046525 -0.024530
# 6 0.012306 0.012009 -0.030751 -0.011356 -0.024530 0.031177
#
#
# Mechanical properties :
#
#
# Convention : Reuss Voigt Hill
#
# Bulk Modulus (GPa) = 37.80709 53.85383 45.83046
# Shear Modulus (GPa) = 17.96664 11.59915 14.78289
#
# Velocity S-wave (km/s) = 2.89361 2.32498 2.62474
# Velocity P-wave (km/s) = 5.36500 5.68374 5.52667
#
# Compressibility (1/GPa) = 0.02645007
#
# Stress axis : x y z
#
# Youngs Moduli (GPa) = 60.67030 49.24610 22.64092
#
# Poissons Ratio (x) = 0.14522 0.30703
# Poissons Ratio (y) = 0.17891 0.24324
# Poissons Ratio (z) = 0.82274 0.52908
#
# Static dielectric constant tensor:
#      x y z
#    x 1.799990 0.004640 -0.006450 
#    y 0.004640 1.740600 0.015290 
#    z -0.006450 0.015290 1.816660 
# 
# From -- ./inp_files/556083.got.cif
#   From: 2010.05.17/outbox.cif.g08.bks.cpg/sg2_279_cif.got.tgz:556083.got - 2010.06.03 11:33:40.
