data_PCOD9036538
_publ_section_title
;
Structure prediction by ZEFSAII (Michael W. Deem and Ramdas Pophale) SiO2 
 PCOD9036538
Probable space group: P -1
;
_chemical_formula_sum "Si O2"
_cell_formula_units_Z 14
_cell_length_a 11.860814
_cell_length_b 7.474459
_cell_length_c 11.336803
_cell_angle_alpha 80.439940
_cell_angle_beta 118.028617
_cell_angle_gamma 128.514147
_cell_volume 682.417149
_symmetry_space_group_name_H-M "P -1"
_symmetry_group_IT_number 2
_symmetry_cell_setting 'triclinic'
loop_
_space_group_symop_operation_xyz
x,y,z
-x,-y,-z
loop_
_atom_site_type_symbol
_atom_site_label
_atom_site_fract_x
_atom_site_fract_y
_atom_site_fract_z
Si Si1 0.176780 0.388318 0.303101
Si Si2 0.686888 0.647248 0.400126
Si Si3 0.336028 0.455352 0.149292
Si Si4 0.650300 0.838803 0.985140
Si Si5 0.661829 0.164977 0.799258
Si Si6 0.339844 0.707897 0.729170
Si Si7 0.175825 0.914292 0.719355
O O1 0.296281 0.395338 0.452283
O O2 0.191781 0.305771 0.191704
O O3 0.238961 0.647467 0.274929
O O4 0.002034 0.233521 0.294692
O O5 0.501142 0.525274 0.283561
O O6 0.740250 0.521026 0.361692
O O7 0.794820 0.917388 0.389828
O O8 0.313440 0.324406 0.033880
O O9 0.357894 0.691582 0.129456
O O10 0.459899 0.721523 0.883291
O O11 0.738224 0.062723 0.916308
O O12 0.702684 0.913322 0.135409
O O13 0.480643 0.939401 0.697435
O O14 0.221685 0.753039 0.719080
#
# Coordination Sequence:
#
# PCOD9036538 Si02
#       7
#     2   2   2   2   2   2   2
#     4  10  23  38  57  85 116 149 182 230 286 324
#     4  11  21  40  58  83 113 151 191 222 275 339
#     4   9  19  40  60  84 106 150 190 236 269 321
#     4   9  20  37  63  82 108 147 194 225 281 325
#     4   8  19  40  54  88 106 141 197 227 271 326
#     4   9  21  38  59  86 105 153 189 227 280 320
#     4  12  22  38  56  85 123 144 176 238 279 340
#
# _framework density 20.515311000000001
#
# number of rings (size 3 to 8) (size 9 to 14) (size 15 to 20)
#    1.714    0.571    1.429    1.286    0.000    5.714 
#    5.143    0.000    0.000    0.000    0.000    0.000 
#    0.000    0.000    0.000    0.000    0.000    0.000 
#
# Total GULP energy -77982.195803 kJ/mol
# GULP energy per Si atom -5570.156843 kJ/mol
# Density = 2.046862 g / cm^3
# Si number density = 20.515311 Si / 1000 Ang^3
#
#
#
# Elastic Constant Matrix: (Units=GPa)
#
#
# Indices 1 2 3 4 5 6 
#
# 1 43.3547 3.8496 -12.5378 24.7304 -10.2514 -5.3293
# 2 3.8496 43.8463 6.7627 -12.1454 2.4285 5.4663
# 3 -12.5378 6.7627 32.6950 -15.4762 1.1105 11.2369
# 4 24.7304 -12.1454 -15.4762 18.4933 0.3049 -9.4648
# 5 -10.2514 2.4285 1.1105 0.3049 6.6478 -10.0336
# 6 -5.3293 5.4663 11.2369 -9.4648 -10.0336 5.5972
#
#
#
# Elastic Compliance Matrix: (Units=1/GPa)
#
#
# Indices 1 2 3 4 5 6 
#
# 1 -0.051738 0.034211 0.021364 0.134391 -0.030177 0.047596
# 2 0.034211 0.005788 -0.010523 -0.063181 0.019604 -0.023649
# 3 0.021364 -0.010523 0.038115 -0.004490 0.029381 -0.000826
# 4 0.134391 -0.063181 -0.004490 -0.239745 0.041015 -0.133208
# 5 -0.030177 0.019604 0.029381 0.041015 -0.019540 -0.072536
# 6 0.047596 -0.023649 -0.000826 -0.133208 -0.072536 -0.106552
#
#
# Mechanical properties :
#
#
# Convention : Reuss Voigt Hill
#
# Bulk Modulus (GPa) = 12.15510 12.89390 12.52450
# Shear Modulus (GPa) = -11.45859 14.26909 1.40525
#
# Velocity S-wave (km/s) = -2.36591 2.64016 0.82853
# Velocity P-wave (km/s) = 1.23515 3.94874 2.65207
#
# Compressibility (1/GPa) = 0.08226998
#
# Stress axis : x y z
#
# Youngs Moduli (GPa) = -19.32810 172.78003 26.23606
#
# Poissons Ratio (x) = -5.91101 -0.56050
# Poissons Ratio (y) = 0.66124 0.27607
# Poissons Ratio (z) = 0.41292 1.81809
#
# Static dielectric constant tensor:
#      x y z
#    x 1.743640 0.012010 0.006450 
#    y 0.012010 1.763630 -0.007560 
#    z 0.006450 -0.007560 1.731310 
# 
# From -- ./inp_files/308058.got.cif
#   From: 2010.05.17/outbox.cif.g08.bks.cpg/sg2_155_cif.got.tgz:308058.got - 2010.06.03 11:33:40.
