data_PCOD9036856
_publ_section_title
;
Structure prediction by ZEFSAII (Michael W. Deem and Ramdas Pophale) SiO2 
 PCOD9036856
Probable space group: P -1
;
_chemical_formula_sum "Si O2"
_cell_formula_units_Z 14
_cell_length_a 13.634326
_cell_length_b 29.847141
_cell_length_c 12.116302
_cell_angle_alpha 158.683620
_cell_angle_beta 30.072696
_cell_angle_gamma 158.228990
_cell_volume 664.791806
_symmetry_space_group_name_H-M "P -1"
_symmetry_group_IT_number 2
_symmetry_cell_setting 'triclinic'
loop_
_space_group_symop_operation_xyz
x,y,z
-x,-y,-z
loop_
_atom_site_type_symbol
_atom_site_label
_atom_site_fract_x
_atom_site_fract_y
_atom_site_fract_z
Si Si1 0.529601 0.129158 0.688605
Si Si2 0.906103 0.984589 0.328789
Si Si3 0.472038 0.861423 0.642665
Si Si4 0.682276 0.636311 0.232418
Si Si5 0.961070 0.246093 0.365856
Si Si6 0.646716 0.423317 0.376955
Si Si7 0.913364 0.485738 0.676179
O O1 0.291346 0.042319 0.633280
O O2 0.812743 0.228491 0.580127
O O3 0.500000 0.000000 0.500000
O O4 0.525299 0.254058 0.047327
O O5 0.738097 0.929480 0.478691
O O6 0.173589 0.177655 0.516186
O O7 0.978629 0.873974 0.976119
O O8 0.252733 0.804250 0.633731
O O9 0.354930 0.701746 0.464965
O O10 0.500000 0.000000 0.000000
O O11 0.539343 0.592788 0.388546
O O12 0.500000 0.500000 0.000000
O O13 0.898276 0.624769 0.018925
O O14 0.229234 0.432052 0.501775
O O15 0.880909 0.474882 0.345310
O O16 0.000000 0.500000 0.500000
#
# Coordination Sequence:
#
# PCOD9036856 Si02
#       7
#     2   2   2   2   2   2   2
#     4  11  24  44  69  95 128 168 218 267 322 384
#     4  11  25  43  64  96 132 168 217 270 320 383
#     4  10  23  39  64  92 128 174 211 262 320 380
#     4  12  25  39  64  95 129 169 215 262 322 384
#     4  10  24  43  65  97 129 168 217 264 322 385
#     4  11  24  43  67  96 128 172 214 263 324 383
#     4  11  22  41  63  91 131 167 211 262 317 380
#
# _framework density 21.059225000000001
#
# number of rings (size 3 to 8) (size 9 to 14) (size 15 to 20)
#    0.000    1.143    1.429    3.857    4.000    6.857 
#    0.000    0.000    0.000    0.000    0.000    0.000 
#    0.000    0.000    0.000    0.000    0.000    0.000 
#
# Total GULP energy -78236.214356 kJ/mol
# GULP energy per Si atom -5588.301025 kJ/mol
# Density = 2.101129 g / cm^3
# Si number density = 21.059225 Si / 1000 Ang^3
#
#
#
# Elastic Constant Matrix: (Units=GPa)
#
#
# Indices 1 2 3 4 5 6 
#
# 1 54.2372 28.5513 18.9291 2.9345 -3.6251 -16.8503
# 2 28.5513 85.6823 22.2883 -5.9880 14.6199 -20.8591
# 3 18.9291 22.2883 118.5299 -4.3860 2.8258 -11.1168
# 4 2.9345 -5.9880 -4.3860 47.6901 -1.0899 -4.0556
# 5 -3.6251 14.6199 2.8258 -1.0899 42.3510 -5.6042
# 6 -16.8503 -20.8591 -11.1168 -4.0556 -5.6042 30.5927
#
#
#
# Elastic Compliance Matrix: (Units=1/GPa)
#
#
# Indices 1 2 3 4 5 6 
#
# 1 0.026461 -0.006999 -0.002191 -0.001728 0.006092 0.009893
# 2 -0.006999 0.017098 -0.001227 0.002914 -0.005452 0.006745
# 3 -0.002191 -0.001227 0.009186 0.000940 -0.000169 0.001388
# 4 -0.001728 0.002914 0.000940 0.021888 -0.000089 0.004262
# 5 0.006092 -0.005452 -0.000169 -0.000089 0.026612 0.004440
# 6 0.009893 0.006745 0.001388 0.004262 0.004440 0.044618
#
#
# Mechanical properties :
#
#
# Convention : Reuss Voigt Hill
#
# Bulk Modulus (GPa) = 31.33704 44.22077 37.77891
# Shear Modulus (GPa) = 28.19518 36.70548 32.45033
#
# Velocity S-wave (km/s) = 3.66300 4.17941 3.92970
# Velocity P-wave (km/s) = 5.72738 6.65837 6.21034
#
# Compressibility (1/GPa) = 0.03191111
#
# Stress axis : x y z
#
# Youngs Moduli (GPa) = 37.79162 58.48480 108.85738
#
# Poissons Ratio (x) = 0.40935 0.23850
# Poissons Ratio (y) = 0.26451 0.13357
# Poissons Ratio (z) = 0.08280 0.07176
#
# Static dielectric constant tensor:
#      x y z
#    x 1.774940 0.009220 0.020240 
#    y 0.009220 1.783120 0.016100 
#    z 0.020240 0.016100 1.718180 
# 
# From -- ./inp_files/46714.got.cif
#   From: 2010.05.17/outbox.cif.g08.bks.cpg/sg2_24_cif.got.tgz:46714.got - 2010.06.03 11:33:40.
