data_PCOD9036033
_publ_section_title
;
Structure prediction by ZEFSAII (Michael W. Deem and Ramdas Pophale) SiO2 
 PCOD9036033
Probable space group: P -1
;
_chemical_formula_sum "Si O2"
_cell_formula_units_Z 16
_cell_length_a 28.052682
_cell_length_b 7.862054
_cell_length_c 5.485152
_cell_angle_alpha 90.972645
_cell_angle_beta 102.545421
_cell_angle_gamma 30.881960
_cell_volume 570.393946
_symmetry_space_group_name_H-M "P -1"
_symmetry_group_IT_number 2
_symmetry_cell_setting 'triclinic'
loop_
_space_group_symop_operation_xyz
x,y,z
-x,-y,-z
loop_
_atom_site_type_symbol
_atom_site_label
_atom_site_fract_x
_atom_site_fract_y
_atom_site_fract_z
Si Si1 0.081464 0.861400 0.843526
Si Si2 0.699977 0.349000 0.000708
Si Si3 0.753267 0.619725 0.375617
Si Si4 0.372547 0.274576 0.575148
Si Si5 0.575008 0.480328 0.657507
Si Si6 0.856827 0.601997 0.718002
Si Si7 0.555774 0.211230 0.863876
Si Si8 0.881696 0.895571 0.914473
O O1 0.144245 0.711867 0.668730
O O2 0.110157 0.923452 0.068571
O O3 0.113653 0.584505 0.998349
O O4 0.961604 0.248178 0.679313
O O5 0.637466 0.615592 0.703068
O O6 0.677294 0.225469 0.897577
O O7 0.652873 0.536983 0.211673
O O8 0.815256 0.056031 0.088052
O O9 0.718094 0.586179 0.528119
O O10 0.765240 0.772143 0.504315
O O11 0.663687 0.846642 0.090060
O O12 0.481590 0.852346 0.712850
O O13 0.585543 0.245359 0.676733
O O14 0.529411 0.651691 0.340507
O O15 0.838222 0.862604 0.711430
O O16 0.500000 0.500000 0.000000
O O17 0.000000 0.500000 0.000000
#
# Coordination Sequence:
#
# PCOD9036033 Si02
#       8
#     2   2   2   2   2   2   2   2
#     4  10  22  47  70 102 147 190 243 312 372 454
#     4  12  27  46  76 106 147 200 251 313 386 453
#     4  12  24  41  75  99 148 191 252 299 388 441
#     4  12  26  46  74 107 145 201 251 313 381 453
#     4  11  27  45  69 101 148 192 258 311 377 453
#     4  10  24  42  73 106 141 192 250 304 378 452
#     4  11  26  44  67 103 144 194 244 318 377 445
#     4  10  23  46  71 108 150 191 250 315 380 453
#
# _framework density 28.050789000000002
#
# number of rings (size 3 to 8) (size 9 to 14) (size 15 to 20)
#    0.000    1.000    2.500    2.625    7.000    0.000 
#    0.000    0.625    0.000    0.000    0.000    0.000 
#    0.000    0.000    0.000    0.000    0.000    0.000 
#
# Total GULP energy -89222.016324 kJ/mol
# GULP energy per Si atom -5576.376020 kJ/mol
# Density = 2.798694 g / cm^3
# Si number density = 28.050789 Si / 1000 Ang^3
#
#
#
# Elastic Constant Matrix: (Units=GPa)
#
#
# Indices 1 2 3 4 5 6 
#
# 1 123.5132 14.4394 33.5239 6.3198 31.7039 -16.9700
# 2 14.4394 95.2802 24.2222 21.6713 -2.9670 -29.5787
# 3 33.5239 24.2222 125.1373 12.0106 31.5340 2.2684
# 4 6.3198 21.6713 12.0106 42.1981 -1.4255 4.3311
# 5 31.7039 -2.9670 31.5340 -1.4255 58.5636 0.2492
# 6 -16.9700 -29.5787 2.2684 4.3311 0.2492 56.0901
#
#
#
# Elastic Compliance Matrix: (Units=1/GPa)
#
#
# Indices 1 2 3 4 5 6 
#
# 1 0.010267 0.000088 -0.001451 -0.001678 -0.004827 0.003362
# 2 0.000088 0.016086 -0.003058 -0.008282 0.002173 0.009263
# 3 -0.001451 -0.003058 0.010372 -0.001090 -0.004971 -0.002365
# 4 -0.001678 -0.008282 -0.001090 0.029303 0.001819 -0.007102
# 5 -0.004827 0.002173 -0.004971 0.001819 0.022521 -0.000354
# 6 0.003362 0.009263 -0.002365 -0.007102 -0.000354 0.024376
#
#
# Mechanical properties :
#
#
# Convention : Reuss Voigt Hill
#
# Bulk Modulus (GPa) = 35.86349 54.25573 45.05961
# Shear Modulus (GPa) = 38.15018 49.48670 43.81844
#
# Velocity S-wave (km/s) = 3.69187 4.20477 3.95664
# Velocity P-wave (km/s) = 5.56652 6.55419 6.08044
#
# Compressibility (1/GPa) = 0.02788351
#
# Stress axis : x y z
#
# Youngs Moduli (GPa) = 97.40161 62.16453 96.41467
#
# Poissons Ratio (x) = -0.00548 0.13989
# Poissons Ratio (y) = -0.00858 0.29483
# Poissons Ratio (z) = 0.14132 0.19010
#
# Static dielectric constant tensor:
#      x y z
#    x 2.350800 -0.085500 0.040030 
#    y -0.085500 1.980590 0.115630 
#    z 0.040030 0.115630 2.175250 
# 
# From -- ./inp_files/128290.got.cif
#   From: 2010.05.17/outbox.cif.g08.bks.cpg/sg2_65_cif.got.tgz:128290.got - 2010.06.03 11:33:40.
