data_PCOD9036285
_publ_section_title
;
Structure prediction by ZEFSAII (Michael W. Deem and Ramdas Pophale) SiO2 
 PCOD9036285
Probable space group: P -1
;
_chemical_formula_sum "Si O2"
_cell_formula_units_Z 14
_cell_length_a 5.387102
_cell_length_b 16.316370
_cell_length_c 9.654063
_cell_angle_alpha 134.329891
_cell_angle_beta 67.864953
_cell_angle_gamma 91.590466
_cell_volume 525.545564
_symmetry_space_group_name_H-M "P -1"
_symmetry_group_IT_number 2
_symmetry_cell_setting 'triclinic'
loop_
_space_group_symop_operation_xyz
x,y,z
-x,-y,-z
loop_
_atom_site_type_symbol
_atom_site_label
_atom_site_fract_x
_atom_site_fract_y
_atom_site_fract_z
Si Si1 0.272455 0.430572 0.954692
Si Si2 0.434651 0.661699 0.469612
Si Si3 0.786824 0.800876 0.697225
Si Si4 0.260243 0.085810 0.456959
Si Si5 0.167707 0.048657 0.907956
Si Si6 0.712669 0.568774 0.732613
Si Si7 0.196833 0.826790 0.123585
O O1 0.444176 0.322186 0.688272
O O2 0.500000 0.500000 0.000000
O O3 0.190280 0.418850 0.115053
O O4 0.000000 0.500000 0.000000
O O5 0.603662 0.717536 0.602758
O O6 0.465485 0.523698 0.338662
O O7 0.096551 0.726528 0.605004
O O8 0.825107 0.862134 0.618046
O O9 0.654848 0.896075 0.959830
O O10 0.477564 0.704047 0.914490
O O11 0.048277 0.176555 0.718705
O O12 0.602582 0.054922 0.353791
O O13 0.250329 0.948668 0.309319
O O14 0.958417 0.141963 0.955546
O O15 0.000000 0.000000 0.000000
O O16 0.000000 0.500000 0.500000
#
# Coordination Sequence:
#
# PCOD9036285 Si02
#       7
#     2   2   2   2   2   2   2
#     4  10  22  48  78 107 154 218 277 324 393 502
#     4  11  26  49  80 119 164 221 277 337 424 517
#     4  12  26  48  87 120 161 217 285 353 414 498
#     4  11  26  51  82 118 164 217 285 352 423 503
#     4  12  26  49  84 122 164 217 288 354 421 499
#     4  11  27  53  85 124 173 217 277 352 429 507
#     4  11  27  53  80 120 169 223 273 350 437 504
#
# _framework density 26.638985999999999
#
# number of rings (size 3 to 8) (size 9 to 14) (size 15 to 20)
#    0.000    0.857    1.429    4.286    4.000    2.286 
#   10.286    7.857    0.000    0.000    0.000    0.000 
#    0.000    0.000    0.000    0.000    0.000    0.000 
#
# Total GULP energy -78414.373793 kJ/mol
# GULP energy per Si atom -5601.026699 kJ/mol
# Density = 2.657835 g / cm^3
# Si number density = 26.638986 Si / 1000 Ang^3
#
#
#
# Elastic Constant Matrix: (Units=GPa)
#
#
# Indices 1 2 3 4 5 6 
#
# 1 160.6926 63.8268 71.8420 11.4675 4.5582 -14.9094
# 2 63.8268 179.8664 96.7276 4.4905 -0.8357 -21.2819
# 3 71.8420 96.7276 244.7033 -18.4315 -18.0802 -12.1149
# 4 11.4675 4.4905 -18.4315 55.1882 1.4601 3.0783
# 5 4.5582 -0.8357 -18.0802 1.4601 46.8216 2.2734
# 6 -14.9094 -21.2819 -12.1149 3.0783 2.2734 55.3003
#
#
#
# Elastic Compliance Matrix: (Units=1/GPa)
#
#
# Indices 1 2 3 4 5 6 
#
# 1 0.008058 -0.001608 -0.001948 -0.002226 -0.001560 0.001315
# 2 -0.001608 0.007852 -0.002684 -0.001297 -0.000802 0.002105
# 3 -0.001948 -0.002684 0.006072 0.002613 0.002428 -0.000473
# 4 -0.002226 -0.001297 0.002613 0.019635 0.000670 -0.001648
# 5 -0.001560 -0.000802 0.002428 0.000670 0.022468 -0.001158
# 6 0.001315 0.002105 -0.000473 -0.001648 -0.001158 0.019283
#
#
# Mechanical properties :
#
#
# Convention : Reuss Voigt Hill
#
# Bulk Modulus (GPa) = 105.24697 116.67279 110.95988
# Shear Modulus (GPa) = 50.49732 54.98642 52.74187
#
# Velocity S-wave (km/s) = 4.35859 4.54820 4.45441
# Velocity P-wave (km/s) = 8.05755 8.45425 8.25828
#
# Compressibility (1/GPa) = 0.00950146
#
# Stress axis : x y z
#
# Youngs Moduli (GPa) = 124.10536 127.36350 164.68175
#
# Poissons Ratio (x) = 0.20479 0.32078
# Poissons Ratio (y) = 0.19955 0.44205
# Poissons Ratio (z) = 0.24174 0.34188
#
# Static dielectric constant tensor:
#      x y z
#    x 2.108140 0.108010 -0.007900 
#    y 0.108010 2.142690 0.047100 
#    z -0.007900 0.047100 2.187990 
# 
# From -- ./inp_files/53977.got.cif
#   From: 2010.05.17/outbox.cif.g08.bks.cpg/sg2_27_cif.got.tgz:53977.got - 2010.06.03 11:33:40.
