data_PCOD9036389
_publ_section_title
;
Structure prediction by ZEFSAII (Michael W. Deem and Ramdas Pophale) SiO2 
 PCOD9036389
Probable space group: P -1
;
_chemical_formula_sum "Si O2"
_cell_formula_units_Z 16
_cell_length_a 13.174893
_cell_length_b 23.792239
_cell_length_c 15.397342
_cell_angle_alpha 157.504936
_cell_angle_beta 37.154359
_cell_angle_gamma 155.576525
_cell_volume 733.094453
_symmetry_space_group_name_H-M "P -1"
_symmetry_group_IT_number 2
_symmetry_cell_setting 'triclinic'
loop_
_space_group_symop_operation_xyz
x,y,z
-x,-y,-z
loop_
_atom_site_type_symbol
_atom_site_label
_atom_site_fract_x
_atom_site_fract_y
_atom_site_fract_z
Si Si1 0.306400 0.102686 0.761967
Si Si2 0.863820 0.048542 0.619442
Si Si3 0.077977 0.603312 0.952760
Si Si4 0.318264 0.016722 0.171223
Si Si5 0.255896 0.267711 0.882149
Si Si6 0.821024 0.819317 0.787806
Si Si7 0.561435 0.347245 0.327352
Si Si8 0.646630 0.170620 0.741499
O O1 0.317898 0.263973 0.933914
O O2 0.452889 0.173381 0.853525
O O3 0.423091 0.040457 0.540916
O O4 0.012183 0.884743 0.675914
O O5 0.657526 0.949707 0.693337
O O6 0.783916 0.921153 0.402490
O O7 0.030303 0.306558 0.867047
O O8 0.000000 0.000000 0.500000
O O9 0.292941 0.788856 0.141014
O O10 0.199482 0.600691 0.784771
O O11 0.891665 0.377447 0.811830
O O12 0.429190 0.219179 0.324695
O O13 0.010557 0.817157 0.072470
O O14 0.500000 0.000000 0.000000
O O15 0.500000 0.500000 0.000000
O O16 0.657506 0.576843 0.589433
O O17 0.634580 0.798694 0.828396
O O18 0.000000 0.000000 0.000000
#
# Coordination Sequence:
#
# PCOD9036389 Si02
#       8
#     2   2   2   2   2   2   2   2
#     4  11  21  41  60  94 129 163 216 267 336 397
#     4  10  23  40  65  92 125 175 227 272 330 401
#     4  11  20  41  64  96 126 168 225 271 333 402
#     4  11  23  44  69  95 129 177 231 276 336 410
#     4  11  25  44  66  95 134 176 226 285 338 402
#     4  11  24  43  63  97 134 172 214 271 337 408
#     4  11  23  41  70  94 132 177 218 275 342 404
#     4  10  23  35  65  95 126 168 212 277 330 398
#
# _framework density 21.825292000000001
#
# number of rings (size 3 to 8) (size 9 to 14) (size 15 to 20)
#    0.000    1.250    5.000    0.750    3.500    1.000 
#    4.500    0.625    0.000    0.000    0.000    0.000 
#    0.000    0.000    0.000    0.000    0.000    0.000 
#
# Total GULP energy -89117.544124 kJ/mol
# GULP energy per Si atom -5569.846508 kJ/mol
# Density = 2.177562 g / cm^3
# Si number density = 21.825292 Si / 1000 Ang^3
#
#
#
# Elastic Constant Matrix: (Units=GPa)
#
#
# Indices 1 2 3 4 5 6 
#
# 1 80.9931 -2.2059 2.6514 5.3252 -16.4823 8.8403
# 2 -2.2059 86.9934 -1.3663 -9.4859 -8.4260 6.3799
# 3 2.6514 -1.3663 43.1680 -11.4219 -6.3042 7.3640
# 4 5.3252 -9.4859 -11.4219 33.5493 -2.6090 -8.7792
# 5 -16.4823 -8.4260 -6.3042 -2.6090 32.9972 0.6091
# 6 8.8403 6.3799 7.3640 -8.7792 0.6091 36.3878
#
#
#
# Elastic Compliance Matrix: (Units=1/GPa)
#
#
# Indices 1 2 3 4 5 6 
#
# 1 0.014555 0.001169 0.000366 -0.002456 0.007528 -0.004534
# 2 0.001169 0.012601 0.002421 0.004013 0.004620 -0.002092
# 3 0.000366 0.002421 0.027388 0.009467 0.006854 -0.003887
# 4 -0.002456 0.004013 0.009467 0.036661 0.004381 0.006749
# 5 0.007528 0.004620 0.006854 0.004381 0.036968 -0.003588
# 6 -0.004534 -0.002092 -0.003887 0.006749 -0.003588 0.031425
#
#
# Mechanical properties :
#
#
# Convention : Reuss Voigt Hill
#
# Bulk Modulus (GPa) = 16.01163 23.25699 19.63431
# Shear Modulus (GPa) = 28.98448 34.72524 31.85486
#
# Velocity S-wave (km/s) = 3.64816 3.99313 3.82454
# Velocity P-wave (km/s) = 5.00975 5.65148 5.34026
#
# Compressibility (1/GPa) = 0.06245460
#
# Stress axis : x y z
#
# Youngs Moduli (GPa) = 68.70542 79.35680 36.51212
#
# Poissons Ratio (x) = -0.09274 -0.01336
# Poissons Ratio (y) = -0.08029 -0.08838
# Poissons Ratio (z) = -0.02514 -0.19209
#
# Static dielectric constant tensor:
#      x y z
#    x 1.944570 0.016650 0.060750 
#    y 0.016650 1.831740 -0.051500 
#    z 0.060750 -0.051500 1.863760 
# 
# From -- ./inp_files/574543.got.cif
#   From: 2010.05.17/outbox.cif.g08.bks.cpg/sg2_288_cif.got.tgz:574543.got - 2010.06.03 11:33:40.
