data_PCOD9036462
_publ_section_title
;
Structure prediction by ZEFSAII (Michael W. Deem and Ramdas Pophale) SiO2 
 PCOD9036462
Probable space group: P -1
;
_chemical_formula_sum "Si O2"
_cell_formula_units_Z 16
_cell_length_a 15.024265
_cell_length_b 8.097719
_cell_length_c 7.543412
_cell_angle_alpha 101.959753
_cell_angle_beta 106.171969
_cell_angle_gamma 50.380201
_cell_volume 678.417742
_symmetry_space_group_name_H-M "P -1"
_symmetry_group_IT_number 2
_symmetry_cell_setting 'triclinic'
loop_
_space_group_symop_operation_xyz
x,y,z
-x,-y,-z
loop_
_atom_site_type_symbol
_atom_site_label
_atom_site_fract_x
_atom_site_fract_y
_atom_site_fract_z
Si Si1 0.449306 0.829006 0.957799
Si Si2 0.962111 0.732502 0.080308
Si Si3 0.181153 0.691456 0.262474
Si Si4 0.726992 0.808717 0.315875
Si Si5 0.739556 0.180033 0.974340
Si Si6 0.672037 0.726227 0.920753
Si Si7 0.831639 0.337615 0.350299
Si Si8 0.059178 0.252881 0.507890
O O1 0.383042 0.749914 0.996366
O O2 0.587534 0.685587 0.965881
O O3 0.387468 0.958171 0.765626
O O4 0.415320 0.022466 0.112530
O O5 0.948221 0.768085 0.291680
O O6 0.063565 0.759425 0.110990
O O7 0.837447 0.921660 0.970004
O O8 0.000000 0.500000 0.000000
O O9 0.262031 0.433221 0.236212
O O10 0.165823 0.749612 0.472721
O O11 0.249454 0.752088 0.198263
O O12 0.751646 0.599372 0.375267
O O13 0.805001 0.858366 0.472690
O O14 0.761647 0.703787 0.110963
O O15 0.784846 0.265635 0.160828
O O16 0.968227 0.230838 0.358981
O O17 0.000000 0.500000 0.500000
#
# Coordination Sequence:
#
# PCOD9036462 Si02
#       8
#     2   2   2   2   2   2   2   2
#     4   9  19  35  68  91 106 168 209 246 306 347
#     4  11  22  38  59  86 117 159 200 245 299 357
#     4  11  23  39  57  92 123 159 199 245 306 363
#     4   9  15  39  61  85 117 157 207 250 289 346
#     4  12  22  41  61  86 131 156 195 253 304 364
#     4   9  18  39  66  86 115 156 216 250 292 356
#     4  10  23  37  60  90 125 164 195 243 307 365
#     4   9  18  33  58  86 114 157 195 238 292 354
#
# _framework density 23.584288000000001
#
# number of rings (size 3 to 8) (size 9 to 14) (size 15 to 20)
#    0.750    1.250    2.500    1.875    1.750    2.500 
#    2.250    2.500    0.000    0.000    0.000    0.000 
#    0.000    0.000    0.000    0.000    0.000    0.000 
#
# Total GULP energy -89089.627475 kJ/mol
# GULP energy per Si atom -5568.101717 kJ/mol
# Density = 2.353061 g / cm^3
# Si number density = 23.584288 Si / 1000 Ang^3
#
#
#
# Elastic Constant Matrix: (Units=GPa)
#
#
# Indices 1 2 3 4 5 6 
#
# 1 122.3649 11.6215 30.5430 -0.0162 24.3233 16.0961
# 2 11.6215 68.5254 20.4302 -1.4693 -3.5731 0.8200
# 3 30.5430 20.4302 76.0999 1.4810 3.8388 10.1682
# 4 -0.0162 -1.4693 1.4810 32.1818 5.0776 -0.4435
# 5 24.3233 -3.5731 3.8388 5.0776 28.3890 -3.6093
# 6 16.0961 0.8200 10.1682 -0.4435 -3.6093 35.2497
#
#
#
# Elastic Compliance Matrix: (Units=1/GPa)
#
#
# Indices 1 2 3 4 5 6 
#
# 1 0.012071 -0.001590 -0.003129 0.001760 -0.011158 -0.005693
# 2 -0.001590 0.016325 -0.004229 0.000306 0.004189 0.001999
# 3 -0.003129 -0.004229 0.015979 -0.000935 -0.000242 -0.003119
# 4 0.001760 0.000306 -0.000935 0.032259 -0.007224 -0.000875
# 5 -0.011158 0.004189 -0.000242 -0.007224 0.047893 0.009881
# 6 -0.005693 0.001999 -0.003119 -0.000875 0.009881 0.032823
#
#
# Mechanical properties :
#
#
# Convention : Reuss Voigt Hill
#
# Bulk Modulus (GPa) = 37.76529 43.57549 40.67039
# Shear Modulus (GPa) = 27.16342 32.79046 29.97694
#
# Velocity S-wave (km/s) = 3.39744 3.73279 3.56905
# Velocity P-wave (km/s) = 5.60694 6.09056 5.85375
#
# Compressibility (1/GPa) = 0.02647934
#
# Stress axis : x y z
#
# Youngs Moduli (GPa) = 82.84078 61.25723 62.58356
#
# Poissons Ratio (x) = 0.09743 0.19580
# Poissons Ratio (y) = 0.13175 0.26464
# Poissons Ratio (z) = 0.25917 0.25903
#
# Static dielectric constant tensor:
#      x y z
#    x 1.980120 0.023370 0.042860 
#    y 0.023370 1.969440 0.013540 
#    z 0.042860 0.013540 1.833700 
# 
# From -- ./inp_files/293031.got.cif
#   From: 2010.05.17/outbox.cif.g08.bks.cpg/sg2_147_cif.got.tgz:293031.got - 2010.06.03 11:33:40.
