data_PCOD9036218
_publ_section_title
;
Structure prediction by ZEFSAII (Michael W. Deem and Ramdas Pophale) SiO2 
 PCOD9036218
Probable space group: P -1
;
_chemical_formula_sum "Si O2"
_cell_formula_units_Z 15
_cell_length_a 19.543987
_cell_length_b 9.383365
_cell_length_c 5.425920
_cell_angle_alpha 101.591878
_cell_angle_beta 112.784981
_cell_angle_gamma 39.791270
_cell_volume 579.202722
_symmetry_space_group_name_H-M "P -1"
_symmetry_group_IT_number 2
_symmetry_cell_setting 'triclinic'
loop_
_space_group_symop_operation_xyz
x,y,z
-x,-y,-z
loop_
_atom_site_type_symbol
_atom_site_label
_atom_site_fract_x
_atom_site_fract_y
_atom_site_fract_z
Si Si1 0.200097 0.947978 0.997456
Si Si2 0.601568 0.823124 0.771146
Si Si3 0.171879 0.594582 0.352168
Si Si4 0.500000 0.500000 0.000000
Si Si5 0.311864 0.007065 0.871392
Si Si6 0.092126 0.483083 0.536821
Si Si7 0.931151 0.942247 0.659836
Si Si8 0.359612 0.463795 0.903176
O O1 0.130329 0.010684 0.670029
O O2 0.308429 0.675773 0.061627
O O3 0.250412 0.030390 0.036601
O O4 0.131645 0.030343 0.180984
O O5 0.726485 0.587028 0.760844
O O6 0.500000 0.000000 0.500000
O O7 0.623303 0.945584 0.957152
O O8 0.571741 0.745574 0.899145
O O9 0.104747 0.548535 0.317054
O O10 0.084709 0.859533 0.275569
O O11 0.253736 0.532336 0.667663
O O12 0.563769 0.559844 0.189413
O O13 0.604693 0.246755 0.187000
O O14 0.210020 0.219202 0.634526
O O15 0.000000 0.500000 0.500000
O O16 0.055625 0.679032 0.720844
#
# Coordination Sequence:
#
# PCOD9036218 Si02
#       8
#     2   2   2   1   2   2   2   2
#     4  10  23  46  76 108 154 199 258 311 389 461
#     4  12  26  44  74 113 143 196 263 322 394 461
#     4  11  25  47  73 107 156 200 251 316 392 469
#     4  10  24  46  78  96 146 204 248 320 398 452
#     4  11  25  47  73 112 149 200 256 329 383 468
#     4  12  26  46  75 113 151 206 259 320 387 458
#     4  11  24  47  76 109 154 206 251 315 384 467
#     4  10  22  48  71 107 145 198 250 322 384 467
#
# _framework density 25.897666999999998
#
# number of rings (size 3 to 8) (size 9 to 14) (size 15 to 20)
#    0.000    1.067    4.000    1.200    3.733    2.667 
#    4.800    4.667    0.000    0.000    0.000    0.000 
#    0.000    0.000    0.000    0.000    0.000    0.000 
#
# Total GULP energy -83621.987139 kJ/mol
# GULP energy per Si atom -5574.799143 kJ/mol
# Density = 2.583872 g / cm^3
# Si number density = 25.897667 Si / 1000 Ang^3
#
#
#
# Elastic Constant Matrix: (Units=GPa)
#
#
# Indices 1 2 3 4 5 6 
#
# 1 142.7363 28.4388 35.9643 -10.5077 -28.5077 35.1883
# 2 28.4388 204.0666 40.6360 -28.4275 -15.4050 30.6234
# 3 35.9643 40.6360 84.1680 -25.8807 -17.9938 10.7991
# 4 -10.5077 -28.4275 -25.8807 49.0023 -9.1255 -13.0543
# 5 -28.5077 -15.4050 -17.9938 -9.1255 34.0669 -12.3812
# 6 35.1883 30.6234 10.7991 -13.0543 -12.3812 44.9743
#
#
#
# Elastic Compliance Matrix: (Units=1/GPa)
#
#
# Indices 1 2 3 4 5 6 
#
# 1 0.010125 0.000460 -0.002481 0.000512 0.005317 -0.006027
# 2 0.000460 0.006061 -0.001656 0.002296 0.001803 -0.002927
# 3 -0.002481 -0.001656 0.019803 0.012936 0.013169 0.005694
# 4 0.000512 0.002296 0.012936 0.035820 0.022035 0.011393
# 5 0.005317 0.001803 0.013169 0.022035 0.051886 0.012130
# 6 -0.006027 -0.002927 0.005694 0.011393 0.012130 0.034222
#
#
# Mechanical properties :
#
#
# Convention : Reuss Voigt Hill
#
# Bulk Modulus (GPa) = 34.92133 71.22768 53.07451
# Shear Modulus (GPa) = 28.60167 47.33749 37.96958
#
# Velocity S-wave (km/s) = 3.32687 4.27999 3.83317
# Velocity P-wave (km/s) = 5.31706 7.21025 6.33478
#
# Compressibility (1/GPa) = 0.02863579
#
# Stress axis : x y z
#
# Youngs Moduli (GPa) = 98.76745 164.98496 50.49757
#
# Poissons Ratio (x) = -0.07593 0.12528
# Poissons Ratio (y) = -0.04546 0.08362
# Poissons Ratio (z) = 0.24503 0.27320
#
# Static dielectric constant tensor:
#      x y z
#    x 2.122840 -0.110850 -0.037940 
#    y -0.110850 2.070220 0.049580 
#    z -0.037940 0.049580 2.157860 
# 
# From -- ./inp_files/116167.got.cif
#   From: 2010.05.17/outbox.cif.g08.bks.cpg/sg2_59_cif.got.tgz:116167.got - 2010.06.03 11:33:40.
