data_PCOD9036662
_publ_section_title
;
Structure prediction by ZEFSAII (Michael W. Deem and Ramdas Pophale) SiO2 
 PCOD9036662
Probable space group: P -1
;
_chemical_formula_sum "Si O2"
_cell_formula_units_Z 14
_cell_length_a 11.379617
_cell_length_b 12.259430
_cell_length_c 7.741066
_cell_angle_alpha 99.241680
_cell_angle_beta 86.284646
_cell_angle_gamma 147.082077
_cell_volume 574.304197
_symmetry_space_group_name_H-M "P -1"
_symmetry_group_IT_number 2
_symmetry_cell_setting 'triclinic'
loop_
_space_group_symop_operation_xyz
x,y,z
-x,-y,-z
loop_
_atom_site_type_symbol
_atom_site_label
_atom_site_fract_x
_atom_site_fract_y
_atom_site_fract_z
Si Si1 0.226502 0.051443 0.560075
Si Si2 0.464376 0.012328 0.205009
Si Si3 0.990338 0.931367 0.224078
Si Si4 0.337097 0.474145 0.010912
Si Si5 0.023488 0.294710 0.291470
Si Si6 0.314902 0.082488 0.018751
Si Si7 0.678464 0.272033 0.574382
O O1 0.160558 0.064436 0.399307
O O2 0.041189 0.812956 0.550881
O O3 0.176808 0.101543 0.728407
O O4 0.461315 0.179414 0.577379
O O5 0.349842 0.037872 0.176912
O O6 0.332199 0.821041 0.286906
O O7 0.654855 0.192717 0.370873
O O8 0.500000 0.000000 0.000000
O O9 0.847356 0.707666 0.155020
O O10 0.152971 0.053835 0.077926
O O11 0.460400 0.684946 0.005220
O O12 0.500000 0.500000 0.000000
O O13 0.214876 0.388797 0.184383
O O14 0.113417 0.486759 0.363330
O O15 0.807004 0.096269 0.148423
#
# Coordination Sequence:
#
# PCOD9036662 Si02
#       7
#     2   2   2   2   2   2   2
#     4  11  22  42  63  99 138 168 222 275 330 406
#     4  11  24  46  72  96 133 180 227 283 337 398
#     4  10  23  38  66  97 132 179 216 269 336 401
#     4  11  22  39  64  98 135 179 221 269 336 399
#     4  11  23  39  67  97 130 176 218 278 337 398
#     4  11  23  44  66  97 137 173 226 277 330 404
#     4  11  25  46  69  99 137 176 227 283 336 398
#
# _framework density 24.377324000000002
#
# number of rings (size 3 to 8) (size 9 to 14) (size 15 to 20)
#    0.000    1.143    1.429    5.143    2.000    2.857 
#    0.000   12.857    0.000    0.000    0.000    0.000 
#    0.000    0.000    0.000    0.000    0.000    0.000 
#
# Total GULP energy -78178.326137 kJ/mol
# GULP energy per Si atom -5584.166153 kJ/mol
# Density = 2.432184 g / cm^3
# Si number density = 24.377324 Si / 1000 Ang^3
#
#
#
# Elastic Constant Matrix: (Units=GPa)
#
#
# Indices 1 2 3 4 5 6 
#
# 1 89.5705 18.7746 17.6382 -14.0692 -6.3393 8.4476
# 2 18.7746 161.5106 30.1024 17.6544 -8.4672 -10.8231
# 3 17.6382 30.1024 141.1210 5.5419 -6.9344 -0.4384
# 4 -14.0692 17.6544 5.5419 14.5951 -5.4990 -11.6859
# 5 -6.3393 -8.4672 -6.9344 -5.4990 43.5496 -4.2614
# 6 8.4476 -10.8231 -0.4384 -11.6859 -4.2614 35.5372
#
#
#
# Elastic Compliance Matrix: (Units=1/GPa)
#
#
# Indices 1 2 3 4 5 6 
#
# 1 0.016562 -0.003927 -0.002021 0.026851 0.005136 0.004287
# 2 -0.003927 0.008287 -0.000737 -0.015382 -0.001192 -0.001753
# 3 -0.002021 -0.000737 0.007690 -0.004998 0.000030 -0.001289
# 4 0.026851 -0.015382 -0.004998 0.159675 0.024622 0.044330
# 5 0.005136 -0.001192 0.000030 0.024622 0.027553 0.009817
# 6 0.004287 -0.001753 -0.001289 0.044330 0.009817 0.042325
#
#
# Mechanical properties :
#
#
# Convention : Reuss Voigt Hill
#
# Bulk Modulus (GPa) = 52.16830 58.35917 55.26373
# Shear Modulus (GPa) = 17.73987 40.44884 29.09436
#
# Velocity S-wave (km/s) = 2.70056 4.07785 3.45846
# Velocity P-wave (km/s) = 5.58308 6.79439 6.21830
#
# Compressibility (1/GPa) = 0.01916873
#
# Stress axis : x y z
#
# Youngs Moduli (GPa) = 60.37840 120.67376 130.04545
#
# Poissons Ratio (x) = 0.47389 0.26284
# Poissons Ratio (y) = 0.23711 0.09581
# Poissons Ratio (z) = 0.12203 0.08891
#
# Static dielectric constant tensor:
#      x y z
#    x 2.066890 -0.024900 -0.042290 
#    y -0.024900 1.899480 0.001450 
#    z -0.042290 0.001450 2.001640 
# 
# From -- ./inp_files/262692.got.cif
#   From: 2010.05.17/outbox.cif.g08.bks.cpg/sg2_132_cif.got.tgz:262692.got - 2010.06.03 11:33:40.
