data_PCOD9036137
_publ_section_title
;
Structure prediction by ZEFSAII (Michael W. Deem and Ramdas Pophale) SiO2 
 PCOD9036137
Probable space group: P -1
;
_chemical_formula_sum "Si O2"
_cell_formula_units_Z 14
_cell_length_a 8.062225
_cell_length_b 16.701792
_cell_length_c 19.581114
_cell_angle_alpha 20.093064
_cell_angle_beta 142.202296
_cell_angle_gamma 134.129344
_cell_volume 541.856283
_symmetry_space_group_name_H-M "P -1"
_symmetry_group_IT_number 2
_symmetry_cell_setting 'triclinic'
loop_
_space_group_symop_operation_xyz
x,y,z
-x,-y,-z
loop_
_atom_site_type_symbol
_atom_site_label
_atom_site_fract_x
_atom_site_fract_y
_atom_site_fract_z
Si Si1 0.471524 0.953138 0.220187
Si Si2 0.960115 0.697246 0.270978
Si Si3 0.986631 0.784102 0.946259
Si Si4 0.538020 0.304790 0.081710
Si Si5 0.603265 0.174147 0.448259
Si Si6 0.106400 0.387995 0.197857
Si Si7 0.206104 0.509105 0.363375
O O1 0.209476 0.837697 0.248003
O O2 0.731473 0.738369 0.460060
O O3 0.541442 0.117964 0.171083
O O4 0.337600 0.119082 0.979523
O O5 0.001268 0.568911 0.312824
O O6 0.000000 0.500000 0.500000
O O7 0.685468 0.724359 0.911348
O O8 0.141871 0.599439 0.089310
O O9 0.136197 0.725989 0.113206
O O10 0.901459 0.045261 0.677847
O O11 0.426527 0.571670 0.801419
O O12 0.852361 0.281520 0.227524
O O13 0.393568 0.215980 0.410945
O O14 0.500000 0.000000 0.500000
O O15 0.000000 0.500000 0.000000
O O16 0.500000 0.500000 0.500000
#
# Coordination Sequence:
#
# PCOD9036137 Si02
#       7
#     2   2   2   2   2   2   2
#     4  10  23  46  68 103 146 176 237 301 356 430
#     4  10  22  47  75  99 138 185 241 301 360 422
#     4  12  24  46  75 100 143 197 237 300 360 422
#     4  11  24  45  69 110 143 189 237 291 366 427
#     4  11  25  47  71 103 150 190 243 296 348 437
#     4  10  23  45  67 106 143 182 243 288 355 429
#     4  10  24  48  70 104 141 187 243 293 364 427
#
# _framework density 25.837108000000001
#
# number of rings (size 3 to 8) (size 9 to 14) (size 15 to 20)
#    0.000    1.429    4.286    0.429    2.000    3.429 
#    7.714    0.000    0.000    0.000    0.000    0.000 
#    0.000    0.000    0.000    0.000    0.000    0.000 
#
# Total GULP energy -78446.862560 kJ/mol
# GULP energy per Si atom -5603.347326 kJ/mol
# Density = 2.577830 g / cm^3
# Si number density = 25.837108 Si / 1000 Ang^3
#
#
#
# Elastic Constant Matrix: (Units=GPa)
#
#
# Indices 1 2 3 4 5 6 
#
# 1 60.0127 17.5789 24.5755 -9.7313 3.6441 -13.9658
# 2 17.5789 95.6995 37.8850 -20.1040 1.7254 -20.2985
# 3 24.5755 37.8850 176.2109 -0.6909 -2.2374 -23.5405
# 4 -9.7313 -20.1040 -0.6909 54.1143 -12.2513 4.4434
# 5 3.6441 1.7254 -2.2374 -12.2513 54.4158 -5.4594
# 6 -13.9658 -20.2985 -23.5405 4.4434 -5.4594 51.5222
#
#
#
# Elastic Compliance Matrix: (Units=1/GPa)
#
#
# Indices 1 2 3 4 5 6 
#
# 1 0.019105 -0.001504 -0.001872 0.002477 -0.000403 0.003475
# 2 -0.001504 0.013266 -0.002138 0.004560 0.000975 0.003552
# 3 -0.001872 -0.002138 0.006640 -0.001105 0.000400 0.001822
# 4 0.002477 0.004560 -0.001105 0.021590 0.004564 0.000584
# 5 -0.000403 0.000975 0.000400 0.004564 0.019632 0.002145
# 6 0.003475 0.003552 0.001822 0.000584 0.002145 0.022760
#
#
# Mechanical properties :
#
#
# Convention : Reuss Voigt Hill
#
# Bulk Modulus (GPa) = 35.73584 54.66686 45.20135
# Shear Modulus (GPa) = 40.53612 48.80270 44.66941
#
# Velocity S-wave (km/s) = 3.96525 4.35082 4.16250
# Velocity P-wave (km/s) = 5.90131 6.81496 6.37453
#
# Compressibility (1/GPa) = 0.02798311
#
# Stress axis : x y z
#
# Youngs Moduli (GPa) = 52.34242 75.38348 150.60572
#
# Poissons Ratio (x) = 0.11335 0.28200
# Poissons Ratio (y) = 0.07870 0.32193
# Poissons Ratio (z) = 0.09801 0.16114
#
# Static dielectric constant tensor:
#      x y z
#    x 2.105100 0.049150 -0.013870 
#    y 0.049150 2.053540 -0.016920 
#    z -0.013870 -0.016920 2.073220 
# 
# From -- ./inp_files/590933.got.cif
#   From: 2010.05.17/outbox.cif.g08.bks.cpg/sg2_296_cif.got.tgz:590933.got - 2010.06.03 11:33:40.
