data_PCOD9036111
_publ_section_title
;
Structure prediction by ZEFSAII (Michael W. Deem and Ramdas Pophale) SiO2 
 PCOD9036111
Probable space group: P -1
;
_chemical_formula_sum "Si O2"
_cell_formula_units_Z 16
_cell_length_a 24.589545
_cell_length_b 17.088548
_cell_length_c 5.370072
_cell_angle_alpha 72.381746
_cell_angle_beta 79.604441
_cell_angle_gamma 18.450368
_cell_volume 636.663784
_symmetry_space_group_name_H-M "P -1"
_symmetry_group_IT_number 2
_symmetry_cell_setting 'triclinic'
loop_
_space_group_symop_operation_xyz
x,y,z
-x,-y,-z
loop_
_atom_site_type_symbol
_atom_site_label
_atom_site_fract_x
_atom_site_fract_y
_atom_site_fract_z
Si Si1 0.403952 0.515328 0.194436
Si Si2 0.948819 0.955554 0.792221
Si Si3 0.972994 0.318868 0.738595
Si Si4 0.297977 0.278739 0.797416
Si Si5 0.466797 0.842357 0.635922
Si Si6 0.719775 0.170220 0.394806
Si Si7 0.106418 0.418421 0.140697
Si Si8 0.310244 0.434709 0.794399
O O1 0.507048 0.291485 0.214368
O O2 0.547321 0.355792 0.419801
O O3 0.206441 0.767906 0.222413
O O4 0.354270 0.655201 0.900653
O O5 0.822677 0.075137 0.611087
O O6 0.022018 0.783863 0.092179
O O7 0.127242 0.744196 0.725686
O O8 0.763122 0.631885 0.522323
O O9 0.011081 0.342091 0.864121
O O10 0.126908 0.102944 0.604918
O O11 0.217135 0.312317 0.946370
O O12 0.217609 0.476927 0.783256
O O13 0.500000 0.000000 0.000000
O O14 0.555887 0.756334 0.892136
O O15 0.257058 0.165178 0.445602
O O16 0.580689 0.699551 0.421273
O O17 0.000000 0.500000 0.000000
#
# Coordination Sequence:
#
# PCOD9036111 Si02
#       8
#     2   2   2   2   2   2   2   2
#     4  10  26  45  71 106 148 193 247 315 380 450
#     4  11  23  43  78 104 140 190 259 303 375 450
#     4  11  23  43  75 110 144 195 254 313 369 456
#     4  12  24  46  73 103 147 200 253 303 370 459
#     4  12  30  48  72 115 157 195 249 319 378 446
#     4  10  22  47  74 104 138 199 252 306 383 456
#     4  12  29  46  72 111 150 199 248 315 382 449
#     4  12  26  47  76 108 149 203 252 305 378 449
#
# _framework density 25.131004999999998
#
# number of rings (size 3 to 8) (size 9 to 14) (size 15 to 20)
#    0.000    0.750    3.750    1.875    7.000    3.500 
#    0.000    0.000    0.000    0.000    0.000    0.000 
#    0.000    0.000    0.000    0.000    0.000    0.000 
#
# Total GULP energy -89408.031748 kJ/mol
# GULP energy per Si atom -5588.001984 kJ/mol
# Density = 2.507381 g / cm^3
# Si number density = 25.131005 Si / 1000 Ang^3
#
#
#
# Elastic Constant Matrix: (Units=GPa)
#
#
# Indices 1 2 3 4 5 6 
#
# 1 94.5819 5.0168 30.2797 -13.8546 12.7564 5.5815
# 2 5.0168 84.2370 17.1992 -7.1378 -8.9018 0.7171
# 3 30.2797 17.1992 107.8115 -18.4953 16.9723 -8.3166
# 4 -13.8546 -7.1378 -18.4953 34.1322 4.1214 1.7648
# 5 12.7564 -8.9018 16.9723 4.1214 27.0139 -8.0614
# 6 5.5815 0.7171 -8.3166 1.7648 -8.0614 39.2372
#
#
#
# Elastic Compliance Matrix: (Units=1/GPa)
#
#
# Indices 1 2 3 4 5 6 
#
# 1 0.013198 -0.000698 -0.001844 0.005300 -0.007304 -0.003995
# 2 -0.000698 0.013212 -0.002905 0.000067 0.006681 0.000612
# 3 -0.001844 -0.002905 0.012871 0.006648 -0.008915 0.000913
# 4 0.005300 0.000067 0.006648 0.036879 -0.013405 -0.003759
# 5 -0.007304 0.006681 -0.008915 -0.013405 0.053484 0.010619
# 6 -0.003995 0.000612 0.000913 -0.003759 0.010619 0.028587
#
#
# Mechanical properties :
#
#
# Convention : Reuss Voigt Hill
#
# Bulk Modulus (GPa) = 35.22777 43.51355 39.37066
# Shear Modulus (GPa) = 27.99758 35.68564 31.84161
#
# Velocity S-wave (km/s) = 3.34138 3.77236 3.56339
# Velocity P-wave (km/s) = 5.37908 6.02715 5.71231
#
# Compressibility (1/GPa) = 0.02838669
#
# Stress axis : x y z
#
# Youngs Moduli (GPa) = 75.77182 75.68648 77.69367
#
# Poissons Ratio (x) = 0.05284 0.14329
# Poissons Ratio (y) = 0.05290 0.22567
# Poissons Ratio (z) = 0.13974 0.21984
#
# Static dielectric constant tensor:
#      x y z
#    x 1.944250 0.015540 -0.033980 
#    y 0.015540 2.057040 -0.041500 
#    z -0.033980 -0.041500 2.064140 
# 
# From -- ./inp_files/124712.got.cif
#   From: 2010.05.17/outbox.cif.g08.bks.cpg/sg2_63_cif.got.tgz:124712.got - 2010.06.03 11:33:40.
