data_PCOD9036560
_publ_section_title
;
Structure prediction by ZEFSAII (Michael W. Deem and Ramdas Pophale) SiO2 
 PCOD9036560
Probable space group: P -1
;
_chemical_formula_sum "Si O2"
_cell_formula_units_Z 16
_cell_length_a 10.999707
_cell_length_b 18.917598
_cell_length_c 7.712677
_cell_angle_alpha 27.790782
_cell_angle_beta 58.627929
_cell_angle_gamma 59.628537
_cell_volume 634.781676
_symmetry_space_group_name_H-M "P -1"
_symmetry_group_IT_number 2
_symmetry_cell_setting 'triclinic'
loop_
_space_group_symop_operation_xyz
x,y,z
-x,-y,-z
loop_
_atom_site_type_symbol
_atom_site_label
_atom_site_fract_x
_atom_site_fract_y
_atom_site_fract_z
Si Si1 0.390597 0.381783 0.177370
Si Si2 0.852605 0.933376 0.708478
Si Si3 0.860908 0.780598 0.372960
Si Si4 0.562223 0.896513 0.018960
Si Si5 0.000537 0.221805 0.388322
Si Si6 0.679905 0.262369 0.611514
Si Si7 0.630631 0.393394 0.728547
Si Si8 0.064856 0.530036 0.576474
O O1 0.263535 0.328007 0.268516
O O2 0.380931 0.279013 0.578668
O O3 0.366729 0.565779 0.807049
O O4 0.543916 0.330313 0.088049
O O5 0.914144 0.818292 0.762671
O O6 0.803328 0.900841 0.011106
O O7 0.690758 0.977672 0.660878
O O8 0.000000 0.000000 0.500000
O O9 0.920193 0.853298 0.340416
O O10 0.989126 0.686087 0.374607
O O11 0.432965 0.856742 0.079881
O O12 0.500000 0.000000 0.000000
O O13 0.834006 0.206990 0.537674
O O14 0.014970 0.400132 0.018363
O O15 0.693129 0.288959 0.750111
O O16 0.500000 0.500000 0.500000
O O17 0.764721 0.468482 0.545388
O O18 0.000000 0.500000 0.500000
#
# Coordination Sequence:
#
# PCOD9036560 Si02
#       8
#     2   2   2   2   2   2   2   2
#     4  10  23  40  69  98 139 171 225 286 345 412
#     4  11  27  47  69  97 134 182 238 287 343 424
#     4  11  23  43  67 106 134 179 228 282 357 418
#     4  11  26  46  67  95 136 182 231 280 351 421
#     4  12  23  40  71  97 144 173 223 291 351 411
#     4  11  22  40  68 102 135 176 220 283 354 408
#     4  10  23  38  61 103 144 175 226 282 353 418
#     4  12  23  38  66 105 141 186 224 281 355 421
#
# _framework density 25.205514000000001
#
# number of rings (size 3 to 8) (size 9 to 14) (size 15 to 20)
#    0.000    1.000    3.750    3.000    7.000    1.500 
#    0.000    0.625    0.000    0.000    0.000    0.000 
#    0.000    0.000    0.000    0.000    0.000    0.000 
#
# Total GULP energy -89293.948791 kJ/mol
# GULP energy per Si atom -5580.871799 kJ/mol
# Density = 2.514814 g / cm^3
# Si number density = 25.205514 Si / 1000 Ang^3
#
#
#
# Elastic Constant Matrix: (Units=GPa)
#
#
# Indices 1 2 3 4 5 6 
#
# 1 153.8947 39.2299 51.6581 5.5517 -53.4106 3.9366
# 2 39.2299 107.1391 27.6641 1.7526 -10.3362 -1.8895
# 3 51.6581 27.6641 78.1852 9.5007 -34.6375 -5.4430
# 4 5.5517 1.7526 9.5007 31.5879 -4.4121 -11.8732
# 5 -53.4106 -10.3362 -34.6375 -4.4121 65.6092 11.8744
# 6 3.9366 -1.8895 -5.4430 -11.8732 11.8744 49.2701
#
#
#
# Elastic Compliance Matrix: (Units=1/GPa)
#
#
# Indices 1 2 3 4 5 6 
#
# 1 0.010852 -0.002496 -0.003154 -0.001049 0.007307 -0.003325
# 2 -0.002496 0.010865 -0.003167 0.000863 -0.002112 0.000983
# 3 -0.003154 -0.003167 0.019632 -0.004357 0.007088 -0.000459
# 4 -0.001049 0.000863 -0.004357 0.036133 -0.002195 0.008872
# 5 0.007307 -0.002112 0.007088 -0.002195 0.025645 -0.006591
# 6 -0.003325 0.000983 -0.000459 0.008872 -0.006591 0.024275
#
#
# Mechanical properties :
#
#
# Convention : Reuss Voigt Hill
#
# Bulk Modulus (GPa) = 42.16677 64.03594 53.10135
# Shear Modulus (GPa) = 32.69237 44.00456 38.34846
#
# Velocity S-wave (km/s) = 3.60534 4.18285 3.90478
# Velocity P-wave (km/s) = 5.83925 6.98491 6.43761
#
# Compressibility (1/GPa) = 0.02371536
#
# Stress axis : x y z
#
# Youngs Moduli (GPa) = 92.15205 92.04041 50.93644
#
# Poissons Ratio (x) = 0.22970 0.16063
# Poissons Ratio (y) = 0.22998 0.16134
# Poissons Ratio (z) = 0.29060 0.29154
#
# Static dielectric constant tensor:
#      x y z
#    x 2.263900 -0.076530 0.075970 
#    y -0.076530 1.967130 -0.072140 
#    z 0.075970 -0.072140 2.086950 
# 
# From -- ./inp_files/281381.got.cif
#   From: 2010.05.17/outbox.cif.g08.bks.cpg/sg2_141_cif.got.tgz:281381.got - 2010.06.03 11:33:40.
