data_PCOD9036630
_publ_section_title
;
Structure prediction by ZEFSAII (Michael W. Deem and Ramdas Pophale) SiO2 
 PCOD9036630
Probable space group: P -1
;
_chemical_formula_sum "Si O2"
_cell_formula_units_Z 12
_cell_length_a 5.233055
_cell_length_b 19.146924
_cell_length_c 5.233052
_cell_angle_alpha 107.830887
_cell_angle_beta 85.496504
_cell_angle_gamma 93.116000
_cell_volume 497.353853
_symmetry_space_group_name_H-M "P -1"
_symmetry_group_IT_number 2
_symmetry_cell_setting 'triclinic'
loop_
_space_group_symop_operation_xyz
x,y,z
-x,-y,-z
loop_
_atom_site_type_symbol
_atom_site_label
_atom_site_fract_x
_atom_site_fract_y
_atom_site_fract_z
Si Si1 0.998209 0.086370 0.061523
Si Si2 0.927259 0.201296 0.567325
Si Si3 0.633971 0.298704 0.371445
Si Si4 0.024847 0.413630 0.415422
Si Si5 0.775488 0.658871 0.163227
Si Si6 0.504356 0.158871 0.934360
O O1 0.234021 0.115346 0.899113
O O2 0.053817 0.129113 0.371452
O O3 0.719376 0.111594 0.014059
O O4 0.000000 0.000000 0.000000
O O5 0.872510 0.250000 0.377491
O O6 0.078902 0.261539 0.791033
O O7 0.656011 0.176723 0.682481
O O8 0.494242 0.323277 0.667266
O O9 0.470507 0.238461 0.159559
O O10 0.757662 0.370887 0.317070
O O11 0.097535 0.388406 0.669031
O O12 0.000000 0.500000 0.500000
O O13 0.216234 0.384654 0.150634
#
# Coordination Sequence:
#
# PCOD9036630 Si02
#       6
#     2   2   2   2   2   2
#     4  11  25  42  63  99 135 175 228 289 351 412
#     4  10  23  38  64  94 127 175 230 281 340 414
#     4  10  23  38  64  94 127 175 230 281 340 414
#     4  11  25  42  63  99 135 175 228 289 351 412
#     4  11  23  41  68  92 134 178 229 284 343 421
#     4  11  23  41  68  92 134 178 229 284 343 421
#
# _framework density 24.127692
#
# number of rings (size 3 to 8) (size 9 to 14) (size 15 to 20)
#    0.000    1.333    3.333    1.000    4.667    2.667 
#    0.000    0.000    0.000    0.000    0.000    0.000 
#    0.000    0.000    0.000    0.000    0.000    0.000 
#
# Total GULP energy -67071.063118 kJ/mol
# GULP energy per Si atom -5589.255260 kJ/mol
# Density = 2.407278 g / cm^3
# Si number density = 24.127692 Si / 1000 Ang^3
#
#
#
# Elastic Constant Matrix: (Units=GPa)
#
#
# Indices 1 2 3 4 5 6 
#
# 1 95.5463 43.0317 39.4797 3.7991 -8.7123 -0.8167
# 2 43.0317 189.9758 74.8984 36.0091 -11.5568 2.1549
# 3 39.4797 74.8984 107.4228 3.3297 -19.4696 1.7054
# 4 3.7991 36.0091 3.3297 46.4148 -1.1730 -7.6864
# 5 -8.7123 -11.5568 -19.4696 -1.1730 41.6252 -10.9923
# 6 -0.8167 2.1549 1.7054 -7.6864 -10.9923 26.0999
#
#
#
# Elastic Compliance Matrix: (Units=1/GPa)
#
#
# Indices 1 2 3 4 5 6 
#
# 1 0.012673 -0.001628 -0.003385 0.000724 0.001004 0.001388
# 2 -0.001628 0.009246 -0.005858 -0.007191 -0.001563 -0.003208
# 3 -0.003385 -0.005858 0.015516 0.004375 0.005871 0.003125
# 4 0.000724 -0.007191 0.004375 0.028552 0.003728 0.010309
# 5 0.001004 -0.001563 0.005871 0.003728 0.030246 0.013614
# 6 0.001388 -0.003208 0.003125 0.010309 0.013614 0.047188
#
#
# Mechanical properties :
#
#
# Convention : Reuss Voigt Hill
#
# Bulk Modulus (GPa) = 63.72005 78.64049 71.18027
# Shear Modulus (GPa) = 29.34370 38.53032 33.93701
#
# Velocity S-wave (km/s) = 3.49117 4.00050 3.75448
# Velocity P-wave (km/s) = 6.53589 7.34867 6.95416
#
# Compressibility (1/GPa) = 0.01569365
#
# Stress axis : x y z
#
# Youngs Moduli (GPa) = 78.91076 108.15059 64.44803
#
# Poissons Ratio (x) = 0.17605 0.21815
# Poissons Ratio (y) = 0.12845 0.37755
# Poissons Ratio (z) = 0.26710 0.63356
#
# Static dielectric constant tensor:
#      x y z
#    x 2.058970 -0.039150 0.070110 
#    y -0.039150 1.912160 -0.047630 
#    z 0.070110 -0.047630 1.974260 
# 
# From -- ./inp_files/3388.got.cif
#   From: 2010.05.17/outbox.cif.g08.bks.cpg/sg2_2_cif.got.tgz:3388.got - 2010.06.03 11:33:40.
