data_PCOD9036537
_publ_section_title
;
Structure prediction by ZEFSAII (Michael W. Deem and Ramdas Pophale) SiO2 
 PCOD9036537
Probable space group: P -1
;
_chemical_formula_sum "Si O2"
_cell_formula_units_Z 16
_cell_length_a 11.387605
_cell_length_b 11.738810
_cell_length_c 15.786604
_cell_angle_alpha 149.281226
_cell_angle_beta 123.191284
_cell_angle_gamma 78.058530
_cell_volume 710.010734
_symmetry_space_group_name_H-M "P -1"
_symmetry_group_IT_number 2
_symmetry_cell_setting 'triclinic'
loop_
_space_group_symop_operation_xyz
x,y,z
-x,-y,-z
loop_
_atom_site_type_symbol
_atom_site_label
_atom_site_fract_x
_atom_site_fract_y
_atom_site_fract_z
Si Si1 0.868532 0.743914 0.882835
Si Si2 0.575877 0.905344 0.541867
Si Si3 0.137241 0.804791 0.891236
Si Si4 0.468910 0.823873 0.642353
Si Si5 0.978812 0.262200 0.896607
Si Si6 0.069794 0.256739 0.551037
Si Si7 0.420844 0.383054 0.786604
Si Si8 0.734840 0.948863 0.333077
O O1 0.680179 0.510646 0.613833
O O2 0.025870 0.796572 0.921273
O O3 0.879156 0.628465 0.902681
O O4 0.891259 0.031537 0.085480
O O5 0.508107 0.852064 0.575530
O O6 0.549616 0.644982 0.317180
O O7 0.500000 0.000000 0.500000
O O8 0.787815 0.124383 0.773939
O O9 0.061657 0.481828 0.641354
O O10 0.347043 0.002855 0.123684
O O11 0.359687 0.946248 0.688231
O O12 0.972992 0.017450 0.689269
O O13 0.000000 0.500000 0.000000
O O14 0.277904 0.440508 0.775869
O O15 0.936942 0.137753 0.503016
O O16 0.313509 0.088807 0.610399
O O17 0.616574 0.617082 0.049622
#
# Coordination Sequence:
#
# PCOD9036537 Si02
#       8
#     2   2   2   2   2   2   2   2
#     4  11  25  44  69  96 132 180 222 271 328 391
#     4  11  22  38  62  95 137 171 211 269 331 393
#     4  11  24  46  67  95 134 175 228 273 320 395
#     4  12  22  41  68  95 130 171 223 274 327 390
#     4  11  26  43  68 101 135 174 217 271 339 395
#     4  11  24  41  65  94 134 169 221 271 325 397
#     4  10  23  38  56  92 135 174 214 267 322 397
#     4  11  22  36  63  92 130 177 215 265 335 382
#
# _framework density 22.534867999999999
#
# number of rings (size 3 to 8) (size 9 to 14) (size 15 to 20)
#    0.000    1.000    5.000    1.500    5.250    1.500 
#    0.000    0.000    0.000    2.250    0.000    0.000 
#    0.000    0.000    0.000    0.000    0.000    0.000 
#
# Total GULP energy -89233.118605 kJ/mol
# GULP energy per Si atom -5577.069913 kJ/mol
# Density = 2.248358 g / cm^3
# Si number density = 22.534868 Si / 1000 Ang^3
#
#
#
# Elastic Constant Matrix: (Units=GPa)
#
#
# Indices 1 2 3 4 5 6 
#
# 1 63.2519 15.7052 11.8325 -2.5469 8.7484 -20.2685
# 2 15.7052 88.7611 17.5291 21.3998 -10.8424 -20.1586
# 3 11.8325 17.5291 77.1606 7.3815 2.5526 -11.4479
# 4 -2.5469 21.3998 7.3815 39.2979 -6.1963 -8.0503
# 5 8.7484 -10.8424 2.5526 -6.1963 10.4737 0.9767
# 6 -20.2685 -20.1586 -11.4479 -8.0503 0.9767 26.9803
#
#
#
# Elastic Compliance Matrix: (Units=1/GPa)
#
#
# Indices 1 2 3 4 5 6 
#
# 1 0.026861 -0.004739 0.000276 0.003905 -0.026861 0.018893
# 2 -0.004739 0.017604 -0.002480 -0.005109 0.019175 0.006322
# 3 0.000276 -0.002480 0.014538 -0.001704 -0.007750 0.004294
# 4 0.003905 -0.005109 -0.001704 0.031935 0.010053 0.007557
# 5 -0.026861 0.019175 -0.007750 0.010053 0.146668 -0.011451
# 6 0.018893 0.006322 0.004294 0.007557 -0.011451 0.060472
#
#
# Mechanical properties :
#
#
# Convention : Reuss Voigt Hill
#
# Bulk Modulus (GPa) = 22.16494 35.47855 28.82175
# Shear Modulus (GPa) = 15.29027 27.62416 21.45721
#
# Velocity S-wave (km/s) = 2.60766 3.50500 3.08909
# Velocity P-wave (km/s) = 4.35014 5.67081 5.05380
#
# Compressibility (1/GPa) = 0.04511630
#
# Stress axis : x y z
#
# Youngs Moduli (GPa) = 37.22815 56.80395 68.78657
#
# Poissons Ratio (x) = 0.26919 -0.01895
# Poissons Ratio (y) = 0.17642 0.17060
# Poissons Ratio (z) = -0.01026 0.14088
#
# Static dielectric constant tensor:
#      x y z
#    x 1.904320 -0.019140 -0.061660 
#    y -0.019140 1.899040 0.028870 
#    z -0.061660 0.028870 1.912480 
# 
# From -- ./inp_files/273843.got.cif
#   From: 2010.05.17/outbox.cif.g08.bks.cpg/sg2_137_cif.got.tgz:273843.got - 2010.06.03 11:33:40.
