data_PCOD9036391
_publ_section_title
;
Structure prediction by ZEFSAII (Michael W. Deem and Ramdas Pophale) SiO2 
 PCOD9036391
Probable space group: P -1
;
_chemical_formula_sum "Si O2"
_cell_formula_units_Z 16
_cell_length_a 11.568288
_cell_length_b 9.829448
_cell_length_c 8.939343
_cell_angle_alpha 94.670660
_cell_angle_beta 55.973747
_cell_angle_gamma 118.900247
_cell_volume 712.069763
_symmetry_space_group_name_H-M "P -1"
_symmetry_group_IT_number 2
_symmetry_cell_setting 'triclinic'
loop_
_space_group_symop_operation_xyz
x,y,z
-x,-y,-z
loop_
_atom_site_type_symbol
_atom_site_label
_atom_site_fract_x
_atom_site_fract_y
_atom_site_fract_z
Si Si1 0.461835 0.132706 0.477825
Si Si2 0.581777 0.049769 0.105476
Si Si3 0.661620 0.262016 0.593896
Si Si4 0.969987 0.357807 0.231034
Si Si5 0.035463 0.703543 0.123455
Si Si6 0.287620 0.513383 0.175948
Si Si7 0.481556 0.536410 0.770204
Si Si8 0.271245 0.267439 0.659524
O O1 0.508645 0.131541 0.272131
O O2 0.597004 0.294318 0.487300
O O3 0.288559 0.111888 0.642964
O O4 0.500000 0.000000 0.500000
O O5 0.508204 0.876670 0.222576
O O6 0.777132 0.160524 0.963084
O O7 0.500000 0.000000 0.000000
O O8 0.801412 0.235734 0.426523
O O9 0.749340 0.381515 0.677912
O O10 0.991516 0.535726 0.219717
O O11 0.116856 0.370613 0.222370
O O12 0.968886 0.316489 0.055145
O O13 0.899419 0.748637 0.259019
O O14 0.401405 0.485090 0.202140
O O15 0.387743 0.588999 0.956809
O O16 0.344410 0.376656 0.765817
O O17 0.602015 0.647876 0.562717
#
# Coordination Sequence:
#
# PCOD9036391 Si02
#       8
#     2   2   2   2   2   2   2   2
#     4  10  23  43  68  92 126 188 232 269 336 418
#     4  11  25  44  69  95 131 182 237 278 334 418
#     4  11  22  40  67  94 135 180 224 273 336 412
#     4  11  23  38  69 103 144 176 224 293 340 410
#     4  11  24  41  68 109 135 177 234 286 352 398
#     4  11  21  39  61 106 138 173 229 278 334 413
#     4  10  23  35  66 101 139 178 218 279 359 402
#     4  11  22  42  67  97 142 178 221 291 348 408
#
# _framework density 22.469709000000002
#
# number of rings (size 3 to 8) (size 9 to 14) (size 15 to 20)
#    0.000    1.250    3.750    1.875    5.250    1.000 
#    0.000    3.125   11.000    0.000    0.000    0.000 
#    0.000    0.000    0.000    0.000    0.000    0.000 
#
# Total GULP energy -89116.764738 kJ/mol
# GULP energy per Si atom -5569.797796 kJ/mol
# Density = 2.241857 g / cm^3
# Si number density = 22.469709 Si / 1000 Ang^3
#
#
#
# Elastic Constant Matrix: (Units=GPa)
#
#
# Indices 1 2 3 4 5 6 
#
# 1 117.4735 36.6741 54.2326 6.7511 -3.1947 31.5885
# 2 36.6741 48.0539 37.8933 4.8705 1.8789 22.0182
# 3 54.2326 37.8933 129.8969 25.2100 -4.4401 12.1948
# 4 6.7511 4.8705 25.2100 40.9699 11.7569 3.2818
# 5 -3.1947 1.8789 -4.4401 11.7569 49.8690 3.2395
# 6 31.5885 22.0182 12.1948 3.2818 3.2395 42.2734
#
#
#
# Elastic Compliance Matrix: (Units=1/GPa)
#
#
# Indices 1 2 3 4 5 6 
#
# 1 0.013434 -0.004140 -0.003915 0.000986 0.000884 -0.006897
# 2 -0.004140 0.036564 -0.008362 0.003221 -0.002262 -0.013615
# 3 -0.003915 -0.008362 0.012936 -0.007412 0.002709 0.003917
# 4 0.000986 0.003221 -0.007412 0.030843 -0.007855 -0.002069
# 5 0.000884 -0.002262 0.002709 -0.007855 0.022376 -0.001368
# 6 -0.006897 -0.013615 0.003917 -0.002069 -0.001368 0.035037
#
#
# Mechanical properties :
#
#
# Convention : Reuss Voigt Hill
#
# Bulk Modulus (GPa) = 33.22253 61.44714 47.33483
# Shear Modulus (GPa) = 25.76552 37.73074 31.74813
#
# Velocity S-wave (km/s) = 3.38994 4.10223 3.76297
# Velocity P-wave (km/s) = 5.48997 7.06001 6.32390
#
# Compressibility (1/GPa) = 0.03010005
#
# Stress axis : x y z
#
# Youngs Moduli (GPa) = 74.43568 27.34921 77.30613
#
# Poissons Ratio (x) = 0.11322 0.30265
# Poissons Ratio (y) = 0.30816 0.64645
# Poissons Ratio (z) = 0.29141 0.22870
#
# Static dielectric constant tensor:
#      x y z
#    x 1.955620 -0.098300 0.048150 
#    y -0.098300 2.020950 0.002640 
#    z 0.048150 0.002640 1.867910 
# 
# From -- ./inp_files/262660.got.cif
#   From: 2010.05.17/outbox.cif.g08.bks.cpg/sg2_132_cif.got.tgz:262660.got - 2010.06.03 11:33:40.
