data_PCOD9036449
_publ_section_title
;
Structure prediction by ZEFSAII (Michael W. Deem and Ramdas Pophale) SiO2 
 PCOD9036449
Probable space group: P -1
;
_chemical_formula_sum "Si O2"
_cell_formula_units_Z 14
_cell_length_a 10.242179
_cell_length_b 9.300942
_cell_length_c 8.441106
_cell_angle_alpha 96.932799
_cell_angle_beta 114.996762
_cell_angle_gamma 86.112496
_cell_volume 723.341039
_symmetry_space_group_name_H-M "P -1"
_symmetry_group_IT_number 2
_symmetry_cell_setting 'triclinic'
loop_
_space_group_symop_operation_xyz
x,y,z
-x,-y,-z
loop_
_atom_site_type_symbol
_atom_site_label
_atom_site_fract_x
_atom_site_fract_y
_atom_site_fract_z
Si Si1 0.702102 0.753328 0.435768
Si Si2 0.247730 0.826468 0.277602
Si Si3 0.389859 0.529150 0.803771
Si Si4 0.480118 0.708465 0.599326
Si Si5 0.033424 0.051866 0.347899
Si Si6 0.249250 0.804370 0.921689
Si Si7 0.476857 0.979201 0.222951
O O1 0.699525 0.611937 0.305042
O O2 0.606442 0.714240 0.535423
O O3 0.854587 0.816679 0.569993
O O4 0.617453 0.881054 0.313776
O O5 0.327212 0.723539 0.430726
O O6 0.111471 0.916768 0.281594
O O7 0.223013 0.755129 0.084284
O O8 0.370217 0.944144 0.312442
O O9 0.478902 0.574357 0.699212
O O10 0.290741 0.666584 0.819713
O O11 0.500000 0.500000 0.000000
O O12 0.493734 0.852938 0.731812
O O13 0.000000 0.000000 0.500000
O O14 0.888013 0.106943 0.197984
O O15 0.383740 0.913409 0.023543
#
# Coordination Sequence:
#
# PCOD9036449 Si02
#       7
#     2   2   2   2   2   2   2
#     4  11  21  41  62  89 124 160 201 245 302 364
#     4   9  18  39  62  90 121 149 205 252 295 347
#     4  12  24  39  59  93 128 154 202 251 302 360
#     4  11  19  37  69  93 114 160 202 256 297 350
#     4  12  23  38  62  92 124 158 201 250 304 352
#     4  10  23  37  59  87 126 160 195 247 299 356
#     4   9  18  37  68  87 114 152 209 250 293 343
#
# _framework density 19.354633
#
# number of rings (size 3 to 8) (size 9 to 14) (size 15 to 20)
#    0.857    0.571    4.286    2.571    0.000    2.286 
#    0.000    0.000    0.000    2.571    0.000    0.000 
#    0.000    0.000    0.000    0.000    0.000    0.000 
#
# Total GULP energy -78137.337038 kJ/mol
# GULP energy per Si atom -5581.238360 kJ/mol
# Density = 1.931058 g / cm^3
# Si number density = 19.354633 Si / 1000 Ang^3
#
#
#
# Elastic Constant Matrix: (Units=GPa)
#
#
# Indices 1 2 3 4 5 6 
#
# 1 60.9991 12.4342 26.9685 0.4711 -5.0423 -12.1529
# 2 12.4342 62.9700 18.6530 13.9038 -5.8310 2.7278
# 3 26.9685 18.6530 105.3681 -2.1881 5.8304 1.7381
# 4 0.4711 13.9038 -2.1881 36.0883 -8.3025 -6.7012
# 5 -5.0423 -5.8310 5.8304 -8.3025 28.9039 0.9508
# 6 -12.1529 2.7278 1.7381 -6.7012 0.9508 22.4772
#
#
#
# Elastic Compliance Matrix: (Units=1/GPa)
#
#
# Indices 1 2 3 4 5 6 
#
# 1 0.023005 -0.004107 -0.005590 0.004856 0.005227 0.014595
# 2 -0.004107 0.019837 -0.002610 -0.008708 0.001544 -0.007088
# 3 -0.005590 -0.002610 0.011647 0.000322 -0.003648 -0.003356
# 4 0.004856 -0.008708 0.000322 0.035628 0.008802 0.013907
# 5 0.005227 0.001544 -0.003648 0.008802 0.038957 0.003897
# 6 0.014595 -0.007088 -0.003356 0.013907 0.003897 0.057482
#
#
# Mechanical properties :
#
#
# Convention : Reuss Voigt Hill
#
# Bulk Modulus (GPa) = 33.47243 38.38318 35.92781
# Shear Modulus (GPa) = 22.61123 28.91265 25.76194
#
# Velocity S-wave (km/s) = 3.42169 3.86921 3.65231
# Velocity P-wave (km/s) = 5.73955 6.31155 6.03233
#
# Compressibility (1/GPa) = 0.02987533
#
# Stress axis : x y z
#
# Youngs Moduli (GPa) = 43.46929 50.40961 85.85736
#
# Poissons Ratio (x) = 0.20704 0.47995
# Poissons Ratio (y) = 0.17853 0.22408
# Poissons Ratio (z) = 0.24299 0.13156
#
# Static dielectric constant tensor:
#      x y z
#    x 1.689160 -0.000660 -0.044480 
#    y -0.000660 1.676280 -0.001260 
#    z -0.044480 -0.001260 1.694050 
# 
# From -- ./inp_files/244218.got.cif
#   From: 2010.05.17/outbox.cif.g08.bks.cpg/sg2_123_cif.got.tgz:244218.got - 2010.06.03 11:33:40.
