data_PCOD9036178
_publ_section_title
;
Structure prediction by ZEFSAII (Michael W. Deem and Ramdas Pophale) SiO2 
 PCOD9036178
Probable space group: P -1
;
_chemical_formula_sum "Si O2"
_cell_formula_units_Z 15
_cell_length_a 8.930221
_cell_length_b 7.533987
_cell_length_c 12.995557
_cell_angle_alpha 86.126036
_cell_angle_beta 49.542239
_cell_angle_gamma 64.593042
_cell_volume 571.956790
_symmetry_space_group_name_H-M "P -1"
_symmetry_group_IT_number 2
_symmetry_cell_setting 'triclinic'
loop_
_space_group_symop_operation_xyz
x,y,z
-x,-y,-z
loop_
_atom_site_type_symbol
_atom_site_label
_atom_site_fract_x
_atom_site_fract_y
_atom_site_fract_z
Si Si1 0.960496 0.015853 0.285148
Si Si2 0.474096 0.018027 0.888720
Si Si3 0.857397 0.467141 0.297100
Si Si4 0.611448 0.307686 0.766683
Si Si5 0.564496 0.150922 0.582848
Si Si6 0.175180 0.417258 0.328151
Si Si7 0.824061 0.918983 0.145512
Si Si8 0.000000 0.500000 0.000000
O O1 0.901208 0.247593 0.323210
O O2 0.778369 0.983984 0.431819
O O3 0.908856 0.010213 0.189851
O O4 0.206481 0.850698 0.225718
O O5 0.693891 0.829765 0.741947
O O6 0.402872 0.259857 0.884808
O O7 0.278358 0.990180 0.924317
O O8 0.500000 0.000000 0.000000
O O9 0.600227 0.651797 0.420538
O O10 0.028671 0.508625 0.285934
O O11 0.903444 0.457971 0.155690
O O12 0.660631 0.222573 0.632295
O O13 0.640942 0.505578 0.748599
O O14 0.395639 0.078614 0.704367
O O15 0.000000 0.500000 0.500000
O O16 0.014285 0.687624 0.044482
#
# Coordination Sequence:
#
# PCOD9036178 Si02
#       8
#     2   2   2   2   2   2   2   1
#     4  12  23  40  69 105 136 181 235 286 365 417
#     4  11  26  49  68 104 144 188 240 297 353 439
#     4  11  24  44  68  99 144 185 232 298 342 435
#     4  11  25  44  71 104 143 193 226 304 359 423
#     4  10  23  41  66  99 144 175 230 288 353 425
#     4  12  27  44  75 109 146 188 242 300 365 422
#     4  10  24  40  70  94 136 183 230 289 344 422
#     4  10  22  48  62  94 136 184 236 284 348 410
#
# _framework density 26.225759
#
# number of rings (size 3 to 8) (size 9 to 14) (size 15 to 20)
#    0.000    1.067    1.333    4.400    7.467    1.067 
#    2.400    0.000    0.000    0.000    0.000    0.000 
#    0.000    0.000    0.000    0.000    0.000    0.000 
#
# Total GULP energy -83605.649189 kJ/mol
# GULP energy per Si atom -5573.709946 kJ/mol
# Density = 2.616607 g / cm^3
# Si number density = 26.225759 Si / 1000 Ang^3
#
#
#
# Elastic Constant Matrix: (Units=GPa)
#
#
# Indices 1 2 3 4 5 6 
#
# 1 123.7947 8.2383 15.1985 2.2725 32.8990 13.8191
# 2 8.2383 86.9622 10.2300 2.4611 3.5476 14.2943
# 3 15.1985 10.2300 111.2387 -2.0821 5.7012 24.7174
# 4 2.2725 2.4611 -2.0821 37.4989 2.7040 0.8113
# 5 32.8990 3.5476 5.7012 2.7040 47.3604 -9.1385
# 6 13.8191 14.2943 24.7174 0.8113 -9.1385 45.2722
#
#
#
# Elastic Compliance Matrix: (Units=1/GPa)
#
#
# Indices 1 2 3 4 5 6 
#
# 1 0.010921 0.000154 0.000084 0.000065 -0.008608 -0.005167
# 2 0.000154 0.012281 -0.000137 -0.000603 -0.001786 -0.004200
# 3 0.000084 -0.000137 0.010533 0.000910 -0.002578 -0.006270
# 4 0.000065 -0.000603 0.000910 0.026915 -0.001875 -0.001187
# 5 -0.008608 -0.001786 -0.002578 -0.001875 0.029696 0.010627
# 6 -0.005167 -0.004200 -0.006270 -0.001187 0.010627 0.030581
#
#
# Mechanical properties :
#
#
# Convention : Reuss Voigt Hill
#
# Bulk Modulus (GPa) = 29.46592 43.25882 36.36237
# Shear Modulus (GPa) = 37.86823 45.24823 41.55823
#
# Velocity S-wave (km/s) = 3.80403 4.15822 3.98506
# Velocity P-wave (km/s) = 5.52758 6.29166 5.92196
#
# Compressibility (1/GPa) = 0.03393751
#
# Stress axis : x y z
#
# Youngs Moduli (GPa) = 91.57006 81.42646 94.93861
#
# Poissons Ratio (x) = -0.01255 -0.00800
# Poissons Ratio (y) = -0.01412 0.01301
# Poissons Ratio (z) = -0.00772 0.01116
#
# Static dielectric constant tensor:
#      x y z
#    x 2.036330 0.043710 -0.072760 
#    y 0.043710 2.074020 -0.043920 
#    z -0.072760 -0.043920 2.054110 
# 
# From -- ./inp_files/379427.got.cif
#   From: 2010.05.17/outbox.cif.g08.bks.cpg/sg2_190_cif.got.tgz:379427.got - 2010.06.03 11:33:40.
