data_PCOD9036281
_publ_section_title
;
Structure prediction by ZEFSAII (Michael W. Deem and Ramdas Pophale) SiO2 
 PCOD9036281
Probable space group: P -1
;
_chemical_formula_sum "Si O2"
_cell_formula_units_Z 12
_cell_length_a 12.848553
_cell_length_b 6.999038
_cell_length_c 5.498553
_cell_angle_alpha 76.235235
_cell_angle_beta 83.535650
_cell_angle_gamma 81.402935
_cell_volume 473.344565
_symmetry_space_group_name_H-M "P -1"
_symmetry_group_IT_number 2
_symmetry_cell_setting 'triclinic'
loop_
_space_group_symop_operation_xyz
x,y,z
-x,-y,-z
loop_
_atom_site_type_symbol
_atom_site_label
_atom_site_fract_x
_atom_site_fract_y
_atom_site_fract_z
Si Si1 0.746408 0.215918 0.251056
Si Si2 0.433738 0.024757 0.764015
Si Si3 0.220537 0.432525 0.172475
Si Si4 0.948670 0.724912 0.968583
Si Si5 0.908965 0.842414 0.452311
Si Si6 0.381287 0.452773 0.498727
O O1 0.697952 0.367067 0.425932
O O2 0.648872 0.132011 0.173100
O O3 0.819088 0.027964 0.397337
O O4 0.801097 0.348888 0.003077
O O5 0.377101 0.248173 0.700328
O O6 0.500000 0.000000 0.500000
O O7 0.500000 0.000000 0.000000
O O8 0.177961 0.284406 0.030660
O O9 0.339468 0.415417 0.248391
O O10 0.149091 0.360499 0.432984
O O11 0.975630 0.837481 0.684361
O O12 0.969445 0.811454 0.194445
O O13 0.000000 0.500000 0.000000
O O14 0.500000 0.500000 0.500000
#
# Coordination Sequence:
#
# PCOD9036281 Si02
#       6
#     2   2   2   2   2   2
#     4  12  26  44  72 100 150 186 239 297 354 416
#     4  12  27  44  67  98 137 187 246 294 344 408
#     4  10  25  41  74 102 146 180 242 286 364 408
#     4  10  22  48  78 104 143 184 230 295 358 428
#     4  10  24  44  73 105 143 181 231 288 362 418
#     4  12  25  44  67 103 143 189 245 291 346 413
#
# _framework density 25.351512
#
# number of rings (size 3 to 8) (size 9 to 14) (size 15 to 20)
#    1.000    0.000    3.333    2.500    4.667    1.333 
#    0.000    1.667    0.000    0.000    0.000    0.000 
#    0.000    0.000    0.000    0.000    0.000    0.000 
#
# Total GULP energy -67093.418163 kJ/mol
# GULP energy per Si atom -5591.118180 kJ/mol
# Density = 2.529381 g / cm^3
# Si number density = 25.351512 Si / 1000 Ang^3
#
#
#
# Elastic Constant Matrix: (Units=GPa)
#
#
# Indices 1 2 3 4 5 6 
#
# 1 99.8467 19.8410 36.5992 12.7716 2.8152 19.2814
# 2 19.8410 126.8529 64.9144 -9.1008 -3.4579 -6.9613
# 3 36.5992 64.9144 194.0163 -7.5787 12.8648 -15.4247
# 4 12.7716 -9.1008 -7.5787 57.8260 6.8001 1.9416
# 5 2.8152 -3.4579 12.8648 6.8001 46.0221 1.9485
# 6 19.2814 -6.9613 -15.4247 1.9416 1.9485 62.8063
#
#
#
# Elastic Compliance Matrix: (Units=1/GPa)
#
#
# Indices 1 2 3 4 5 6 
#
# 1 0.012395 -0.001131 -0.002470 -0.003149 0.000501 -0.004455
# 2 -0.001131 0.009786 -0.003063 0.001197 0.001459 0.000597
# 3 -0.002470 -0.003063 0.007017 0.001181 -0.002307 0.002177
# 4 -0.003149 0.001197 0.001181 0.018635 -0.002839 0.000901
# 5 0.000501 0.001459 -0.002307 -0.002839 0.022922 -0.001182
# 6 -0.004455 0.000597 0.002177 0.000901 -0.001182 0.017899
#
#
# Mechanical properties :
#
#
# Convention : Reuss Voigt Hill
#
# Bulk Modulus (GPa) = 63.01750 73.71390 68.36570
# Shear Modulus (GPa) = 46.60961 53.28831 49.94896
#
# Velocity S-wave (km/s) = 4.29246 4.58971 4.44357
# Velocity P-wave (km/s) = 7.03409 7.56486 7.30430
#
# Compressibility (1/GPa) = 0.01586861
#
# Stress axis : x y z
#
# Youngs Moduli (GPa) = 80.68073 102.18571 142.50488
#
# Poissons Ratio (x) = 0.11561 0.35198
# Poissons Ratio (y) = 0.09128 0.43653
# Poissons Ratio (z) = 0.19928 0.31303
#
# Static dielectric constant tensor:
#      x y z
#    x 2.072340 0.037580 -0.013890 
#    y 0.037580 1.987150 0.029590 
#    z -0.013890 0.029590 2.059540 
# 
# From -- ./inp_files/101969.got.cif
#   From: 2010.05.17/outbox.cif.g08.bks.cpg/sg2_51_cif.got.tgz:101969.got - 2010.06.03 11:33:40.
