data_PCOD9036062
_publ_section_title
;
Structure prediction by ZEFSAII (Michael W. Deem and Ramdas Pophale) SiO2 
 PCOD9036062
Probable space group: P -1
;
_chemical_formula_sum "Si O2"
_cell_formula_units_Z 12
_cell_length_a 5.658886
_cell_length_b 9.711317
_cell_length_c 11.062726
_cell_angle_alpha 108.410472
_cell_angle_beta 56.944741
_cell_angle_gamma 100.095793
_cell_volume 483.470791
_symmetry_space_group_name_H-M "P -1"
_symmetry_group_IT_number 2
_symmetry_cell_setting 'triclinic'
loop_
_space_group_symop_operation_xyz
x,y,z
-x,-y,-z
loop_
_atom_site_type_symbol
_atom_site_label
_atom_site_fract_x
_atom_site_fract_y
_atom_site_fract_z
Si Si1 0.346208 0.903892 0.671791
Si Si2 0.908942 0.909468 0.385147
Si Si3 0.681602 0.939398 0.046241
Si Si4 0.529670 0.374491 0.310722
Si Si5 0.620579 0.613091 0.901024
Si Si6 0.910248 0.605266 0.366973
O O1 0.577457 0.874568 0.495874
O O2 0.294121 0.748503 0.702170
O O3 0.092451 0.990071 0.704039
O O4 0.466640 0.005104 0.773619
O O5 0.032790 0.748832 0.308526
O O6 0.000000 0.000000 0.500000
O O7 0.695336 0.765832 0.983452
O O8 0.500000 0.000000 0.000000
O O9 0.000000 0.000000 0.000000
O O10 0.568450 0.346700 0.151003
O O11 0.644862 0.534489 0.351123
O O12 0.218343 0.359064 0.454856
O O13 0.861469 0.519889 0.740402
O O14 0.500000 0.500000 0.000000
#
# Coordination Sequence:
#
# PCOD9036062 Si02
#       6
#     2   2   2   2   2   2
#     4  10  23  44  68 101 135 187 248 301 368 438
#     4  10  24  41  72 100 137 181 248 317 364 435
#     4  12  28  49  77 108 153 207 256 304 378 471
#     4  10  22  47  71  98 139 191 254 300 377 445
#     4  12  28  43  71 110 153 194 244 318 385 454
#     4  10  24  43  70  99 138 193 245 313 370 453
#
# _framework density 24.820526000000001
#
# number of rings (size 3 to 8) (size 9 to 14) (size 15 to 20)
#    0.000    1.333    1.667    1.500    7.000    7.333 
#    0.000    0.000    0.000    0.000    0.000    0.000 
#    0.000    0.000    0.000    0.000    0.000    0.000 
#
# Total GULP energy -67028.151791 kJ/mol
# GULP energy per Si atom -5585.679316 kJ/mol
# Density = 2.476403 g / cm^3
# Si number density = 24.820526 Si / 1000 Ang^3
#
#
#
# Elastic Constant Matrix: (Units=GPa)
#
#
# Indices 1 2 3 4 5 6 
#
# 1 84.4309 65.8928 25.6991 -11.8021 22.8953 -15.4086
# 2 65.8928 226.8561 43.1275 25.2510 23.9417 -13.9145
# 3 25.6991 43.1275 95.4770 -2.2151 13.7847 -9.5433
# 4 -11.8021 25.2510 -2.2151 46.0813 0.7166 5.9950
# 5 22.8953 23.9417 13.7847 0.7166 47.4501 -2.7807
# 6 -15.4086 -13.9145 -9.5433 5.9950 -2.7807 34.3446
#
#
#
# Elastic Compliance Matrix: (Units=1/GPa)
#
#
# Indices 1 2 3 4 5 6 
#
# 1 0.020196 -0.005490 -0.001394 0.007615 -0.006416 0.004601
# 2 -0.005490 0.007008 -0.001692 -0.005432 -0.000265 0.000833
# 3 -0.001394 -0.001692 0.012082 0.000956 -0.001897 0.001726
# 4 0.007615 -0.005432 0.000956 0.027145 -0.001821 -0.003404
# 5 -0.006416 -0.000265 -0.001897 -0.001821 0.024813 -0.001186
# 6 0.004601 0.000833 0.001726 -0.003404 -0.001186 0.032496
#
#
# Mechanical properties :
#
#
# Convention : Reuss Voigt Hill
#
# Bulk Modulus (GPa) = 45.17790 75.13364 60.15577
# Shear Modulus (GPa) = 33.72238 43.71151 38.71695
#
# Velocity S-wave (km/s) = 3.68998 4.20110 3.95381
# Velocity P-wave (km/s) = 6.03291 7.33954 6.71807
#
# Compressibility (1/GPa) = 0.02213471
#
# Stress axis : x y z
#
# Youngs Moduli (GPa) = 49.51389 142.69506 82.76852
#
# Poissons Ratio (x) = 0.78334 0.11535
# Poissons Ratio (y) = 0.27181 0.14008
# Poissons Ratio (z) = 0.06900 0.24151
#
# Static dielectric constant tensor:
#      x y z
#    x 2.088120 -0.031410 -0.083610 
#    y -0.031410 1.978770 -0.043890 
#    z -0.083610 -0.043890 2.081190 
# 
# From -- ./inp_files/22832.got.cif
#   From: 2010.05.17/outbox.cif.g08.bks.cpg/sg2_12_cif.got.tgz:22832.got - 2010.06.03 11:33:40.
