data_PCOD9036122
_publ_section_title
;
Structure prediction by ZEFSAII (Michael W. Deem and Ramdas Pophale) SiO2 
 PCOD9036122
Probable space group: P -1
;
_chemical_formula_sum "Si O2"
_cell_formula_units_Z 15
_cell_length_a 8.751386
_cell_length_b 17.214784
_cell_length_c 6.481098
_cell_angle_alpha 64.275744
_cell_angle_beta 55.830312
_cell_angle_gamma 72.174064
_cell_volume 725.236342
_symmetry_space_group_name_H-M "P -1"
_symmetry_group_IT_number 2
_symmetry_cell_setting 'triclinic'
loop_
_space_group_symop_operation_xyz
x,y,z
-x,-y,-z
loop_
_atom_site_type_symbol
_atom_site_label
_atom_site_fract_x
_atom_site_fract_y
_atom_site_fract_z
Si Si1 0.041219 0.902270 0.287070
Si Si2 0.769168 0.192930 0.358607
Si Si3 0.500000 0.500000 0.000000
Si Si4 0.705507 0.030818 0.321458
Si Si5 0.970814 0.740417 0.240775
Si Si6 0.956651 0.437020 0.410908
Si Si7 0.708565 0.556483 0.165642
Si Si8 0.581930 0.673935 0.494766
O O1 0.138443 0.858642 0.461140
O O2 0.984879 0.824948 0.271046
O O3 0.191485 0.955500 0.990915
O O4 0.854559 0.963530 0.401108
O O5 0.698912 0.122413 0.335888
O O6 0.598224 0.260295 0.464828
O O7 0.926206 0.242961 0.069100
O O8 0.562315 0.521759 0.162549
O O9 0.455047 0.401831 0.228325
O O10 0.500000 0.000000 0.500000
O O11 0.760879 0.719215 0.387326
O O12 0.076064 0.655226 0.363060
O O13 0.794590 0.483955 0.344131
O O14 0.000000 0.500000 0.500000
O O15 0.125057 0.424036 0.137513
O O16 0.635209 0.634760 0.275261
#
# Coordination Sequence:
#
# PCOD9036122 Si02
#       8
#     2   2   1   2   2   2   2   2
#     4  10  24  44  70 107 138 175 230 282 345 424
#     4  11  27  42  71 107 138 180 228 284 349 423
#     4  12  26  44  60  98 140 182 246 292 334 416
#     4  10  22  47  75 101 138 180 218 281 349 421
#     4  11  25  44  66  99 141 180 230 294 346 417
#     4  11  23  44  69  96 131 191 242 289 354 408
#     4  11  25  42  68  94 134 189 241 299 349 407
#     4  12  27  44  66 103 140 188 239 291 351 411
#
# _framework density 20.682915000000001
#
# number of rings (size 3 to 8) (size 9 to 14) (size 15 to 20)
#    0.000    1.067    2.667    1.600    7.467    3.733 
#    0.000    0.000    0.000    0.000    0.000    0.000 
#    0.000    0.000    0.000    0.000    0.000    0.000 
#
# Total GULP energy -83635.603398 kJ/mol
# GULP energy per Si atom -5575.706893 kJ/mol
# Density = 2.063584 g / cm^3
# Si number density = 20.682915 Si / 1000 Ang^3
#
#
#
# Elastic Constant Matrix: (Units=GPa)
#
#
# Indices 1 2 3 4 5 6 
#
# 1 90.0285 26.0536 70.5532 -6.5078 -2.6328 -13.2130
# 2 26.0536 82.5684 37.9265 -3.9009 -17.6240 -28.0362
# 3 70.5532 37.9265 119.6992 -17.2011 -5.8859 -26.9260
# 4 -6.5078 -3.9009 -17.2011 33.0446 -1.4053 -4.6005
# 5 -2.6328 -17.6240 -5.8859 -1.4053 42.1645 -4.8816
# 6 -13.2130 -28.0362 -26.9260 -4.6005 -4.8816 32.8539
#
#
#
# Elastic Compliance Matrix: (Units=1/GPa)
#
#
# Indices 1 2 3 4 5 6 
#
# 1 0.021698 -0.003651 -0.014003 -0.004547 -0.003083 -0.006961
# 2 -0.003651 0.023066 0.001298 0.006267 0.012350 0.021992
# 3 -0.014003 0.001298 0.021433 0.010883 0.004792 0.015278
# 4 -0.004547 0.006267 0.010883 0.038722 0.007339 0.018951
# 5 -0.003083 0.012350 0.004792 0.007339 0.031797 0.018978
# 6 -0.006961 0.021992 0.015278 0.018951 0.018978 0.064400
#
#
# Mechanical properties :
#
#
# Convention : Reuss Voigt Hill
#
# Bulk Modulus (GPa) = 29.86382 62.37363 46.11873
# Shear Modulus (GPa) = 20.40910 32.13012 26.26961
#
# Velocity S-wave (km/s) = 3.14468 3.94567 3.56773
# Velocity P-wave (km/s) = 5.25886 7.14005 6.27040
#
# Compressibility (1/GPa) = 0.03348533
#
# Stress axis : x y z
#
# Youngs Moduli (GPa) = 46.08813 43.35325 46.65725
#
# Poissons Ratio (x) = 0.15827 0.65335
# Poissons Ratio (y) = 0.16826 -0.06057
# Poissons Ratio (z) = 0.64538 -0.05628
#
# Static dielectric constant tensor:
#      x y z
#    x 1.735240 -0.016820 -0.029110 
#    y -0.016820 1.745400 0.022630 
#    z -0.029110 0.022630 1.752120 
# 
# From -- ./inp_files/46522.got.cif
#   From: 2010.05.17/outbox.cif.g08.bks.cpg/sg2_24_cif.got.tgz:46522.got - 2010.06.03 11:33:40.
