data_PCOD9036488
_publ_section_title
;
Structure prediction by ZEFSAII (Michael W. Deem and Ramdas Pophale) SiO2 
 PCOD9036488
Probable space group: P -1
;
_chemical_formula_sum "Si O2"
_cell_formula_units_Z 16
_cell_length_a 9.368918
_cell_length_b 8.011809
_cell_length_c 18.379327
_cell_angle_alpha 68.363418
_cell_angle_beta 94.201566
_cell_angle_gamma 142.856383
_cell_volume 711.978955
_symmetry_space_group_name_H-M "P -1"
_symmetry_group_IT_number 2
_symmetry_cell_setting 'triclinic'
loop_
_space_group_symop_operation_xyz
x,y,z
-x,-y,-z
loop_
_atom_site_type_symbol
_atom_site_label
_atom_site_fract_x
_atom_site_fract_y
_atom_site_fract_z
Si Si1 0.099835 0.642840 0.099918
Si Si2 0.604170 0.573419 0.184950
Si Si3 0.773431 0.682259 0.489403
Si Si4 0.903185 0.574729 0.255602
Si Si5 0.138066 0.940768 0.348439
Si Si6 0.413692 0.911795 0.426632
Si Si7 0.222186 0.378362 0.961083
Si Si8 0.419124 0.667512 0.065541
O O1 0.025744 0.607652 0.185429
O O2 0.165776 0.504930 0.110851
O O3 0.893120 0.539657 0.061382
O O4 0.373944 0.009194 0.027058
O O5 0.587374 0.442870 0.129130
O O6 0.579679 0.746864 0.124202
O O7 0.838898 0.714838 0.208831
O O8 0.372937 0.309697 0.274825
O O9 0.500000 0.500000 0.500000
O O10 0.903622 0.805792 0.394590
O O11 0.643360 0.207224 0.332727
O O12 0.000000 0.000000 0.500000
O O13 0.075171 0.764255 0.302387
O O14 0.698973 0.398209 0.550679
O O15 0.219533 0.876124 0.419686
O O16 0.500000 0.000000 0.500000
O O17 0.316189 0.432584 0.036026
O O18 0.000000 0.000000 0.000000
#
# Coordination Sequence:
#
# PCOD9036488 Si02
#       8
#     2   2   2   2   2   2   2   2
#     4  10  23  40  61  96 130 175 223 286 339 412
#     4  10  23  37  63  99 128 178 228 290 336 416
#     4  12  28  46  74 112 147 181 233 300 370 433
#     4  10  23  41  69  98 129 173 243 276 344 422
#     4  11  24  44  72  97 138 182 235 288 346 440
#     4  11  23  47  76 103 135 189 240 284 356 438
#     4  11  21  37  63  90 123 177 232 274 332 410
#     4  11  22  39  61  91 135 174 224 281 354 394
#
# _framework density 22.472576
#
# number of rings (size 3 to 8) (size 9 to 14) (size 15 to 20)
#    0.000    1.250    2.500    2.625    7.000    1.000 
#    0.000    1.250    0.000    0.000    0.000    0.000 
#    0.000    0.000    0.000    0.000    0.000    0.000 
#
# Total GULP energy -89231.866690 kJ/mol
# GULP energy per Si atom -5576.991668 kJ/mol
# Density = 2.242143 g / cm^3
# Si number density = 22.472576 Si / 1000 Ang^3
#
#
#
# Elastic Constant Matrix: (Units=GPa)
#
#
# Indices 1 2 3 4 5 6 
#
# 1 117.6059 10.6654 55.4262 -0.6939 -17.8143 22.8244
# 2 10.6654 60.7316 22.8389 2.7106 9.5597 0.4742
# 3 55.4262 22.8389 126.6006 -7.4531 -3.8441 15.9892
# 4 -0.6939 2.7106 -7.4531 35.2587 16.0473 2.6614
# 5 -17.8143 9.5597 -3.8441 16.0473 36.7397 -6.9434
# 6 22.8244 0.4742 15.9892 2.6614 -6.9434 31.3577
#
#
#
# Elastic Compliance Matrix: (Units=1/GPa)
#
#
# Indices 1 2 3 4 5 6 
#
# 1 0.012812 -0.001316 -0.004706 -0.003196 0.006475 -0.005201
# 2 -0.001316 0.018748 -0.003068 0.000495 -0.005885 0.000894
# 3 -0.004706 -0.003068 0.011051 0.003900 -0.002611 -0.003072
# 4 -0.003196 0.000495 0.003900 0.038483 -0.019448 -0.007242
# 5 0.006475 -0.005885 -0.002611 -0.019448 0.041539 0.007556
# 6 -0.005201 0.000894 -0.003072 -0.007242 0.007556 0.039516
#
#
# Mechanical properties :
#
#
# Convention : Reuss Voigt Hill
#
# Bulk Modulus (GPa) = 40.93445 53.64435 47.28940
# Shear Modulus (GPa) = 26.52896 35.07173 30.80034
#
# Velocity S-wave (km/s) = 3.43957 3.95479 3.70614
# Velocity P-wave (km/s) = 5.83344 6.69153 6.27717
#
# Compressibility (1/GPa) = 0.02442930
#
# Stress axis : x y z
#
# Youngs Moduli (GPa) = 78.05427 53.33849 90.48857
#
# Poissons Ratio (x) = 0.07020 0.42586
# Poissons Ratio (y) = 0.10272 0.27766
# Poissons Ratio (z) = 0.36734 0.16367
#
# Static dielectric constant tensor:
#      x y z
#    x 1.931980 -0.013480 0.011790 
#    y -0.013480 1.936670 -0.018880 
#    z 0.011790 -0.018880 1.804570 
# 
# From -- ./inp_files/51266.got.cif
#   From: 2010.05.17/outbox.cif.g08.bks.cpg/sg2_26_cif.got.tgz:51266.got - 2010.06.03 11:33:40.
