data_PCOD9036780
_publ_section_title
;
Structure prediction by ZEFSAII (Michael W. Deem and Ramdas Pophale) SiO2 
 PCOD9036780
Probable space group: P -1
;
_chemical_formula_sum "Si O2"
_cell_formula_units_Z 16
_cell_length_a 9.225825
_cell_length_b 16.069359
_cell_length_c 11.869362
_cell_angle_alpha 133.947870
_cell_angle_beta 130.704502
_cell_angle_gamma 29.929417
_cell_volume 625.774766
_symmetry_space_group_name_H-M "P -1"
_symmetry_group_IT_number 2
_symmetry_cell_setting 'triclinic'
loop_
_space_group_symop_operation_xyz
x,y,z
-x,-y,-z
loop_
_atom_site_type_symbol
_atom_site_label
_atom_site_fract_x
_atom_site_fract_y
_atom_site_fract_z
Si Si1 0.334893 0.720733 0.201952
Si Si2 0.667529 0.748736 0.063325
Si Si3 0.819204 0.821130 0.432166
Si Si4 0.674658 0.802195 0.872083
Si Si5 0.817434 0.670008 0.487657
Si Si6 0.516169 0.579062 0.907548
Si Si7 0.121297 0.155239 0.170791
Si Si8 0.862086 0.087325 0.385868
O O1 0.547024 0.720634 0.356747
O O2 0.343730 0.610483 0.189526
O O3 0.019842 0.922398 0.229721
O O4 0.447195 0.644359 0.062780
O O5 0.779886 0.771935 0.247548
O O6 0.325232 0.950741 0.070018
O O7 0.788322 0.710159 0.963095
O O8 0.680569 0.607973 0.961714
O O9 0.960030 0.664507 0.444847
O O10 0.500000 0.000000 0.500000
O O11 0.023420 0.839536 0.528551
O O12 0.929361 0.740053 0.866061
O O13 0.476262 0.797493 0.700998
O O14 0.500000 0.000000 0.000000
O O15 0.709482 0.828978 0.653912
O O16 0.000000 0.500000 0.500000
O O17 0.194729 0.720913 0.821196
O O18 0.000000 0.000000 0.500000
#
# Coordination Sequence:
#
# PCOD9036780 Si02
#       8
#     2   2   2   2   2   2   2   2
#     4  11  22  40  62  95 130 168 211 266 334 384
#     4  11  21  39  63  97 132 163 223 269 322 392
#     4  12  23  40  68  97 126 172 224 277 323 382
#     4  10  23  39  61  96 131 170 212 264 329 387
#     4  12  23  40  63  95 131 165 217 275 327 383
#     4  11  23  37  65  95 132 166 210 268 330 387
#     4  11  22  39  65  94 129 173 213 267 324 386
#     4  12  24  43  69  96 134 173 225 273 323 397
#
# _framework density 25.568304000000001
#
# number of rings (size 3 to 8) (size 9 to 14) (size 15 to 20)
#    0.000    0.750    5.000    4.125    1.750    0.000 
#    0.000    1.250    0.000   10.500    0.000    0.000 
#    0.000    0.000    0.000    0.000    0.000    0.000 
#
# Total GULP energy -89471.998649 kJ/mol
# GULP energy per Si atom -5591.999916 kJ/mol
# Density = 2.551011 g / cm^3
# Si number density = 25.568304 Si / 1000 Ang^3
#
#
#
# Elastic Constant Matrix: (Units=GPa)
#
#
# Indices 1 2 3 4 5 6 
#
# 1 151.9678 40.3462 52.3034 -11.9169 27.7239 45.4750
# 2 40.3462 90.7846 14.4072 -5.0444 13.1069 33.5980
# 3 52.3034 14.4072 119.9581 -14.8013 24.6482 16.1391
# 4 -11.9169 -5.0444 -14.8013 36.5751 5.9704 2.0663
# 5 27.7239 13.1069 24.6482 5.9704 53.5330 -1.7959
# 6 45.4750 33.5980 16.1391 2.0663 -1.7959 52.7125
#
#
#
# Elastic Compliance Matrix: (Units=1/GPa)
#
#
# Indices 1 2 3 4 5 6 
#
# 1 0.011638 -0.000166 -0.001985 0.004477 -0.005897 -0.009703
# 2 -0.000166 0.015794 0.001150 0.004024 -0.005115 -0.010608
# 3 -0.001985 0.001150 0.011078 0.004968 -0.005002 -0.002778
# 4 0.004477 0.004024 0.004968 0.033482 -0.009647 -0.009589
# 5 -0.005897 -0.005115 -0.005002 -0.009647 0.026740 0.011169
# 6 -0.009703 -0.010608 -0.002778 -0.009589 0.011169 0.035710
#
#
# Mechanical properties :
#
#
# Convention : Reuss Voigt Hill
#
# Bulk Modulus (GPa) = 27.39060 64.09156 45.74108
# Shear Modulus (GPa) = 33.64450 45.60769 39.62610
#
# Velocity S-wave (km/s) = 3.63142 4.22804 3.94104
# Velocity P-wave (km/s) = 5.32156 6.99688 6.21592
#
# Compressibility (1/GPa) = 0.03650887
#
# Stress axis : x y z
#
# Youngs Moduli (GPa) = 85.92538 63.31414 90.26931
#
# Poissons Ratio (x) = 0.01051 0.17917
# Poissons Ratio (y) = 0.01427 -0.10383
# Poissons Ratio (z) = 0.17055 -0.07283
#
# Static dielectric constant tensor:
#      x y z
#    x 2.045020 -0.012490 -0.062820 
#    y -0.012490 2.087210 -0.029510 
#    z -0.062820 -0.029510 2.038990 
# 
# From -- ./inp_files/271605.got.cif
#   From: 2010.05.17/outbox.cif.g08.bks.cpg/sg2_136_cif.got.tgz:271605.got - 2010.06.03 11:33:40.
