data_PCOD9036031
_publ_section_title
;
Structure prediction by ZEFSAII (Michael W. Deem and Ramdas Pophale) SiO2 
 PCOD9036031
Probable space group: P -1
;
_chemical_formula_sum "Si O2"
_cell_formula_units_Z 16
_cell_length_a 11.614188
_cell_length_b 7.284856
_cell_length_c 9.539632
_cell_angle_alpha 107.523239
_cell_angle_beta 70.021684
_cell_angle_gamma 121.438140
_cell_volume 639.556476
_symmetry_space_group_name_H-M "P -1"
_symmetry_group_IT_number 2
_symmetry_cell_setting 'triclinic'
loop_
_space_group_symop_operation_xyz
x,y,z
-x,-y,-z
loop_
_atom_site_type_symbol
_atom_site_label
_atom_site_fract_x
_atom_site_fract_y
_atom_site_fract_z
Si Si1 0.519455 0.609870 0.669176
Si Si2 0.552376 0.060763 0.649132
Si Si3 0.108411 0.081743 0.663437
Si Si4 0.807072 0.886433 0.689582
Si Si5 0.644722 0.562342 0.029595
Si Si6 0.729415 0.991277 0.174049
Si Si7 0.798673 0.319729 0.773070
Si Si8 0.077625 0.512884 0.824641
O O1 0.500000 0.500000 0.500000
O O2 0.664627 0.663699 0.697897
O O3 0.397400 0.486396 0.800470
O O4 0.536096 0.846052 0.683168
O O5 0.436031 0.110239 0.775539
O O6 0.709170 0.244076 0.650065
O O7 0.500000 0.000000 0.500000
O O8 0.154890 0.079379 0.484518
O O9 0.203464 0.028128 0.713103
O O10 0.115451 0.316396 0.746358
O O11 0.946242 0.908537 0.705748
O O12 0.786600 0.094342 0.790876
O O13 0.747888 0.820303 0.026385
O O14 0.500000 0.500000 0.000000
O O15 0.719964 0.423650 0.918860
O O16 0.203667 0.754324 0.825227
O O17 0.962782 0.474247 0.743272
O O18 0.000000 0.500000 0.000000
#
# Coordination Sequence:
#
# PCOD9036031 Si02
#       8
#     2   2   2   2   2   2   2   2
#     4  11  25  42  74 105 146 200 241 311 375 438
#     4  11  24  45  72 108 149 189 253 307 370 451
#     4  10  22  47  70 102 145 189 243 302 373 437
#     4   9  21  43  72 101 141 189 248 300 364 443
#     4  12  26  45  70 109 150 192 249 307 378 444
#     4  12  26  44  71 106 144 192 242 304 364 446
#     4  10  23  46  71 103 146 190 246 305 370 437
#     4  11  27  46  74 104 145 194 248 309 375 442
#
# _framework density 25.017337999999999
#
# number of rings (size 3 to 8) (size 9 to 14) (size 15 to 20)
#    0.000    1.250    1.250    3.750    5.250    8.000 
#    0.000    6.250    0.000    0.000    0.000    0.000 
#    0.000    0.000    0.000    0.000    0.000    0.000 
#
# Total GULP energy -89556.373995 kJ/mol
# GULP energy per Si atom -5597.273375 kJ/mol
# Density = 2.496040 g / cm^3
# Si number density = 25.017338 Si / 1000 Ang^3
#
#
#
# Elastic Constant Matrix: (Units=GPa)
#
#
# Indices 1 2 3 4 5 6 
#
# 1 138.0149 25.3504 8.5136 10.2970 5.7151 15.7658
# 2 25.3504 90.9578 27.8501 21.2813 -1.0002 -3.5750
# 3 8.5136 27.8501 83.5955 22.1489 -11.7564 -4.6888
# 4 10.2970 21.2813 22.1489 36.7072 -2.4424 0.3558
# 5 5.7151 -1.0002 -11.7564 -2.4424 41.5732 12.6423
# 6 15.7658 -3.5750 -4.6888 0.3558 12.6423 54.6587
#
#
#
# Elastic Compliance Matrix: (Units=1/GPa)
#
#
# Indices 1 2 3 4 5 6 
#
# 1 0.007991 -0.002068 -0.000058 -0.001020 -0.000520 -0.002318
# 2 -0.002068 0.013869 -0.002938 -0.005770 -0.001015 0.001524
# 3 -0.000058 -0.002938 0.015444 -0.007351 0.003774 0.000324
# 4 -0.001020 -0.005770 -0.007351 0.035340 0.000307 -0.001015
# 5 -0.000520 -0.001015 0.003774 0.000307 0.026959 -0.005830
# 6 -0.002318 0.001524 0.000324 -0.001015 -0.005830 0.020447
#
#
# Mechanical properties :
#
#
# Convention : Reuss Voigt Hill
#
# Bulk Modulus (GPa) = 36.79708 48.44405 42.62057
# Shear Modulus (GPa) = 35.91019 43.31142 39.61081
#
# Velocity S-wave (km/s) = 3.79279 4.16535 3.98343
# Velocity P-wave (km/s) = 5.82417 6.52225 6.18307
#
# Compressibility (1/GPa) = 0.02717607
#
# Stress axis : x y z
#
# Youngs Moduli (GPa) = 125.13419 72.10446 64.75089
#
# Poissons Ratio (x) = 0.14909 0.00374
# Poissons Ratio (y) = 0.25874 0.19027
# Poissons Ratio (z) = 0.00724 0.21188
#
# Static dielectric constant tensor:
#      x y z
#    x 2.048220 0.056720 0.020810 
#    y 0.056720 2.029790 -0.002380 
#    z 0.020810 -0.002380 2.022710 
# 
# From -- ./inp_files/240291.got.cif
#   From: 2010.05.17/outbox.cif.g08.bks.cpg/sg2_121_cif.got.tgz:240291.got - 2010.06.03 11:33:40.
