data_PCOD9036713
_publ_section_title
;
Structure prediction by ZEFSAII (Michael W. Deem and Ramdas Pophale) SiO2 
 PCOD9036713
Probable space group: P -1
;
_chemical_formula_sum "Si O2"
_cell_formula_units_Z 14
_cell_length_a 8.249011
_cell_length_b 11.404121
_cell_length_c 14.575794
_cell_angle_alpha 76.970956
_cell_angle_beta 118.076326
_cell_angle_gamma 52.252062
_cell_volume 647.480580
_symmetry_space_group_name_H-M "P -1"
_symmetry_group_IT_number 2
_symmetry_cell_setting 'triclinic'
loop_
_space_group_symop_operation_xyz
x,y,z
-x,-y,-z
loop_
_atom_site_type_symbol
_atom_site_label
_atom_site_fract_x
_atom_site_fract_y
_atom_site_fract_z
Si Si1 0.546026 0.605615 0.243820
Si Si2 0.379244 0.240891 0.630307
Si Si3 0.560771 0.394204 0.442610
Si Si4 0.611601 0.473329 0.933541
Si Si5 0.170088 0.909926 0.661034
Si Si6 0.786094 0.657504 0.631751
Si Si7 0.319173 0.177320 0.228776
O O1 0.418370 0.783270 0.243542
O O2 0.613704 0.459303 0.361002
O O3 0.318533 0.672684 0.092806
O O4 0.860517 0.488104 0.289391
O O5 0.441702 0.213971 0.543011
O O6 0.000000 0.500000 0.500000
O O7 0.452671 0.061107 0.698293
O O8 0.500000 0.500000 0.500000
O O9 0.272064 0.451221 0.335071
O O10 0.896383 0.136804 0.599526
O O11 0.287204 0.718733 0.762707
O O12 0.500000 0.500000 0.000000
O O13 0.951773 0.359562 0.059435
O O14 0.507992 0.799637 0.767525
O O15 0.000000 0.000000 0.500000
O O16 0.691716 0.792465 0.669148
#
# Coordination Sequence:
#
# PCOD9036713 Si02
#       7
#     2   2   2   2   2   2   2
#     4  11  23  46  68 104 150 185 244 295 361 431
#     4  10  23  38  70 103 139 184 238 300 348 420
#     4  12  25  42  72 109 138 182 244 305 356 416
#     4  12  27  45  71 105 151 192 235 296 373 441
#     4  12  25  45  74 104 139 189 252 303 345 432
#     4  11  22  40  72 103 142 184 243 299 359 419
#     4  12  25  44  71 103 145 192 237 296 373 426
#
# _framework density 21.622271000000001
#
# number of rings (size 3 to 8) (size 9 to 14) (size 15 to 20)
#    0.000    0.571    5.714    2.571    4.000    0.571 
#    0.000    0.000    0.000    2.571    0.000    0.000 
#    0.000    0.000    0.000    0.000    0.000    0.000 
#
# Total GULP energy -78035.825245 kJ/mol
# GULP energy per Si atom -5573.987517 kJ/mol
# Density = 2.157306 g / cm^3
# Si number density = 21.622271 Si / 1000 Ang^3
#
#
#
# Elastic Constant Matrix: (Units=GPa)
#
#
# Indices 1 2 3 4 5 6 
#
# 1 116.3701 18.6176 34.7217 3.7210 15.8797 9.3641
# 2 18.6176 168.5185 60.9112 27.6476 -4.8212 16.7286
# 3 34.7217 60.9112 90.0033 13.8176 6.1050 2.5703
# 4 3.7210 27.6476 13.8176 43.1636 7.3952 5.4132
# 5 15.8797 -4.8212 6.1050 7.3952 37.5654 -1.5015
# 6 9.3641 16.7286 2.5703 5.4132 -1.5015 29.4725
#
#
#
# Elastic Compliance Matrix: (Units=1/GPa)
#
#
# Indices 1 2 3 4 5 6 
#
# 1 0.010595 0.000348 -0.004145 0.001366 -0.004176 -0.003666
# 2 0.000348 0.009079 -0.005734 -0.003961 0.002574 -0.003905
# 3 -0.004145 -0.005734 0.016820 -0.001552 -0.001279 0.003324
# 4 0.001366 -0.003961 -0.001552 0.027614 -0.006408 -0.003449
# 5 -0.004176 0.002574 -0.001279 -0.006408 0.030293 0.002698
# 6 -0.003666 -0.003905 0.003324 -0.003449 0.002698 0.037792
#
#
# Mechanical properties :
#
#
# Convention : Reuss Voigt Hill
#
# Bulk Modulus (GPa) = 57.35935 67.04364 62.20150
# Shear Modulus (GPa) = 31.83356 39.41638 35.62497
#
# Velocity S-wave (km/s) = 3.84116 4.27424 4.06347
# Velocity P-wave (km/s) = 6.80134 7.44533 7.13061
#
# Compressibility (1/GPa) = 0.01743395
#
# Stress axis : x y z
#
# Youngs Moduli (GPa) = 94.37985 110.14109 59.45246
#
# Poissons Ratio (x) = -0.03832 0.24641
# Poissons Ratio (y) = -0.03284 0.34088
# Poissons Ratio (z) = 0.39118 0.63151
#
# Static dielectric constant tensor:
#      x y z
#    x 1.696360 -0.317690 0.085140 
#    y -0.317690 1.283890 0.137790 
#    z 0.085140 0.137790 1.763190 
# 
# From -- ./inp_files/499118.got.cif
#   From: 2010.05.17/outbox.cif.g08.bks.cpg/sg2_250_cif.got.tgz:499118.got - 2010.06.03 11:33:40.
