data_PCOD9036342
_publ_section_title
;
Structure prediction by ZEFSAII (Michael W. Deem and Ramdas Pophale) SiO2 
 PCOD9036342
Probable space group: P -1
;
_chemical_formula_sum "Si O2"
_cell_formula_units_Z 15
_cell_length_a 6.459829
_cell_length_b 11.364166
_cell_length_c 11.958965
_cell_angle_alpha 67.236188
_cell_angle_beta 126.674579
_cell_angle_gamma 120.946454
_cell_volume 599.812966
_symmetry_space_group_name_H-M "P -1"
_symmetry_group_IT_number 2
_symmetry_cell_setting 'triclinic'
loop_
_space_group_symop_operation_xyz
x,y,z
-x,-y,-z
loop_
_atom_site_type_symbol
_atom_site_label
_atom_site_fract_x
_atom_site_fract_y
_atom_site_fract_z
Si Si1 0.000000 0.500000 0.000000
Si Si2 0.860476 0.138614 0.821709
Si Si3 0.946622 0.391114 0.270057
Si Si4 0.964557 0.797680 0.904577
Si Si5 0.257847 0.921673 0.752695
Si Si6 0.563253 0.348752 0.604410
Si Si7 0.970106 0.851218 0.373690
Si Si8 0.425843 0.736715 0.613752
O O1 0.885816 0.445010 0.112493
O O2 0.057723 0.358714 0.050574
O O3 0.759039 0.266885 0.737843
O O4 0.032283 0.142894 0.763779
O O5 0.570089 0.006477 0.781951
O O6 0.027433 0.153372 0.984697
O O7 0.883817 0.229033 0.292092
O O8 0.759232 0.388451 0.318666
O O9 0.257839 0.493296 0.364860
O O10 0.240159 0.889545 0.891147
O O11 0.711312 0.805411 0.747345
O O12 0.086910 0.020028 0.642884
O O13 0.282156 0.282177 0.610464
O O14 0.532293 0.314891 0.475519
O O15 0.259286 0.836915 0.502643
#
# Coordination Sequence:
#
# PCOD9036342 Si02
#       8
#     1   2   2   2   2   2   2   2
#     4  10  24  46  72 112 156 188 254 304 386 440
#     4  10  22  50  78 112 148 200 260 307 380 451
#     4  11  24  48  77 114 152 203 249 321 376 454
#     4  11  24  48  77 115 151 204 245 322 379 452
#     4  10  25  46  75 117 152 200 250 314 385 447
#     4  10  23  51  76 111 152 202 256 313 379 447
#     4  10  25  49  76 111 156 199 252 320 368 458
#     4  11  27  46  76 119 152 195 260 309 384 455
#
# _framework density 25.007795999999999
#
# number of rings (size 3 to 8) (size 9 to 14) (size 15 to 20)
#    0.000    1.600    1.333    0.800    5.600    3.733 
#   14.400    0.000    0.000    0.000   10.400    0.000 
#    0.000    0.000    0.000    0.000    0.000    0.000 
#
# Total GULP energy -83787.895607 kJ/mol
# GULP energy per Si atom -5585.859707 kJ/mol
# Density = 2.495088 g / cm^3
# Si number density = 25.007796 Si / 1000 Ang^3
#
#
#
# Elastic Constant Matrix: (Units=GPa)
#
#
# Indices 1 2 3 4 5 6 
#
# 1 135.5201 71.0010 67.2445 -1.9711 -22.2870 10.5505
# 2 71.0010 165.0746 54.1133 -1.6629 3.9762 6.5155
# 3 67.2445 54.1133 149.5749 12.0912 -42.0192 11.4649
# 4 -1.9711 -1.6629 12.0912 33.1194 12.0155 -2.9516
# 5 -22.2870 3.9762 -42.0192 12.0155 40.7156 -15.7630
# 6 10.5505 6.5155 11.4649 -2.9516 -15.7630 48.9953
#
#
#
# Elastic Compliance Matrix: (Units=1/GPa)
#
#
# Indices 1 2 3 4 5 6 
#
# 1 0.011514 -0.004271 -0.002405 -0.000212 0.004310 0.000025
# 2 -0.004271 0.010060 -0.005264 0.006135 -0.011543 -0.002531
# 3 -0.002405 -0.005264 0.016735 -0.014193 0.022025 0.003533
# 4 -0.000212 0.006135 -0.014193 0.046452 -0.030842 -0.004573
# 5 0.004310 -0.011543 0.022025 -0.030842 0.065565 0.014689
# 6 0.000025 -0.002531 0.003533 -0.004573 0.014689 0.024365
#
#
# Mechanical properties :
#
#
# Convention : Reuss Voigt Hill
#
# Bulk Modulus (GPa) = 69.30730 92.76524 81.03627
# Shear Modulus (GPa) = 24.58429 41.75346 33.16888
#
# Velocity S-wave (km/s) = 3.13879 4.09053 3.64585
# Velocity P-wave (km/s) = 6.39613 7.71265 7.08503
#
# Compressibility (1/GPa) = 0.01442849
#
# Stress axis : x y z
#
# Youngs Moduli (GPa) = 86.85392 99.40154 59.75378
#
# Poissons Ratio (x) = 0.42451 0.14372
# Poissons Ratio (y) = 0.37092 0.31457
# Poissons Ratio (z) = 0.20891 0.52329
#
# Static dielectric constant tensor:
#      x y z
#    x 2.004380 -0.012320 0.023790 
#    y -0.012320 1.966470 -0.021600 
#    z 0.023790 -0.021600 2.005090 
# 
# From -- ./inp_files/110424.got.cif
#   From: 2010.05.17/outbox.cif.g08.bks.cpg/sg2_56_cif.got.tgz:110424.got - 2010.06.03 11:33:40.
