data_PCOD9036424
_publ_section_title
;
Structure prediction by ZEFSAII (Michael W. Deem and Ramdas Pophale) SiO2 
 PCOD9036424
Probable space group: P -1
;
_chemical_formula_sum "Si O2"
_cell_formula_units_Z 16
_cell_length_a 9.053021
_cell_length_b 16.552728
_cell_length_c 19.997872
_cell_angle_alpha 17.152116
_cell_angle_beta 54.149945
_cell_angle_gamma 55.833597
_cell_volume 716.311670
_symmetry_space_group_name_H-M "P -1"
_symmetry_group_IT_number 2
_symmetry_cell_setting 'triclinic'
loop_
_space_group_symop_operation_xyz
x,y,z
-x,-y,-z
loop_
_atom_site_type_symbol
_atom_site_label
_atom_site_fract_x
_atom_site_fract_y
_atom_site_fract_z
Si Si1 0.636450 0.748571 0.156197
Si Si2 0.852983 0.844901 0.901629
Si Si3 0.457785 0.857027 0.330292
Si Si4 0.240753 0.619538 0.974647
Si Si5 0.478022 0.328607 0.248775
Si Si6 0.615305 0.779744 0.496463
Si Si7 0.192789 0.133261 0.856327
Si Si8 0.005559 0.636502 0.464011
O O1 0.562722 0.464083 0.427808
O O2 0.789650 0.870175 0.066782
O O3 0.500000 0.000000 0.000000
O O4 0.708612 0.694460 0.106062
O O5 0.729417 0.988455 0.763613
O O6 0.939993 0.072349 0.748626
O O7 0.026147 0.653132 0.990030
O O8 0.505118 0.850507 0.401898
O O9 0.632899 0.961759 0.158037
O O10 0.355244 0.538657 0.941814
O O11 0.315465 0.922199 0.733188
O O12 0.301557 0.430568 0.171448
O O13 0.470248 0.373690 0.295041
O O14 0.500000 0.000000 0.500000
O O15 0.795687 0.607730 0.565064
O O16 0.163190 0.450802 0.599313
O O17 0.000000 0.000000 0.000000
O O18 0.000000 0.500000 0.500000
#
# Coordination Sequence:
#
# PCOD9036424 Si02
#       8
#     2   2   2   2   2   2   2   2
#     4  12  25  40  62  86 128 187 224 264 327 378
#     4  11  24  41  62  92 132 175 218 265 332 385
#     4  12  25  44  58  93 140 173 219 275 324 388
#     4   9  21  41  69  97 126 162 216 272 323 393
#     4   9  19  41  69  99 126 159 211 271 333 388
#     4  10  23  36  65  93 130 171 216 266 327 383
#     4  12  25  38  60  87 126 178 230 270 310 369
#     4  11  21  38  57  91 132 170 223 273 308 375
#
# _framework density 22.336645999999998
#
# number of rings (size 3 to 8) (size 9 to 14) (size 15 to 20)
#    0.000    1.250    3.750    1.875    5.250    2.000 
#    0.000    0.625    0.000    7.500    0.000    0.000 
#    0.000    0.000    0.000    0.000    0.000    0.000 
#
# Total GULP energy -89102.477772 kJ/mol
# GULP energy per Si atom -5568.904861 kJ/mol
# Density = 2.228581 g / cm^3
# Si number density = 22.336646 Si / 1000 Ang^3
#
#
#
# Elastic Constant Matrix: (Units=GPa)
#
#
# Indices 1 2 3 4 5 6 
#
# 1 140.9829 67.0721 34.7621 23.4083 37.0401 -11.0496
# 2 67.0721 133.1992 26.7612 21.6569 26.0277 -10.8345
# 3 34.7621 26.7612 50.5622 8.9607 14.1799 -10.1153
# 4 23.4083 21.6569 8.9607 32.7383 6.1547 11.9485
# 5 37.0401 26.0277 14.1799 6.1547 46.4595 -5.7920
# 6 -11.0496 -10.8345 -10.1153 11.9485 -5.7920 42.8172
#
#
#
# Elastic Compliance Matrix: (Units=1/GPa)
#
#
# Indices 1 2 3 4 5 6 
#
# 1 0.012051 -0.003196 -0.003635 -0.005196 -0.005755 0.002114
# 2 -0.003196 0.010877 -0.001537 -0.005088 -0.002065 0.002705
# 3 -0.003635 -0.001537 0.025937 -0.005101 -0.002751 0.005852
# 4 -0.005196 -0.005088 -0.005101 0.044852 0.000580 -0.016271
# 5 -0.005755 -0.002065 -0.002751 0.000580 0.028155 0.000989
# 6 0.002114 0.002705 0.005852 -0.016271 0.000989 0.030642
#
#
# Mechanical properties :
#
#
# Convention : Reuss Voigt Hill
#
# Bulk Modulus (GPa) = 31.12745 64.65945 47.89345
# Shear Modulus (GPa) = 27.78390 37.47962 32.63176
#
# Velocity S-wave (km/s) = 3.53068 4.10071 3.82633
# Velocity P-wave (km/s) = 5.53053 7.17159 6.40385
#
# Compressibility (1/GPa) = 0.03212598
#
# Stress axis : x y z
#
# Youngs Moduli (GPa) = 82.98364 91.94085 38.55502
#
# Poissons Ratio (x) = 0.29386 0.14016
# Poissons Ratio (y) = 0.26523 0.05928
# Poissons Ratio (z) = 0.30168 0.14135
#
# Static dielectric constant tensor:
#      x y z
#    x 2.097400 0.122190 -0.691760 
#    y 0.122190 1.926210 -0.224340 
#    z -0.691760 -0.224340 3.283850 
# 
# From -- ./inp_files/591168.got.cif
#   From: 2010.05.17/outbox.cif.g08.bks.cpg/sg2_296_cif.got.tgz:591168.got - 2010.06.03 11:33:40.
