data_PCOD9036749
_publ_section_title
;
Structure prediction by ZEFSAII (Michael W. Deem and Ramdas Pophale) SiO2 
 PCOD9036749
Probable space group: P -1
;
_chemical_formula_sum "Si O2"
_cell_formula_units_Z 12
_cell_length_a 12.801049
_cell_length_b 18.395554
_cell_length_c 15.383811
_cell_angle_alpha 30.633156
_cell_angle_beta 161.282262
_cell_angle_gamma 151.210625
_cell_volume 548.919027
_symmetry_space_group_name_H-M "P -1"
_symmetry_group_IT_number 2
_symmetry_cell_setting 'triclinic'
loop_
_space_group_symop_operation_xyz
x,y,z
-x,-y,-z
loop_
_atom_site_type_symbol
_atom_site_label
_atom_site_fract_x
_atom_site_fract_y
_atom_site_fract_z
Si Si1 0.092858 0.419804 0.237643
Si Si2 0.080320 0.430721 0.722945
Si Si3 0.822455 0.868498 0.924436
Si Si4 0.802734 0.061349 0.351590
Si Si5 0.962085 0.946929 0.264427
Si Si6 0.926316 0.354463 0.361072
O O1 0.500000 0.500000 0.500000
O O2 0.999396 0.244355 0.319425
O O3 0.892307 0.413617 0.177123
O O4 0.000000 0.500000 0.000000
O O5 0.923558 0.500173 0.606145
O O6 0.000000 0.500000 0.500000
O O7 0.500000 0.500000 0.000000
O O8 0.980374 0.248750 0.819918
O O9 0.448562 0.759229 0.780575
O O10 0.809117 0.953662 0.736612
O O11 0.000000 0.000000 0.000000
O O12 0.844224 0.010888 0.534375
O O13 0.399318 0.025273 0.048161
O O14 0.000000 0.000000 0.500000
O O15 0.872790 0.764225 0.365555
#
# Coordination Sequence:
#
# PCOD9036749 Si02
#       6
#     2   2   2   2   2   2
#     4  11  24  42  65  92 123 171 219 262 318 378
#     4  10  23  39  60  91 128 168 209 254 310 375
#     4  11  22  40  68 100 133 172 212 262 326 390
#     4  11  25  45  67  96 132 167 216 274 321 378
#     4  11  23  41  68  99 128 171 215 264 326 386
#     4  10  23  43  64  94 135 171 213 270 320 383
#
# _framework density 21.861148
#
# number of rings (size 3 to 8) (size 9 to 14) (size 15 to 20)
#    0.000    1.333    0.000    6.000    0.000   12.000 
#    0.000    0.000    0.000    2.000    0.000    0.000 
#    0.000    0.000    0.000    0.000    0.000    0.000 
#
# Total GULP energy -67119.550497 kJ/mol
# GULP energy per Si atom -5593.295875 kJ/mol
# Density = 2.181139 g / cm^3
# Si number density = 21.861148 Si / 1000 Ang^3
#
#
#
# Elastic Constant Matrix: (Units=GPa)
#
#
# Indices 1 2 3 4 5 6 
#
# 1 194.7237 60.9977 72.3837 -39.7319 -23.6071 -4.8278
# 2 60.9977 93.8223 27.1158 -15.2672 -11.1636 -3.6431
# 3 72.3837 27.1158 127.8729 -6.1958 -22.8482 1.5350
# 4 -39.7319 -15.2672 -6.1958 36.0796 7.7254 9.5938
# 5 -23.6071 -11.1636 -22.8482 7.7254 50.1731 -10.8605
# 6 -4.8278 -3.6431 1.5350 9.5938 -10.8605 52.6646
#
#
#
# Elastic Compliance Matrix: (Units=1/GPa)
#
#
# Indices 1 2 3 4 5 6 
#
# 1 0.009556 -0.003631 -0.004162 0.008386 0.000348 -0.000710
# 2 -0.003631 0.013533 -0.000587 0.001262 0.000969 0.000590
# 3 -0.004162 -0.000587 0.010738 -0.003942 0.003563 0.000718
# 4 0.008386 0.001262 -0.003942 0.039914 -0.005315 -0.007396
# 5 0.000348 0.000969 0.003563 -0.005315 0.024033 0.005919
# 6 -0.000710 0.000590 0.000718 -0.007396 0.005919 0.021511
#
#
# Mechanical properties :
#
#
# Convention : Reuss Voigt Hill
#
# Bulk Modulus (GPa) = 58.59803 81.93481 70.26642
# Shear Modulus (GPa) = 35.27773 44.84489 40.06131
#
# Velocity S-wave (km/s) = 4.02147 4.53410 4.28546
# Velocity P-wave (km/s) = 6.95886 8.06050 7.52986
#
# Compressibility (1/GPa) = 0.01706542
#
# Stress axis : x y z
#
# Youngs Moduli (GPa) = 104.64765 73.89615 93.12873
#
# Poissons Ratio (x) = 0.26834 0.38762
# Poissons Ratio (y) = 0.38001 0.05466
# Poissons Ratio (z) = 0.43556 0.04337
#
# Static dielectric constant tensor:
#      x y z
#    x 1.821340 -0.001360 0.040110 
#    y -0.001360 1.792520 0.001850 
#    z 0.040110 0.001850 1.827890 
# 
# From -- ./inp_files/59417.got.cif
#   From: 2010.05.17/outbox.cif.g08.bks.cpg/sg2_30_cif.got.tgz:59417.got - 2010.06.03 11:33:40.
