data_PCOD9036117
_publ_section_title
;
Structure prediction by ZEFSAII (Michael W. Deem and Ramdas Pophale) SiO2 
 PCOD9036117
Probable space group: P -1
;
_chemical_formula_sum "Si O2"
_cell_formula_units_Z 12
_cell_length_a 5.525508
_cell_length_b 7.324059
_cell_length_c 13.742129
_cell_angle_alpha 71.715734
_cell_angle_beta 96.910730
_cell_angle_gamma 70.492591
_cell_volume 481.745172
_symmetry_space_group_name_H-M "P -1"
_symmetry_group_IT_number 2
_symmetry_cell_setting 'triclinic'
loop_
_space_group_symop_operation_xyz
x,y,z
-x,-y,-z
loop_
_atom_site_type_symbol
_atom_site_label
_atom_site_fract_x
_atom_site_fract_y
_atom_site_fract_z
Si Si1 0.586959 0.085140 0.739768
Si Si2 0.799559 0.939060 0.567694
Si Si3 0.046055 0.463556 0.622885
Si Si4 0.853932 0.303553 0.813811
Si Si5 0.208555 0.415731 0.937797
Si Si6 0.551255 0.300365 0.150531
O O1 0.347832 0.310381 0.679520
O O2 0.760519 0.112868 0.833469
O O3 0.751811 0.032795 0.657014
O O4 0.460175 0.912107 0.775261
O O5 0.950277 0.692034 0.623899
O O6 0.500000 0.000000 0.500000
O O7 0.000000 0.000000 0.500000
O O8 0.000000 0.500000 0.500000
O O9 0.879067 0.362277 0.693515
O O10 0.653231 0.507332 0.827029
O O11 0.129081 0.271014 0.885646
O O12 0.206172 0.625412 0.851266
O O13 0.475560 0.304841 0.031280
O O14 0.000000 0.500000 0.000000
#
# Coordination Sequence:
#
# PCOD9036117 Si02
#       6
#     2   2   2   2   2   2
#     4  12  27  45  79 114 151 211 259 329 395 469
#     4  12  28  50  78 111 158 216 268 331 398 469
#     4  12  26  46  73 110 159 200 268 319 388 474
#     4  11  24  44  71 112 150 201 258 324 386 474
#     4   9  21  44  76 106 153 198 254 330 389 476
#     4  10  22  47  74 110 153 201 258 322 398 467
#
# _framework density 24.909437
#
# number of rings (size 3 to 8) (size 9 to 14) (size 15 to 20)
#    0.000    1.000    3.333    2.000    2.333    6.000 
#    0.000   11.667    0.000    0.000    0.000    0.000 
#    0.000    0.000    0.000    0.000    0.000    0.000 
#
# Total GULP energy -67085.475935 kJ/mol
# GULP energy per Si atom -5590.456328 kJ/mol
# Density = 2.485274 g / cm^3
# Si number density = 24.909437 Si / 1000 Ang^3
#
#
#
# Elastic Constant Matrix: (Units=GPa)
#
#
# Indices 1 2 3 4 5 6 
#
# 1 132.7873 63.7843 51.0395 6.5875 -21.3079 15.9345
# 2 63.7843 162.6612 42.8262 24.2783 7.9663 -3.2645
# 3 51.0395 42.8262 121.7928 27.9313 -5.3888 9.9398
# 4 6.5875 24.2783 27.9313 35.7413 7.1712 3.8009
# 5 -21.3079 7.9663 -5.3888 7.1712 38.1339 4.7653
# 6 15.9345 -3.2645 9.9398 3.8009 4.7653 41.8227
#
#
#
# Elastic Compliance Matrix: (Units=1/GPa)
#
#
# Indices 1 2 3 4 5 6 
#
# 1 0.013266 -0.005211 -0.003541 0.002836 0.008194 -0.005811
# 2 -0.005211 0.009301 -0.000595 -0.004374 -0.004588 0.003773
# 3 -0.003541 -0.000595 0.012010 -0.008542 0.001569 -0.000954
# 4 0.002836 -0.004374 -0.008542 0.038478 -0.005665 -0.002243
# 5 0.008194 -0.004588 0.001569 -0.005665 0.033948 -0.007206
# 6 -0.005811 0.003773 -0.000954 -0.002243 -0.007206 0.027671
#
#
# Mechanical properties :
#
#
# Convention : Reuss Voigt Hill
#
# Bulk Modulus (GPa) = 62.95438 81.39346 72.17392
# Shear Modulus (GPa) = 31.51370 40.44566 35.97968
#
# Velocity S-wave (km/s) = 3.56073 4.03390 3.80468
# Velocity P-wave (km/s) = 6.49871 7.37856 6.95257
#
# Compressibility (1/GPa) = 0.01588452
#
# Stress axis : x y z
#
# Youngs Moduli (GPa) = 75.37800 107.51616 83.26511
#
# Poissons Ratio (x) = 0.56028 0.29481
# Poissons Ratio (y) = 0.39281 0.04951
# Poissons Ratio (z) = 0.26688 0.06393
#
# Static dielectric constant tensor:
#      x y z
#    x 2.218480 0.043720 0.053320 
#    y 0.043720 2.075070 -0.038880 
#    z 0.053320 -0.038880 2.057690 
# 
# From -- ./inp_files/478246.got.cif
#   From: 2010.05.17/outbox.cif.g08.bks.cpg/sg2_240_cif.got.tgz:478246.got - 2010.06.03 11:33:40.
