data_PCOD9036639
_publ_section_title
;
Structure prediction by ZEFSAII (Michael W. Deem and Ramdas Pophale) SiO2 
 PCOD9036639
Probable space group: P -1
;
_chemical_formula_sum "Si O2"
_cell_formula_units_Z 14
_cell_length_a 8.699897
_cell_length_b 11.548419
_cell_length_c 17.144485
_cell_angle_alpha 31.864261
_cell_angle_beta 39.261862
_cell_angle_gamma 49.547908
_cell_volume 575.283273
_symmetry_space_group_name_H-M "P -1"
_symmetry_group_IT_number 2
_symmetry_cell_setting 'triclinic'
loop_
_space_group_symop_operation_xyz
x,y,z
-x,-y,-z
loop_
_atom_site_type_symbol
_atom_site_label
_atom_site_fract_x
_atom_site_fract_y
_atom_site_fract_z
Si Si1 0.988145 0.283090 0.029310
Si Si2 0.053989 0.745399 0.125387
Si Si3 0.864144 0.917600 0.402085
Si Si4 0.413071 0.334165 0.563193
Si Si5 0.567871 0.572113 0.018755
Si Si6 0.602093 0.354187 0.306230
Si Si7 0.192202 0.985097 0.363513
O O1 0.206727 0.432403 0.895393
O O2 0.994777 0.313502 0.914491
O O3 0.970432 0.036361 0.213416
O O4 0.720358 0.374292 0.106917
O O5 0.317639 0.667307 0.092149
O O6 0.870036 0.670383 0.307765
O O7 0.000000 0.000000 0.000000
O O8 0.745969 0.125275 0.375039
O O9 0.076504 0.846975 0.417099
O O10 0.658709 0.727815 0.582675
O O11 0.500000 0.500000 0.500000
O O12 0.504275 0.397130 0.407289
O O13 0.551900 0.107792 0.656027
O O14 0.500000 0.500000 0.000000
O O15 0.756381 0.772721 0.826262
O O16 0.000000 0.000000 0.500000
#
# Coordination Sequence:
#
# PCOD9036639 Si02
#       7
#     2   2   2   2   2   2   2
#     4  11  22  45  70 102 143 180 237 285 352 417
#     4  11  22  41  69 100 138 183 231 285 345 416
#     4  11  25  42  72 105 141 182 231 298 349 408
#     4  12  24  45  71  97 142 183 230 289 352 413
#     4  10  23  38  65 104 131 177 232 288 336 409
#     4  11  23  43  70 103 138 184 228 289 349 406
#     4  12  24  45  70 102 137 179 241 289 344 418
#
# _framework density 24.335837000000001
#
# number of rings (size 3 to 8) (size 9 to 14) (size 15 to 20)
#    0.000    0.857    5.714    1.286    4.000    0.000 
#    0.000    1.429    3.143    0.000    0.000    0.000 
#    0.000    0.000    0.000    0.000    0.000    0.000 
#
# Total GULP energy -78101.168905 kJ/mol
# GULP energy per Si atom -5578.654922 kJ/mol
# Density = 2.428045 g / cm^3
# Si number density = 24.335837 Si / 1000 Ang^3
#
#
#
# Elastic Constant Matrix: (Units=GPa)
#
#
# Indices 1 2 3 4 5 6 
#
# 1 111.2311 15.0989 47.5330 5.5294 -19.3197 -2.9450
# 2 15.0989 91.5723 34.1578 11.8562 -4.9080 -8.6800
# 3 47.5330 34.1578 130.0866 14.1021 -10.7815 -12.5713
# 4 5.5294 11.8562 14.1021 41.9863 -0.5617 -8.1722
# 5 -19.3197 -4.9080 -10.7815 -0.5617 35.9217 -5.8889
# 6 -2.9450 -8.6800 -12.5713 -8.1722 -5.8889 42.7137
#
#
#
# Elastic Compliance Matrix: (Units=1/GPa)
#
#
# Indices 1 2 3 4 5 6 
#
# 1 0.011490 -0.000204 -0.003678 -0.000082 0.005105 0.000356
# 2 -0.000204 0.012454 -0.002731 -0.002285 0.000967 0.001409
# 3 -0.003678 -0.002731 0.010218 -0.001774 0.001015 0.001999
# 4 -0.000082 -0.002285 -0.001774 0.025845 0.000167 0.003976
# 5 0.005105 0.000967 0.001015 0.000167 0.031888 0.005276
# 6 0.000356 0.001409 0.001999 0.003976 0.005276 0.025799
#
#
# Mechanical properties :
#
#
# Convention : Reuss Voigt Hill
#
# Bulk Modulus (GPa) = 47.76927 58.49661 53.13294
# Shear Modulus (GPa) = 36.25782 39.86436 38.06109
#
# Velocity S-wave (km/s) = 3.86410 4.05173 3.95903
# Velocity P-wave (km/s) = 6.29128 6.78071 6.54058
#
# Compressibility (1/GPa) = 0.02093396
#
# Stress axis : x y z
#
# Youngs Moduli (GPa) = 87.03144 80.29431 97.86601
#
# Poissons Ratio (x) = 0.01642 0.35998
# Poissons Ratio (y) = 0.01779 0.26731
# Poissons Ratio (z) = 0.32013 0.21932
#
# Static dielectric constant tensor:
#      x y z
#    x 2.178960 0.047400 -0.067130 
#    y 0.047400 1.945450 0.012050 
#    z -0.067130 0.012050 1.405830 
# 
# From -- ./inp_files/183282.got.cif
#   From: 2010.05.17/outbox.cif.g08.bks.cpg/sg2_92_cif.got.tgz:183282.got - 2010.06.03 11:33:40.
