data_PCOD9036245
_publ_section_title
;
Structure prediction by ZEFSAII (Michael W. Deem and Ramdas Pophale) SiO2 
 PCOD9036245
Probable space group: P -1
;
_chemical_formula_sum "Si O2"
_cell_formula_units_Z 14
_cell_length_a 7.899184
_cell_length_b 10.260663
_cell_length_c 11.675775
_cell_angle_alpha 127.231940
_cell_angle_beta 92.460968
_cell_angle_gamma 69.627872
_cell_volume 688.278122
_symmetry_space_group_name_H-M "P -1"
_symmetry_group_IT_number 2
_symmetry_cell_setting 'triclinic'
loop_
_space_group_symop_operation_xyz
x,y,z
-x,-y,-z
loop_
_atom_site_type_symbol
_atom_site_label
_atom_site_fract_x
_atom_site_fract_y
_atom_site_fract_z
Si Si1 0.364889 0.557258 0.414504
Si Si2 0.189660 0.829105 0.893575
Si Si3 0.242419 0.938224 0.186264
Si Si4 0.826391 0.058739 0.297578
Si Si5 0.692251 0.569082 0.317096
Si Si6 0.192387 0.336750 0.392759
Si Si7 0.585304 0.881098 0.326005
O O1 0.500000 0.500000 0.500000
O O2 0.211630 0.756100 0.538109
O O3 0.490786 0.562467 0.315969
O O4 0.282069 0.409030 0.333090
O O5 0.253563 0.872993 0.796126
O O6 0.172131 0.639578 0.784084
O O7 0.299913 0.827199 0.011254
O O8 0.000000 0.000000 0.000000
O O9 0.413288 0.881168 0.247334
O O10 0.190000 0.147350 0.268291
O O11 0.047615 0.942033 0.231267
O O12 0.710514 0.960962 0.302356
O O13 0.703804 0.673260 0.488270
O O14 0.706368 0.682059 0.270607
O O15 0.000000 0.500000 0.500000
O O16 0.500000 0.000000 0.500000
#
# Coordination Sequence:
#
# PCOD9036245 Si02
#       7
#     2   2   2   2   2   2   2
#     4  10  17  32  61  90 118 156 206 259 319 349
#     4  10  22  43  67  91 128 166 212 272 313 370
#     4  11  24  40  64  94 131 168 215 255 321 384
#     4  11  21  42  66  95 130 163 210 272 316 370
#     4  11  22  40  63  89 130 164 205 269 314 371
#     4  11  18  34  62  96 117 157 220 266 303 365
#     4  12  24  41  63  96 134 170 206 261 323 380
#
# _framework density 20.340612
#
# number of rings (size 3 to 8) (size 9 to 14) (size 15 to 20)
#    0.000    1.143    7.143    1.714    0.000    1.714 
#    2.571    2.857    0.000    0.000    0.000    0.000 
#    0.000    0.000    0.000    0.000    0.000    0.000 
#
# Total GULP energy -78091.715946 kJ/mol
# GULP energy per Si atom -5577.979710 kJ/mol
# Density = 2.029432 g / cm^3
# Si number density = 20.340612 Si / 1000 Ang^3
#
#
#
# Elastic Constant Matrix: (Units=GPa)
#
#
# Indices 1 2 3 4 5 6 
#
# 1 81.9556 42.2635 13.0343 -10.8445 3.7970 21.9528
# 2 42.2635 137.3819 30.0088 1.2650 -0.9203 21.4035
# 3 13.0343 30.0088 88.6086 -0.6013 4.9782 7.4031
# 4 -10.8445 1.2650 -0.6013 25.2245 -8.6762 1.4799
# 5 3.7970 -0.9203 4.9782 -8.6762 26.5923 -4.6170
# 6 21.9528 21.4035 7.4031 1.4799 -4.6170 24.5123
#
#
#
# Elastic Compliance Matrix: (Units=1/GPa)
#
#
# Indices 1 2 3 4 5 6 
#
# 1 0.019439 -0.003682 -0.000132 0.008485 -0.002746 -0.015183
# 2 -0.003682 0.009612 -0.002366 -0.001891 -0.000058 -0.004278
# 3 -0.000132 -0.002366 0.012442 -0.000526 -0.002927 -0.002093
# 4 0.008485 -0.001891 -0.000526 0.048393 0.013541 -0.006160
# 5 -0.002746 -0.000058 -0.002927 0.013541 0.044876 0.011029
# 6 -0.015183 -0.004278 -0.002093 -0.006160 0.011029 0.061210
#
#
# Mechanical properties :
#
#
# Convention : Reuss Voigt Hill
#
# Bulk Modulus (GPa) = 34.32584 53.17328 43.74956
# Shear Modulus (GPa) = 22.93133 30.10847 26.51990
#
# Velocity S-wave (km/s) = 3.36127 3.85153 3.61472
# Velocity P-wave (km/s) = 5.65476 6.78065 6.24314
#
# Compressibility (1/GPa) = 0.02913257
#
# Stress axis : x y z
#
# Youngs Moduli (GPa) = 51.44421 104.03717 80.37299
#
# Poissons Ratio (x) = 0.38308 0.01061
# Poissons Ratio (y) = 0.18943 0.19015
# Poissons Ratio (z) = 0.00679 0.24613
#
# Static dielectric constant tensor:
#      x y z
#    x 1.802690 -0.028060 0.008520 
#    y -0.028060 1.758180 -0.009300 
#    z 0.008520 -0.009300 1.743220 
# 
# From -- ./inp_files/203006.got.cif
#   From: 2010.05.17/outbox.cif.g08.bks.cpg/sg2_102_cif.got.tgz:203006.got - 2010.06.03 11:33:40.
