data_PCOD9036683
_publ_section_title
;
Structure prediction by ZEFSAII (Michael W. Deem and Ramdas Pophale) SiO2 
 PCOD9036683
Probable space group: P -1
;
_chemical_formula_sum "Si O2"
_cell_formula_units_Z 12
_cell_length_a 9.063132
_cell_length_b 8.473787
_cell_length_c 14.296656
_cell_angle_alpha 123.705353
_cell_angle_beta 30.948463
_cell_angle_gamma 122.770912
_cell_volume 464.218354
_symmetry_space_group_name_H-M "P -1"
_symmetry_group_IT_number 2
_symmetry_cell_setting 'triclinic'
loop_
_space_group_symop_operation_xyz
x,y,z
-x,-y,-z
loop_
_atom_site_type_symbol
_atom_site_label
_atom_site_fract_x
_atom_site_fract_y
_atom_site_fract_z
Si Si1 0.287973 0.597489 0.928049
Si Si2 0.365735 0.239224 0.559479
Si Si3 0.669214 0.653307 0.585432
Si Si4 0.901509 0.097010 0.300755
Si Si5 0.480205 0.719956 0.052873
Si Si6 0.724256 0.301477 0.651101
O O1 0.491549 0.737914 0.792342
O O2 0.258926 0.692260 0.076614
O O3 0.497682 0.436815 0.784268
O O4 0.000000 0.500000 0.000000
O O5 0.454716 0.462623 0.608632
O O6 0.260095 0.222874 0.505001
O O7 0.669407 0.154275 0.372546
O O8 0.171504 0.127150 0.709657
O O9 0.966358 0.592732 0.442897
O O10 0.818404 0.183473 0.474011
O O11 0.219648 0.175333 0.118363
O O12 0.500000 0.500000 0.000000
O O13 0.405247 0.809277 0.221641
#
# Coordination Sequence:
#
# PCOD9036683 Si02
#       6
#     2   2   2   2   2   2
#     4  11  23  38  66 105 132 169 232 277 318 397
#     4  10  24  38  72  96 136 173 226 270 333 394
#     4  11  22  43  71  98 129 186 222 265 335 404
#     4  11  22  47  64 103 137 175 212 287 334 384
#     4  10  23  38  67  98 133 172 224 267 327 397
#     4  11  23  42  72  96 133 180 221 270 339 393
#
# _framework density 25.849905
#
# number of rings (size 3 to 8) (size 9 to 14) (size 15 to 20)
#    0.000    1.333    3.333    2.500    9.333    0.667 
#    0.000    5.833    0.000    0.000    0.000    0.000 
#    0.000    0.000    0.000    0.000    0.000    0.000 
#
# Total GULP energy -67143.515733 kJ/mol
# GULP energy per Si atom -5595.292978 kJ/mol
# Density = 2.579107 g / cm^3
# Si number density = 25.849905 Si / 1000 Ang^3
#
#
#
# Elastic Constant Matrix: (Units=GPa)
#
#
# Indices 1 2 3 4 5 6 
#
# 1 177.6344 12.1763 71.3994 -12.9163 2.4009 -20.1684
# 2 12.1763 71.6748 32.6558 -19.3872 8.4857 -6.3971
# 3 71.3994 32.6558 150.9584 -33.3145 18.7155 -5.1611
# 4 -12.9163 -19.3872 -33.3145 43.7307 -3.8713 0.3184
# 5 2.4009 8.4857 18.7155 -3.8713 59.3680 -3.7206
# 6 -20.1684 -6.3971 -5.1611 0.3184 -3.7206 30.4078
#
#
#
# Elastic Compliance Matrix: (Units=1/GPa)
#
#
# Indices 1 2 3 4 5 6 
#
# 1 0.007594 0.000640 -0.003764 -0.000281 0.001062 0.004665
# 2 0.000640 0.016936 -0.002457 0.005705 -0.001088 0.003377
# 3 -0.003764 -0.002457 0.010411 0.005519 -0.002520 -0.001612
# 4 -0.000281 0.005705 0.005519 0.029460 -0.000524 0.001578
# 5 0.001062 -0.001088 -0.002520 -0.000524 0.017857 0.002238
# 6 0.004665 0.003377 -0.001612 0.001578 0.002238 0.036675
#
#
# Mechanical properties :
#
#
# Convention : Reuss Voigt Hill
#
# Bulk Modulus (GPa) = 42.05544 70.30341 56.17942
# Shear Modulus (GPa) = 36.22624 45.63705 40.93164
#
# Velocity S-wave (km/s) = 3.74760 4.20630 3.98356
# Velocity P-wave (km/s) = 5.91865 7.13067 6.55274
#
# Compressibility (1/GPa) = 0.02377814
#
# Stress axis : x y z
#
# Youngs Moduli (GPa) = 131.69079 59.04621 96.04806
#
# Poissons Ratio (x) = -0.03776 0.36154
# Poissons Ratio (y) = -0.08422 0.23597
# Poissons Ratio (z) = 0.49570 0.14506
#
# Static dielectric constant tensor:
#      x y z
#    x 2.055330 0.025500 0.062960 
#    y 0.025500 2.079990 0.036370 
#    z 0.062960 0.036370 2.105440 
# 
# From -- ./inp_files/158828.got.cif
#   From: 2010.05.17/outbox.cif.g08.bks.cpg/sg2_80_cif.got.tgz:158828.got - 2010.06.03 11:33:40.
