data_PCOD9036205
_publ_section_title
;
Structure prediction by ZEFSAII (Michael W. Deem and Ramdas Pophale) SiO2 
 PCOD9036205
Probable space group: P -1
;
_chemical_formula_sum "Si O2"
_cell_formula_units_Z 13
_cell_length_a 10.913291
_cell_length_b 13.384470
_cell_length_c 7.714624
_cell_angle_alpha 74.747718
_cell_angle_beta 121.658594
_cell_angle_gamma 56.523942
_cell_volume 502.371925
_symmetry_space_group_name_H-M "P -1"
_symmetry_group_IT_number 2
_symmetry_cell_setting 'triclinic'
loop_
_space_group_symop_operation_xyz
x,y,z
-x,-y,-z
loop_
_atom_site_type_symbol
_atom_site_label
_atom_site_fract_x
_atom_site_fract_y
_atom_site_fract_z
Si Si1 0.775573 0.167046 0.621651
Si Si2 0.500000 0.000000 0.500000
Si Si3 0.271359 0.067609 0.880340
Si Si4 0.928491 0.450022 0.597961
Si Si5 0.622800 0.723802 0.537996
Si Si6 0.075427 0.107054 0.352520
Si Si7 0.524852 0.523253 0.204016
O O1 0.493555 0.294637 0.419964
O O2 0.739273 0.311380 0.530037
O O3 0.844340 0.061572 0.546808
O O4 0.000000 0.000000 0.000000
O O5 0.342768 0.191193 0.376181
O O6 0.275065 0.051982 0.404097
O O7 0.111448 0.124228 0.569616
O O8 0.145742 0.227083 0.849332
O O9 0.500000 0.000000 0.000000
O O10 0.395703 0.896590 0.151788
O O11 0.869248 0.536993 0.696733
O O12 0.658680 0.554445 0.296143
O O13 0.000000 0.500000 0.500000
O O14 0.760065 0.308103 0.992194
O O15 0.500000 0.500000 0.000000
#
# Coordination Sequence:
#
# PCOD9036205 Si02
#       7
#     2   1   2   2   2   2   2
#     4  11  27  50  75 110 157 211 256 325 409 466
#     4  10  22  48  70 112 158 208 256 332 382 482
#     4  12  23  44  77 111 156 205 268 326 388 469
#     4  12  25  45  76 113 150 202 263 323 394 467
#     4  11  25  45  74 108 150 204 264 319 394 463
#     4  11  25  47  78 113 157 208 269 321 402 459
#     4  12  28  48  78 118 161 200 266 331 387 479
#
# _framework density 25.877244000000001
#
# number of rings (size 3 to 8) (size 9 to 14) (size 15 to 20)
#    0.000    0.615    4.615    1.846    2.154    5.538 
#    0.000    2.308    0.000    0.000    0.000    0.000 
#    0.000    0.000    0.000    0.000    0.000    0.000 
#
# Total GULP energy -72613.694093 kJ/mol
# GULP energy per Si atom -5585.668776 kJ/mol
# Density = 2.581835 g / cm^3
# Si number density = 25.877244 Si / 1000 Ang^3
#
#
#
# Elastic Constant Matrix: (Units=GPa)
#
#
# Indices 1 2 3 4 5 6 
#
# 1 130.4395 67.8313 20.6675 -11.3482 25.1654 17.7257
# 2 67.8313 233.1053 40.5166 -20.7444 14.0019 -13.4528
# 3 20.6675 40.5166 94.2261 -18.3486 5.1069 -0.0017
# 4 -11.3482 -20.7444 -18.3486 42.0002 -0.9656 9.6319
# 5 25.1654 14.0019 5.1069 -0.9656 34.7319 -1.3025
# 6 17.7257 -13.4528 -0.0017 9.6319 -1.3025 56.2916
#
#
#
# Elastic Compliance Matrix: (Units=1/GPa)
#
#
# Indices 1 2 3 4 5 6 
#
# 1 0.011521 -0.002913 -0.000404 0.002458 -0.007230 -0.004912
# 2 -0.002913 0.005601 -0.001627 0.000786 0.000193 0.002126
# 3 -0.000404 -0.001627 0.012362 0.004719 -0.000778 -0.001087
# 4 0.002458 0.000786 0.004719 0.028122 -0.002214 -0.005449
# 5 -0.007230 0.000193 -0.000778 -0.002214 0.034137 0.003492
# 6 -0.004912 0.002126 -0.001087 -0.005449 0.003492 0.020833
#
#
# Mechanical properties :
#
#
# Convention : Reuss Voigt Hill
#
# Bulk Modulus (GPa) = 51.02891 79.53354 65.28122
# Shear Modulus (GPa) = 38.76078 48.52178 43.64128
#
# Velocity S-wave (km/s) = 3.87443 4.33491 4.11112
# Velocity P-wave (km/s) = 6.30693 7.47375 6.91500
#
# Compressibility (1/GPa) = 0.01959673
#
# Stress axis : x y z
#
# Youngs Moduli (GPa) = 86.79516 178.52983 80.89184
#
# Poissons Ratio (x) = 0.52002 0.03270
# Poissons Ratio (y) = 0.25282 0.13162
# Poissons Ratio (z) = 0.03508 0.29048
#
# Static dielectric constant tensor:
#      x y z
#    x 2.139350 0.135320 0.496100 
#    y 0.135320 2.248520 1.114620 
#    z 0.496100 1.114620 6.261380 
# 
# From -- ./inp_files/258250.got.cif
#   From: 2010.05.17/outbox.cif.g08.bks.cpg/sg2_130_cif.got.tgz:258250.got - 2010.06.03 11:33:40.
