data_PCOD9036151
_publ_section_title
;
Structure prediction by ZEFSAII (Michael W. Deem and Ramdas Pophale) SiO2 
 PCOD9036151
Probable space group: P -1
;
_chemical_formula_sum "Si O2"
_cell_formula_units_Z 14
_cell_length_a 7.393116
_cell_length_b 16.755935
_cell_length_c 5.215692
_cell_angle_alpha 91.353944
_cell_angle_beta 76.265067
_cell_angle_gamma 121.365681
_cell_volume 532.010028
_symmetry_space_group_name_H-M "P -1"
_symmetry_group_IT_number 2
_symmetry_cell_setting 'triclinic'
loop_
_space_group_symop_operation_xyz
x,y,z
-x,-y,-z
loop_
_atom_site_type_symbol
_atom_site_label
_atom_site_fract_x
_atom_site_fract_y
_atom_site_fract_z
Si Si1 0.777694 0.434821 0.722572
Si Si2 0.613672 0.612940 0.456809
Si Si3 0.714369 0.269370 0.082085
Si Si4 0.763045 0.854967 0.553582
Si Si5 0.199257 0.973188 0.702022
Si Si6 0.840872 0.625312 0.874627
Si Si7 0.822008 0.126317 0.786708
O O1 0.579695 0.376827 0.586912
O O2 0.783542 0.363249 0.907305
O O3 0.753951 0.514568 0.880203
O O4 0.000000 0.500000 0.500000
O O5 0.500000 0.500000 0.500000
O O6 0.717530 0.647810 0.701879
O O7 0.789112 0.644055 0.174917
O O8 0.743943 0.195383 0.901750
O O9 0.279915 0.079081 0.609953
O O10 0.466946 0.220552 0.255432
O O11 0.898727 0.307479 0.246426
O O12 0.914125 0.826072 0.345508
O O13 0.935178 0.918444 0.725843
O O14 0.275339 0.928101 0.452186
O O15 0.237120 0.947047 0.966733
#
# Coordination Sequence:
#
# PCOD9036151 Si02
#       7
#     2   2   2   2   2   2   2
#     4  11  25  49  74 107 149 200 263 313 378 452
#     4  10  22  47  76  94 134 194 251 307 372 441
#     4  12  26  46  74 116 157 198 260 324 373 459
#     4   9  23  47  76 109 150 201 249 308 382 459
#     4   9  21  48  77 105 155 200 241 306 388 464
#     4  11  25  48  69 103 144 197 252 308 379 438
#     4  10  23  47  70 111 152 195 244 312 383 454
#
# _framework density 26.315291999999999
#
# number of rings (size 3 to 8) (size 9 to 14) (size 15 to 20)
#    0.857    0.857    0.000    4.286    0.000    5.714 
#   20.571    0.000    0.000    0.000    0.000    0.000 
#    0.000    0.000    0.000    0.000    0.000    0.000 
#
# Total GULP energy -78512.703909 kJ/mol
# GULP energy per Si atom -5608.050279 kJ/mol
# Density = 2.625540 g / cm^3
# Si number density = 26.315292 Si / 1000 Ang^3
#
#
#
# Elastic Constant Matrix: (Units=GPa)
#
#
# Indices 1 2 3 4 5 6 
#
# 1 117.5660 51.6595 41.7655 0.4290 -11.1403 9.4529
# 2 51.6595 109.4762 56.7265 -13.0259 -13.4719 -9.2202
# 3 41.7655 56.7265 124.9621 -9.6839 -12.6792 -6.0989
# 4 0.4290 -13.0259 -9.6839 47.3663 -1.8290 -12.9172
# 5 -11.1403 -13.4719 -12.6792 -1.8290 48.6385 8.2817
# 6 9.4529 -9.2202 -6.0989 -12.9172 8.2817 50.0512
#
#
#
# Elastic Compliance Matrix: (Units=1/GPa)
#
#
# Indices 1 2 3 4 5 6 
#
# 1 0.012009 -0.005227 -0.001957 -0.003121 0.001444 -0.004514
# 2 -0.005227 0.014876 -0.004334 0.004428 0.001256 0.004134
# 3 -0.001957 -0.004334 0.010891 0.001388 0.001059 0.001082
# 4 -0.003121 0.004428 0.001388 0.024815 0.000461 0.007902
# 5 0.001444 0.001256 0.001059 0.000461 0.022120 -0.003453
# 6 -0.004514 0.004134 0.001082 0.007902 -0.003453 0.024336
#
#
# Mechanical properties :
#
#
# Convention : Reuss Voigt Hill
#
# Bulk Modulus (GPa) = 67.83237 72.47859 70.15548
# Shear Modulus (GPa) = 36.49763 42.66804 39.58284
#
# Velocity S-wave (km/s) = 3.72820 4.03105 3.88258
# Velocity P-wave (km/s) = 6.66073 7.01912 6.84227
#
# Compressibility (1/GPa) = 0.01474222
#
# Stress axis : x y z
#
# Youngs Moduli (GPa) = 83.27268 67.22248 91.81495
#
# Poissons Ratio (x) = 0.35135 0.17965
# Poissons Ratio (y) = 0.43524 0.39790
# Poissons Ratio (z) = 0.16294 0.29132
#
# Static dielectric constant tensor:
#      x y z
#    x 2.081470 0.064000 -0.016760 
#    y 0.064000 2.126560 0.056880 
#    z -0.016760 0.056880 2.167090 
# 
# From -- ./inp_files/53656.got.cif
#   From: 2010.05.17/outbox.cif.g08.bks.cpg/sg2_27_cif.got.tgz:53656.got - 2010.06.03 11:33:40.
