data_PCOD9036781
_publ_section_title
;
Structure prediction by ZEFSAII (Michael W. Deem and Ramdas Pophale) SiO2 
 PCOD9036781
Probable space group: P -1
;
_chemical_formula_sum "Si O2"
_cell_formula_units_Z 16
_cell_length_a 7.234409
_cell_length_b 5.220556
_cell_length_c 30.363171
_cell_angle_alpha 60.149843
_cell_angle_beta 128.888151
_cell_angle_gamma 109.660314
_cell_volume 773.687006
_symmetry_space_group_name_H-M "P -1"
_symmetry_group_IT_number 2
_symmetry_cell_setting 'triclinic'
loop_
_space_group_symop_operation_xyz
x,y,z
-x,-y,-z
loop_
_atom_site_type_symbol
_atom_site_label
_atom_site_fract_x
_atom_site_fract_y
_atom_site_fract_z
Si Si1 0.096966 0.646052 0.731635
Si Si2 0.159270 0.318685 0.675780
Si Si3 0.081990 0.665421 0.042774
Si Si4 0.710989 0.347868 0.071762
Si Si5 0.641594 0.660875 0.124993
Si Si6 0.261729 0.092703 0.514267
Si Si7 0.444017 0.416568 0.353219
Si Si8 0.346947 0.520910 0.422966
O O1 0.139482 0.516876 0.699958
O O2 0.217138 0.438232 0.802746
O O3 0.814848 0.661284 0.698269
O O4 0.203101 0.979046 0.722048
O O5 0.365815 0.447768 0.663835
O O6 0.898128 0.326221 0.612975
O O7 0.361316 0.659457 0.091054
O O8 0.951679 0.497506 0.077230
O O9 0.000000 0.500000 0.000000
O O10 0.000000 0.000000 0.000000
O O11 0.682668 0.434341 0.110819
O O12 0.709023 0.998580 0.093271
O O13 0.500000 0.500000 0.000000
O O14 0.278337 0.183362 0.457473
O O15 0.388888 0.390665 0.527576
O O16 0.432489 0.849807 0.579927
O O17 0.000000 0.000000 0.500000
O O18 0.377468 0.612550 0.368634
#
# Coordination Sequence:
#
# PCOD9036781 Si02
#       8
#     2   2   2   2   2   2   2   2
#     4  11  27  45  67  94 133 175 223 271 321 386
#     4  11  24  44  68  92 128 177 223 271 327 389
#     4  12  23  39  66  98 134 169 208 261 322 380
#     4  12  23  41  71 100 135 172 213 265 333 384
#     4  12  25  44  66 100 135 172 220 270 319 395
#     4  11  21  39  63  97 128 167 217 273 337 396
#     4  11  24  41  67  90 134 172 220 272 335 384
#     4  10  23  39  61  97 130 165 216 276 335 394
#
# _framework density 20.680199000000002
#
# number of rings (size 3 to 8) (size 9 to 14) (size 15 to 20)
#    0.000    0.750    5.000    2.250    1.750    2.500 
#    0.000    0.000    0.000    0.000    0.000    0.000 
#    0.000    0.000    0.000    0.000    0.000    0.000 
#
# Total GULP energy -89288.624098 kJ/mol
# GULP energy per Si atom -5580.539006 kJ/mol
# Density = 2.063313 g / cm^3
# Si number density = 20.680199 Si / 1000 Ang^3
#
#
#
# Elastic Constant Matrix: (Units=GPa)
#
#
# Indices 1 2 3 4 5 6 
#
# 1 148.7704 26.5085 34.6338 6.9071 1.6986 35.9278
# 2 26.5085 72.7947 10.7786 -9.4143 5.4122 9.2999
# 3 34.6338 10.7786 97.4920 -7.6021 10.9063 12.2931
# 4 6.9071 -9.4143 -7.6021 31.4846 -3.5607 -2.0589
# 5 1.6986 5.4122 10.9063 -3.5607 26.9282 -1.0399
# 6 35.9278 9.2999 12.2931 -2.0589 -1.0399 40.4023
#
#
#
# Elastic Compliance Matrix: (Units=1/GPa)
#
#
# Indices 1 2 3 4 5 6 
#
# 1 0.009815 -0.002773 -0.002568 -0.004077 0.000149 -0.007513
# 2 -0.002773 0.015685 0.000024 0.004974 -0.002367 -0.000960
# 3 -0.002568 0.000024 0.012055 0.002896 -0.004395 -0.001356
# 4 -0.004077 0.004974 0.002896 0.035398 0.002900 0.003478
# 5 0.000149 -0.002367 -0.004395 0.002900 0.039878 0.002924
# 6 -0.007513 -0.000960 -0.001356 0.003478 0.002924 0.032318
#
#
# Mechanical properties :
#
#
# Convention : Reuss Voigt Hill
#
# Bulk Modulus (GPa) = 37.14132 51.43321 44.28727
# Shear Modulus (GPa) = 30.34791 36.23878 33.29335
#
# Velocity S-wave (km/s) = 3.83493 4.19064 4.01673
# Velocity P-wave (km/s) = 6.13252 6.95270 6.55545
#
# Compressibility (1/GPa) = 0.02692419
#
# Stress axis : x y z
#
# Youngs Moduli (GPa) = 101.87990 63.75452 82.95248
#
# Poissons Ratio (x) = 0.17677 0.21299
# Poissons Ratio (y) = 0.28248 -0.00203
# Poissons Ratio (z) = 0.26159 -0.00156
#
# Static dielectric constant tensor:
#      x y z
#    x 1.753620 -0.115890 -0.033310 
#    y -0.115890 1.944040 0.070490 
#    z -0.033310 0.070490 1.791050 
# 
# From -- ./inp_files/14952.got.cif
#   From: 2010.05.17/outbox.cif.g08.bks.cpg/sg2_8_cif.got.tgz:14952.got - 2010.06.03 11:33:40.
