data_PCOD9036579
_publ_section_title
;
Structure prediction by ZEFSAII (Michael W. Deem and Ramdas Pophale) SiO2 
 PCOD9036579
Probable space group: P -1
;
_chemical_formula_sum "Si O2"
_cell_formula_units_Z 14
_cell_length_a 5.124452
_cell_length_b 19.033715
_cell_length_c 14.659682
_cell_angle_alpha 155.487304
_cell_angle_beta 94.465369
_cell_angle_gamma 73.961137
_cell_volume 513.329292
_symmetry_space_group_name_H-M "P -1"
_symmetry_group_IT_number 2
_symmetry_cell_setting 'triclinic'
loop_
_space_group_symop_operation_xyz
x,y,z
-x,-y,-z
loop_
_atom_site_type_symbol
_atom_site_label
_atom_site_fract_x
_atom_site_fract_y
_atom_site_fract_z
Si Si1 0.882125 0.449935 0.173500
Si Si2 0.622646 0.242300 0.822357
Si Si3 0.670781 0.573993 0.692483
Si Si4 0.015324 0.757694 0.820974
Si Si5 0.312270 0.845770 0.631069
Si Si6 0.463452 0.949795 0.563220
Si Si7 0.937719 0.357077 0.735731
O O1 0.588720 0.641511 0.432258
O O2 0.908183 0.530403 0.172022
O O3 0.165088 0.418895 0.203657
O O4 0.834071 0.269256 0.933832
O O5 0.723906 0.120775 0.587522
O O6 0.461186 0.140517 0.751718
O O7 0.395190 0.465745 0.049165
O O8 0.310070 0.670698 0.793276
O O9 0.831096 0.351791 0.397791
O O10 0.778157 0.687723 0.760054
O O11 0.841335 0.988530 0.101681
O O12 0.404490 0.934997 0.651363
O O13 0.087838 0.783426 0.505581
O O14 0.812014 0.784404 0.355237
#
# Coordination Sequence:
#
# PCOD9036579 Si02
#       7
#     2   2   2   2   2   2   2
#     4  10  24  41  66  99 138 183 233 290 351 412
#     4  10  23  42  65  97 137 186 237 288 350 416
#     4  10  24  44  71 103 138 182 233 290 356 424
#     4  10  24  44  71 103 138 182 233 290 356 424
#     4  10  24  41  66  99 138 183 233 290 351 412
#     4  10  23  42  65  97 137 186 237 288 350 416
#     4  10  23  38  61  98 134 188 225 290 345 416
#
# _framework density 27.272940999999999
#
# number of rings (size 3 to 8) (size 9 to 14) (size 15 to 20)
#    0.000    2.000    0.000    0.429   12.000    6.857 
#    0.000    3.571    0.000    0.857    0.000    0.000 
#    0.000    0.000    0.000    0.000    0.000    0.000 
#
# Total GULP energy -78353.312293 kJ/mol
# GULP energy per Si atom -5596.665164 kJ/mol
# Density = 2.721087 g / cm^3
# Si number density = 27.272941 Si / 1000 Ang^3
#
#
#
# Elastic Constant Matrix: (Units=GPa)
#
#
# Indices 1 2 3 4 5 6 
#
# 1 119.7530 16.7320 21.9216 -2.2993 22.2189 -13.4275
# 2 16.7320 64.1650 29.6572 0.1780 -0.4209 -19.0465
# 3 21.9216 29.6572 207.5787 -20.2420 14.4006 -9.9087
# 4 -2.2993 0.1780 -20.2420 40.5602 -4.4650 7.5147
# 5 22.2189 -0.4209 14.4006 -4.4650 36.8666 -1.9628
# 6 -13.4275 -19.0465 -9.9087 7.5147 -1.9628 47.9069
#
#
#
# Elastic Compliance Matrix: (Units=1/GPa)
#
#
# Indices 1 2 3 4 5 6 
#
# 1 0.009964 -0.001945 -0.000337 -0.000574 -0.005869 0.001799
# 2 -0.001945 0.019467 -0.002659 -0.002572 0.002502 0.007150
# 3 -0.000337 -0.002659 0.005590 0.002684 -0.001712 -0.000487
# 4 -0.000574 -0.002572 0.002684 0.027113 0.002297 -0.004787
# 5 -0.005869 0.002502 -0.001712 0.002297 0.031634 -0.000068
# 6 0.001799 0.007150 -0.000487 -0.004787 -0.000068 0.024868
#
#
# Mechanical properties :
#
#
# Convention : Reuss Voigt Hill
#
# Bulk Modulus (GPa) = 39.78002 58.67980 49.22991
# Shear Modulus (GPa) = 36.52352 46.61249 41.56800
#
# Velocity S-wave (km/s) = 3.66346 4.13862 3.90827
# Velocity P-wave (km/s) = 5.70194 6.66334 6.20130
#
# Compressibility (1/GPa) = 0.02513825
#
# Stress axis : x y z
#
# Youngs Moduli (GPa) = 100.36408 51.36881 178.88404
#
# Poissons Ratio (x) = 0.09992 0.06033
# Poissons Ratio (y) = 0.19522 0.47565
# Poissons Ratio (z) = 0.03385 0.13659
#
# Static dielectric constant tensor:
#      x y z
#    x 2.120480 0.026490 -0.080500 
#    y 0.026490 2.159680 -0.004580 
#    z -0.080500 -0.004580 2.149540 
# 
# From -- ./inp_files/551288.got.cif
#   From: 2010.05.17/outbox.cif.g08.bks.cpg/sg2_276_cif.got.tgz:551288.got - 2010.06.03 11:33:40.
