data_PCOD9036481
_publ_section_title
;
Structure prediction by ZEFSAII (Michael W. Deem and Ramdas Pophale) SiO2 
 PCOD9036481
Probable space group: P -1
;
_chemical_formula_sum "Si O2"
_cell_formula_units_Z 16
_cell_length_a 5.115584
_cell_length_b 7.851598
_cell_length_c 18.939123
_cell_angle_alpha 94.190304
_cell_angle_beta 57.477415
_cell_angle_gamma 88.994844
_cell_volume 638.229458
_symmetry_space_group_name_H-M "P -1"
_symmetry_group_IT_number 2
_symmetry_cell_setting 'triclinic'
loop_
_space_group_symop_operation_xyz
x,y,z
-x,-y,-z
loop_
_atom_site_type_symbol
_atom_site_label
_atom_site_fract_x
_atom_site_fract_y
_atom_site_fract_z
Si Si1 0.008797 0.437890 0.342418
Si Si2 0.233953 0.416697 0.905243
Si Si3 0.354684 0.422594 0.733757
Si Si4 0.427694 0.094062 0.247504
Si Si5 0.819177 0.186968 0.819866
Si Si6 0.275380 0.788533 0.521645
Si Si7 0.018878 0.034646 0.916605
Si Si8 0.383627 0.021414 0.402173
O O1 0.270610 0.573941 0.318527
O O2 0.769697 0.482875 0.315819
O O3 0.839315 0.389914 0.438881
O O4 0.200878 0.262395 0.286338
O O5 0.249852 0.502865 0.828449
O O6 0.592790 0.359318 0.870767
O O7 0.117257 0.228494 0.905986
O O8 0.000000 0.500000 0.000000
O O9 0.157768 0.254830 0.759824
O O10 0.268442 0.924819 0.238401
O O11 0.720957 0.100416 0.154851
O O12 0.554589 0.064966 0.307271
O O13 0.769344 0.059112 0.890032
O O14 0.505644 0.853912 0.549144
O O15 0.969501 0.921222 0.567509
O O16 0.413688 0.831471 0.426246
O O17 0.000000 0.000000 0.000000
#
# Coordination Sequence:
#
# PCOD9036481 Si02
#       8
#     2   2   2   2   2   2   2   2
#     4  11  22  36  65  96 124 158 216 262 309 366
#     4  10  23  42  63  86 118 169 213 256 317 380
#     4  11  23  41  61  90 124 170 204 258 313 383
#     4  10  23  37  63  95 124 168 209 261 318 378
#     4  10  23  44  61  89 126 172 208 255 325 382
#     4   9  18  34  56  95 130 161 202 262 313 364
#     4  10  24  38  60  92 127 161 211 266 314 368
#     4   9  18  34  59  89 132 166 201 253 318 379
#
# _framework density 25.069355999999999
#
# number of rings (size 3 to 8) (size 9 to 14) (size 15 to 20)
#    0.000    2.000    1.250    1.500    7.000    5.000 
#    0.000    0.000    0.000    1.500    0.000    0.000 
#    0.000    0.000    0.000    0.000    0.000    0.000 
#
# Total GULP energy -89227.818451 kJ/mol
# GULP energy per Si atom -5576.738653 kJ/mol
# Density = 2.501230 g / cm^3
# Si number density = 25.069356 Si / 1000 Ang^3
#
#
#
# Elastic Constant Matrix: (Units=GPa)
#
#
# Indices 1 2 3 4 5 6 
#
# 1 120.0963 19.6583 26.2020 -9.4816 12.8946 -1.8174
# 2 19.6583 70.6235 10.4866 -4.4686 3.9915 -4.5863
# 3 26.2020 10.4866 114.8515 -30.3191 29.5017 -13.2198
# 4 -9.4816 -4.4686 -30.3191 49.3494 -21.4082 0.9201
# 5 12.8946 3.9915 29.5017 -21.4082 37.4683 -6.4105
# 6 -1.8174 -4.5863 -13.2198 0.9201 -6.4105 39.1023
#
#
#
# Elastic Compliance Matrix: (Units=1/GPa)
#
#
# Indices 1 2 3 4 5 6 
#
# 1 0.009217 -0.002285 -0.001522 -0.000212 -0.001966 -0.000672
# 2 -0.002285 0.015004 -0.000573 0.000656 0.000269 0.001489
# 3 -0.001522 -0.000573 0.012146 0.004499 -0.005913 0.002893
# 4 -0.000212 0.000656 0.004499 0.028830 0.013467 0.003117
# 5 -0.001966 0.000269 -0.005913 0.013467 0.040414 0.004250
# 6 -0.000672 0.001489 0.002893 0.003117 0.004250 0.027319
#
#
# Mechanical properties :
#
#
# Convention : Reuss Voigt Hill
#
# Bulk Modulus (GPa) = 36.22492 46.47391 41.34942
# Shear Modulus (GPa) = 33.13588 41.79895 37.46742
#
# Velocity S-wave (km/s) = 3.63956 4.08773 3.87014
# Velocity P-wave (km/s) = 5.66949 6.39201 6.04156
#
# Compressibility (1/GPa) = 0.02760530
#
# Stress axis : x y z
#
# Youngs Moduli (GPa) = 108.49431 66.64957 82.33146
#
# Poissons Ratio (x) = 0.15233 0.12533
# Poissons Ratio (y) = 0.24796 0.04718
# Poissons Ratio (z) = 0.16516 0.03819
#
# Static dielectric constant tensor:
#      x y z
#    x 2.204000 -0.063850 0.023020 
#    y -0.063850 2.007750 -0.067980 
#    z 0.023020 -0.067980 2.230600 
# 
# From -- ./inp_files/140237.got.cif
#   From: 2010.05.17/outbox.cif.g08.bks.cpg/sg2_71_cif.got.tgz:140237.got - 2010.06.03 11:33:40.
