data_PCOD9036958
_publ_section_title
;
Structure prediction by ZEFSAII (Michael W. Deem and Ramdas Pophale) SiO2 
 PCOD9036958
Probable space group: P -1
;
_chemical_formula_sum "Si O2"
_cell_formula_units_Z 15
_cell_length_a 12.183775
_cell_length_b 22.680550
_cell_length_c 8.895936
_cell_angle_alpha 142.843644
_cell_angle_beta 133.877061
_cell_angle_gamma 23.320942
_cell_volume 580.015667
_symmetry_space_group_name_H-M "P -1"
_symmetry_group_IT_number 2
_symmetry_cell_setting 'triclinic'
loop_
_space_group_symop_operation_xyz
x,y,z
-x,-y,-z
loop_
_atom_site_type_symbol
_atom_site_label
_atom_site_fract_x
_atom_site_fract_y
_atom_site_fract_z
Si Si1 0.653750 0.828783 0.872976
Si Si2 0.838482 0.323461 0.976553
Si Si3 0.786012 0.256716 0.107321
Si Si4 0.614809 0.650517 0.719666
Si Si5 0.390214 0.152799 0.791050
Si Si6 0.038555 0.934005 0.570109
Si Si7 0.811371 0.397474 0.637320
Si Si8 0.000000 0.500000 0.500000
O O1 0.675555 0.715930 0.578636
O O2 0.533686 0.894113 0.057191
O O3 0.001951 0.658068 0.857540
O O4 0.500000 0.000000 0.000000
O O5 0.993618 0.165200 0.687995
O O6 0.500000 0.500000 0.000000
O O7 0.899669 0.251098 0.055497
O O8 0.895790 0.245271 0.344195
O O9 0.454384 0.456803 0.210234
O O10 0.854662 0.106302 0.846012
O O11 0.347204 0.773322 0.611339
O O12 0.719476 0.502572 0.612198
O O13 0.861868 0.555498 0.652130
O O14 0.536229 0.775037 0.022205
O O15 0.060213 0.319280 0.791732
O O16 0.500000 0.000000 0.500000
O O17 0.000000 0.000000 0.500000
#
# Coordination Sequence:
#
# PCOD9036958 Si02
#       8
#     2   2   2   2   2   2   2   1
#     4  11  26  44  72 104 136 188 233 288 357 407
#     4  11  22  42  69  98 132 178 231 285 348 412
#     4  10  23  40  68  92 139 170 229 283 334 409
#     4  11  24  43  66  97 135 184 224 284 350 406
#     4  11  26  43  67  99 140 177 232 282 342 426
#     4  10  23  39  66  97 129 170 227 284 333 402
#     4  11  23  43  66  97 134 187 222 279 352 414
#     4  10  24  42  70  94 140 176 230 286 340 414
#
# _framework density 25.861370999999998
#
# number of rings (size 3 to 8) (size 9 to 14) (size 15 to 20)
#    0.000    1.333    0.000    4.400   11.200    5.867 
#    0.000    0.000    0.000    0.000    0.000    0.000 
#    0.000    0.000    0.000    0.000    0.000    0.000 
#
# Total GULP energy -83613.506391 kJ/mol
# GULP energy per Si atom -5574.233759 kJ/mol
# Density = 2.580251 g / cm^3
# Si number density = 25.861371 Si / 1000 Ang^3
#
#
#
# Elastic Constant Matrix: (Units=GPa)
#
#
# Indices 1 2 3 4 5 6 
#
# 1 75.8130 1.7073 5.6185 7.2879 -22.7458 -7.4580
# 2 1.7073 77.1206 8.5600 -3.3280 -4.3038 3.8504
# 3 5.6185 8.5600 196.8127 19.4738 7.4293 8.4197
# 4 7.2879 -3.3280 19.4738 38.4506 -2.8774 15.1506
# 5 -22.7458 -4.3038 7.4293 -2.8774 30.6391 0.4227
# 6 -7.4580 3.8504 8.4197 15.1506 0.4227 33.1694
#
#
#
# Elastic Compliance Matrix: (Units=1/GPa)
#
#
# Indices 1 2 3 4 5 6 
#
# 1 0.018275 -0.000077 -0.000839 -0.004505 0.013250 0.006220
# 2 -0.000077 0.013449 -0.000837 0.002838 0.002339 -0.002692
# 3 -0.000839 -0.000837 0.005515 -0.002812 -0.002339 -0.000177
# 4 -0.004505 0.002838 -0.002812 0.035219 0.001275 -0.016732
# 5 0.013250 0.002339 -0.002339 0.001275 0.043460 0.002166
# 6 0.006220 -0.002692 -0.000177 -0.016732 0.002166 0.039519
#
#
# Mechanical properties :
#
#
# Convention : Reuss Voigt Hill
#
# Bulk Modulus (GPa) = 29.64392 42.39090 36.01741
# Shear Modulus (GPa) = 29.37952 42.70919 36.04436
#
# Velocity S-wave (km/s) = 3.37417 4.06823 3.73735
# Velocity P-wave (km/s) = 5.16407 6.20440 5.70798
#
# Compressibility (1/GPa) = 0.03373373
#
# Stress axis : x y z
#
# Youngs Moduli (GPa) = 54.72092 74.35684 181.30955
#
# Poissons Ratio (x) = 0.00572 0.15210
# Poissons Ratio (y) = 0.00421 0.15169
# Poissons Ratio (z) = 0.04590 0.06221
#
# Static dielectric constant tensor:
#      x y z
#    x 2.110510 0.016720 0.020840 
#    y 0.016720 2.095240 0.060560 
#    z 0.020840 0.060560 1.926780 
# 
# From -- ./inp_files/320748.got.cif
#   From: 2010.05.17/outbox.cif.g08.bks.cpg/sg2_161_cif.got.tgz:320748.got - 2010.06.03 11:33:40.
