data_PCOD9036231
_publ_section_title
;
Structure prediction by ZEFSAII (Michael W. Deem and Ramdas Pophale) SiO2 
 PCOD9036231
Probable space group: P -1
;
_chemical_formula_sum "Si O2"
_cell_formula_units_Z 14
_cell_length_a 8.782444
_cell_length_b 5.231612
_cell_length_c 17.871748
_cell_angle_alpha 69.928855
_cell_angle_beta 60.245205
_cell_angle_gamma 99.094007
_cell_volume 612.892209
_symmetry_space_group_name_H-M "P -1"
_symmetry_group_IT_number 2
_symmetry_cell_setting 'triclinic'
loop_
_space_group_symop_operation_xyz
x,y,z
-x,-y,-z
loop_
_atom_site_type_symbol
_atom_site_label
_atom_site_fract_x
_atom_site_fract_y
_atom_site_fract_z
Si Si1 0.861648 0.676903 0.212698
Si Si2 0.274349 0.042213 0.122188
Si Si3 0.415420 0.458664 0.914259
Si Si4 0.580802 0.280455 0.768755
Si Si5 0.762902 0.211875 0.152987
Si Si6 0.872262 0.662729 0.549602
Si Si7 0.498815 0.319835 0.444365
O O1 0.857550 0.434691 0.175954
O O2 0.679797 0.502683 0.328349
O O3 0.858971 0.976886 0.145917
O O4 0.053117 0.823174 0.201305
O O5 0.380912 0.340529 0.116367
O O6 0.384462 0.859310 0.149327
O O7 0.320474 0.161344 0.015036
O O8 0.454879 0.441799 0.818029
O O9 0.260365 0.610321 0.932216
O O10 0.778590 0.489361 0.665124
O O11 0.460929 0.032222 0.762677
O O12 0.691507 0.682146 0.548731
O O13 0.000000 0.500000 0.500000
O O14 0.000000 0.000000 0.500000
O O15 0.500000 0.500000 0.500000
O O16 0.500000 0.000000 0.500000
#
# Coordination Sequence:
#
# PCOD9036231 Si02
#       7
#     2   2   2   2   2   2   2
#     4  12  26  46  70 106 142 189 234 297 365 422
#     4  10  26  41  74 109 144 183 245 291 359 426
#     4  10  22  48  72 107 141 195 233 298 351 433
#     4  11  24  47  75  96 151 187 241 287 368 420
#     4  11  23  45  72  95 143 188 229 285 358 425
#     4  12  29  46  76 108 141 192 251 296 359 440
#     4  12  27  47  73 103 148 186 239 306 368 423
#
# _framework density 22.842514000000001
#
# number of rings (size 3 to 8) (size 9 to 14) (size 15 to 20)
#    0.000    0.857    2.857    2.143   12.000    1.143 
#    0.000    0.000    0.000    0.000    0.000    0.000 
#    0.000    0.000    0.000    0.000    0.000    0.000 
#
# Total GULP energy -78022.856458 kJ/mol
# GULP energy per Si atom -5573.061176 kJ/mol
# Density = 2.279052 g / cm^3
# Si number density = 22.842514 Si / 1000 Ang^3
#
#
#
# Elastic Constant Matrix: (Units=GPa)
#
#
# Indices 1 2 3 4 5 6 
#
# 1 109.1091 40.3488 20.6092 -6.9444 -14.7282 12.1021
# 2 40.3488 162.9699 54.4578 -4.5596 -6.5023 0.8806
# 3 20.6092 54.4578 94.7291 -9.1211 2.3961 0.5700
# 4 -6.9444 -4.5596 -9.1211 31.5043 0.9715 2.0073
# 5 -14.7282 -6.5023 2.3961 0.9715 30.7936 -11.2444
# 6 12.1021 0.8806 0.5700 2.0073 -11.2444 43.1864
#
#
#
# Elastic Compliance Matrix: (Units=1/GPa)
#
#
# Indices 1 2 3 4 5 6 
#
# 1 0.011065 -0.002150 -0.001088 0.001817 0.004115 -0.002056
# 2 -0.002150 0.008142 -0.004315 -0.000643 0.001368 0.000879
# 3 -0.001088 -0.004315 0.013660 0.003221 -0.002843 -0.000677
# 4 0.001817 -0.000643 0.003221 0.033184 -0.001463 -0.002462
# 5 0.004115 0.001368 -0.002843 -0.001463 0.038242 0.008881
# 6 -0.002056 0.000879 -0.000677 -0.002462 0.008881 0.026149
#
#
# Mechanical properties :
#
#
# Convention : Reuss Voigt Hill
#
# Bulk Modulus (GPa) = 56.30251 66.40440 61.35345
# Shear Modulus (GPa) = 33.01041 37.85634 35.43337
#
# Velocity S-wave (km/s) = 3.80561 4.07538 3.94280
# Velocity P-wave (km/s) = 6.63414 7.16091 6.90255
#
# Compressibility (1/GPa) = 0.01776120
#
# Stress axis : x y z
#
# Youngs Moduli (GPa) = 90.37718 122.81972 73.20740
#
# Poissons Ratio (x) = 0.26403 0.07966
# Poissons Ratio (y) = 0.19428 0.31588
# Poissons Ratio (z) = 0.09835 0.52994
#
# Static dielectric constant tensor:
#      x y z
#    x 1.688720 -0.168200 -0.047970 
#    y -0.168200 1.985650 0.041330 
#    z -0.047970 0.041330 1.881490 
# 
# From -- ./inp_files/552432.got.cif
#   From: 2010.05.17/outbox.cif.g08.bks.cpg/sg2_277_cif.got.tgz:552432.got - 2010.06.03 11:33:40.
