data_PCOD9036530
_publ_section_title
;
Structure prediction by ZEFSAII (Michael W. Deem and Ramdas Pophale) SiO2 
 PCOD9036530
Probable space group: P -1
;
_chemical_formula_sum "Si O2"
_cell_formula_units_Z 16
_cell_length_a 21.642099
_cell_length_b 10.196848
_cell_length_c 5.080989
_cell_angle_alpha 86.848748
_cell_angle_beta 67.662130
_cell_angle_gamma 60.882933
_cell_volume 894.274678
_symmetry_space_group_name_H-M "P -1"
_symmetry_group_IT_number 2
_symmetry_cell_setting 'triclinic'
loop_
_space_group_symop_operation_xyz
x,y,z
-x,-y,-z
loop_
_atom_site_type_symbol
_atom_site_label
_atom_site_fract_x
_atom_site_fract_y
_atom_site_fract_z
Si Si1 0.165410 0.240256 0.445472
Si Si2 0.557196 0.942436 0.663224
Si Si3 0.443642 0.406657 0.871768
Si Si4 0.667614 0.691420 0.172245
Si Si5 0.665656 0.973294 0.832431
Si Si6 0.551605 0.295246 0.210691
Si Si7 0.166196 0.423953 0.925294
Si Si8 0.999438 0.404624 0.762035
O O1 0.171328 0.354261 0.635129
O O2 0.083058 0.252163 0.633088
O O3 0.245015 0.082182 0.358175
O O4 0.163370 0.305531 0.150695
O O5 0.373764 0.378777 0.923067
O O6 0.617912 0.995427 0.639421
O O7 0.615472 0.768414 0.506880
O O8 0.500000 0.000000 0.000000
O O9 0.509192 0.317686 0.553591
O O10 0.420157 0.582353 0.866038
O O11 0.485955 0.344927 0.087071
O O12 0.755443 0.578434 0.128874
O O13 0.500000 0.000000 0.500000
O O14 0.665691 0.832104 0.999900
O O15 0.618916 0.126488 0.055868
O O16 0.084572 0.579621 0.083605
O O17 0.000000 0.500000 0.500000
O O18 0.000000 0.500000 0.000000
#
# Coordination Sequence:
#
# PCOD9036530 Si02
#       8
#     2   2   2   2   2   2   2   2
#     4   9  17  28  43  68  95 121 149 189 232 283
#     4  12  22  30  42  67  96 121 146 192 244 274
#     4  10  23  38  50  65  93 130 165 196 235 285
#     4  11  22  33  51  75  97 121 161 205 239 277
#     4  11  22  33  51  75  97 121 161 205 239 277
#     4  10  23  38  50  65  93 130 165 196 235 285
#     4   9  17  28  43  68  95 121 149 189 232 283
#     4   8  14  26  42  60  93 126 145 172 233 287
#
# _framework density 17.891593
#
# number of rings (size 3 to 8) (size 9 to 14) (size 15 to 20)
#    0.000    2.000    2.500    1.500    3.500    0.000 
#    0.000    0.000    0.000    0.000    0.000    0.875 
#    0.000    0.000    0.000   47.250    0.000    1.000 
#
# Total GULP energy -89167.845996 kJ/mol
# GULP energy per Si atom -5572.990375 kJ/mol
# Density = 1.785087 g / cm^3
# Si number density = 17.891593 Si / 1000 Ang^3
#
#
#
# Elastic Constant Matrix: (Units=GPa)
#
#
# Indices 1 2 3 4 5 6 
#
# 1 105.2351 54.3757 37.1925 23.9685 -15.7471 -14.7300
# 2 54.3757 63.8742 21.3653 16.8414 -14.7416 -6.1196
# 3 37.1925 21.3653 79.3847 3.1332 9.2084 -9.2664
# 4 23.9685 16.8414 3.1332 26.4055 -15.9041 -3.8099
# 5 -15.7471 -14.7416 9.2084 -15.9041 39.7637 8.2079
# 6 -14.7300 -6.1196 -9.2664 -3.8099 8.2079 29.5167
#
#
#
# Elastic Compliance Matrix: (Units=1/GPa)
#
#
# Indices 1 2 3 4 5 6 
#
# 1 0.021005 -0.013173 -0.005345 -0.009378 -0.000087 0.004887
# 2 -0.013173 0.029761 -0.002726 -0.003799 0.005612 -0.003310
# 3 -0.005345 -0.002726 0.017244 0.000453 -0.007852 0.004423
# 4 -0.009378 -0.003799 0.000453 0.059999 0.019384 -0.002971
# 5 -0.000087 0.005612 -0.007852 0.019384 0.038751 -0.009619
# 6 0.004887 -0.003310 0.004423 -0.002971 -0.009619 0.039312
#
#
# Mechanical properties :
#
#
# Convention : Reuss Voigt Hill
#
# Bulk Modulus (GPa) = 39.18029 52.70677 45.94353
# Shear Modulus (GPa) = 19.45026 28.17455 23.81241
#
# Velocity S-wave (km/s) = 3.30072 3.97260 3.65215
# Velocity P-wave (km/s) = 6.03926 7.11091 6.59688
#
# Compressibility (1/GPa) = 0.02552304
#
# Stress axis : x y z
#
# Youngs Moduli (GPa) = 47.60763 33.60112 57.99128
#
# Poissons Ratio (x) = 0.44262 0.30997
# Poissons Ratio (y) = 0.62713 0.15806
# Poissons Ratio (z) = 0.25447 0.09158
#
# Static dielectric constant tensor:
#      x y z
#    x 1.648500 -0.043540 -0.023950 
#    y -0.043540 1.646170 -0.016470 
#    z -0.023950 -0.016470 1.674870 
# 
# From -- ./inp_files/96286.got.cif
#   From: 2010.05.17/outbox.cif.g08.bks.cpg/sg2_49_cif.got.tgz:96286.got - 2010.06.03 11:33:40.
