data_PCOD9036776
_publ_section_title
;
Structure prediction by ZEFSAII (Michael W. Deem and Ramdas Pophale) SiO2 
 PCOD9036776
Probable space group: P -1
;
_chemical_formula_sum "Si O2"
_cell_formula_units_Z 16
_cell_length_a 12.769554
_cell_length_b 11.245597
_cell_length_c 8.619784
_cell_angle_alpha 119.140527
_cell_angle_beta 112.760457
_cell_angle_gamma 46.426480
_cell_volume 780.704186
_symmetry_space_group_name_H-M "P -1"
_symmetry_group_IT_number 2
_symmetry_cell_setting 'triclinic'
loop_
_space_group_symop_operation_xyz
x,y,z
-x,-y,-z
loop_
_atom_site_type_symbol
_atom_site_label
_atom_site_fract_x
_atom_site_fract_y
_atom_site_fract_z
Si Si1 0.826729 0.745185 0.361304
Si Si2 0.534726 0.622314 0.018737
Si Si3 0.385632 0.961244 0.947161
Si Si4 0.631217 0.394370 0.634931
Si Si5 0.830449 0.654840 0.970052
Si Si6 0.856141 0.383243 0.597263
Si Si7 0.582796 0.132183 0.446956
Si Si8 0.294468 0.377537 0.599085
O O1 0.830922 0.632757 0.428546
O O2 0.973167 0.718726 0.391091
O O3 0.696239 0.940878 0.454151
O O4 0.777875 0.704812 0.149281
O O5 0.629129 0.624399 0.205273
O O6 0.500000 0.500000 0.000000
O O7 0.425302 0.822411 0.015607
O O8 0.610787 0.519106 0.837354
O O9 0.389368 0.883664 0.732592
O O10 0.500000 0.000000 0.000000
O O11 0.234040 0.155160 0.012228
O O12 0.500000 0.500000 0.500000
O O13 0.788372 0.303930 0.592218
O O14 0.617558 0.255177 0.608256
O O15 0.795585 0.558527 0.772193
O O16 0.000000 0.500000 0.000000
O O17 0.778701 0.448301 0.428881
O O18 0.420684 0.219495 0.463536
#
# Coordination Sequence:
#
# PCOD9036776 Si02
#       8
#     2   2   2   2   2   2   2   2
#     4  10  23  39  61  95 120 158 208 262 311 358
#     4  12  23  38  61  98 130 161 206 263 317 367
#     4  11  21  37  63  95 120 160 212 261 303 367
#     4  12  21  41  63  89 120 163 209 251 307 374
#     4   9  20  40  62  90 119 160 208 255 308 361
#     4  11  22  40  64  88 123 167 203 253 311 376
#     4  11  22  38  62  90 121 161 206 254 308 368
#     4  12  22  38  61  90 129 161 201 257 313 368
#
# _framework density 20.494318
#
# number of rings (size 3 to 8) (size 9 to 14) (size 15 to 20)
#    0.000    1.000    3.750    4.500    0.000    1.500 
#    0.000    0.000    0.000    0.750    0.000    0.000 
#    0.000    0.000    0.000    0.000    0.000    0.000 
#
# Total GULP energy -89089.431592 kJ/mol
# GULP energy per Si atom -5568.089474 kJ/mol
# Density = 2.044767 g / cm^3
# Si number density = 20.494318 Si / 1000 Ang^3
#
#
#
# Elastic Constant Matrix: (Units=GPa)
#
#
# Indices 1 2 3 4 5 6 
#
# 1 107.5407 24.4445 -7.5993 -11.3263 -1.1550 0.9289
# 2 24.4445 85.3764 18.6633 -9.4391 7.9071 10.0895
# 3 -7.5993 18.6633 63.4320 -8.1341 6.2390 -10.1820
# 4 -11.3263 -9.4391 -8.1341 27.5592 8.0274 0.5851
# 5 -1.1550 7.9071 6.2390 8.0274 9.3648 -5.2134
# 6 0.9289 10.0895 -10.1820 0.5851 -5.2134 29.5071
#
#
#
# Elastic Compliance Matrix: (Units=1/GPa)
#
#
# Indices 1 2 3 4 5 6 
#
# 1 0.010741 -0.003443 0.003197 0.004327 -0.000637 0.001744
# 2 -0.003443 0.020337 -0.003065 0.015853 -0.037396 -0.014824
# 3 0.003197 -0.003065 0.021158 0.011835 -0.018630 0.004722
# 4 0.004327 0.015853 0.011835 0.075574 -0.096682 -0.020053
# 5 -0.000637 -0.037396 -0.018630 -0.096682 0.264167 0.054969
# 6 0.001744 -0.014824 0.004722 -0.020053 0.054969 0.050643
#
#
# Mechanical properties :
#
#
# Convention : Reuss Voigt Hill
#
# Bulk Modulus (GPa) = 21.92264 36.37399 29.14831
# Shear Modulus (GPa) = 10.76555 28.00894 19.38725
#
# Velocity S-wave (km/s) = 2.29442 3.70086 3.07902
# Velocity P-wave (km/s) = 4.21180 6.00405 5.18594
#
# Compressibility (1/GPa) = 0.04561495
#
# Stress axis : x y z
#
# Youngs Moduli (GPa) = 93.09936 49.17253 47.26416
#
# Poissons Ratio (x) = 0.16930 -0.15112
# Poissons Ratio (y) = 0.32054 0.14484
# Poissons Ratio (z) = -0.29767 0.15069
#
# Static dielectric constant tensor:
#      x y z
#    x 1.780320 0.008080 -0.005210 
#    y 0.008080 1.780110 0.001900 
#    z -0.005210 0.001900 1.765650 
# 
# From -- ./inp_files/260197.got.cif
#   From: 2010.05.17/outbox.cif.g08.bks.cpg/sg2_131_cif.got.tgz:260197.got - 2010.06.03 11:33:40.
