data_PCOD9036406
_publ_section_title
;
Structure prediction by ZEFSAII (Michael W. Deem and Ramdas Pophale) SiO2 
 PCOD9036406
Probable space group: P -1
;
_chemical_formula_sum "Si O2"
_cell_formula_units_Z 16
_cell_length_a 12.028697
_cell_length_b 10.454932
_cell_length_c 12.490934
_cell_angle_alpha 32.651495
_cell_angle_beta 52.273614
_cell_angle_gamma 50.825629
_cell_volume 644.877320
_symmetry_space_group_name_H-M "P -1"
_symmetry_group_IT_number 2
_symmetry_cell_setting 'triclinic'
loop_
_space_group_symop_operation_xyz
x,y,z
-x,-y,-z
loop_
_atom_site_type_symbol
_atom_site_label
_atom_site_fract_x
_atom_site_fract_y
_atom_site_fract_z
Si Si1 0.287418 0.989515 0.445818
Si Si2 0.046222 0.926131 0.765203
Si Si3 0.239113 0.397181 0.017701
Si Si4 0.377138 0.143330 0.586224
Si Si5 0.835280 0.831874 0.119326
Si Si6 0.653944 0.046425 0.887787
Si Si7 0.811472 0.291419 0.490990
Si Si8 0.514180 0.395925 0.184400
O O1 0.189669 0.013373 0.592923
O O2 0.464417 0.896607 0.415959
O O3 0.227174 0.811895 0.526255
O O4 0.239890 0.252650 0.229898
O O5 0.104702 0.633842 0.914729
O O6 0.933974 0.097744 0.625901
O O7 0.971608 0.922953 0.928717
O O8 0.249632 0.193574 0.064513
O O9 0.386384 0.486261 0.881332
O O10 0.232097 0.166720 0.724323
O O11 0.371814 0.372133 0.348997
O O12 0.407956 0.887131 0.687333
O O13 0.704371 0.016137 0.000538
O O14 0.848439 0.548921 0.277213
O O15 0.500000 0.000000 0.000000
O O16 0.670228 0.290790 0.647842
O O17 0.500000 0.500000 0.000000
#
# Coordination Sequence:
#
# PCOD9036406 Si02
#       8
#     2   2   2   2   2   2   2   2
#     4  11  21  38  65  96 128 166 221 261 311 388
#     4  11  23  40  62  94 136 176 215 253 316 390
#     4  11  22  40  68  95 129 175 214 268 313 381
#     4  11  25  43  67 100 124 163 223 274 319 383
#     4  11  24  41  62  95 141 172 203 264 330 380
#     4  10  23  37  61 101 137 168 210 260 329 387
#     4  10  23  36  58  95 135 179 210 251 312 393
#     4  11  24  44  71  94 122 167 222 274 325 371
#
# _framework density 24.810921
#
# number of rings (size 3 to 8) (size 9 to 14) (size 15 to 20)
#    0.000    1.250    2.500    3.375    1.750    9.000 
#    0.000    0.625    0.000    2.250    0.000    0.000 
#    0.000    0.000    0.000    0.000    0.000    0.000 
#
# Total GULP energy -89249.396531 kJ/mol
# GULP energy per Si atom -5578.087283 kJ/mol
# Density = 2.475445 g / cm^3
# Si number density = 24.810921 Si / 1000 Ang^3
#
#
#
# Elastic Constant Matrix: (Units=GPa)
#
#
# Indices 1 2 3 4 5 6 
#
# 1 61.8555 6.1069 26.7831 1.4745 6.8477 -3.5423
# 2 6.1069 51.6882 30.4873 22.0732 -1.1613 -4.4541
# 3 26.7831 30.4873 174.3017 26.1611 11.1960 -6.3860
# 4 1.4745 22.0732 26.1611 48.2625 5.6409 -0.8717
# 5 6.8477 -1.1613 11.1960 5.6409 35.7670 -1.7996
# 6 -3.5423 -4.4541 -6.3860 -0.8717 -1.7996 32.1324
#
#
#
# Elastic Compliance Matrix: (Units=1/GPa)
#
#
# Indices 1 2 3 4 5 6 
#
# 1 0.017737 -0.001333 -0.002536 0.001799 -0.002871 0.001155
# 2 -0.001333 0.026128 -0.002897 -0.010737 0.003846 0.002823
# 3 -0.002536 -0.002897 0.007087 -0.002260 -0.001441 0.000585
# 4 0.001799 -0.010737 -0.002260 0.027287 -0.004352 -0.001243
# 5 -0.002871 0.003846 -0.001441 -0.004352 0.029845 0.001484
# 6 0.001155 0.002823 0.000585 -0.001243 0.001484 0.031806
#
#
# Mechanical properties :
#
#
# Convention : Reuss Voigt Hill
#
# Bulk Modulus (GPa) = 26.72363 46.06668 36.39515
# Shear Modulus (GPa) = 30.13944 38.19692 34.16818
#
# Velocity S-wave (km/s) = 3.48913 3.92793 3.71501
# Velocity P-wave (km/s) = 5.19868 6.25931 5.75349
#
# Compressibility (1/GPa) = 0.03742007
#
# Stress axis : x y z
#
# Youngs Moduli (GPa) = 56.37840 38.27283 141.10836
#
# Poissons Ratio (x) = 0.05103 0.35779
# Poissons Ratio (y) = 0.07517 0.40883
# Poissons Ratio (z) = 0.14295 0.11089
#
# Static dielectric constant tensor:
#      x y z
#    x 2.073510 -0.030030 0.016330 
#    y -0.030030 2.070730 0.108110 
#    z 0.016330 0.108110 2.083800 
# 
# From -- ./inp_files/531474.got.cif
#   From: 2010.05.17/outbox.cif.g08.bks.cpg/sg2_266_cif.got.tgz:531474.got - 2010.06.03 11:33:40.
