data_PCOD9036724
_publ_section_title
;
Structure prediction by ZEFSAII (Michael W. Deem and Ramdas Pophale) SiO2 
 PCOD9036724
Probable space group: P -1
;
_chemical_formula_sum "Si O2"
_cell_formula_units_Z 16
_cell_length_a 11.185288
_cell_length_b 10.323114
_cell_length_c 9.994966
_cell_angle_alpha 122.307348
_cell_angle_beta 115.210670
_cell_angle_gamma 39.253339
_cell_volume 617.044966
_symmetry_space_group_name_H-M "P -1"
_symmetry_group_IT_number 2
_symmetry_cell_setting 'triclinic'
loop_
_space_group_symop_operation_xyz
x,y,z
-x,-y,-z
loop_
_atom_site_type_symbol
_atom_site_label
_atom_site_fract_x
_atom_site_fract_y
_atom_site_fract_z
Si Si1 0.263517 0.476531 0.814098
Si Si2 0.940702 0.581109 0.214936
Si Si3 0.324025 0.259190 0.063678
Si Si4 0.806606 0.241159 0.307479
Si Si5 0.568315 0.670769 0.599722
Si Si6 0.935886 0.905883 0.002054
Si Si7 0.351362 0.037823 0.294552
Si Si8 0.188543 0.041047 0.485602
O O1 0.106331 0.476926 0.706866
O O2 0.264889 0.601135 0.767773
O O3 0.463388 0.225791 0.775207
O O4 0.143354 0.655734 0.978718
O O5 0.926038 0.766171 0.353552
O O6 0.131131 0.384645 0.122391
O O7 0.761902 0.690235 0.096741
O O8 0.402997 0.337106 0.230784
O O9 0.500000 0.000000 0.000000
O O10 0.691703 0.427635 0.469081
O O11 0.815540 0.058750 0.157904
O O12 0.028696 0.076988 0.356190
O O13 0.619983 0.804201 0.642321
O O14 0.357918 0.822706 0.526708
O O15 0.796378 0.922914 0.852678
O O16 0.000000 0.000000 0.000000
O O17 0.282748 0.068404 0.430438
#
# Coordination Sequence:
#
# PCOD9036724 Si02
#       8
#     2   2   2   2   2   2   2   2
#     4  11  21  38  59  86 122 155 198 238 288 350
#     4  11  23  36  58  90 117 154 194 247 300 350
#     4  11  22  38  57  84 123 151 195 246 305 347
#     4  11  24  38  58  88 129 159 192 236 299 354
#     4  12  23  37  61  92 119 154 195 254 293 345
#     4  10  23  39  53  84 125 169 196 229 285 361
#     4  12  22  35  63  91 122 158 200 234 296 355
#     4  12  21  35  57  92 124 151 193 235 303 351
#
# _framework density 25.930040000000002
#
# number of rings (size 3 to 8) (size 9 to 14) (size 15 to 20)
#    0.000    0.750    7.500    1.875    0.000    4.000 
#    0.000    0.000    0.000    0.750    0.000    5.250 
#    0.000    0.000    0.000    0.000    0.000    0.000 
#
# Total GULP energy -89178.540488 kJ/mol
# GULP energy per Si atom -5573.658780 kJ/mol
# Density = 2.587102 g / cm^3
# Si number density = 25.930040 Si / 1000 Ang^3
#
#
#
# Elastic Constant Matrix: (Units=GPa)
#
#
# Indices 1 2 3 4 5 6 
#
# 1 44.5422 27.2662 11.2081 11.2590 0.8267 -4.0833
# 2 27.2662 141.3512 65.2521 17.3997 11.5556 -21.4662
# 3 11.2081 65.2521 171.6928 32.4021 -7.9976 -4.2841
# 4 11.2590 17.3997 32.4021 49.3576 -7.2639 -12.3282
# 5 0.8267 11.5556 -7.9976 -7.2639 25.1006 10.1986
# 6 -4.0833 -21.4662 -4.2841 -12.3282 10.1986 23.8307
#
#
#
# Elastic Compliance Matrix: (Units=1/GPa)
#
#
# Indices 1 2 3 4 5 6 
#
# 1 0.026811 -0.006245 0.001742 -0.005882 0.002872 -0.004990
# 2 -0.006245 0.014979 -0.006032 0.002643 -0.015748 0.019445
# 3 0.001742 -0.006032 0.009183 -0.005566 0.008014 -0.009793
# 4 -0.005882 0.002643 -0.005566 0.027999 -0.000884 0.015236
# 5 0.002872 -0.015748 0.008014 -0.000884 0.065919 -0.040921
# 6 -0.004990 0.019445 -0.009793 0.015236 -0.040921 0.082258
#
#
# Mechanical properties :
#
#
# Convention : Reuss Voigt Hill
#
# Bulk Modulus (GPa) = 33.44130 62.78212 48.11171
# Shear Modulus (GPa) = 19.36593 36.58176 27.97385
#
# Velocity S-wave (km/s) = 2.73583 3.76012 3.28810
# Velocity P-wave (km/s) = 4.78585 6.56628 5.74545
#
# Compressibility (1/GPa) = 0.02990314
#
# Stress axis : x y z
#
# Youngs Moduli (GPa) = 37.29834 66.76035 108.90243
#
# Poissons Ratio (x) = 0.41689 -0.18975
# Poissons Ratio (y) = 0.23291 0.65694
# Poissons Ratio (z) = -0.06499 0.40272
#
# Static dielectric constant tensor:
#      x y z
#    x 2.246400 0.090870 -0.024480 
#    y 0.090870 2.103860 0.011660 
#    z -0.024480 0.011660 2.088140 
# 
# From -- ./inp_files/455962.got.cif
#   From: 2010.05.17/outbox.cif.g08.bks.cpg/sg2_228_cif.got.tgz:455962.got - 2010.06.03 11:33:40.
