data_PCOD9036984
_publ_section_title
;
Structure prediction by ZEFSAII (Michael W. Deem and Ramdas Pophale) SiO2 
 PCOD9036984
Probable space group: P -1
;
_chemical_formula_sum "Si O2"
_cell_formula_units_Z 16
_cell_length_a 14.006445
_cell_length_b 12.828211
_cell_length_c 10.899139
_cell_angle_alpha 122.496593
_cell_angle_beta 31.837022
_cell_angle_gamma 132.714508
_cell_volume 755.150539
_symmetry_space_group_name_H-M "P -1"
_symmetry_group_IT_number 2
_symmetry_cell_setting 'triclinic'
loop_
_space_group_symop_operation_xyz
x,y,z
-x,-y,-z
loop_
_atom_site_type_symbol
_atom_site_label
_atom_site_fract_x
_atom_site_fract_y
_atom_site_fract_z
Si Si1 0.839110 0.342644 0.115456
Si Si2 0.507078 0.069751 0.207607
Si Si3 0.053819 0.252158 0.020010
Si Si4 0.671929 0.968081 0.346864
Si Si5 0.251183 0.073489 0.256570
Si Si6 0.379599 0.366448 0.173295
Si Si7 0.834917 0.551403 0.736847
Si Si8 0.520220 0.665046 0.340052
O O1 0.695785 0.233744 0.099365
O O2 0.680282 0.350992 0.387086
O O3 0.948222 0.273626 0.030573
O O4 0.000000 0.500000 0.000000
O O5 0.382748 0.043359 0.455204
O O6 0.347587 0.050970 0.262537
O O7 0.632030 0.981907 0.001482
O O8 0.096530 0.362627 0.155022
O O9 0.286857 0.293787 0.753939
O O10 0.898827 0.095396 0.142957
O O11 0.621346 0.814665 0.250877
O O12 0.500000 0.000000 0.500000
O O13 0.316230 0.233811 0.246620
O O14 0.000000 0.000000 0.500000
O O15 0.202416 0.350641 0.259886
O O16 0.447124 0.515546 0.262272
O O17 0.605112 0.409962 0.896849
O O18 0.000000 0.500000 0.500000
#
# Coordination Sequence:
#
# PCOD9036984 Si02
#       8
#     2   2   2   2   2   2   2   2
#     4  11  25  44  69  96 134 177 220 274 338 399
#     4  10  26  46  67 100 132 178 229 279 333 405
#     4  11  23  41  67 100 129 176 215 275 341 397
#     4  11  22  44  69  98 136 171 220 279 341 400
#     4  11  27  47  68  96 134 182 231 276 336 396
#     4  10  24  43  64  98 130 168 222 273 323 404
#     4  10  23  39  67  96 130 171 211 268 337 387
#     4  10  23  43  64  98 131 168 221 274 330 400
#
# _framework density 21.187828
#
# number of rings (size 3 to 8) (size 9 to 14) (size 15 to 20)
#    0.000    1.500    2.500    1.125    8.750    5.500 
#    0.000    0.000    0.000    0.000    0.000    0.000 
#    0.000    0.000    0.000    0.000    0.000    0.000 
#
# Total GULP energy -89177.433710 kJ/mol
# GULP energy per Si atom -5573.589607 kJ/mol
# Density = 2.113960 g / cm^3
# Si number density = 21.187828 Si / 1000 Ang^3
#
#
#
# Elastic Constant Matrix: (Units=GPa)
#
#
# Indices 1 2 3 4 5 6 
#
# 1 99.8257 92.2792 217.3133 7.5221 -20.6772 23.2302
# 2 92.2792 331.5376 570.1560 7.8723 5.0095 78.6290
# 3 217.3133 570.1560 1476.7160 51.8706 -15.4157 206.7187
# 4 7.5221 7.8723 51.8706 40.3697 -4.7062 7.0793
# 5 -20.6772 5.0095 -15.4157 -4.7062 37.1020 2.2265
# 6 23.2302 78.6290 206.7187 7.0793 2.2265 61.5580
#
#
#
# Elastic Compliance Matrix: (Units=1/GPa)
#
#
# Indices 1 2 3 4 5 6 
#
# 1 0.017794 -0.002179 -0.002058 0.000376 0.009247 0.002602
# 2 -0.002179 0.009805 -0.003653 0.002683 -0.003739 0.000393
# 3 -0.002058 -0.003653 0.003166 -0.002016 0.000705 -0.004984
# 4 0.000376 0.002683 -0.002016 0.027053 0.002441 0.000003
# 5 0.009247 -0.003739 0.000705 0.002441 0.033368 -0.002569
# 6 0.002602 0.000393 -0.004984 0.000003 -0.002569 0.031589
#
#
# Mechanical properties :
#
#
# Convention : Reuss Voigt Hill
#
# Bulk Modulus (GPa) = 66.73686 407.50846 237.12266
# Shear Modulus (GPa) = 34.83090 96.36132 65.59611
#
# Velocity S-wave (km/s) = 4.05892 6.75117 5.57015
# Velocity P-wave (km/s) = 7.31659 15.92231 12.39057
#
# Compressibility (1/GPa) = 0.01498422
#
# Stress axis : x y z
#
# Youngs Moduli (GPa) = 56.19973 101.98653 315.80699
#
# Poissons Ratio (x) = 0.22222 0.64999
# Poissons Ratio (y) = 0.12246 1.15379
# Poissons Ratio (z) = 0.11567 0.37260
#
# Static dielectric constant tensor:
#      x y z
#    x 1.956090 -0.077260 0.051540 
#    y -0.077260 1.811860 0.021910 
#    z 0.051540 0.021910 1.814830 
# 
# From -- ./inp_files/451591.got.cif
#   From: 2010.05.17/outbox.cif.g08.bks.cpg/sg2_226_cif.got.tgz:451591.got - 2010.06.03 11:33:40.
