data_PCOD9036477
_publ_section_title
;
Structure prediction by ZEFSAII (Michael W. Deem and Ramdas Pophale) SiO2 
 PCOD9036477
Probable space group: P -1
;
_chemical_formula_sum "Si O2"
_cell_formula_units_Z 16
_cell_length_a 8.532472
_cell_length_b 23.337884
_cell_length_c 10.774358
_cell_angle_alpha 23.052240
_cell_angle_beta 54.502354
_cell_angle_gamma 50.539590
_cell_volume 648.560115
_symmetry_space_group_name_H-M "P -1"
_symmetry_group_IT_number 2
_symmetry_cell_setting 'triclinic'
loop_
_space_group_symop_operation_xyz
x,y,z
-x,-y,-z
loop_
_atom_site_type_symbol
_atom_site_label
_atom_site_fract_x
_atom_site_fract_y
_atom_site_fract_z
Si Si1 0.788249 0.200104 0.731419
Si Si2 0.471736 0.030306 0.274506
Si Si3 0.721815 0.384043 0.636481
Si Si4 0.314872 0.982399 0.201478
Si Si5 0.184909 0.256638 0.406847
Si Si6 0.031305 0.507955 0.176859
Si Si7 0.117886 0.947326 0.682013
Si Si8 0.664885 0.333549 0.249937
O O1 0.767652 0.336445 0.566398
O O2 0.697264 0.258330 0.522499
O O3 0.033250 0.151360 0.697328
O O4 0.637982 0.118058 0.028102
O O5 0.333563 0.083713 0.108834
O O6 0.608583 0.858411 0.513520
O O7 0.295036 0.027942 0.458437
O O8 0.500000 0.500000 0.500000
O O9 0.889958 0.463666 0.429198
O O10 0.760221 0.233495 0.002384
O O11 0.362532 0.798525 0.561210
O O12 0.074798 0.028498 0.184329
O O13 0.500000 0.000000 0.000000
O O14 0.175737 0.352946 0.347916
O O15 0.095653 0.385182 0.087719
O O16 0.140152 0.618545 0.969272
O O17 0.000000 0.000000 0.500000
O O18 0.500000 0.500000 0.000000
#
# Coordination Sequence:
#
# PCOD9036477 Si02
#       8
#     2   2   2   2   2   2   2   2
#     4  10  23  37  61  99 126 167 233 271 327 399
#     4  11  21  40  65  88 135 172 217 276 333 390
#     4  11  24  42  67  92 134 183 221 273 340 406
#     4  11  24  41  67  93 130 177 225 273 339 394
#     4   9  18  35  60  91 123 167 210 274 329 386
#     4   9  20  35  57  91 127 157 222 271 323 386
#     4  10  26  43  64  97 133 177 228 270 342 404
#     4  11  23  38  64 100 128 170 228 282 332 394
#
# _framework density 24.670034000000001
#
# number of rings (size 3 to 8) (size 9 to 14) (size 15 to 20)
#    0.000    1.750    1.250    2.625    5.250    5.500 
#    0.000    0.000    0.000    6.000    0.000    0.000 
#    0.000    0.000    0.000    0.000    0.000    0.000 
#
# Total GULP energy -89144.826329 kJ/mol
# GULP energy per Si atom -5571.551646 kJ/mol
# Density = 2.461388 g / cm^3
# Si number density = 24.670034 Si / 1000 Ang^3
#
#
#
# Elastic Constant Matrix: (Units=GPa)
#
#
# Indices 1 2 3 4 5 6 
#
# 1 71.3010 31.4571 49.9648 7.8425 -27.0628 -20.6074
# 2 31.4571 73.0251 23.5612 15.1599 -7.8058 -42.1030
# 3 49.9648 23.5612 137.7085 20.1386 -38.7945 -20.2613
# 4 7.8425 15.1599 20.1386 41.0566 -10.3362 -4.8218
# 5 -27.0628 -7.8058 -38.7945 -10.3362 60.2578 10.4419
# 6 -20.6074 -42.1030 -20.2613 -4.8218 10.4419 48.4153
#
#
#
# Elastic Compliance Matrix: (Units=1/GPa)
#
#
# Indices 1 2 3 4 5 6 
#
# 1 0.023974 -0.009134 -0.005961 0.003204 0.006525 -0.001321
# 2 -0.009134 0.033692 0.001378 -0.009568 -0.005018 0.026118
# 3 -0.005961 0.001378 0.011056 -0.003629 0.003625 0.002145
# 4 0.003204 -0.009568 -0.003629 0.029311 0.004004 -0.006419
# 5 0.006525 -0.005018 0.003625 0.004004 0.022688 -0.004563
# 6 -0.001321 0.026118 0.002145 -0.006419 -0.004563 0.044047
#
#
# Mechanical properties :
#
#
# Convention : Reuss Voigt Hill
#
# Bulk Modulus (GPa) = 24.21924 54.66677 39.44300
# Shear Modulus (GPa) = 24.27608 41.74937 33.01272
#
# Velocity S-wave (km/s) = 3.14033 4.11823 3.66207
# Velocity P-wave (km/s) = 4.79453 6.69480 5.82271
#
# Compressibility (1/GPa) = 0.04128949
#
# Stress axis : x y z
#
# Youngs Moduli (GPa) = 41.71196 29.68063 90.44677
#
# Poissons Ratio (x) = 0.27109 0.53911
# Poissons Ratio (y) = 0.38098 -0.12462
# Poissons Ratio (z) = 0.24863 -0.04089
#
# Static dielectric constant tensor:
#      x y z
#    x 2.107230 -0.040520 0.038480 
#    y -0.040520 2.041680 0.071700 
#    z 0.038480 0.071700 2.075260 
# 
# From -- ./inp_files/407299.got.cif
#   From: 2010.05.17/outbox.cif.g08.bks.cpg/sg2_204_cif.got.tgz:407299.got - 2010.06.03 11:33:40.
