data_PCOD9036422
_publ_section_title
;
Structure prediction by ZEFSAII (Michael W. Deem and Ramdas Pophale) SiO2 
 PCOD9036422
Probable space group: P -1
;
_chemical_formula_sum "Si O2"
_cell_formula_units_Z 16
_cell_length_a 8.685048
_cell_length_b 20.953116
_cell_length_c 14.267410
_cell_angle_alpha 19.645981
_cell_angle_beta 95.754280
_cell_angle_gamma 85.640675
_cell_volume 747.331377
_symmetry_space_group_name_H-M "P -1"
_symmetry_group_IT_number 2
_symmetry_cell_setting 'triclinic'
loop_
_space_group_symop_operation_xyz
x,y,z
-x,-y,-z
loop_
_atom_site_type_symbol
_atom_site_label
_atom_site_fract_x
_atom_site_fract_y
_atom_site_fract_z
Si Si1 0.540547 0.049468 0.036604
Si Si2 0.345334 0.385089 0.242612
Si Si3 0.732553 0.701863 0.169535
Si Si4 0.291554 0.585370 0.762491
Si Si5 0.532625 0.787914 0.852365
Si Si6 0.182745 0.817549 0.719743
Si Si7 0.297066 0.685842 0.260710
Si Si8 0.930490 0.963949 0.785931
O O1 0.623105 0.839490 0.401328
O O2 0.500000 0.000000 0.000000
O O3 0.356215 0.222197 0.838921
O O4 0.668227 0.152811 0.897242
O O5 0.529642 0.393061 0.252430
O O6 0.292284 0.445763 0.046793
O O7 0.200845 0.583806 0.023740
O O8 0.787314 0.448369 0.511967
O O9 0.583318 0.812474 0.926194
O O10 0.869119 0.787927 0.046234
O O11 0.131829 0.838353 0.415407
O O12 0.315640 0.436391 0.879588
O O13 0.350091 0.782816 0.838649
O O14 0.500000 0.000000 0.500000
O O15 0.181293 0.909064 0.489059
O O16 0.000000 0.000000 0.500000
O O17 0.500000 0.500000 0.500000
O O18 0.146574 0.834962 0.968445
#
# Coordination Sequence:
#
# PCOD9036422 Si02
#       8
#     2   2   2   2   2   2   2   2
#     4  11  24  42  65  94 132 182 219 267 340 396
#     4   9  18  39  65  91 129 169 217 261 332 389
#     4  11  23  42  69  95 130 177 229 273 323 401
#     4   9  19  37  69  95 124 170 214 277 323 388
#     4  11  21  39  67 103 133 166 219 270 340 388
#     4  10  23  36  64 102 136 172 207 275 333 402
#     4  10  26  43  63  93 131 178 219 279 332 387
#     4  11  21  45  66  98 130 175 230 274 327 397
#
# _framework density 21.409509
#
# number of rings (size 3 to 8) (size 9 to 14) (size 15 to 20)
#    0.000    1.750    2.500    1.875    7.000    1.000 
#    2.250    6.250    0.000    0.000    0.000    0.000 
#    0.000    0.000    0.000    0.000    0.000    0.000 
#
# Total GULP energy -89230.497086 kJ/mol
# GULP energy per Si atom -5576.906068 kJ/mol
# Density = 2.136078 g / cm^3
# Si number density = 21.409509 Si / 1000 Ang^3
#
#
#
# Elastic Constant Matrix: (Units=GPa)
#
#
# Indices 1 2 3 4 5 6 
#
# 1 57.1743 41.8207 41.7106 -14.1285 6.0819 13.5218
# 2 41.8207 114.9997 21.9173 -10.4598 -0.7008 11.9567
# 3 41.7106 21.9173 100.4688 -12.4084 -19.3490 8.6546
# 4 -14.1285 -10.4598 -12.4084 30.4135 4.5825 6.8042
# 5 6.0819 -0.7008 -19.3490 4.5825 45.8645 -1.1876
# 6 13.5218 11.9567 8.6546 6.8042 -1.1876 24.1282
#
#
#
# Elastic Compliance Matrix: (Units=1/GPa)
#
#
# Indices 1 2 3 4 5 6 
#
# 1 0.050248 -0.010841 -0.017215 0.020291 -0.016718 -0.023158
# 2 -0.010841 0.012266 0.002380 -0.000084 0.002619 -0.000704
# 3 -0.017215 0.002380 0.018029 -0.002051 0.010210 0.003083
# 4 0.020291 -0.000084 -0.002051 0.048318 -0.009024 -0.024664
# 5 -0.016718 0.002619 0.010210 -0.009024 0.029487 0.008405
# 6 -0.023158 -0.000704 0.003083 -0.024664 0.008405 0.061035
#
#
# Mechanical properties :
#
#
# Convention : Reuss Voigt Hill
#
# Bulk Modulus (GPa) = 34.25807 53.72665 43.99236
# Shear Modulus (GPa) = 17.82750 31.22751 24.52751
#
# Velocity S-wave (km/s) = 2.88877 3.82328 3.38840
# Velocity P-wave (km/s) = 5.21179 6.68126 5.99174
#
# Compressibility (1/GPa) = 0.02919020
#
# Stress axis : x y z
#
# Youngs Moduli (GPa) = 19.90122 81.52555 55.46749
#
# Poissons Ratio (x) = 0.88381 0.95487
# Poissons Ratio (y) = 0.21575 -0.13199
# Poissons Ratio (z) = 0.34260 -0.19399
#
# Static dielectric constant tensor:
#      x y z
#    x 1.777490 -0.018160 0.016610 
#    y -0.018160 1.799930 -0.018710 
#    z 0.016610 -0.018710 1.856780 
# 
# From -- ./inp_files/508078.got.cif
#   From: 2010.05.17/outbox.cif.g08.bks.cpg/sg2_255_cif.got.tgz:508078.got - 2010.06.03 11:33:40.
