data_PCOD9036444
_publ_section_title
;
Structure prediction by ZEFSAII (Michael W. Deem and Ramdas Pophale) SiO2 
 PCOD9036444
Probable space group: P -1
;
_chemical_formula_sum "Si O2"
_cell_formula_units_Z 14
_cell_length_a 4.913542
_cell_length_b 16.866882
_cell_length_c 10.047601
_cell_angle_alpha 128.217555
_cell_angle_beta 88.420243
_cell_angle_gamma 94.822740
_cell_volume 651.596106
_symmetry_space_group_name_H-M "P -1"
_symmetry_group_IT_number 2
_symmetry_cell_setting 'triclinic'
loop_
_space_group_symop_operation_xyz
x,y,z
-x,-y,-z
loop_
_atom_site_type_symbol
_atom_site_label
_atom_site_fract_x
_atom_site_fract_y
_atom_site_fract_z
Si Si1 0.188499 0.017722 0.388685
Si Si2 0.700104 0.552196 0.901489
Si Si3 0.509227 0.833546 0.283282
Si Si4 0.165317 0.260580 0.061373
Si Si5 0.391868 0.837944 0.907736
Si Si6 0.796699 0.374553 0.868904
Si Si7 0.197008 0.970091 0.847532
O O1 0.634155 0.879760 0.466706
O O2 0.000000 0.000000 0.500000
O O3 0.626517 0.076132 0.696164
O O4 0.990321 0.027600 0.277079
O O5 0.733663 0.433318 0.795031
O O6 0.813129 0.619943 0.846833
O O7 0.393410 0.575781 0.965286
O O8 0.890997 0.600313 0.069189
O O9 0.719302 0.790876 0.128451
O O10 0.291633 0.742811 0.235214
O O11 0.871697 0.207975 0.053291
O O12 0.376193 0.237468 0.150407
O O13 0.302609 0.864950 0.787587
O O14 0.546212 0.945288 0.067075
O O15 0.000000 0.000000 0.000000
#
# Coordination Sequence:
#
# PCOD9036444 Si02
#       7
#     2   2   2   2   2   2   2
#     4  11  25  41  57  88 117 160 203 236 289 359
#     4   9  18  30  53  84 114 145 195 229 300 346
#     4  10  23  37  58  82 126 156 197 235 299 351
#     4  11  20  36  59  86 117 155 187 250 292 353
#     4  11  23  35  59  82 114 149 200 238 298 328
#     4   9  18  32  52  80 115 155 182 240 288 357
#     4  11  23  41  59  80 116 157 203 247 286 343
#
# _framework density 21.485702
#
# number of rings (size 3 to 8) (size 9 to 14) (size 15 to 20)
#    0.000    1.714    1.429    3.429    8.000    3.429 
#    0.000    0.000    0.000    0.000    0.000    2.000 
#    0.000    0.143    0.000    0.000    0.000    0.000 
#
# Total GULP energy -78123.202388 kJ/mol
# GULP energy per Si atom -5580.228742 kJ/mol
# Density = 2.143680 g / cm^3
# Si number density = 21.485702 Si / 1000 Ang^3
#
#
#
# Elastic Constant Matrix: (Units=GPa)
#
#
# Indices 1 2 3 4 5 6 
#
# 1 117.5930 25.0668 15.5194 -11.5210 12.3280 14.6724
# 2 25.0668 129.7315 24.7117 -24.3357 15.3567 3.8489
# 3 15.5194 24.7117 40.9226 -17.0692 16.1545 -1.5591
# 4 -11.5210 -24.3357 -17.0692 29.5714 -4.9474 13.8541
# 5 12.3280 15.3567 16.1545 -4.9474 26.8787 -2.8386
# 6 14.6724 3.8489 -1.5591 13.8541 -2.8386 51.8469
#
#
#
# Elastic Compliance Matrix: (Units=1/GPa)
#
#
# Indices 1 2 3 4 5 6 
#
# 1 0.010030 -0.000414 -0.000196 0.004838 -0.003811 -0.004315
# 2 -0.000414 0.010094 -0.001124 0.008328 -0.003695 -0.003094
# 3 -0.000196 -0.001124 0.043068 0.023017 -0.021539 -0.005896
# 4 0.004838 0.008328 0.023017 0.062705 -0.011240 -0.018666
# 5 -0.003811 -0.003695 -0.021539 -0.011240 0.052636 0.006591
# 6 -0.004315 -0.003094 -0.005896 -0.018666 0.006591 0.025910
#
#
# Mechanical properties :
#
#
# Convention : Reuss Voigt Hill
#
# Bulk Modulus (GPa) = 16.74348 46.53810 31.64079
# Shear Modulus (GPa) = 21.94747 36.52269 29.23508
#
# Velocity S-wave (km/s) = 3.19955 4.12741 3.69274
# Velocity P-wave (km/s) = 4.63241 6.66491 5.73935
#
# Compressibility (1/GPa) = 0.05972474
#
# Stress axis : x y z
#
# Youngs Moduli (GPa) = 99.70161 99.07232 23.21924
#
# Poissons Ratio (x) = 0.04102 0.00454
# Poissons Ratio (y) = 0.04128 0.02609
# Poissons Ratio (z) = 0.01950 0.11133
#
# Static dielectric constant tensor:
#      x y z
#    x 2.064800 0.058550 0.033860 
#    y 0.058550 1.915930 0.055800 
#    z 0.033860 0.055800 1.881510 
# 
# From -- ./inp_files/368428.got.cif
#   From: 2010.05.17/outbox.cif.g08.bks.cpg/sg2_185_cif.got.tgz:368428.got - 2010.06.03 11:33:40.
