data_PCOD9036698
_publ_section_title
;
Structure prediction by ZEFSAII (Michael W. Deem and Ramdas Pophale) SiO2 
 PCOD9036698
Probable space group: P -1
;
_chemical_formula_sum "Si O2"
_cell_formula_units_Z 16
_cell_length_a 8.574277
_cell_length_b 16.859688
_cell_length_c 5.620431
_cell_angle_alpha 106.117376
_cell_angle_beta 118.723406
_cell_angle_gamma 65.706350
_cell_volume 646.165295
_symmetry_space_group_name_H-M "P -1"
_symmetry_group_IT_number 2
_symmetry_cell_setting 'triclinic'
loop_
_space_group_symop_operation_xyz
x,y,z
-x,-y,-z
loop_
_atom_site_type_symbol
_atom_site_label
_atom_site_fract_x
_atom_site_fract_y
_atom_site_fract_z
Si Si1 0.874825 0.064582 0.774953
Si Si2 0.341976 0.496002 0.071698
Si Si3 0.349266 0.635081 0.597175
Si Si4 0.545915 0.845721 0.936634
Si Si5 0.035603 0.630003 0.738631
Si Si6 0.239076 0.741666 0.211276
Si Si7 0.247715 0.013453 0.756259
Si Si8 0.618894 0.736364 0.393901
O O1 0.795743 0.165458 0.854934
O O2 0.730149 0.020376 0.527453
O O3 0.028767 0.063421 0.684182
O O4 0.000000 0.000000 0.000000
O O5 0.342874 0.568047 0.328442
O O6 0.434973 0.402330 0.186767
O O7 0.500000 0.500000 0.000000
O O8 0.130202 0.533627 0.844372
O O9 0.188260 0.630289 0.651839
O O10 0.276823 0.731509 0.512980
O O11 0.606211 0.788693 0.176988
O O12 0.658931 0.914577 0.058017
O O13 0.337030 0.919342 0.873756
O O14 0.580040 0.794074 0.662856
O O15 0.823616 0.663911 0.521380
O O16 0.073156 0.703138 0.000917
O O17 0.452003 0.693696 0.233155
#
# Coordination Sequence:
#
# PCOD9036698 Si02
#       8
#     2   2   2   2   2   2   2   2
#     4  11  23  39  62  92 128 172 229 285 335 402
#     4   8  16  37  64 100 128 170 217 266 328 397
#     4   9  19  37  68  94 134 171 219 270 329 402
#     4  11  26  45  63  92 131 179 225 288 336 402
#     4  10  23  38  68  98 133 177 219 271 336 404
#     4  11  24  41  64  97 134 176 225 279 341 392
#     4  10  24  40  65  87 125 174 231 278 350 390
#     4  12  27  44  67  99 139 174 229 279 338 400
#
# _framework density 24.761465999999999
#
# number of rings (size 3 to 8) (size 9 to 14) (size 15 to 20)
#    0.000    1.750    1.250    1.500   10.500    2.000 
#    0.000    0.625    0.000   25.500    0.000    0.000 
#    0.000    0.000    0.000    0.000    0.000    0.000 
#
# Total GULP energy -89123.776907 kJ/mol
# GULP energy per Si atom -5570.236057 kJ/mol
# Density = 2.470511 g / cm^3
# Si number density = 24.761466 Si / 1000 Ang^3
#
#
#
# Elastic Constant Matrix: (Units=GPa)
#
#
# Indices 1 2 3 4 5 6 
#
# 1 38.8666 14.9682 1.2074 -12.8920 11.6630 -16.2751
# 2 14.9682 88.6809 47.0946 -19.8321 2.2847 -4.0747
# 3 1.2074 47.0946 92.8343 -29.4629 0.8278 -7.3941
# 4 -12.8920 -19.8321 -29.4629 56.2459 -6.1422 5.5018
# 5 11.6630 2.2847 0.8278 -6.1422 42.2106 -11.4066
# 6 -16.2751 -4.0747 -7.3941 5.5018 -11.4066 33.9909
#
#
#
# Elastic Compliance Matrix: (Units=1/GPa)
#
#
# Indices 1 2 3 4 5 6 
#
# 1 0.039724 -0.007970 0.007445 0.008014 -0.005010 0.016706
# 2 -0.007970 0.017166 -0.008902 -0.000039 0.000490 -0.003524
# 3 0.007445 -0.008902 0.018009 0.007541 0.000630 0.005406
# 4 0.008014 -0.000039 0.007541 0.023516 0.001663 0.002224
# 5 -0.005010 0.000490 0.000630 0.001663 0.027064 0.006610
# 6 0.016706 -0.003524 0.005406 0.002224 0.006610 0.040030
#
#
# Mechanical properties :
#
#
# Convention : Reuss Voigt Hill
#
# Bulk Modulus (GPa) = 17.84262 38.54690 28.19476
# Shear Modulus (GPa) = 24.62502 36.96358 30.79430
#
# Velocity S-wave (km/s) = 3.15697 3.86785 3.53035
# Velocity P-wave (km/s) = 4.52881 5.96222 5.29425
#
# Compressibility (1/GPa) = 0.05604559
#
# Stress axis : x y z
#
# Youngs Moduli (GPa) = 25.17365 58.25554 55.52684
#
# Poissons Ratio (x) = 0.46429 -0.41339
# Poissons Ratio (y) = 0.20063 0.49429
# Poissons Ratio (z) = -0.18742 0.51859
#
# Static dielectric constant tensor:
#      x y z
#    x 2.021170 0.019780 -0.066430 
#    y 0.019780 2.112370 -0.020610 
#    z -0.066430 -0.020610 2.154780 
# 
# From -- ./inp_files/48420.got.cif
#   From: 2010.05.17/outbox.cif.g08.bks.cpg/sg2_25_cif.got.tgz:48420.got - 2010.06.03 11:33:40.
