data_PCOD9036891
_publ_section_title
;
Structure prediction by ZEFSAII (Michael W. Deem and Ramdas Pophale) SiO2 
 PCOD9036891
Probable space group: P -1
;
_chemical_formula_sum "Si O2"
_cell_formula_units_Z 16
_cell_length_a 15.966517
_cell_length_b 12.642738
_cell_length_c 8.629445
_cell_angle_alpha 88.367220
_cell_angle_beta 98.932462
_cell_angle_gamma 152.265376
_cell_volume 778.021090
_symmetry_space_group_name_H-M "P -1"
_symmetry_group_IT_number 2
_symmetry_cell_setting 'triclinic'
loop_
_space_group_symop_operation_xyz
x,y,z
-x,-y,-z
loop_
_atom_site_type_symbol
_atom_site_label
_atom_site_fract_x
_atom_site_fract_y
_atom_site_fract_z
Si Si1 0.451882 0.189213 0.096845
Si Si2 0.124717 0.697126 0.897076
Si Si3 0.686418 0.605785 0.322983
Si Si4 0.808292 0.649897 0.668115
Si Si5 0.246451 0.653904 0.365676
Si Si6 0.128623 0.103570 0.896334
Si Si7 0.542813 0.460686 0.850330
Si Si8 0.602100 0.133895 0.258205
O O1 0.513764 0.334496 0.250644
O O2 0.567420 0.209861 0.165283
O O3 0.498355 0.311300 0.953432
O O4 0.241025 0.915620 0.015759
O O5 0.281277 0.806340 0.835957
O O6 0.965095 0.556167 0.737152
O O7 0.000000 0.500000 0.000000
O O8 0.789070 0.694984 0.505123
O O9 0.835414 0.761788 0.220019
O O10 0.615423 0.646924 0.276698
O O11 0.737709 0.454485 0.626135
O O12 0.674367 0.558236 0.753948
O O13 0.017822 0.887960 0.787552
O O14 0.289520 0.739328 0.550199
O O15 0.397527 0.865452 0.272977
O O16 0.329477 0.312862 0.025236
O O17 0.000000 0.000000 0.000000
#
# Coordination Sequence:
#
# PCOD9036891 Si02
#       8
#     2   2   2   2   2   2   2   2
#     4  11  22  43  64  95 130 173 216 267 331 388
#     4  12  26  42  71 103 127 171 224 276 329 397
#     4  11  22  41  63  92 129 173 209 261 325 382
#     4  11  22  40  64  95 126 171 215 259 329 382
#     4  11  25  44  71  95 136 176 217 274 330 397
#     4   9  20  38  60  88 125 163 210 265 311 372
#     4  10  23  39  65  92 129 170 210 267 318 386
#     4  11  24  48  68  95 138 172 217 276 336 393
#
# _framework density 20.564995
#
# number of rings (size 3 to 8) (size 9 to 14) (size 15 to 20)
#    0.000    1.250    2.500    3.750    5.250    0.000 
#    0.000    0.000    0.000    0.000    0.000    0.000 
#    0.000    0.000    0.000    0.000    0.000    0.000 
#
# Total GULP energy -89147.524359 kJ/mol
# GULP energy per Si atom -5571.720272 kJ/mol
# Density = 2.051819 g / cm^3
# Si number density = 20.564995 Si / 1000 Ang^3
#
#
#
# Elastic Constant Matrix: (Units=GPa)
#
#
# Indices 1 2 3 4 5 6 
#
# 1 53.4601 24.7114 15.8398 -17.1547 19.4633 8.7470
# 2 24.7114 106.8352 34.0688 -6.6064 -7.2168 4.4000
# 3 15.8398 34.0688 82.8696 -12.9654 6.6321 5.3462
# 4 -17.1547 -6.6064 -12.9654 37.0788 -4.9669 3.3601
# 5 19.4633 -7.2168 6.6321 -4.9669 34.1049 0.7601
# 6 8.7470 4.4000 5.3462 3.3601 0.7601 27.7488
#
#
#
# Elastic Compliance Matrix: (Units=1/GPa)
#
#
# Indices 1 2 3 4 5 6 
#
# 1 0.036196 -0.008830 0.001260 0.013899 -0.020492 -0.011374
# 2 -0.008830 0.013332 -0.004964 -0.002470 0.008428 0.001694
# 3 0.001260 -0.004964 0.015115 0.004725 -0.003954 -0.002986
# 4 0.013899 -0.002470 0.004725 0.034880 -0.004093 -0.009012
# 5 -0.020492 0.008428 -0.003954 -0.004093 0.042856 0.005207
# 6 -0.011374 0.001694 -0.002986 -0.009012 0.005207 0.040878
#
#
# Mechanical properties :
#
#
# Convention : Reuss Voigt Hill
#
# Bulk Modulus (GPa) = 25.26805 43.60054 34.43429
# Shear Modulus (GPa) = 22.57157 31.02284 26.79721
#
# Velocity S-wave (km/s) = 3.31656 3.88819 3.61369
# Velocity P-wave (km/s) = 5.19420 6.43465 5.84741
#
# Compressibility (1/GPa) = 0.03957567
#
# Stress axis : x y z
#
# Youngs Moduli (GPa) = 27.62767 75.00533 66.15857
#
# Poissons Ratio (x) = 0.66233 -0.08337
# Poissons Ratio (y) = 0.24396 0.32838
# Poissons Ratio (z) = -0.03482 0.37229
#
# Static dielectric constant tensor:
#      x y z
#    x 1.738700 0.020080 -0.020330 
#    y 0.020080 1.797480 0.015590 
#    z -0.020330 0.015590 1.763890 
# 
# From -- ./inp_files/307590.got.cif
#   From: 2010.05.17/outbox.cif.g08.bks.cpg/sg2_154_cif.got.tgz:307590.got - 2010.06.03 11:33:40.
