data_PCOD9036432
_publ_section_title
;
Structure prediction by ZEFSAII (Michael W. Deem and Ramdas Pophale) SiO2 
 PCOD9036432
Probable space group: P -1
;
_chemical_formula_sum "Si O2"
_cell_formula_units_Z 12
_cell_length_a 16.506617
_cell_length_b 9.424930
_cell_length_c 10.073915
_cell_angle_alpha 131.361284
_cell_angle_beta 153.215527
_cell_angle_gamma 54.859100
_cell_volume 529.608240
_symmetry_space_group_name_H-M "P -1"
_symmetry_group_IT_number 2
_symmetry_cell_setting 'triclinic'
loop_
_space_group_symop_operation_xyz
x,y,z
-x,-y,-z
loop_
_atom_site_type_symbol
_atom_site_label
_atom_site_fract_x
_atom_site_fract_y
_atom_site_fract_z
Si Si1 0.380156 0.818914 0.255416
Si Si2 0.630112 0.481104 0.496693
Si Si3 0.382550 0.882438 0.580310
Si Si4 0.223512 0.017048 0.700486
Si Si5 0.032863 0.318360 0.757624
Si Si6 0.678476 0.388644 0.223313
O O1 0.495146 0.644007 0.366159
O O2 0.289380 0.881635 0.299411
O O3 0.500000 0.000000 0.500000
O O4 0.295370 0.749894 0.949454
O O5 0.593516 0.331827 0.467078
O O6 0.636203 0.352152 0.294420
O O7 0.820256 0.585038 0.872369
O O8 0.275337 0.985200 0.603405
O O9 0.587708 0.969567 0.932313
O O10 0.135388 0.217380 0.725570
O O11 0.080028 0.854886 0.442112
O O12 0.885587 0.466796 0.588499
O O13 0.500000 0.500000 0.000000
#
# Coordination Sequence:
#
# PCOD9036432 Si02
#       6
#     2   2   2   2   2   2
#     4  11  24  41  65  99 139 181 217 275 352 403
#     4  11  23  41  74  98 131 178 241 273 323 407
#     4  11  22  44  67 106 127 185 227 281 325 413
#     4  10  23  36  73  96 138 163 240 272 328 386
#     4  11  21  43  68 106 125 181 230 282 323 409
#     4  10  23  41  64  96 137 176 214 276 349 398
#
# _framework density 22.658256999999999
#
# number of rings (size 3 to 8) (size 9 to 14) (size 15 to 20)
#    0.000    1.333    3.333    2.000    4.667    0.000 
#    0.000    1.667    0.000    0.000    0.000    0.000 
#    0.000    0.000    0.000    0.000    0.000    0.000 
#
# Total GULP energy -66803.252538 kJ/mol
# GULP energy per Si atom -5566.937712 kJ/mol
# Density = 2.260669 g / cm^3
# Si number density = 22.658257 Si / 1000 Ang^3
#
#
#
# Elastic Constant Matrix: (Units=GPa)
#
#
# Indices 1 2 3 4 5 6 
#
# 1 160.8866 26.9842 40.4186 -3.5543 -39.2859 5.5374
# 2 26.9842 55.4096 7.6794 7.9423 0.1580 -1.9513
# 3 40.4186 7.6794 105.2157 13.3906 -12.4908 6.0700
# 4 -3.5543 7.9423 13.3906 29.5314 -2.4500 7.0583
# 5 -39.2859 0.1580 -12.4908 -2.4500 44.9235 -7.9669
# 6 5.5374 -1.9513 6.0700 7.0583 -7.9669 37.7057
#
#
#
# Elastic Compliance Matrix: (Units=1/GPa)
#
#
# Indices 1 2 3 4 5 6 
#
# 1 0.009923 -0.005123 -0.003063 0.004727 0.008028 -0.000418
# 2 -0.005123 0.021634 0.000714 -0.007664 -0.004374 0.002267
# 3 -0.003063 0.000714 0.011378 -0.005647 0.000129 -0.000261
# 4 0.004727 -0.007664 -0.005647 0.041048 0.003568 -0.007112
# 5 0.008028 -0.004374 0.000129 0.003568 0.030290 0.004306
# 6 -0.000418 0.002267 -0.000261 -0.007112 0.004306 0.028983
#
#
# Mechanical properties :
#
#
# Convention : Reuss Voigt Hill
#
# Bulk Modulus (GPa) = 35.72402 52.40847 44.06624
# Shear Modulus (GPa) = 29.84527 38.86076 34.35301
#
# Velocity S-wave (km/s) = 3.63325 4.14585 3.89798
# Velocity P-wave (km/s) = 5.77939 6.78952 6.30472
#
# Compressibility (1/GPa) = 0.02799237
#
# Stress axis : x y z
#
# Youngs Moduli (GPa) = 100.77170 46.22291 87.89228
#
# Poissons Ratio (x) = 0.23682 0.26917
# Poissons Ratio (y) = 0.51629 -0.06279
# Poissons Ratio (z) = 0.30861 -0.03302
#
# Static dielectric constant tensor:
#      x y z
#    x 1.979140 -0.022470 0.018350 
#    y -0.022470 1.946590 0.003840 
#    z 0.018350 0.003840 1.844830 
# 
# From -- ./inp_files/158458.got.cif
#   From: 2010.05.17/outbox.cif.g08.bks.cpg/sg2_80_cif.got.tgz:158458.got - 2010.06.03 11:33:40.
