data_PCOD9036764
_publ_section_title
;
Structure prediction by ZEFSAII (Michael W. Deem and Ramdas Pophale) SiO2 
 PCOD9036764
Probable space group: P -1
;
_chemical_formula_sum "Si O2"
_cell_formula_units_Z 14
_cell_length_a 12.717717
_cell_length_b 9.328849
_cell_length_c 12.964065
_cell_angle_alpha 159.524040
_cell_angle_beta 97.330035
_cell_angle_gamma 77.688008
_cell_volume 513.811047
_symmetry_space_group_name_H-M "P -1"
_symmetry_group_IT_number 2
_symmetry_cell_setting 'triclinic'
loop_
_space_group_symop_operation_xyz
x,y,z
-x,-y,-z
loop_
_atom_site_type_symbol
_atom_site_label
_atom_site_fract_x
_atom_site_fract_y
_atom_site_fract_z
Si Si1 0.096986 0.310640 0.512462
Si Si2 0.798823 0.095763 0.956016
Si Si3 0.205515 0.636261 0.247155
Si Si4 0.904584 0.943664 0.270600
Si Si5 0.595292 0.140725 0.044573
Si Si6 0.618037 0.937119 0.416686
Si Si7 0.489049 0.156153 0.352344
O O1 0.116965 0.735264 0.849836
O O2 0.156822 0.943001 0.352295
O O3 0.972977 0.268670 0.461450
O O4 0.154595 0.177536 0.321271
O O5 0.722095 0.882217 0.874014
O O6 0.714859 0.532985 0.193141
O O7 0.145920 0.875586 0.503558
O O8 0.331275 0.657428 0.288286
O O9 0.178320 0.194192 0.913619
O O10 0.000000 0.500000 0.000000
O O11 0.599380 0.564837 0.391308
O O12 0.500000 0.000000 0.000000
O O13 0.556377 0.157445 0.932818
O O14 0.500000 0.000000 0.500000
O O15 0.590280 0.942325 0.294531
O O16 0.500000 0.500000 0.500000
#
# Coordination Sequence:
#
# PCOD9036764 Si02
#       7
#     2   2   2   2   2   2   2
#     4  10  19  32  52  78 111 149 183 236 283 330
#     4  11  21  33  52  85 113 148 190 226 284 332
#     4  10  20  31  47  76 109 150 187 213 283 341
#     4  10  17  33  50  70 110 153 176 228 280 337
#     4  10  21  37  54  74 112 152 189 229 268 333
#     4  11  22  36  55  84 119 157 183 238 277 327
#     4  10  22  39  55  75 109 156 194 226 273 329
#
# _framework density 27.247373
#
# number of rings (size 3 to 8) (size 9 to 14) (size 15 to 20)
#    0.000    1.714    1.429    6.857    2.000    4.000 
#    0.000    0.000    0.000    0.000    0.000    0.000 
#    0.000   91.429    5.714    0.000    0.000    0.000 
#
# Total GULP energy -78260.151212 kJ/mol
# GULP energy per Si atom -5590.010801 kJ/mol
# Density = 2.718536 g / cm^3
# Si number density = 27.247373 Si / 1000 Ang^3
#
#
#
# Elastic Constant Matrix: (Units=GPa)
#
#
# Indices 1 2 3 4 5 6 
#
# 1 178.8489 62.5928 67.5213 -31.0987 32.5829 12.1299
# 2 62.5928 123.4813 74.3710 -21.6609 -12.1317 -7.6927
# 3 67.5213 74.3710 186.3961 -62.9452 30.7459 -3.5931
# 4 -31.0987 -21.6609 -62.9452 59.6621 1.3492 -7.0626
# 5 32.5829 -12.1317 30.7459 1.3492 60.2151 -4.7530
# 6 12.1299 -7.6927 -3.5931 -7.0626 -4.7530 39.4092
#
#
#
# Elastic Compliance Matrix: (Units=1/GPa)
#
#
# Indices 1 2 3 4 5 6 
#
# 1 0.009467 -0.005966 0.001447 0.003975 -0.007479 -0.004136
# 2 -0.005966 0.016280 -0.007769 -0.005085 0.010961 0.004716
# 3 0.001447 -0.007769 0.013891 0.012860 -0.009694 0.000440
# 4 0.003975 -0.005085 0.012860 0.031178 -0.010179 0.003316
# 5 -0.007479 0.010961 -0.009694 -0.010179 0.028448 0.005165
# 6 -0.004136 0.004716 0.000440 0.003316 0.005165 0.028826
#
#
# Mechanical properties :
#
#
# Convention : Reuss Voigt Hill
#
# Bulk Modulus (GPa) = 66.38615 99.74406 83.06510
# Shear Modulus (GPa) = 31.70858 50.80668 41.25763
#
# Velocity S-wave (km/s) = 3.41505 4.32284 3.89548
# Velocity P-wave (km/s) = 6.32196 7.84871 7.12634
#
# Compressibility (1/GPa) = 0.01506338
#
# Stress axis : x y z
#
# Youngs Moduli (GPa) = 105.62959 61.42414 71.98938
#
# Poissons Ratio (x) = 0.36643 -0.10418
# Poissons Ratio (y) = 0.63015 0.55928
# Poissons Ratio (z) = -0.15286 0.47720
#
# Static dielectric constant tensor:
#      x y z
#    x 2.459890 0.246640 0.498000 
#    y 0.246640 2.371900 0.489230 
#    z 0.498000 0.489230 3.074790 
# 
# From -- ./inp_files/519983.got.cif
#   From: 2010.05.17/outbox.cif.g08.bks.cpg/sg2_260_cif.got.tgz:519983.got - 2010.06.03 11:33:40.
