data_PCOD9036116
_publ_section_title
;
Structure prediction by ZEFSAII (Michael W. Deem and Ramdas Pophale) SiO2 
 PCOD9036116
Probable space group: P -1
;
_chemical_formula_sum "Si O2"
_cell_formula_units_Z 16
_cell_length_a 14.758795
_cell_length_b 19.421027
_cell_length_c 5.145567
_cell_angle_alpha 88.928676
_cell_angle_beta 103.046909
_cell_angle_gamma 27.991059
_cell_volume 592.725075
_symmetry_space_group_name_H-M "P -1"
_symmetry_group_IT_number 2
_symmetry_cell_setting 'triclinic'
loop_
_space_group_symop_operation_xyz
x,y,z
-x,-y,-z
loop_
_atom_site_type_symbol
_atom_site_label
_atom_site_fract_x
_atom_site_fract_y
_atom_site_fract_z
Si Si1 0.048011 0.076695 0.349801
Si Si2 0.755620 0.965144 0.156780
Si Si3 0.850487 0.330266 0.871419
Si Si4 0.588070 0.389370 0.839943
Si Si5 0.712480 0.522021 0.201114
Si Si6 0.487232 0.779029 0.351848
Si Si7 0.440498 0.085829 0.208559
Si Si8 0.979946 0.444334 0.664311
O O1 0.273046 0.897937 0.368375
O O2 0.113902 0.051806 0.686177
O O3 0.987513 0.194738 0.195913
O O4 0.810687 0.200611 0.121125
O O5 0.950708 0.785354 0.186093
O O6 0.061869 0.590687 0.561921
O O7 0.576552 0.103907 0.809983
O O8 0.698443 0.365679 0.698466
O O9 0.733940 0.470078 0.944582
O O10 0.387937 0.469314 0.666749
O O11 0.500000 0.500000 0.000000
O O12 0.532507 0.702877 0.127470
O O13 0.738024 0.610350 0.647075
O O14 0.500000 0.000000 0.500000
O O15 0.610750 0.034627 0.291753
O O16 0.189005 0.285405 0.993672
O O17 0.500000 0.000000 0.000000
O O18 0.000000 0.500000 0.500000
#
# Coordination Sequence:
#
# PCOD9036116 Si02
#       8
#     2   2   2   2   2   2   2   2
#     4   9  20  37  66  99 143 192 248 308 385 464
#     4  11  22  43  67 102 150 195 257 316 401 461
#     4   8  19  38  67  98 144 194 246 320 386 456
#     4   8  16  34  65 101 148 194 249 316 396 457
#     4   9  18  38  72 104 145 195 263 314 385 472
#     4   9  21  41  71  98 143 205 253 308 398 459
#     4  12  30  47  76 118 154 200 272 337 399 475
#     4  10  22  47  74 109 155 206 260 323 405 466
#
# _framework density 26.993964999999999
#
# number of rings (size 3 to 8) (size 9 to 14) (size 15 to 20)
#    1.500    1.000    1.250    0.000    5.250    0.500 
#    2.250    5.625    0.000    0.000    0.000    0.000 
#    0.000    0.000    0.000    0.250    0.000    0.000 
#
# Total GULP energy -89247.180852 kJ/mol
# GULP energy per Si atom -5577.948803 kJ/mol
# Density = 2.693253 g / cm^3
# Si number density = 26.993965 Si / 1000 Ang^3
#
#
#
# Elastic Constant Matrix: (Units=GPa)
#
#
# Indices 1 2 3 4 5 6 
#
# 1 136.8202 27.6040 59.2474 -16.4192 7.4529 -12.4780
# 2 27.6040 184.7127 53.7064 -20.8397 10.8895 -34.9686
# 3 59.2474 53.7064 98.0743 -22.4726 2.7000 -10.7865
# 4 -16.4192 -20.8397 -22.4726 58.2419 -6.6629 12.1123
# 5 7.4529 10.8895 2.7000 -6.6629 44.9046 -4.3222
# 6 -12.4780 -34.9686 -10.7865 12.1123 -4.3222 41.9445
#
#
#
# Elastic Compliance Matrix: (Units=1/GPa)
#
#
# Indices 1 2 3 4 5 6 
#
# 1 0.010122 0.000748 -0.006245 0.000182 -0.001281 0.001845
# 2 0.000748 0.007540 -0.003928 0.000149 -0.001181 0.005334
# 3 -0.006245 -0.003928 0.016763 0.003831 0.001378 -0.001786
# 4 0.000182 0.000149 0.003831 0.019915 0.002239 -0.004357
# 5 -0.001281 -0.001181 0.001378 0.002239 0.023087 0.000721
# 6 0.001845 0.005334 -0.001786 -0.004357 0.000721 0.029710
#
#
# Mechanical properties :
#
#
# Convention : Reuss Voigt Hill
#
# Bulk Modulus (GPa) = 64.19783 77.85808 71.02796
# Shear Modulus (GPa) = 38.11615 47.62151 42.86883
#
# Velocity S-wave (km/s) = 3.76177 4.20474 3.98941
# Velocity P-wave (km/s) = 6.53466 7.24420 6.89856
#
# Compressibility (1/GPa) = 0.01557685
#
# Stress axis : x y z
#
# Youngs Moduli (GPa) = 98.79600 132.62123 59.65416
#
# Poissons Ratio (x) = -0.09924 0.37252
# Poissons Ratio (y) = -0.07393 0.23431
# Poissons Ratio (z) = 0.61695 0.52092
#
# Static dielectric constant tensor:
#      x y z
#    x 2.276360 0.012090 0.006330 
#    y 0.012090 2.059740 -0.088320 
#    z 0.006330 -0.088320 2.494280 
# 
# From -- ./inp_files/120596.got.cif
#   From: 2010.05.17/outbox.cif.g08.bks.cpg/sg2_61_cif.got.tgz:120596.got - 2010.06.03 11:33:40.
