data_PCOD9036911
_publ_section_title
;
Structure prediction by ZEFSAII (Michael W. Deem and Ramdas Pophale) SiO2 
 PCOD9036911
Probable space group: P -1
;
_chemical_formula_sum "Si O2"
_cell_formula_units_Z 14
_cell_length_a 7.606998
_cell_length_b 19.872274
_cell_length_c 14.702611
_cell_angle_alpha 16.880900
_cell_angle_beta 103.998057
_cell_angle_gamma 104.193015
_cell_volume 625.487903
_symmetry_space_group_name_H-M "P -1"
_symmetry_group_IT_number 2
_symmetry_cell_setting 'triclinic'
loop_
_space_group_symop_operation_xyz
x,y,z
-x,-y,-z
loop_
_atom_site_type_symbol
_atom_site_label
_atom_site_fract_x
_atom_site_fract_y
_atom_site_fract_z
Si Si1 0.557417 0.353382 0.490617
Si Si2 0.142995 0.349899 0.764476
Si Si3 0.829216 0.182413 0.052507
Si Si4 0.316871 0.264265 0.279809
Si Si5 0.587765 0.355014 0.060694
Si Si6 0.037554 0.727400 0.860575
Si Si7 0.538625 0.835225 0.081910
O O1 0.753745 0.466569 0.393358
O O2 0.472596 0.557406 0.158091
O O3 0.463237 0.288655 0.659311
O O4 0.553471 0.111222 0.748167
O O5 0.295505 0.239771 0.863153
O O6 0.000000 0.500000 0.500000
O O7 0.011264 0.162832 0.041716
O O8 0.897724 0.341471 0.941261
O O9 0.763599 0.948416 0.396975
O O10 0.654861 0.234069 0.901673
O O11 0.417227 0.421708 0.163626
O O12 0.151391 0.387992 0.049372
O O13 0.449483 0.184137 0.319932
O O14 0.795147 0.297961 0.152735
O O15 0.000000 0.000000 0.500000
#
# Coordination Sequence:
#
# PCOD9036911 Si02
#       7
#     2   2   2   2   2   2   2
#     4  11  24  47  73 101 138 186 226 279 348 401
#     4  12  26  43  69 103 138 181 225 279 341 410
#     4  11  23  45  66 102 136 176 226 279 341 402
#     4  10  23  43  66  98 130 176 227 280 336 397
#     4  11  22  42  69  96 134 178 228 276 339 410
#     4  10  23  39  65  97 132 174 220 280 336 395
#     4  11  25  47  70 102 143 178 227 286 337 408
#
# _framework density 22.382525999999999
#
# number of rings (size 3 to 8) (size 9 to 14) (size 15 to 20)
#    0.000    1.143    2.857    2.571    2.000    5.143 
#    5.143    0.000    0.000    0.000    0.000    0.000 
#    0.000    0.000    0.000    0.000    0.000    0.000 
#
# Total GULP energy -78118.197341 kJ/mol
# GULP energy per Si atom -5579.871239 kJ/mol
# Density = 2.233158 g / cm^3
# Si number density = 22.382526 Si / 1000 Ang^3
#
#
#
# Elastic Constant Matrix: (Units=GPa)
#
#
# Indices 1 2 3 4 5 6 
#
# 1 153.6800 52.7950 9.5973 17.3682 -10.0168 -27.4777
# 2 52.7950 97.1943 17.1314 21.7689 2.2287 3.0063
# 3 9.5973 17.1314 44.2029 10.3720 -11.4111 -18.2612
# 4 17.3682 21.7689 10.3720 31.6065 0.0970 -3.4483
# 5 -10.0168 2.2287 -11.4111 0.0970 32.4702 13.0112
# 6 -27.4777 3.0063 -18.2612 -3.4483 13.0112 49.6129
#
#
#
# Elastic Compliance Matrix: (Units=1/GPa)
#
#
# Indices 1 2 3 4 5 6 
#
# 1 0.009777 -0.005800 0.003808 -0.001929 0.002167 0.006465
# 2 -0.005800 0.016389 -0.006954 -0.006520 -0.002733 -0.006501
# 3 0.003808 -0.006954 0.033312 -0.006944 0.008544 0.012068
# 4 -0.001929 -0.006520 -0.006944 0.039504 -0.002807 0.000253
# 5 0.002167 -0.002733 0.008544 -0.002807 0.036803 -0.005336
# 6 0.006465 -0.006501 0.012068 0.000253 -0.005336 0.029990
#
#
# Mechanical properties :
#
#
# Convention : Reuss Voigt Hill
#
# Bulk Modulus (GPa) = 24.04615 50.45827 37.25221
# Shear Modulus (GPa) = 25.31292 37.10816 31.21054
#
# Velocity S-wave (km/s) = 3.36657 4.07616 3.73824
# Velocity P-wave (km/s) = 5.08707 6.68924 5.94240
#
# Compressibility (1/GPa) = 0.04158669
#
# Stress axis : x y z
#
# Youngs Moduli (GPa) = 102.28211 61.01807 30.01924
#
# Poissons Ratio (x) = 0.35388 -0.11432
# Poissons Ratio (y) = 0.59319 0.20875
# Poissons Ratio (z) = -0.38950 0.42432
#
# Static dielectric constant tensor:
#      x y z
#    x 2.160030 0.020770 -0.199040 
#    y 0.020770 1.898930 0.029750 
#    z -0.199040 0.029750 1.976620 
# 
# From -- ./inp_files/119447.got.cif
#   From: 2010.05.17/outbox.cif.g08.bks.cpg/sg2_60_cif.got.tgz:119447.got - 2010.06.03 11:33:40.
