data_PCOD9036900
_publ_section_title
;
Structure prediction by ZEFSAII (Michael W. Deem and Ramdas Pophale) SiO2 
 PCOD9036900
Probable space group: P -1
;
_chemical_formula_sum "Si O2"
_cell_formula_units_Z 16
_cell_length_a 23.025735
_cell_length_b 12.281191
_cell_length_c 6.564857
_cell_angle_alpha 130.497901
_cell_angle_beta 125.409210
_cell_angle_gamma 34.102264
_cell_volume 787.703941
_symmetry_space_group_name_H-M "P -1"
_symmetry_group_IT_number 2
_symmetry_cell_setting 'triclinic'
loop_
_space_group_symop_operation_xyz
x,y,z
-x,-y,-z
loop_
_atom_site_type_symbol
_atom_site_label
_atom_site_fract_x
_atom_site_fract_y
_atom_site_fract_z
Si Si1 0.798135 0.079575 0.958384
Si Si2 0.528816 0.793241 0.276319
Si Si3 0.716169 0.427143 0.514875
Si Si4 0.042007 0.288867 0.906890
Si Si5 0.906535 0.286756 0.915495
Si Si6 0.421502 0.736301 0.219510
Si Si7 0.452557 0.412300 0.340307
Si Si8 0.948208 0.913583 0.693087
O O1 0.790316 0.220380 0.275259
O O2 0.864495 0.852512 0.913288
O O3 0.681579 0.193757 0.839700
O O4 0.857354 0.047192 0.839977
O O5 0.626945 0.617022 0.412042
O O6 0.426323 0.849608 0.195150
O O7 0.500000 0.000000 0.500000
O O8 0.557397 0.683420 0.981369
O O9 0.787488 0.435480 0.791429
O O10 0.655770 0.421984 0.555513
O O11 0.079890 0.157622 0.620458
O O12 0.957980 0.309612 0.874651
O O13 0.000000 0.500000 0.000000
O O14 0.955146 0.055594 0.763981
O O15 0.945502 0.287211 0.215882
O O16 0.465559 0.756976 0.528350
O O17 0.500000 0.500000 0.000000
O O18 0.500000 0.500000 0.500000
#
# Coordination Sequence:
#
# PCOD9036900 Si02
#       8
#     2   2   2   2   2   2   2   2
#     4  11  22  39  67 100 123 167 225 268 317 392
#     4  11  25  42  61  94 137 170 210 275 331 378
#     4  11  23  38  65  98 122 162 225 263 313 395
#     4  11  25  44  62  90 136 169 208 269 332 392
#     4  10  23  39  65  95 120 160 216 265 316 383
#     4  11  21  40  64  97 126 163 222 266 310 397
#     4  11  21  39  67  91 128 174 212 264 329 380
#     4  10  23  39  67  93 125 164 217 270 322 379
#
# _framework density 20.312201000000002
#
# number of rings (size 3 to 8) (size 9 to 14) (size 15 to 20)
#    0.000    1.250    5.000    0.375    7.000    6.000 
#    0.000    2.500    0.000    0.000    0.000    0.000 
#    0.000    0.000    0.000    0.000    0.000    0.000 
#
# Total GULP energy -89117.606994 kJ/mol
# GULP energy per Si atom -5569.850437 kJ/mol
# Density = 2.026597 g / cm^3
# Si number density = 20.312201 Si / 1000 Ang^3
#
#
#
# Elastic Constant Matrix: (Units=GPa)
#
#
# Indices 1 2 3 4 5 6 
#
# 1 139.8069 44.2221 44.1210 4.8275 -3.3862 0.9749
# 2 44.2221 94.1890 33.4926 -5.7141 3.4260 8.3282
# 3 44.1210 33.4926 85.4005 -7.0661 -5.9022 10.0808
# 4 4.8275 -5.7141 -7.0661 37.1068 -0.3479 18.4278
# 5 -3.3862 3.4260 -5.9022 -0.3479 22.7999 -9.7695
# 6 0.9749 8.3282 10.0808 18.4278 -9.7695 34.5293
#
#
#
# Elastic Compliance Matrix: (Units=1/GPa)
#
#
# Indices 1 2 3 4 5 6 
#
# 1 0.010166 -0.004173 -0.004591 -0.005882 0.003512 0.006192
# 2 -0.004173 0.014860 -0.002699 0.006185 -0.006849 -0.007917
# 3 -0.004591 -0.002699 0.016702 0.007188 0.000863 -0.007687
# 4 -0.005882 0.006185 0.007188 0.045435 -0.012638 -0.031248
# 5 0.003512 -0.006849 0.000863 -0.012638 0.055633 0.023786
# 6 0.006192 -0.007917 -0.007687 -0.031248 0.023786 0.056346
#
#
# Mechanical properties :
#
#
# Convention : Reuss Voigt Hill
#
# Bulk Modulus (GPa) = 53.18370 62.56308 57.87339
# Shear Modulus (GPa) = 21.89757 32.05793 26.97775
#
# Velocity S-wave (km/s) = 3.28693 3.97704 3.64834
# Velocity P-wave (km/s) = 6.37536 7.20810 6.80448
#
# Compressibility (1/GPa) = 0.01880275
#
# Stress axis : x y z
#
# Youngs Moduli (GPa) = 98.36372 67.29352 59.87454
#
# Poissons Ratio (x) = 0.28081 0.27486
# Poissons Ratio (y) = 0.41046 0.16161
# Poissons Ratio (z) = 0.45155 0.18164
#
# Static dielectric constant tensor:
#      x y z
#    x 1.771760 0.001070 -0.008570 
#    y 0.001070 1.787140 -0.043340 
#    z -0.008570 -0.043340 1.783140 
# 
# From -- ./inp_files/123524.got.cif
#   From: 2010.05.17/outbox.cif.g08.bks.cpg/sg2_62_cif.got.tgz:123524.got - 2010.06.03 11:33:40.
