data_PCOD9036545
_publ_section_title
;
Structure prediction by ZEFSAII (Michael W. Deem and Ramdas Pophale) SiO2 
 PCOD9036545
Probable space group: P -1
;
_chemical_formula_sum "Si O2"
_cell_formula_units_Z 16
_cell_length_a 12.761902
_cell_length_b 18.162754
_cell_length_c 24.908740
_cell_angle_alpha 18.876834
_cell_angle_beta 30.549925
_cell_angle_gamma 22.522180
_cell_volume 711.644630
_symmetry_space_group_name_H-M "P -1"
_symmetry_group_IT_number 2
_symmetry_cell_setting 'triclinic'
loop_
_space_group_symop_operation_xyz
x,y,z
-x,-y,-z
loop_
_atom_site_type_symbol
_atom_site_label
_atom_site_fract_x
_atom_site_fract_y
_atom_site_fract_z
Si Si1 0.093386 0.815508 0.513537
Si Si2 0.629634 0.017025 0.985483
Si Si3 0.556140 0.416147 0.383767
Si Si4 0.170967 0.139763 0.170031
Si Si5 0.985643 0.856496 0.371828
Si Si6 0.211216 0.284433 0.353687
Si Si7 0.199036 0.141048 0.658817
Si Si8 0.822213 0.270178 0.999353
O O1 0.044156 0.661793 0.597225
O O2 0.297036 0.580338 0.631568
O O3 0.799519 0.080632 0.487391
O O4 0.179177 0.985338 0.327707
O O5 0.537544 0.345930 0.786452
O O6 0.461504 0.022840 0.103098
O O7 0.500000 0.000000 0.000000
O O8 0.950588 0.785139 0.021674
O O9 0.277970 0.524999 0.457460
O O10 0.046766 0.048218 0.244147
O O11 0.000000 0.500000 0.000000
O O12 0.791915 0.828855 0.509162
O O13 0.855502 0.978842 0.286485
O O14 0.165741 0.584833 0.158988
O O15 0.484698 0.027549 0.375542
O O16 0.000000 0.500000 0.500000
O O17 0.123777 0.037946 0.813585
O O18 0.500000 0.500000 0.000000
#
# Coordination Sequence:
#
# PCOD9036545 Si02
#       8
#     2   2   2   2   2   2   2   2
#     4  10  23  38  58  95 132 167 216 270 328 394
#     4  12  21  38  66  93 128 174 218 268 334 397
#     4  11  21  37  59  88 132 166 217 260 331 387
#     4  11  23  38  62  97 136 170 213 275 330 392
#     4  11  23  39  63  94 126 168 215 265 324 395
#     4  10  23  39  63  90 128 166 212 269 325 385
#     4  11  22  43  70  90 121 171 218 268 326 393
#     4  10  23  41  62  95 125 168 219 270 325 393
#
# _framework density 22.483132000000001
#
# number of rings (size 3 to 8) (size 9 to 14) (size 15 to 20)
#    0.000    1.250    3.750    1.875    1.750    1.000 
#    0.000    0.625    0.000    0.000    0.000    0.000 
#    0.000    0.000    0.000    0.000    0.000    0.000 
#
# Total GULP energy -89116.409936 kJ/mol
# GULP energy per Si atom -5569.775621 kJ/mol
# Density = 2.243196 g / cm^3
# Si number density = 22.483132 Si / 1000 Ang^3
#
#
#
# Elastic Constant Matrix: (Units=GPa)
#
#
# Indices 1 2 3 4 5 6 
#
# 1 64.6197 35.1284 2.0980 1.0125 5.1240 -21.5201
# 2 35.1284 112.1279 62.6805 21.2975 3.3724 -23.9951
# 3 2.0980 62.6805 159.5876 16.9629 -8.3376 2.4111
# 4 1.0125 21.2975 16.9629 42.1286 -6.2231 5.7566
# 5 5.1240 3.3724 -8.3376 -6.2231 19.2714 -1.7765
# 6 -21.5201 -23.9951 2.4111 5.7566 -1.7765 33.6807
#
#
#
# Elastic Compliance Matrix: (Units=1/GPa)
#
#
# Indices 1 2 3 4 5 6 
#
# 1 0.021974 -0.005511 0.001575 -0.000220 -0.003359 0.009861
# 2 -0.005511 0.019003 -0.006936 -0.009287 -0.006777 0.011743
# 3 0.001575 -0.006936 0.009167 0.001090 0.004696 -0.004530
# 4 -0.000220 -0.009287 0.001090 0.031232 0.011173 -0.011584
# 5 -0.003359 -0.006777 0.004696 0.011173 0.059046 -0.006106
# 6 0.009861 0.011743 -0.004530 -0.011584 -0.006106 0.046340
#
#
# Mechanical properties :
#
#
# Convention : Reuss Voigt Hill
#
# Bulk Modulus (GPa) = 35.21153 59.57209 47.39181
# Shear Modulus (GPa) = 22.93860 34.77801 28.85830
#
# Velocity S-wave (km/s) = 3.19761 3.93727 3.58656
# Velocity P-wave (km/s) = 5.41556 6.87192 6.18674
#
# Compressibility (1/GPa) = 0.02839979
#
# Stress axis : x y z
#
# Youngs Moduli (GPa) = 45.50832 52.62316 109.08165
#
# Poissons Ratio (x) = 0.29003 -0.17177
# Poissons Ratio (y) = 0.25082 0.75655
# Poissons Ratio (z) = -0.07166 0.36497
#
# Static dielectric constant tensor:
#      x y z
#    x 1.952280 -0.033770 -0.006860 
#    y -0.033770 1.834430 0.006150 
#    z -0.006860 0.006150 1.896420 
# 
# From -- ./inp_files/619843.got.cif
#   From: 2010.05.17/outbox.cif.g08.bks.cpg/sg2_310_cif.got.tgz:619843.got - 2010.06.03 11:33:40.
