data_PCOD9036172
_publ_section_title
;
Structure prediction by ZEFSAII (Michael W. Deem and Ramdas Pophale) SiO2 
 PCOD9036172
Probable space group: P -1
;
_chemical_formula_sum "Si O2"
_cell_formula_units_Z 16
_cell_length_a 9.483501
_cell_length_b 17.672529
_cell_length_c 8.893692
_cell_angle_alpha 136.051121
_cell_angle_beta 91.747164
_cell_angle_gamma 58.284173
_cell_volume 710.859584
_symmetry_space_group_name_H-M "P -1"
_symmetry_group_IT_number 2
_symmetry_cell_setting 'triclinic'
loop_
_space_group_symop_operation_xyz
x,y,z
-x,-y,-z
loop_
_atom_site_type_symbol
_atom_site_label
_atom_site_fract_x
_atom_site_fract_y
_atom_site_fract_z
Si Si1 0.421144 0.627105 0.306623
Si Si2 0.579656 0.765329 0.624627
Si Si3 0.217609 0.592107 0.477699
Si Si4 0.001111 0.401973 0.741892
Si Si5 0.825763 0.261477 0.040295
Si Si6 0.974092 0.187858 0.600815
Si Si7 0.329664 0.857461 0.008255
Si Si8 0.853324 0.955682 0.021630
O O1 0.550502 0.661517 0.398756
O O2 0.384265 0.575995 0.380989
O O3 0.196637 0.782759 0.458059
O O4 0.500000 0.500000 0.000000
O O5 0.789405 0.700047 0.489220
O O6 0.382764 0.944587 0.815081
O O7 0.539213 0.777753 0.821283
O O8 0.224194 0.600989 0.670098
O O9 0.183027 0.503663 0.252536
O O10 0.999866 0.779566 0.707603
O O11 0.982424 0.304675 0.703725
O O12 0.000000 0.500000 0.000000
O O13 0.886249 0.240100 0.840984
O O14 0.026007 0.096762 0.894500
O O15 0.657505 0.264429 0.081719
O O16 0.198311 0.009574 0.328913
O O17 0.193016 0.931260 0.952958
#
# Coordination Sequence:
#
# PCOD9036172 Si02
#       8
#     2   2   2   2   2   2   2   2
#     4  11  19  33  56  79 104 142 195 231 255 317
#     4  10  18  32  59  81 106 138 194 223 271 314
#     4   9  18  36  57  77 109 145 181 219 283 321
#     4  11  22  38  57  77 107 152 197 225 257 328
#     4  10  18  34  57  86 118 138 168 232 294 333
#     4  11  22  35  56  88 111 141 183 227 286 321
#     4  10  17  32  61  84 107 140 181 226 277 334
#     4   8  16  30  58  78 104 139 174 218 279 327
#
# _framework density 22.507960000000001
#
# number of rings (size 3 to 8) (size 9 to 14) (size 15 to 20)
#    1.500    0.500    3.750    3.000    0.000    2.000 
#    0.000    1.875    2.750    0.000    0.000    0.000 
#    0.000    0.000    0.000    0.000    0.000    0.000 
#
# Total GULP energy -89084.200728 kJ/mol
# GULP energy per Si atom -5567.762546 kJ/mol
# Density = 2.245673 g / cm^3
# Si number density = 22.507960 Si / 1000 Ang^3
#
#
#
# Elastic Constant Matrix: (Units=GPa)
#
#
# Indices 1 2 3 4 5 6 
#
# 1 92.5879 30.0465 18.5723 -24.4966 -6.7891 10.2377
# 2 30.0465 74.6217 33.7637 -25.8836 2.8599 3.8929
# 3 18.5723 33.7637 124.9644 -36.6397 -3.2187 7.1810
# 4 -24.4966 -25.8836 -36.6397 48.4434 5.9672 -0.7863
# 5 -6.7891 2.8599 -3.2187 5.9672 42.4654 -6.3986
# 6 10.2377 3.8929 7.1810 -0.7863 -6.3986 17.0755
#
#
#
# Elastic Compliance Matrix: (Units=1/GPa)
#
#
# Indices 1 2 3 4 5 6 
#
# 1 0.014246 -0.003854 0.001061 0.005742 0.000666 -0.007595
# 2 -0.003854 0.018539 -0.002541 0.006403 -0.003222 -0.001760
# 3 0.001061 -0.002541 0.010967 0.007470 -0.000561 -0.004535
# 4 0.005742 0.006403 0.007470 0.033079 -0.004852 -0.008339
# 5 0.000666 -0.003222 -0.000561 -0.004852 0.026034 0.010103
# 6 -0.007595 -0.001760 -0.004535 -0.008339 0.010103 0.068828
#
#
# Mechanical properties :
#
#
# Convention : Reuss Voigt Hill
#
# Bulk Modulus (GPa) = 30.22481 50.77099 40.49790
# Shear Modulus (GPa) = 25.85476 35.58296 30.71886
#
# Velocity S-wave (km/s) = 3.39292 3.98037 3.69833
# Velocity P-wave (km/s) = 5.36720 6.61289 6.02234
#
# Compressibility (1/GPa) = 0.03308540
#
# Stress axis : x y z
#
# Youngs Moduli (GPa) = 70.19390 53.94144 91.18031
#
# Poissons Ratio (x) = 0.20789 -0.09676
# Poissons Ratio (y) = 0.27053 0.23165
# Poissons Ratio (z) = -0.07449 0.13704
#
# Static dielectric constant tensor:
#      x y z
#    x 1.871510 -0.031420 -0.006730 
#    y -0.031420 1.883790 0.049760 
#    z -0.006730 0.049760 1.928390 
# 
# From -- ./inp_files/218566.got.cif
#   From: 2010.05.17/outbox.cif.g08.bks.cpg/sg2_110_cif.got.tgz:218566.got - 2010.06.03 11:33:40.
