data_PCOD9036575
_publ_section_title
;
Structure prediction by ZEFSAII (Michael W. Deem and Ramdas Pophale) SiO2 
 PCOD9036575
Probable space group: P -1
;
_chemical_formula_sum "Si O2"
_cell_formula_units_Z 16
_cell_length_a 9.576778
_cell_length_b 17.996092
_cell_length_c 20.371136
_cell_angle_alpha 19.521758
_cell_angle_beta 44.431306
_cell_angle_gamma 38.357053
_cell_volume 722.737496
_symmetry_space_group_name_H-M "P -1"
_symmetry_group_IT_number 2
_symmetry_cell_setting 'triclinic'
loop_
_space_group_symop_operation_xyz
x,y,z
-x,-y,-z
loop_
_atom_site_type_symbol
_atom_site_label
_atom_site_fract_x
_atom_site_fract_y
_atom_site_fract_z
Si Si1 0.051377 0.104499 0.329716
Si Si2 0.596141 0.769795 0.843503
Si Si3 0.628926 0.286206 0.223940
Si Si4 0.383216 0.855847 0.306005
Si Si5 0.066486 0.712666 0.278573
Si Si6 0.173875 0.685667 0.403734
Si Si7 0.293732 0.180036 0.503640
Si Si8 0.624165 0.159392 0.001390
O O1 0.243221 0.914864 0.372007
O O2 0.158788 0.273414 0.181449
O O3 0.000000 0.000000 0.500000
O O4 0.823407 0.222374 0.266217
O O5 0.472013 0.769076 0.952932
O O6 0.455171 0.033261 0.633349
O O7 0.606874 0.541195 0.987807
O O8 0.403868 0.315119 0.311268
O O9 0.704395 0.045944 0.352200
O O10 0.240009 0.835089 0.310694
O O11 0.606906 0.582709 0.460629
O O12 0.457822 0.074771 0.090857
O O13 0.088955 0.829412 0.243370
O O14 0.000000 0.500000 0.500000
O O15 0.301915 0.648021 0.216853
O O16 0.859872 0.903812 0.144723
O O17 0.964475 0.649973 0.530263
#
# Coordination Sequence:
#
# PCOD9036575 Si02
#       8
#     2   2   2   2   2   2   2   2
#     4  11  22  43  67  95 133 169 220 267 319 389
#     4  11  23  39  67  95 125 170 215 272 322 381
#     4  11  24  41  66  94 131 168 221 267 328 379
#     4  10  23  42  65  98 126 177 219 259 326 392
#     4  11  22  38  65  93 126 168 207 263 321 385
#     4  11  22  41  69  89 136 171 212 268 326 385
#     4  11  23  42  65  96 129 171 212 275 323 387
#     4  10  23  38  61  95 127 158 219 261 315 389
#
# _framework density 22.13805
#
# number of rings (size 3 to 8) (size 9 to 14) (size 15 to 20)
#    0.000    1.250    5.000    0.750    1.750    1.500 
#    0.000    0.000    2.750    0.000    0.000    0.000 
#    0.000    0.000    0.000    0.000    0.000    0.000 
#
# Total GULP energy -89345.096047 kJ/mol
# GULP energy per Si atom -5584.068503 kJ/mol
# Density = 2.208766 g / cm^3
# Si number density = 22.138050 Si / 1000 Ang^3
#
#
#
# Elastic Constant Matrix: (Units=GPa)
#
#
# Indices 1 2 3 4 5 6 
#
# 1 112.8979 5.4445 13.1530 3.6572 -22.7754 2.1745
# 2 5.4445 74.9163 16.5634 25.2135 -11.5840 -3.0027
# 3 13.1530 16.5634 82.6993 14.0362 -20.0517 2.2955
# 4 3.6572 25.2135 14.0362 34.3635 0.4250 -3.4993
# 5 -22.7754 -11.5840 -20.0517 0.4250 32.1910 -1.8516
# 6 2.1745 -3.0027 2.2955 -3.4993 -1.8516 36.9888
#
#
#
# Elastic Compliance Matrix: (Units=1/GPa)
#
#
# Indices 1 2 3 4 5 6 
#
# 1 0.010467 0.001145 0.000473 -0.002284 0.008121 -0.000361
# 2 0.001145 0.019368 0.000392 -0.014542 0.008246 0.000518
# 3 0.000473 0.000392 0.015635 -0.006964 0.010242 -0.001112
# 4 -0.002284 -0.014542 -0.006964 0.043297 -0.011592 0.002902
# 5 0.008121 0.008246 0.010242 -0.011592 0.046355 0.000780
# 6 -0.000361 0.000518 -0.001112 0.002902 0.000780 0.027481
#
#
# Mechanical properties :
#
#
# Convention : Reuss Voigt Hill
#
# Bulk Modulus (GPa) = 20.20673 37.87061 29.03867
# Shear Modulus (GPa) = 28.55835 36.39883 32.47859
#
# Velocity S-wave (km/s) = 3.59557 4.05924 3.83442
# Velocity P-wave (km/s) = 5.13663 6.25409 5.72270
#
# Compressibility (1/GPa) = 0.04948845
#
# Stress axis : x y z
#
# Youngs Moduli (GPa) = 95.54283 51.63041 63.96101
#
# Poissons Ratio (x) = -0.05911 -0.03024
# Poissons Ratio (y) = -0.10938 -0.02506
# Poissons Ratio (z) = -0.04518 -0.02023
#
# Static dielectric constant tensor:
#      x y z
#    x 1.823600 0.006240 -0.011940 
#    y 0.006240 1.848130 -0.016570 
#    z -0.011940 -0.016570 1.857900 
# 
# From -- ./inp_files/451043.got.cif
#   From: 2010.05.17/outbox.cif.g08.bks.cpg/sg2_226_cif.got.tgz:451043.got - 2010.06.03 11:33:40.
