data_PCOD9036838
_publ_section_title
;
Structure prediction by ZEFSAII (Michael W. Deem and Ramdas Pophale) SiO2 
 PCOD9036838
Probable space group: P -1
;
_chemical_formula_sum "Si O2"
_cell_formula_units_Z 12
_cell_length_a 14.198839
_cell_length_b 6.575780
_cell_length_c 12.399173
_cell_angle_alpha 109.605193
_cell_angle_beta 31.400756
_cell_angle_gamma 93.994486
_cell_volume 509.812985
_symmetry_space_group_name_H-M "P -1"
_symmetry_group_IT_number 2
_symmetry_cell_setting 'triclinic'
loop_
_space_group_symop_operation_xyz
x,y,z
-x,-y,-z
loop_
_atom_site_type_symbol
_atom_site_label
_atom_site_fract_x
_atom_site_fract_y
_atom_site_fract_z
Si Si1 0.280645 0.771826 0.650885
Si Si2 0.822881 0.441885 0.900474
Si Si3 0.111082 0.275628 0.929401
Si Si4 0.831185 0.907461 0.622340
Si Si5 0.577042 0.821966 0.044056
Si Si6 0.396338 0.753293 0.786577
O O1 0.338284 0.770579 0.720933
O O2 0.435193 0.519293 0.407145
O O3 0.063874 0.773914 0.854419
O O4 0.255849 0.031463 0.682918
O O5 0.786782 0.639659 0.062834
O O6 0.049133 0.320408 0.613065
O O7 0.673790 0.576386 0.972732
O O8 0.785413 0.235345 0.959620
O O9 0.000000 0.500000 0.000000
O O10 0.636136 0.112401 0.791585
O O11 0.737310 0.823714 0.798941
O O12 0.000000 0.000000 0.500000
O O13 0.544446 0.043468 0.194849
#
# Coordination Sequence:
#
# PCOD9036838 Si02
#       6
#     2   2   2   2   2   2
#     4  10  23  39  63  95 138 182 224 279 327 405
#     4  12  24  43  70 102 136 183 227 283 344 406
#     4  11  22  40  64  97 136 182 227 273 337 402
#     4  11  25  48  74  98 135 176 234 286 349 411
#     4  11  25  48  70 102 139 177 226 292 343 404
#     4  11  22  42  65  98 137 177 231 275 338 406
#
# _framework density 23.538041
#
# number of rings (size 3 to 8) (size 9 to 14) (size 15 to 20)
#    0.000    1.000    5.000    1.500    0.000    4.000 
#    6.000    0.000    0.000    0.000    0.000    0.000 
#    0.000    0.000    0.000    0.000    0.000    0.000 
#
# Total GULP energy -67118.341101 kJ/mol
# GULP energy per Si atom -5593.195092 kJ/mol
# Density = 2.348447 g / cm^3
# Si number density = 23.538041 Si / 1000 Ang^3
#
#
#
# Elastic Constant Matrix: (Units=GPa)
#
#
# Indices 1 2 3 4 5 6 
#
# 1 57.9930 17.1678 6.5629 -17.6170 -16.9658 1.4896
# 2 17.1678 89.4034 16.3819 14.4846 1.4129 -9.7451
# 3 6.5629 16.3819 90.1376 3.6440 -0.3563 0.3493
# 4 -17.6170 14.4846 3.6440 33.5862 4.7558 -1.4490
# 5 -16.9658 1.4129 -0.3563 4.7558 35.0622 -0.6126
# 6 1.4896 -9.7451 0.3493 -1.4490 -0.6126 45.9787
#
#
#
# Elastic Compliance Matrix: (Units=1/GPa)
#
#
# Indices 1 2 3 4 5 6 
#
# 1 0.028521 -0.008414 -0.001179 0.016960 0.011792 -0.002007
# 2 -0.008414 0.015163 -0.001757 -0.010164 -0.003267 0.003136
# 3 -0.001179 -0.001757 0.011545 -0.001099 -0.000241 -0.000460
# 4 0.016960 -0.010164 -0.001099 0.042722 0.002788 -0.001312
# 5 0.011792 -0.003267 -0.000241 0.002788 0.033969 -0.000532
# 6 -0.002007 0.003136 -0.000460 -0.001312 -0.000532 0.022434
#
#
# Mechanical properties :
#
#
# Convention : Reuss Voigt Hill
#
# Bulk Modulus (GPa) = 30.74161 35.30657 33.02409
# Shear Modulus (GPa) = 26.61048 36.08683 31.34865
#
# Velocity S-wave (km/s) = 3.36598 3.91977 3.65338
# Velocity P-wave (km/s) = 5.30992 5.95973 5.64419
#
# Compressibility (1/GPa) = 0.03252920
#
# Stress axis : x y z
#
# Youngs Moduli (GPa) = 35.06164 65.94965 86.62052
#
# Poissons Ratio (x) = 0.55488 0.10210
# Poissons Ratio (y) = 0.29500 0.15222
# Poissons Ratio (z) = 0.04133 0.11590
#
# Static dielectric constant tensor:
#      x y z
#    x 1.884680 0.038060 0.015080 
#    y 0.038060 1.958040 0.002580 
#    z 0.015080 0.002580 1.941240 
# 
# From -- ./inp_files/301007.got.cif
#   From: 2010.05.17/outbox.cif.g08.bks.cpg/sg2_151_cif.got.tgz:301007.got - 2010.06.03 11:33:40.
