data_PCOD9036269
_publ_section_title
;
Structure prediction by ZEFSAII (Michael W. Deem and Ramdas Pophale) SiO2 
 PCOD9036269
Probable space group: P -1
;
_chemical_formula_sum "Si O2"
_cell_formula_units_Z 16
_cell_length_a 25.566652
_cell_length_b 9.037590
_cell_length_c 6.148266
_cell_angle_alpha 99.728532
_cell_angle_beta 62.306877
_cell_angle_gamma 142.418283
_cell_volume 713.012288
_symmetry_space_group_name_H-M "P -1"
_symmetry_group_IT_number 2
_symmetry_cell_setting 'triclinic'
loop_
_space_group_symop_operation_xyz
x,y,z
-x,-y,-z
loop_
_atom_site_type_symbol
_atom_site_label
_atom_site_fract_x
_atom_site_fract_y
_atom_site_fract_z
Si Si1 0.759078 0.433281 0.740282
Si Si2 0.461765 0.469538 0.311205
Si Si3 0.933010 0.213882 0.998943
Si Si4 0.186311 0.860802 0.155401
Si Si5 0.046504 0.314759 0.460864
Si Si6 0.564660 0.988080 0.325063
Si Si7 0.697921 0.085898 0.404261
Si Si8 0.172171 0.117649 0.468092
O O1 0.864592 0.623769 0.719546
O O2 0.758977 0.301993 0.524646
O O3 0.765409 0.606733 0.653340
O O4 0.658002 0.208589 0.029010
O O5 0.500000 0.500000 0.500000
O O6 0.488140 0.699067 0.319233
O O7 0.350837 0.163007 0.457109
O O8 0.500000 0.500000 0.000000
O O9 0.857854 0.979148 0.253027
O O10 0.863585 0.138863 0.928750
O O11 0.000000 0.500000 0.000000
O O12 0.007401 0.242405 0.765003
O O13 0.100060 0.586527 0.377539
O O14 0.230021 0.083886 0.275499
O O15 0.250904 0.871528 0.904351
O O16 0.943610 0.096266 0.461721
O O17 0.614472 0.030056 0.462704
O O18 0.500000 0.000000 0.500000
#
# Coordination Sequence:
#
# PCOD9036269 Si02
#       8
#     2   2   2   2   2   2   2   2
#     4  12  26  44  67 103 141 181 229 289 367 425
#     4  10  22  48  76 107 137 187 238 297 372 442
#     4  11  19  38  63  94 132 178 234 285 338 401
#     4  11  22  40  68  95 129 184 235 284 338 416
#     4  11  22  41  68  94 141 186 231 282 344 424
#     4  11  26  49  73 100 142 179 232 306 369 435
#     4  11  25  45  70 101 137 182 236 288 358 442
#     4  11  25  41  65 103 140 184 233 288 348 413
#
# _framework density 22.440006
#
# number of rings (size 3 to 8) (size 9 to 14) (size 15 to 20)
#    0.000    1.000    5.000    1.875    1.750    3.000 
#    0.000    0.000    0.000    0.000    0.000    0.000 
#    0.000    0.000    0.000    0.000    0.000    0.000 
#
# Total GULP energy -89146.925642 kJ/mol
# GULP energy per Si atom -5571.682853 kJ/mol
# Density = 2.238893 g / cm^3
# Si number density = 22.440006 Si / 1000 Ang^3
#
#
#
# Elastic Constant Matrix: (Units=GPa)
#
#
# Indices 1 2 3 4 5 6 
#
# 1 97.0517 27.0983 39.5285 2.6406 -6.5569 -13.6010
# 2 27.0983 97.8426 28.3017 -5.3996 5.4567 -34.3288
# 3 39.5285 28.3017 126.9596 -0.7776 0.5882 -24.0707
# 4 2.6406 -5.3996 -0.7776 27.0249 -10.7686 12.1643
# 5 -6.5569 5.4567 0.5882 -10.7686 39.4780 -4.2181
# 6 -13.6010 -34.3288 -24.0707 12.1643 -4.2181 30.5142
#
#
#
# Elastic Compliance Matrix: (Units=1/GPa)
#
#
# Indices 1 2 3 4 5 6 
#
# 1 0.012625 -0.002252 -0.003156 -0.001599 0.002184 0.001543
# 2 -0.002252 0.018387 0.000938 -0.007447 -0.002499 0.023044
# 3 -0.003156 0.000938 0.010371 -0.003666 -0.000828 0.009176
# 4 -0.001599 -0.007447 -0.003666 0.054988 0.012378 -0.032193
# 5 0.002184 -0.002499 -0.000828 0.012378 0.029063 -0.003408
# 6 0.001543 0.023044 0.009176 -0.032193 -0.003408 0.078985
#
#
# Mechanical properties :
#
#
# Convention : Reuss Voigt Hill
#
# Bulk Modulus (GPa) = 30.82474 56.85679 43.84076
# Shear Modulus (GPa) = 22.30387 34.53179 28.41783
#
# Velocity S-wave (km/s) = 3.15609 3.92707 3.56250
# Velocity P-wave (km/s) = 5.20073 6.77900 6.04162
#
# Compressibility (1/GPa) = 0.03244148
#
# Stress axis : x y z
#
# Youngs Moduli (GPa) = 79.20483 54.38696 96.41963
#
# Poissons Ratio (x) = 0.12250 0.30432
# Poissons Ratio (y) = 0.17840 -0.09040
# Poissons Ratio (z) = 0.24998 -0.05099
#
# Static dielectric constant tensor:
#      x y z
#    x 2.030960 0.137250 0.005330 
#    y 0.137250 1.904370 -0.027520 
#    z 0.005330 -0.027520 1.830360 
# 
# From -- ./inp_files/39741.got.cif
#   From: 2010.05.17/outbox.cif.g08.bks.cpg/sg2_20_cif.got.tgz:39741.got - 2010.06.03 11:33:40.
