data_PCOD9036087
_publ_section_title
;
Structure prediction by ZEFSAII (Michael W. Deem and Ramdas Pophale) SiO2 
 PCOD9036087
Probable space group: P -1
;
_chemical_formula_sum "Si O2"
_cell_formula_units_Z 16
_cell_length_a 13.279076
_cell_length_b 19.352436
_cell_length_c 8.518480
_cell_angle_alpha 65.097686
_cell_angle_beta 64.535299
_cell_angle_gamma 20.264175
_cell_volume 683.433633
_symmetry_space_group_name_H-M "P -1"
_symmetry_group_IT_number 2
_symmetry_cell_setting 'triclinic'
loop_
_space_group_symop_operation_xyz
x,y,z
-x,-y,-z
loop_
_atom_site_type_symbol
_atom_site_label
_atom_site_fract_x
_atom_site_fract_y
_atom_site_fract_z
Si Si1 0.911637 0.140837 0.394729
Si Si2 0.626000 0.583340 0.678932
Si Si3 0.622596 0.769366 0.548827
Si Si4 0.299877 0.671695 0.348073
Si Si5 0.350019 0.918789 0.052209
Si Si6 0.571951 0.634205 0.016427
Si Si7 0.101927 0.397310 0.799343
Si Si8 0.124038 0.158856 0.712260
O O1 0.582573 0.334034 0.371693
O O2 0.953952 0.148997 0.529525
O O3 0.000000 0.000000 0.500000
O O4 0.104122 0.058706 0.212737
O O5 0.585275 0.701298 0.594059
O O6 0.952969 0.346971 0.647640
O O7 0.531503 0.624299 0.881232
O O8 0.722478 0.738799 0.343399
O O9 0.869594 0.603838 0.680191
O O10 0.371151 0.980981 0.589292
O O11 0.500000 0.500000 0.500000
O O12 0.485163 0.626790 0.209080
O O13 0.142540 0.731387 0.251424
O O14 0.371001 0.834862 0.996178
O O15 0.661622 0.723331 0.119055
O O16 0.267757 0.045837 0.889659
O O17 0.901801 0.458470 0.953395
#
# Coordination Sequence:
#
# PCOD9036087 Si02
#       8
#     2   2   2   2   2   2   2   2
#     4  12  24  41  71 102 130 184 233 289 351 418
#     4  11  24  45  68 109 140 178 232 291 357 410
#     4  10  23  46  78  99 143 182 236 288 345 412
#     4  12  26  44  66 102 138 178 232 294 353 411
#     4  12  24  41  74 101 140 187 236 280 353 421
#     4  11  25  44  69  98 140 186 227 287 347 414
#     4  10  22  47  73 101 138 191 234 286 339 417
#     4  12  25  44  73 106 140 184 228 294 357 415
#
# _framework density 23.411197999999999
#
# number of rings (size 3 to 8) (size 9 to 14) (size 15 to 20)
#    0.000    0.750    5.000    3.375    1.750    2.000 
#    0.000    8.125    2.750    0.000    0.000    0.000 
#    0.000    0.000    0.000    0.000    0.000    0.000 
#
# Total GULP energy -89267.220266 kJ/mol
# GULP energy per Si atom -5579.201267 kJ/mol
# Density = 2.335791 g / cm^3
# Si number density = 23.411198 Si / 1000 Ang^3
#
#
#
# Elastic Constant Matrix: (Units=GPa)
#
#
# Indices 1 2 3 4 5 6 
#
# 1 77.9709 29.3077 22.4325 -3.7178 22.2004 -1.0000
# 2 29.3077 117.7660 49.2838 1.2975 -3.2253 4.8425
# 3 22.4325 49.2838 85.4039 30.1775 3.5002 5.1122
# 4 -3.7178 1.2975 30.1775 39.1390 -10.0741 12.1412
# 5 22.2004 -3.2253 3.5002 -10.0741 31.3617 -1.8663
# 6 -1.0000 4.8425 5.1122 12.1412 -1.8663 27.0290
#
#
#
# Elastic Compliance Matrix: (Units=1/GPa)
#
#
# Indices 1 2 3 4 5 6 
#
# 1 0.018870 -0.004410 -0.001680 -0.000669 -0.013770 0.001156
# 2 -0.004410 0.014945 -0.011952 0.012508 0.009682 -0.005530
# 3 -0.001680 -0.011952 0.028720 -0.027418 -0.011567 0.008164
# 4 -0.000669 0.012508 -0.027418 0.058781 0.022396 -0.021938
# 5 -0.013770 0.009682 -0.011567 0.022396 0.050721 -0.006614
# 6 0.001156 -0.005530 0.008164 -0.021938 -0.006614 0.045884
#
#
# Mechanical properties :
#
#
# Convention : Reuss Voigt Hill
#
# Bulk Modulus (GPa) = 37.80394 53.68764 45.74579
# Shear Modulus (GPa) = 19.02422 31.51375 25.26898
#
# Velocity S-wave (km/s) = 2.85373 3.67290 3.28892
# Velocity P-wave (km/s) = 5.20012 6.40072 5.83140
#
# Compressibility (1/GPa) = 0.02645227
#
# Stress axis : x y z
#
# Youngs Moduli (GPa) = 52.99443 66.91059 34.81834
#
# Poissons Ratio (x) = 0.29510 0.05849
# Poissons Ratio (y) = 0.23372 0.41613
# Poissons Ratio (z) = 0.08902 0.79969
#
# Static dielectric constant tensor:
#      x y z
#    x 1.880600 0.029540 -0.035280 
#    y 0.029540 1.971030 0.043830 
#    z -0.035280 0.043830 1.808930 
# 
# From -- ./inp_files/319284.got.cif
#   From: 2010.05.17/outbox.cif.g08.bks.cpg/sg2_160_cif.got.tgz:319284.got - 2010.06.03 11:33:40.
