data_PCOD9036219
_publ_section_title
;
Structure prediction by ZEFSAII (Michael W. Deem and Ramdas Pophale) SiO2 
 PCOD9036219
Probable space group: P -1
;
_chemical_formula_sum "Si O2"
_cell_formula_units_Z 14
_cell_length_a 14.997747
_cell_length_b 9.936874
_cell_length_c 9.781673
_cell_angle_alpha 100.249034
_cell_angle_beta 56.121518
_cell_angle_gamma 49.569250
_cell_volume 479.904299
_symmetry_space_group_name_H-M "P -1"
_symmetry_group_IT_number 2
_symmetry_cell_setting 'triclinic'
loop_
_space_group_symop_operation_xyz
x,y,z
-x,-y,-z
loop_
_atom_site_type_symbol
_atom_site_label
_atom_site_fract_x
_atom_site_fract_y
_atom_site_fract_z
Si Si1 0.547447 0.240226 0.041545
Si Si2 0.096202 0.516186 0.829321
Si Si3 0.987652 0.149493 0.448509
Si Si4 0.253832 0.452376 0.939429
Si Si5 0.102988 0.370646 0.232326
Si Si6 0.818662 0.107874 0.082374
Si Si7 0.364230 0.741780 0.405953
O O1 0.303123 0.448322 0.223909
O O2 0.802577 0.988495 0.693713
O O3 0.661430 0.017095 0.025176
O O4 0.427086 0.530962 0.228346
O O5 0.129544 0.415976 0.631000
O O6 0.311234 0.338637 0.712171
O O7 0.000000 0.500000 0.000000
O O8 0.878875 0.888626 0.054382
O O9 0.534016 0.681048 0.219892
O O10 0.054149 0.051358 0.212382
O O11 0.000000 0.000000 0.500000
O O12 0.225927 0.354642 0.043100
O O13 0.950634 0.864852 0.260865
O O14 0.000000 0.500000 0.500000
O O15 0.525073 0.505457 0.362210
O O16 0.000000 0.000000 0.000000
#
# Coordination Sequence:
#
# PCOD9036219 Si02
#       7
#     2   2   2   2   2   2   2
#     4  11  25  47  79 109 153 194 251 308 371 437
#     4  10  22  48  71 107 150 198 244 307 369 443
#     4  11  25  46  73 112 152 192 241 305 374 433
#     4  11  26  47  78 111 152 193 246 305 379 444
#     4  11  26  50  73 107 151 204 251 303 369 446
#     4  11  22  43  74 113 146 188 247 308 372 440
#     4  11  23  46  76 116 146 189 245 311 374 441
#
# _framework density 29.17248
#
# number of rings (size 3 to 8) (size 9 to 14) (size 15 to 20)
#    0.000    1.143    4.286    2.143    0.000    8.571 
#    0.000    5.000    0.000    0.000    0.000    0.000 
#    0.000    0.000    0.000    0.000    0.000    0.000 
#
# Total GULP energy -78313.146200 kJ/mol
# GULP energy per Si atom -5593.796157 kJ/mol
# Density = 2.910608 g / cm^3
# Si number density = 29.172480 Si / 1000 Ang^3
#
#
#
# Elastic Constant Matrix: (Units=GPa)
#
#
# Indices 1 2 3 4 5 6 
#
# 1 172.8148 58.4767 47.9987 16.5570 -10.4433 -16.1854
# 2 58.4767 239.9026 62.1208 5.2149 -4.5757 28.7019
# 3 47.9987 62.1208 74.6216 3.4524 13.4727 -27.6721
# 4 16.5570 5.2149 3.4524 57.4296 -26.0376 6.9001
# 5 -10.4433 -4.5757 13.4727 -26.0376 63.6098 -5.3053
# 6 -16.1854 28.7019 -27.6721 6.9001 -5.3053 65.6212
#
#
#
# Elastic Compliance Matrix: (Units=1/GPa)
#
#
# Indices 1 2 3 4 5 6 
#
# 1 0.007476 -0.000774 -0.004147 -0.001183 0.001624 0.000690
# 2 -0.000774 0.007619 -0.009165 0.002165 0.002631 -0.007403
# 3 -0.004147 -0.009165 0.031635 -0.005961 -0.009128 0.016215
# 4 -0.001183 0.002165 -0.005961 0.023221 0.010282 -0.005363
# 5 0.001624 0.002631 -0.009128 0.010282 0.021993 -0.003903
# 6 0.000690 -0.007403 0.016215 -0.005363 -0.003903 0.025733
#
#
# Mechanical properties :
#
#
# Convention : Reuss Voigt Hill
#
# Bulk Modulus (GPa) = 53.88686 91.61461 72.75073
# Shear Modulus (GPa) = 32.88637 58.58162 45.73400
#
# Velocity S-wave (km/s) = 3.36118 4.48606 3.96373
# Velocity P-wave (km/s) = 5.79442 7.63581 6.77794
#
# Compressibility (1/GPa) = 0.01855740
#
# Stress axis : x y z
#
# Youngs Moduli (GPa) = 133.75417 131.24597 31.61016
#
# Poissons Ratio (x) = 0.10163 0.13109
# Poissons Ratio (y) = 0.10357 0.28972
# Poissons Ratio (z) = 0.55469 1.20292
#
# Static dielectric constant tensor:
#      x y z
#    x 2.376400 -0.045780 -0.026940 
#    y -0.045780 2.271540 -0.021730 
#    z -0.026940 -0.021730 2.625780 
# 
# From -- ./inp_files/344270.got.cif
#   From: 2010.05.17/outbox.cif.g08.bks.cpg/sg2_173_cif.got.tgz:344270.got - 2010.06.03 11:33:40.
