data_PCOD9036358
_publ_section_title
;
Structure prediction by ZEFSAII (Michael W. Deem and Ramdas Pophale) SiO2 
 PCOD9036358
Probable space group: P -1
;
_chemical_formula_sum "Si O2"
_cell_formula_units_Z 16
_cell_length_a 8.202061
_cell_length_b 13.748154
_cell_length_c 8.948467
_cell_angle_alpha 87.487090
_cell_angle_beta 56.374220
_cell_angle_gamma 57.311336
_cell_volume 658.572668
_symmetry_space_group_name_H-M "P -1"
_symmetry_group_IT_number 2
_symmetry_cell_setting 'triclinic'
loop_
_space_group_symop_operation_xyz
x,y,z
-x,-y,-z
loop_
_atom_site_type_symbol
_atom_site_label
_atom_site_fract_x
_atom_site_fract_y
_atom_site_fract_z
Si Si1 0.351549 0.431726 0.790770
Si Si2 0.901231 0.357558 0.527386
Si Si3 0.206047 0.322907 0.614273
Si Si4 0.129755 0.331490 0.091238
Si Si5 0.868480 0.918631 0.540373
Si Si6 0.668491 0.877008 0.218767
Si Si7 0.861113 0.029248 0.817308
Si Si8 0.668088 0.110418 0.207646
O O1 0.616998 0.405145 0.655091
O O2 0.301252 0.377804 0.674571
O O3 0.122066 0.577252 0.887383
O O4 0.298340 0.373766 0.959119
O O5 0.960807 0.412178 0.630619
O O6 0.019969 0.356172 0.311252
O O7 0.065267 0.212813 0.498054
O O8 0.179239 0.233952 0.734472
O O9 0.432706 0.232758 0.392542
O O10 0.274789 0.192384 0.962765
O O11 0.083802 0.909184 0.344471
O O12 0.619675 0.042041 0.589862
O O13 0.821227 0.949247 0.738225
O O14 0.693755 0.984696 0.203911
O O15 0.672059 0.129763 0.027287
O O16 0.095962 0.930906 0.810266
#
# Coordination Sequence:
#
# PCOD9036358 Si02
#       8
#     2   2   2   2   2   2   2   2
#     4  10  25  51  70  93 137 175 227 285 331 388
#     4  12  24  41  73 102 127 178 226 275 338 399
#     4  11  23  40  68 100 135 177 216 281 338 392
#     4  10  25  47  71  96 130 183 225 276 335 394
#     4  11  22  38  60  94 134 172 211 265 334 398
#     4  11  22  41  62  88 141 171 206 272 333 395
#     4  10  23  33  57  89 132 177 215 257 324 410
#     4  11  20  38  56  94 136 165 215 271 331 396
#
# _framework density 24.294964
#
# number of rings (size 3 to 8) (size 9 to 14) (size 15 to 20)
#    0.000    1.250    2.500    3.000    7.000    2.500 
#    0.000    8.125    0.000    0.000    0.000    0.000 
#    0.000    0.000    0.000    0.000    0.000    0.000 
#
# Total GULP energy -89325.772841 kJ/mol
# GULP energy per Si atom -5582.860803 kJ/mol
# Density = 2.423967 g / cm^3
# Si number density = 24.294964 Si / 1000 Ang^3
#
#
#
# Elastic Constant Matrix: (Units=GPa)
#
#
# Indices 1 2 3 4 5 6 
#
# 1 92.2240 19.6607 38.9641 0.2478 -3.3791 -15.4415
# 2 19.6607 60.3080 32.3190 1.5896 11.9939 4.2194
# 3 38.9641 32.3190 153.3242 -14.0744 -3.0145 0.1880
# 4 0.2478 1.5896 -14.0744 42.1220 -3.9507 5.6566
# 5 -3.3791 11.9939 -3.0145 -3.9507 26.4900 -2.6612
# 6 -15.4415 4.2194 0.1880 5.6566 -2.6612 20.0614
#
#
#
# Elastic Compliance Matrix: (Units=1/GPa)
#
#
# Indices 1 2 3 4 5 6 
#
# 1 0.016033 -0.005676 -0.003009 -0.002386 0.005419 0.014954
# 2 -0.005676 0.024093 -0.004079 -0.002079 -0.013472 -0.010599
# 3 -0.003009 -0.004079 0.008531 0.003573 0.002748 -0.002181
# 4 -0.002386 -0.002079 0.003573 0.026540 0.004162 -0.008364
# 5 0.005419 -0.013472 0.002748 0.004162 0.046680 0.011998
# 6 0.014954 -0.010599 -0.002181 -0.008364 0.011998 0.067557
#
#
# Mechanical properties :
#
#
# Convention : Reuss Voigt Hill
#
# Bulk Modulus (GPa) = 43.23238 54.19376 48.71307
# Shear Modulus (GPa) = 22.45456 32.06219 27.25837
#
# Velocity S-wave (km/s) = 3.04344 3.63672 3.35323
# Velocity P-wave (km/s) = 5.49395 6.32371 5.92338
#
# Compressibility (1/GPa) = 0.02313081
#
# Stress axis : x y z
#
# Youngs Moduli (GPa) = 62.37056 41.50530 117.21616
#
# Poissons Ratio (x) = 0.23557 0.35269
# Poissons Ratio (y) = 0.35399 0.47812
# Poissons Ratio (z) = 0.18767 0.16930
#
# Static dielectric constant tensor:
#      x y z
#    x 2.133640 -0.013970 -0.029930 
#    y -0.013970 1.930990 -0.027810 
#    z -0.029930 -0.027810 1.978670 
# 
# From -- ./inp_files/215100.got.cif
#   From: 2010.05.17/outbox.cif.g08.bks.cpg/sg2_108_cif.got.tgz:215100.got - 2010.06.03 11:33:40.
