data_PCOD9036980
_publ_section_title
;
Structure prediction by ZEFSAII (Michael W. Deem and Ramdas Pophale) SiO2 
 PCOD9036980
Probable space group: P -1
;
_chemical_formula_sum "Si O2"
_cell_formula_units_Z 14
_cell_length_a 26.905264
_cell_length_b 5.359465
_cell_length_c 8.660660
_cell_angle_alpha 83.238617
_cell_angle_beta 145.899042
_cell_angle_gamma 107.098457
_cell_volume 650.544158
_symmetry_space_group_name_H-M "P -1"
_symmetry_group_IT_number 2
_symmetry_cell_setting 'triclinic'
loop_
_space_group_symop_operation_xyz
x,y,z
-x,-y,-z
loop_
_atom_site_type_symbol
_atom_site_label
_atom_site_fract_x
_atom_site_fract_y
_atom_site_fract_z
Si Si1 0.209593 0.481326 0.415589
Si Si2 0.209546 0.937984 0.632307
Si Si3 0.346996 0.444055 0.516613
Si Si4 0.346961 0.249850 0.218300
Si Si5 0.999978 0.730237 0.103704
Si Si6 0.456249 0.779127 0.276894
Si Si7 0.543869 0.866787 0.996008
O O1 0.213604 0.713721 0.534011
O O2 0.284390 0.554895 0.460440
O O3 0.103314 0.386403 0.075986
O O4 0.218848 0.218968 0.547181
O O5 0.103236 0.820214 0.440415
O O6 0.284292 0.013886 0.961317
O O7 0.296744 0.296960 0.241827
O O8 0.446003 0.657924 0.693015
O O9 0.386520 0.266075 0.744408
O O10 0.386721 0.506813 0.188671
O O11 0.445823 0.233427 0.536736
O O12 0.000000 0.500000 0.000000
O O13 0.000000 0.000000 0.000000
O O14 0.500000 0.000000 0.500000
O O15 0.408041 0.907942 0.020130
O O16 0.500000 0.000000 0.000000
#
# Coordination Sequence:
#
# PCOD9036980 Si02
#       7
#     2   2   2   2   2   2   2
#     4  10  23  39  67  95 125 166 213 261 318 386
#     4  10  23  39  67  95 125 166 213 261 318 386
#     4  11  25  40  59  96 126 166 217 267 318 379
#     4  11  25  40  59  96 126 166 217 267 318 379
#     4   8  16  38  61  92 125 158 205 260 313 380
#     4  11  24  41  61  82 129 174 215 261 319 373
#     4  11  24  41  61  82 129 174 215 261 319 373
#
# _framework density 21.520443
#
# number of rings (size 3 to 8) (size 9 to 14) (size 15 to 20)
#    0.000    1.714    2.857    0.000    8.000    0.000 
#    0.000    0.714    0.000    0.000    0.000   13.000 
#    0.000    0.000    0.000    0.857    0.000    0.000 
#
# Total GULP energy -78045.559169 kJ/mol
# GULP energy per Si atom -5574.682798 kJ/mol
# Density = 2.147146 g / cm^3
# Si number density = 21.520443 Si / 1000 Ang^3
#
#
#
# Elastic Constant Matrix: (Units=GPa)
#
#
# Indices 1 2 3 4 5 6 
#
# 1 77.5295 14.1577 107.6081 -1.6969 -8.2493 -38.9000
# 2 14.1577 97.9216 35.6915 -2.8908 -5.2475 -16.0048
# 3 107.6081 35.6915 58.9018 38.3835 33.2096 26.8135
# 4 -1.6969 -2.8908 38.3835 29.6048 -7.8382 -17.6883
# 5 -8.2493 -5.2475 33.2096 -7.8382 29.9745 -2.0137
# 6 -38.9000 -16.0048 26.8135 -17.6883 -2.0137 32.1100
#
#
#
# Elastic Compliance Matrix: (Units=1/GPa)
#
#
# Indices 1 2 3 4 5 6 
#
# 1 0.005205 -0.003444 0.003896 -0.009172 -0.006161 -0.004103
# 2 -0.003444 0.010258 0.000970 -0.000763 -0.000448 -0.000318
# 3 0.003896 0.000970 0.000324 0.005537 0.002879 0.008163
# 4 -0.009172 -0.000763 0.005537 0.023047 -0.003008 -0.003608
# 5 -0.006161 -0.000448 0.002879 -0.003008 0.026936 -0.010059
# 6 -0.004103 -0.000318 0.008163 -0.003608 -0.010059 0.016579
#
#
# Mechanical properties :
#
#
# Convention : Reuss Voigt Hill
#
# Bulk Modulus (GPa) = 53.67128 61.02974 57.35051
# Shear Modulus (GPa) = 58.33230 23.46424 40.89827
#
# Velocity S-wave (km/s) = 5.21195 3.30559 4.36413
# Velocity P-wave (km/s) = 7.82387 6.55666 7.21813
#
# Compressibility (1/GPa) = 0.01863194
#
# Stress axis : x y z
#
# Youngs Moduli (GPa) = 192.12263 97.48505 3082.45845
#
# Poissons Ratio (x) = 0.33575 -12.00889
# Poissons Ratio (y) = 0.66168 -2.99140
# Poissons Ratio (z) = -0.74849 -0.09461
#
# Static dielectric constant tensor:
#      x y z
#    x 2.001630 -0.190500 -0.054140 
#    y -0.190500 1.960990 0.098780 
#    z -0.054140 0.098780 1.865350 
# 
# From -- ./inp_files/97733.got.cif
#   From: 2010.05.17/outbox.cif.g08.bks.cpg/sg2_49_cif.got.tgz:97733.got - 2010.06.03 11:33:40.
