data_PCOD9036876
_publ_section_title
;
Structure prediction by ZEFSAII (Michael W. Deem and Ramdas Pophale) SiO2 
 PCOD9036876
Probable space group: P -1
;
_chemical_formula_sum "Si O2"
_cell_formula_units_Z 16
_cell_length_a 17.588961
_cell_length_b 8.146034
_cell_length_c 10.389256
_cell_angle_alpha 90.747972
_cell_angle_beta 53.758965
_cell_angle_gamma 133.472738
_cell_volume 644.733904
_symmetry_space_group_name_H-M "P -1"
_symmetry_group_IT_number 2
_symmetry_cell_setting 'triclinic'
loop_
_space_group_symop_operation_xyz
x,y,z
-x,-y,-z
loop_
_atom_site_type_symbol
_atom_site_label
_atom_site_fract_x
_atom_site_fract_y
_atom_site_fract_z
Si Si1 0.285663 0.800684 0.048670
Si Si2 0.306605 0.398456 0.588910
Si Si3 0.848262 0.188739 0.065338
Si Si4 0.053077 0.909260 0.651980
Si Si5 0.985063 0.175764 0.709533
Si Si6 0.545377 0.714001 0.575138
Si Si7 0.695897 0.859489 0.802610
Si Si8 0.351275 0.802141 0.386268
O O1 0.132163 0.441558 0.198035
O O2 0.290511 0.934110 0.162544
O O3 0.232485 0.819288 0.969915
O O4 0.478754 0.009317 0.856225
O O5 0.364377 0.489192 0.680160
O O6 0.439781 0.453795 0.395155
O O7 0.325108 0.609594 0.513484
O O8 0.119674 0.042663 0.732940
O O9 0.693517 0.935403 0.318349
O O10 0.929421 0.151859 0.908305
O O11 0.000000 0.500000 0.000000
O O12 0.200846 0.024027 0.431028
O O13 0.049444 0.089481 0.611637
O O14 0.159987 0.537973 0.511622
O O15 0.814795 0.947572 0.792119
O O16 0.593123 0.937739 0.616358
O O17 0.500000 0.500000 0.000000
#
# Coordination Sequence:
#
# PCOD9036876 Si02
#       8
#     2   2   2   2   2   2   2   2
#     4  11  25  42  65  97 135 175 222 279 336 400
#     4  10  23  39  64  99 131 177 227 275 323 401
#     4  11  21  39  63  96 135 178 223 268 340 388
#     4  11  24  44  66 101 133 171 228 277 336 400
#     4  10  24  42  69  98 131 172 224 279 333 409
#     4  11  22  39  67  97 137 185 222 273 335 396
#     4  11  24  47  73  94 129 175 217 281 348 401
#     4  11  22  45  66  97 139 180 226 275 335 399
#
# _framework density 24.816438999999999
#
# number of rings (size 3 to 8) (size 9 to 14) (size 15 to 20)
#    0.000    1.250    2.500    3.375    3.500    2.000 
#    0.000    3.750    0.000    0.000    0.000    0.000 
#    0.000    0.000    0.000    0.000    0.000    0.000 
#
# Total GULP energy -89353.828044 kJ/mol
# GULP energy per Si atom -5584.614253 kJ/mol
# Density = 2.475996 g / cm^3
# Si number density = 24.816439 Si / 1000 Ang^3
#
#
#
# Elastic Constant Matrix: (Units=GPa)
#
#
# Indices 1 2 3 4 5 6 
#
# 1 51.7696 28.7484 1.5584 12.5461 -11.9181 4.7520
# 2 28.7484 154.4037 23.7549 -12.0361 -15.6659 7.8180
# 3 1.5584 23.7549 92.0591 -8.8326 -22.4737 13.7943
# 4 12.5461 -12.0361 -8.8326 48.0797 2.6745 -20.7750
# 5 -11.9181 -15.6659 -22.4737 2.6745 33.0304 -8.2293
# 6 4.7520 7.8180 13.7943 -20.7750 -8.2293 50.3006
#
#
#
# Elastic Compliance Matrix: (Units=1/GPa)
#
#
# Indices 1 2 3 4 5 6 
#
# 1 0.027249 -0.005175 0.002817 -0.010778 0.008782 -0.005557
# 2 -0.005175 0.007988 -0.001618 0.003569 0.000857 0.001305
# 3 0.002817 -0.001618 0.013783 -0.000135 0.009048 -0.002370
# 4 -0.010778 0.003569 -0.000135 0.030032 -0.001569 0.012648
# 5 0.008782 0.000857 0.009048 -0.001569 0.040776 0.002579
# 6 -0.005557 0.001305 -0.002370 0.012648 0.002579 0.026498
#
#
# Mechanical properties :
#
#
# Convention : Reuss Voigt Hill
#
# Bulk Modulus (GPa) = 24.34921 45.15066 34.74993
# Shear Modulus (GPa) = 29.76764 42.56017 36.16390
#
# Velocity S-wave (km/s) = 3.46716 4.14575 3.82154
# Velocity P-wave (km/s) = 5.08540 6.41480 5.78839
#
# Compressibility (1/GPa) = 0.04106910
#
# Stress axis : x y z
#
# Youngs Moduli (GPa) = 36.69850 125.18901 72.55221
#
# Poissons Ratio (x) = 0.64780 -0.20435
# Poissons Ratio (y) = 0.18990 0.11735
# Poissons Ratio (z) = -0.10336 0.20249
#
# Static dielectric constant tensor:
#      x y z
#    x 2.158810 0.028840 0.025220 
#    y 0.028840 1.983110 -0.002840 
#    z 0.025220 -0.002840 1.933620 
# 
# From -- ./inp_files/470023.got.cif
#   From: 2010.05.17/outbox.cif.g08.bks.cpg/sg2_236_cif.got.tgz:470023.got - 2010.06.03 11:33:40.
