data_PCOD9036546
_publ_section_title
;
Structure prediction by ZEFSAII (Michael W. Deem and Ramdas Pophale) SiO2 
 PCOD9036546
Probable space group: P -1
;
_chemical_formula_sum "Si O2"
_cell_formula_units_Z 16
_cell_length_a 9.430440
_cell_length_b 14.430843
_cell_length_c 10.891872
_cell_angle_alpha 27.918139
_cell_angle_beta 78.359733
_cell_angle_gamma 87.719305
_cell_volume 648.000577
_symmetry_space_group_name_H-M "P -1"
_symmetry_group_IT_number 2
_symmetry_cell_setting 'triclinic'
loop_
_space_group_symop_operation_xyz
x,y,z
-x,-y,-z
loop_
_atom_site_type_symbol
_atom_site_label
_atom_site_fract_x
_atom_site_fract_y
_atom_site_fract_z
Si Si1 0.629725 0.525623 0.346782
Si Si2 0.903630 0.159202 0.331059
Si Si3 0.423272 0.102461 0.241443
Si Si4 0.027036 0.420779 0.758206
Si Si5 0.053645 0.283433 0.409573
Si Si6 0.380168 0.528781 0.083924
Si Si7 0.884940 0.059960 0.041299
Si Si8 0.443364 0.171164 0.642361
O O1 0.500000 0.500000 0.500000
O O2 0.801030 0.570759 0.308724
O O3 0.579222 0.300607 0.552960
O O4 0.624986 0.722832 0.033811
O O5 0.939468 0.257213 0.346874
O O6 0.727047 0.030932 0.506820
O O7 0.000000 0.000000 0.500000
O O8 0.970355 0.302930 0.035362
O O9 0.488188 0.950749 0.326199
O O10 0.556452 0.243567 0.138354
O O11 0.008271 0.639879 0.545205
O O12 0.925453 0.291049 0.818760
O O13 0.212406 0.455839 0.144495
O O14 0.098282 0.077388 0.679691
O O15 0.383974 0.360165 0.383466
O O16 0.500000 0.500000 0.000000
O O17 0.715017 0.988978 0.098928
O O18 0.000000 0.000000 0.000000
#
# Coordination Sequence:
#
# PCOD9036546 Si02
#       8
#     2   2   2   2   2   2   2   2
#     4  11  24  42  63  90 123 162 209 256 302 361
#     4  12  22  41  66  92 132 163 201 256 315 377
#     4  11  23  41  62  92 126 161 202 253 308 368
#     4  12  25  41  66  95 125 167 207 254 317 369
#     4  11  24  41  63  96 126 163 206 255 312 372
#     4  10  23  38  59  88 127 158 196 245 301 366
#     4  11  24  44  65  90 125 166 214 260 303 363
#     4  10  24  40  61  91 121 161 205 247 308 361
#
# _framework density 24.691334999999999
#
# number of rings (size 3 to 8) (size 9 to 14) (size 15 to 20)
#    0.000    1.000    2.500    3.375    5.250    2.500 
#    0.000    0.000    0.000    0.000    0.000    0.000 
#    0.000    0.000    0.000    0.000    0.000    0.000 
#
# Total GULP energy -89536.960236 kJ/mol
# GULP energy per Si atom -5596.060015 kJ/mol
# Density = 2.463514 g / cm^3
# Si number density = 24.691335 Si / 1000 Ang^3
#
#
#
# Elastic Constant Matrix: (Units=GPa)
#
#
# Indices 1 2 3 4 5 6 
#
# 1 90.4799 7.4454 50.6838 -3.3354 -14.0694 -12.8444
# 2 7.4454 127.1663 29.2199 -27.6975 -11.7807 -8.5679
# 3 50.6838 29.2199 95.1274 -14.0349 -15.7068 4.6234
# 4 -3.3354 -27.6975 -14.0349 45.9976 -4.8028 -6.4719
# 5 -14.0694 -11.7807 -15.7068 -4.8028 41.8634 2.2149
# 6 -12.8444 -8.5679 4.6234 -6.4719 2.2149 48.0312
#
#
#
# Elastic Compliance Matrix: (Units=1/GPa)
#
#
# Indices 1 2 3 4 5 6 
#
# 1 0.017641 0.001987 -0.009788 0.000598 0.002568 0.005976
# 2 0.001987 0.010286 -0.002972 0.006214 0.002983 0.003352
# 3 -0.009788 -0.002972 0.017756 0.002586 0.003079 -0.004650
# 4 0.000598 0.006214 0.002586 0.027553 0.005845 0.004463
# 5 0.002568 0.002983 0.003079 0.005845 0.027392 0.000447
# 6 0.005976 0.003352 -0.004650 0.004463 0.000447 0.024044
#
#
# Mechanical properties :
#
#
# Convention : Reuss Voigt Hill
#
# Bulk Modulus (GPa) = 41.42855 54.16354 47.79605
# Shear Modulus (GPa) = 32.41231 42.20674 37.30953
#
# Velocity S-wave (km/s) = 3.62705 4.13894 3.89142
# Velocity P-wave (km/s) = 5.86137 6.69515 6.29209
#
# Compressibility (1/GPa) = 0.02413794
#
# Stress axis : x y z
#
# Youngs Moduli (GPa) = 56.68535 97.22084 56.31963
#
# Poissons Ratio (x) = -0.19318 0.55124
# Poissons Ratio (y) = -0.11263 0.16737
# Poissons Ratio (z) = 0.55482 0.28892
#
# Static dielectric constant tensor:
#      x y z
#    x 1.930840 0.098590 -0.037520 
#    y 0.098590 2.145840 -0.466160 
#    z -0.037520 -0.466160 3.226140 
# 
# From -- ./inp_files/398108.got.cif
#   From: 2010.05.17/outbox.cif.g08.bks.cpg/sg2_200_cif.got.tgz:398108.got - 2010.06.03 11:33:40.
