data_PCOD9036288
_publ_section_title
;
Structure prediction by ZEFSAII (Michael W. Deem and Ramdas Pophale) SiO2 
 PCOD9036288
Probable space group: P -1
;
_chemical_formula_sum "Si O2"
_cell_formula_units_Z 8
_cell_length_a 7.014045
_cell_length_b 11.300801
_cell_length_c 4.767695
_cell_angle_alpha 80.980209
_cell_angle_beta 137.689934
_cell_angle_gamma 101.704823
_cell_volume 249.083171
_symmetry_space_group_name_H-M "P -1"
_symmetry_group_IT_number 2
_symmetry_cell_setting 'triclinic'
loop_
_space_group_symop_operation_xyz
x,y,z
-x,-y,-z
loop_
_atom_site_type_symbol
_atom_site_label
_atom_site_fract_x
_atom_site_fract_y
_atom_site_fract_z
Si Si1 0.394903 0.742908 0.511582
Si Si2 0.804885 0.695327 0.497794
Si Si3 0.914871 0.081426 0.627707
Si Si4 0.000000 0.500000 0.000000
Si Si5 0.500000 0.500000 0.000000
O O1 0.617603 0.756950 0.495296
O O2 0.489462 0.657323 0.891518
O O3 0.371754 0.872159 0.578484
O O4 0.101033 0.679507 0.060742
O O5 0.955643 0.786996 0.401392
O O6 0.772356 0.547758 0.502552
O O7 0.000000 0.000000 0.500000
O O8 0.000000 0.000000 0.000000
O O9 0.250093 0.493944 0.016707
#
# Coordination Sequence:
#
# PCOD9036288 Si02
#       5
#     2   2   2   1   1
#     4  11  27  46  80 115 159 201 259 333 403 466
#     4  11  27  46  80 115 159 201 259 333 403 466
#     4  12  31  53  76 111 163 224 270 310 380 490
#     4  10  22  48  78 122 154 192 252 336 412 462
#     4  10  24  44  78 124 142 192 256 340 414 446
#
# _framework density 32.117781000000001
#
# number of rings (size 3 to 8) (size 9 to 14) (size 15 to 20)
#    0.000    1.000    0.000    4.500   21.000    4.000 
#    0.000    0.000    0.000    0.000    0.000    0.000 
#    0.000    0.000    0.000    0.000    0.000    0.000 
#
# Total GULP energy -44691.665659 kJ/mol
# GULP energy per Si atom -5586.458207 kJ/mol
# Density = 3.204468 g / cm^3
# Si number density = 32.117781 Si / 1000 Ang^3
#
#
#
# Elastic Constant Matrix: (Units=GPa)
#
#
# Indices 1 2 3 4 5 6 
#
# 1 357.1807 101.3091 95.8549 -28.0052 -41.3529 -33.7072
# 2 101.3091 223.5405 87.9833 -48.6856 -12.9539 -14.6873
# 3 95.8549 87.9833 250.0772 -31.6937 -18.7214 5.8411
# 4 -28.0052 -48.6856 -31.6937 91.4315 8.8705 -5.3676
# 5 -41.3529 -12.9539 -18.7214 8.8705 108.5276 -1.3926
# 6 -33.7072 -14.6873 5.8411 -5.3676 -1.3926 119.0611
#
#
#
# Elastic Compliance Matrix: (Units=1/GPa)
#
#
# Indices 1 2 3 4 5 6 
#
# 1 0.003583 -0.001112 -0.000905 0.000142 0.001077 0.000940
# 2 -0.001112 0.006113 -0.001436 0.002466 -0.000136 0.000619
# 3 -0.000905 -0.001436 0.004965 0.000614 0.000282 -0.000646
# 4 0.000142 0.002466 0.000614 0.012613 -0.000565 0.000876
# 5 0.001077 -0.000136 0.000282 -0.000565 0.009708 0.000362
# 6 0.000940 0.000619 -0.000646 0.000876 0.000362 0.008817
#
#
# Mechanical properties :
#
#
# Convention : Reuss Voigt Hill
#
# Bulk Modulus (GPa) = 128.98809 155.67699 142.33254
# Shear Modulus (GPa) = 90.43200 100.18078 95.30639
#
# Velocity S-wave (km/s) = 5.31201 5.59101 5.45330
# Velocity P-wave (km/s) = 8.82448 9.50027 9.16860
#
# Compressibility (1/GPa) = 0.00775265
#
# Stress axis : x y z
#
# Youngs Moduli (GPa) = 279.12179 163.59231 201.40680
#
# Poissons Ratio (x) = 0.18195 0.18233
# Poissons Ratio (y) = 0.31045 0.28930
# Poissons Ratio (z) = 0.25269 0.23498
#
# Static dielectric constant tensor:
#      x y z
#    x 2.281900 0.043650 -0.004810 
#    y 0.043650 1.428350 2.535130 
#    z -0.004810 2.535130 0.074850 
# 
# From -- ./inp_files/1961.got.cif
#   From: 2010.05.17/outbox.cif.g08.bks.cpg/sg2_1_cif.got.tgz:1961.got - 2010.06.03 11:33:40.
