data_PCOD9036409
_publ_section_title
;
Structure prediction by ZEFSAII (Michael W. Deem and Ramdas Pophale) SiO2 
 PCOD9036409
Probable space group: P -1
;
_chemical_formula_sum "Si O2"
_cell_formula_units_Z 16
_cell_length_a 14.390688
_cell_length_b 15.063386
_cell_length_c 5.258440
_cell_angle_alpha 88.241450
_cell_angle_beta 66.943237
_cell_angle_gamma 44.885575
_cell_volume 684.603105
_symmetry_space_group_name_H-M "P -1"
_symmetry_group_IT_number 2
_symmetry_cell_setting 'triclinic'
loop_
_space_group_symop_operation_xyz
x,y,z
-x,-y,-z
loop_
_atom_site_type_symbol
_atom_site_label
_atom_site_fract_x
_atom_site_fract_y
_atom_site_fract_z
Si Si1 0.529438 0.145196 0.587493
Si Si2 0.655103 0.443952 0.748228
Si Si3 0.329156 0.455712 0.773522
Si Si4 0.097408 0.498469 0.709712
Si Si5 0.634199 0.810434 0.732776
Si Si6 0.988276 0.140894 0.357293
Si Si7 0.099827 0.238306 0.428573
Si Si8 0.892242 0.931259 0.268270
O O1 0.451868 0.294214 0.644381
O O2 0.473188 0.125398 0.406519
O O3 0.711445 0.039675 0.410334
O O4 0.461154 0.147524 0.916416
O O5 0.629740 0.498462 0.487181
O O6 0.809785 0.281239 0.588547
O O7 0.500000 0.500000 0.000000
O O8 0.684607 0.498776 0.929741
O O9 0.174746 0.516375 0.816890
O O10 0.234325 0.352011 0.443576
O O11 0.998014 0.615368 0.592945
O O12 0.000000 0.500000 0.000000
O O13 0.734420 0.832553 0.667028
O O14 0.085838 0.170567 0.236927
O O15 0.071596 0.040117 0.513706
O O16 0.017895 0.085052 0.055191
O O17 0.044099 0.210737 0.718474
#
# Coordination Sequence:
#
# PCOD9036409 Si02
#       8
#     2   2   2   2   2   2   2   2
#     4  11  24  41  59  87 126 173 214 250 302 363
#     4  12  25  43  71  99 124 154 201 265 331 383
#     4  11  23  42  64  93 131 162 201 260 312 376
#     4  11  23  37  63  94 132 169 209 255 315 379
#     4  11  24  35  56  90 126 171 219 256 300 363
#     4  10  23  38  64  87 120 155 204 258 319 363
#     4  10  23  36  59  86 125 169 210 262 306 353
#     4  10  23  40  61  85 119 177 210 253 301 362
#
# _framework density 23.371205
#
# number of rings (size 3 to 8) (size 9 to 14) (size 15 to 20)
#    0.750    0.500    1.250    5.250    5.250    1.000 
#    0.000    0.000    0.000    4.500    0.000    0.000 
#    0.000    0.000    0.000    0.000    0.000    0.000 
#
# Total GULP energy -89426.156769 kJ/mol
# GULP energy per Si atom -5589.134798 kJ/mol
# Density = 2.331801 g / cm^3
# Si number density = 23.371205 Si / 1000 Ang^3
#
#
#
# Elastic Constant Matrix: (Units=GPa)
#
#
# Indices 1 2 3 4 5 6 
#
# 1 86.8984 38.1174 36.8986 4.5811 -8.4618 -22.8210
# 2 38.1174 99.2555 43.8751 4.0257 11.8871 -27.9879
# 3 36.8986 43.8751 136.6961 -10.9889 2.0206 -23.3144
# 4 4.5811 4.0257 -10.9889 35.2081 -13.2488 2.1685
# 5 -8.4618 11.8871 2.0206 -13.2488 30.2911 -5.9014
# 6 -22.8210 -27.9879 -23.3144 2.1685 -5.9014 24.2350
#
#
#
# Elastic Compliance Matrix: (Units=1/GPa)
#
#
# Indices 1 2 3 4 5 6 
#
# 1 0.018274 -0.003556 -0.001543 0.000233 0.009411 0.013887
# 2 -0.003556 0.017492 -0.002864 -0.006185 -0.007892 0.012728
# 3 -0.001543 -0.002864 0.009814 0.004386 0.002931 0.005001
# 4 0.000233 -0.006185 0.004386 0.037415 0.018252 -0.001607
# 5 0.009411 -0.007892 0.002931 0.018252 0.049035 0.012874
# 6 0.013887 0.012728 0.005001 -0.001607 0.012874 0.077128
#
#
# Mechanical properties :
#
#
# Convention : Reuss Voigt Hill
#
# Bulk Modulus (GPa) = 33.72422 62.29248 48.00835
# Shear Modulus (GPa) = 21.27939 31.54411 26.41175
#
# Velocity S-wave (km/s) = 3.02072 3.67781 3.36534
# Velocity P-wave (km/s) = 5.16018 6.68928 5.97386
#
# Compressibility (1/GPa) = 0.02965228
#
# Stress axis : x y z
#
# Youngs Moduli (GPa) = 54.72280 57.16926 101.89948
#
# Poissons Ratio (x) = 0.20332 0.15724
# Poissons Ratio (y) = 0.19462 0.29185
# Poissons Ratio (z) = 0.08444 0.16374
#
# Static dielectric constant tensor:
#      x y z
#    x 1.825290 -0.052060 0.282640 
#    y -0.052060 1.855390 0.120870 
#    z 0.282640 0.120870 1.332800 
# 
# From -- ./inp_files/99651.got.cif
#   From: 2010.05.17/outbox.cif.g08.bks.cpg/sg2_50_cif.got.tgz:99651.got - 2010.06.03 11:33:40.
