data_PCOD9036095
_publ_section_title
;
Structure prediction by ZEFSAII (Michael W. Deem and Ramdas Pophale) SiO2 
 PCOD9036095
Probable space group: P -1
;
_chemical_formula_sum "Si O2"
_cell_formula_units_Z 16
_cell_length_a 5.041401
_cell_length_b 17.686946
_cell_length_c 14.206186
_cell_angle_alpha 32.828164
_cell_angle_beta 62.410180
_cell_angle_gamma 72.246314
_cell_volume 599.198295
_symmetry_space_group_name_H-M "P -1"
_symmetry_group_IT_number 2
_symmetry_cell_setting 'triclinic'
loop_
_space_group_symop_operation_xyz
x,y,z
-x,-y,-z
loop_
_atom_site_type_symbol
_atom_site_label
_atom_site_fract_x
_atom_site_fract_y
_atom_site_fract_z
Si Si1 0.328011 0.182662 0.303073
Si Si2 0.062109 0.411896 0.324825
Si Si3 0.703245 0.112254 0.688527
Si Si4 0.757356 0.785780 0.043323
Si Si5 0.154985 0.155798 0.837638
Si Si6 0.280784 0.415112 0.919912
Si Si7 0.619210 0.084426 0.532299
Si Si8 0.842752 0.378156 0.585766
O O1 0.526385 0.186660 0.360489
O O2 0.984091 0.106670 0.459746
O O3 0.475775 0.076507 0.321138
O O4 0.291474 0.325185 0.107216
O O5 0.976601 0.244367 0.496724
O O6 0.970185 0.489456 0.164820
O O7 0.828027 0.437980 0.420306
O O8 0.391975 0.480972 0.237404
O O9 0.506811 0.144423 0.776794
O O10 0.507189 0.111413 0.625961
O O11 0.759101 0.952057 0.851682
O O12 0.967536 0.798372 0.089393
O O13 0.784632 0.704300 0.027428
O O14 0.458588 0.697873 0.234061
O O15 0.072484 0.267391 0.661168
O O16 0.000000 0.000000 0.000000
O O17 0.000000 0.500000 0.500000
#
# Coordination Sequence:
#
# PCOD9036095 Si02
#       8
#     2   2   2   2   2   2   2   2
#     4  10  22  47  73 105 139 174 246 299 353 415
#     4  12  27  43  70 103 152 184 235 294 357 422
#     4  12  25  47  67 109 140 191 237 291 368 426
#     4  12  25  43  70 100 139 195 241 285 344 426
#     4  12  25  42  67 100 148 190 234 294 348 423
#     4  12  26  48  73 108 139 194 237 298 352 423
#     4  10  23  44  76 106 135 185 233 304 350 425
#     4  12  24  43  64  99 143 191 242 286 341 416
#
# _framework density 26.702345000000001
#
# number of rings (size 3 to 8) (size 9 to 14) (size 15 to 20)
#    0.000    0.500    5.000    3.375    0.000    4.000 
#    2.250    3.750    0.000    0.000    0.000    0.000 
#    0.000    0.000    0.000    0.000    0.000    0.000 
#
# Total GULP energy -89550.284009 kJ/mol
# GULP energy per Si atom -5596.892751 kJ/mol
# Density = 2.664157 g / cm^3
# Si number density = 26.702345 Si / 1000 Ang^3
#
#
#
# Elastic Constant Matrix: (Units=GPa)
#
#
# Indices 1 2 3 4 5 6 
#
# 1 93.3248 22.9052 11.3432 -8.7073 17.1171 22.8728
# 2 22.9052 112.0741 25.6308 -7.8299 5.4699 22.2486
# 3 11.3432 25.6308 105.5439 -19.3888 13.4600 11.4071
# 4 -8.7073 -7.8299 -19.3888 37.4698 18.2779 7.2601
# 5 17.1171 5.4699 13.4600 18.2779 50.8300 6.8553
# 6 22.8728 22.2486 11.4071 7.2601 6.8553 42.3012
#
#
#
# Elastic Compliance Matrix: (Units=1/GPa)
#
#
# Indices 1 2 3 4 5 6 
#
# 1 0.015302 -0.000777 0.002495 0.010466 -0.008281 -0.008992
# 2 -0.000777 0.010643 -0.001332 0.002757 -0.000827 -0.005157
# 3 0.002495 -0.001332 0.013268 0.011959 -0.007835 -0.005009
# 4 0.010466 0.002757 0.011959 0.050011 -0.022921 -0.015203
# 5 -0.008281 -0.000827 -0.007835 -0.022921 0.032091 0.005758
# 6 -0.008992 -0.005157 -0.005009 -0.015203 0.005758 0.034242
#
#
# Mechanical properties :
#
#
# Convention : Reuss Voigt Hill
#
# Bulk Modulus (GPa) = 25.01032 47.85570 36.43301
# Shear Modulus (GPa) = 29.74180 42.85777 36.29979
#
# Velocity S-wave (km/s) = 3.34103 4.01061 3.69104
# Velocity P-wave (km/s) = 4.92645 6.27754 5.64258
#
# Compressibility (1/GPa) = 0.03998349
#
# Stress axis : x y z
#
# Youngs Moduli (GPa) = 65.35089 93.95947 75.37179
#
# Poissons Ratio (x) = 0.07305 -0.18804
# Poissons Ratio (y) = 0.05081 0.10038
# Poissons Ratio (z) = -0.16304 0.12514
#
# Static dielectric constant tensor:
#      x y z
#    x 2.023420 0.066510 -0.056950 
#    y 0.066510 2.119350 0.055890 
#    z -0.056950 0.055890 2.087520 
# 
# From -- ./inp_files/142470.got.cif
#   From: 2010.05.17/outbox.cif.g08.bks.cpg/sg2_72_cif.got.tgz:142470.got - 2010.06.03 11:33:40.
