data_PCOD9036264
_publ_section_title
;
Structure prediction by ZEFSAII (Michael W. Deem and Ramdas Pophale) SiO2 
 PCOD9036264
Probable space group: P -1
;
_chemical_formula_sum "Si O2"
_cell_formula_units_Z 16
_cell_length_a 8.655994
_cell_length_b 17.405651
_cell_length_c 11.226692
_cell_angle_alpha 128.815919
_cell_angle_beta 119.763053
_cell_angle_gamma 101.154198
_cell_volume 761.823533
_symmetry_space_group_name_H-M "P -1"
_symmetry_group_IT_number 2
_symmetry_cell_setting 'triclinic'
loop_
_space_group_symop_operation_xyz
x,y,z
-x,-y,-z
loop_
_atom_site_type_symbol
_atom_site_label
_atom_site_fract_x
_atom_site_fract_y
_atom_site_fract_z
Si Si1 0.140901 0.904681 0.295864
Si Si2 0.462780 0.349902 0.470862
Si Si3 0.343060 0.866437 0.903027
Si Si4 0.521266 0.956581 0.656232
Si Si5 0.593194 0.760273 0.915710
Si Si6 0.070764 0.651727 0.933567
Si Si7 0.705719 0.333729 0.745943
Si Si8 0.859223 0.584261 0.538829
O O1 0.353198 0.975720 0.550715
O O2 0.287134 0.009426 0.338471
O O3 0.084101 0.769585 0.098255
O O4 0.870130 0.846244 0.167741
O O5 0.365059 0.251491 0.220381
O O6 0.481406 0.303764 0.561586
O O7 0.309420 0.389313 0.461638
O O8 0.773132 0.495097 0.700361
O O9 0.525928 0.846993 0.978338
O O10 0.047791 0.694472 0.607299
O O11 0.500000 0.000000 0.000000
O O12 0.315456 0.930562 0.064790
O O13 0.320248 0.784703 0.441074
O O14 0.354093 0.592968 0.714639
O O15 0.068752 0.646399 0.785798
O O16 0.285661 0.680216 0.121234
O O17 0.000000 0.500000 0.000000
#
# Coordination Sequence:
#
# PCOD9036264 Si02
#       8
#     2   2   2   2   2   2   2   2
#     4  10  18  36  64  89 109 147 204 256 285 342
#     4  10  17  32  61  92 113 146 199 258 291 335
#     4  12  26  40  55  84 131 167 190 244 310 364
#     4  10  21  37  60  87 122 153 193 245 309 348
#     4  11  21  37  63  89 116 161 207 242 294 362
#     4   9  15  32  57  89 113 144 190 253 296 331
#     4   9  19  31  55  91 119 147 188 248 302 350
#     4  11  20  38  64  88 117 157 213 249 287 348
#
# _framework density 21.002237000000001
#
# number of rings (size 3 to 8) (size 9 to 14) (size 15 to 20)
#    0.000    1.750    3.750    1.875    0.000    1.500 
#    0.000    2.500    2.750    0.750    0.000    0.000 
#    0.000    0.000    0.000    0.000    0.000    0.000 
#
# Total GULP energy -89122.739121 kJ/mol
# GULP energy per Si atom -5570.171195 kJ/mol
# Density = 2.095444 g / cm^3
# Si number density = 21.002237 Si / 1000 Ang^3
#
#
#
# Elastic Constant Matrix: (Units=GPa)
#
#
# Indices 1 2 3 4 5 6 
#
# 1 53.7984 29.8789 5.3155 5.6336 4.2853 -13.6953
# 2 29.8789 105.2575 25.2223 10.6304 11.1287 -6.5692
# 3 5.3155 25.2223 58.8489 10.2747 12.1279 -1.9842
# 4 5.6336 10.6304 10.2747 35.4677 -4.2835 2.7935
# 5 4.2853 11.1287 12.1279 -4.2835 16.6334 4.7666
# 6 -13.6953 -6.5692 -1.9842 2.7935 4.7666 22.8404
#
#
#
# Elastic Compliance Matrix: (Units=1/GPa)
#
#
# Indices 1 2 3 4 5 6 
#
# 1 0.028197 -0.005637 0.004853 -0.007508 -0.014602 0.019673
# 2 -0.005637 0.012911 -0.003207 -0.002912 -0.006079 0.001679
# 3 0.004853 -0.003207 0.024827 -0.010566 -0.022853 0.010206
# 4 -0.007508 -0.002912 -0.010566 0.037741 0.025975 -0.016294
# 5 -0.014602 -0.006079 -0.022853 0.025975 0.101883 -0.036928
# 6 0.019673 0.001679 0.010206 -0.016294 -0.036928 0.066647
#
#
# Mechanical properties :
#
#
# Convention : Reuss Voigt Hill
#
# Bulk Modulus (GPa) = 17.25548 37.63759 27.44654
# Shear Modulus (GPa) = 16.69423 25.48751 21.09087
#
# Velocity S-wave (km/s) = 2.82242 3.48740 3.17238
# Velocity P-wave (km/s) = 4.34226 5.84599 5.14931
#
# Compressibility (1/GPa) = 0.05795259
#
# Stress axis : x y z
#
# Youngs Moduli (GPa) = 35.46525 77.45589 40.27867
#
# Poissons Ratio (x) = 0.43661 -0.19546
# Poissons Ratio (y) = 0.19991 0.12915
# Poissons Ratio (z) = -0.17210 0.24836
#
# Static dielectric constant tensor:
#      x y z
#    x 1.711580 0.041370 0.006780 
#    y 0.041370 1.903330 0.015990 
#    z 0.006780 0.015990 1.789380 
# 
# From -- ./inp_files/403272.got.cif
#   From: 2010.05.17/outbox.cif.g08.bks.cpg/sg2_202_cif.got.tgz:403272.got - 2010.06.03 11:33:40.
