data_PCOD9036739
_publ_section_title
;
Structure prediction by ZEFSAII (Michael W. Deem and Ramdas Pophale) SiO2 
 PCOD9036739
Probable space group: P -1
;
_chemical_formula_sum "Si O2"
_cell_formula_units_Z 16
_cell_length_a 8.456797
_cell_length_b 6.253566
_cell_length_c 18.109609
_cell_angle_alpha 106.912548
_cell_angle_beta 54.277824
_cell_angle_gamma 115.415902
_cell_volume 701.223535
_symmetry_space_group_name_H-M "P -1"
_symmetry_group_IT_number 2
_symmetry_cell_setting 'triclinic'
loop_
_space_group_symop_operation_xyz
x,y,z
-x,-y,-z
loop_
_atom_site_type_symbol
_atom_site_label
_atom_site_fract_x
_atom_site_fract_y
_atom_site_fract_z
Si Si1 0.690085 0.946780 0.633740
Si Si2 0.714036 0.462570 0.013401
Si Si3 0.051628 0.216463 0.900228
Si Si4 0.758029 0.704261 0.871975
Si Si5 0.653165 0.460062 0.272405
Si Si6 0.576911 0.893680 0.397535
Si Si7 0.066696 0.366473 0.537404
Si Si8 0.907870 0.310335 0.310835
O O1 0.541142 0.775444 0.717468
O O2 0.543601 0.033660 0.628901
O O3 0.798000 0.784269 0.544317
O O4 0.879101 0.186270 0.617857
O O5 0.805561 0.714061 0.058000
O O6 0.476759 0.310729 0.080051
O O7 0.734018 0.521959 0.927381
O O8 0.863472 0.314914 0.975493
O O9 0.212846 0.378198 0.812363
O O10 0.931424 0.950887 0.876811
O O11 0.852983 0.626863 0.765582
O O12 0.806496 0.369928 0.270723
O O13 0.560113 0.623294 0.365311
O O14 0.817180 0.038914 0.333648
O O15 0.500000 0.000000 0.500000
O O16 0.167805 0.561204 0.589872
O O17 0.000000 0.500000 0.500000
#
# Coordination Sequence:
#
# PCOD9036739 Si02
#       8
#     2   2   2   2   2   2   2   2
#     4  10  23  39  59  90 123 166 216 263 320 387
#     4  10  24  42  68  96 130 173 218 269 335 399
#     4  11  22  44  67  96 132 174 216 270 333 399
#     4  11  22  44  65  99 131 169 220 271 332 396
#     4  11  22  40  62  92 128 163 219 267 323 394
#     4  11  21  38  63  87 120 168 208 259 319 380
#     4  11  23  42  60  88 131 170 216 270 329 389
#     4  11  23  39  62  92 126 165 217 269 324 391
#
# _framework density 22.817259
#
# number of rings (size 3 to 8) (size 9 to 14) (size 15 to 20)
#    0.000    1.250    2.500    3.750    0.000    5.000 
#    2.250    1.250    0.000    0.000    0.000    0.000 
#    0.000    0.000    0.000    0.000    0.000    0.000 
#
# Total GULP energy -89227.268596 kJ/mol
# GULP energy per Si atom -5576.704287 kJ/mol
# Density = 2.276533 g / cm^3
# Si number density = 22.817259 Si / 1000 Ang^3
#
#
#
# Elastic Constant Matrix: (Units=GPa)
#
#
# Indices 1 2 3 4 5 6 
#
# 1 36.2937 4.2134 16.2028 -6.4376 -12.9721 0.7506
# 2 4.2134 98.6746 20.0831 -16.7392 -15.6922 10.5271
# 3 16.2028 20.0831 84.7884 -16.0339 -20.4290 5.9174
# 4 -6.4376 -16.7392 -16.0339 42.9392 6.1067 -7.9198
# 5 -12.9721 -15.6922 -20.4290 6.1067 28.2981 -0.0521
# 6 0.7506 10.5271 5.9174 -7.9198 -0.0521 23.0521
#
#
#
# Elastic Compliance Matrix: (Units=1/GPa)
#
#
# Indices 1 2 3 4 5 6 
#
# 1 0.034159 0.001855 -0.003105 0.002673 0.013869 -0.000213
# 2 0.001855 0.012215 -0.000840 0.003015 0.006359 -0.004373
# 3 -0.003105 -0.000840 0.015433 0.003330 0.008529 -0.002313
# 4 0.002673 0.003015 0.003330 0.027512 -0.000622 0.007132
# 5 0.013869 0.006359 0.008529 -0.000622 0.051503 -0.005642
# 6 -0.000213 -0.004373 -0.002313 0.007132 -0.005642 0.048415
#
#
# Mechanical properties :
#
#
# Convention : Reuss Voigt Hill
#
# Bulk Modulus (GPa) = 17.35314 33.41725 25.38519
# Shear Modulus (GPa) = 23.51530 30.80838 27.16184
#
# Velocity S-wave (km/s) = 3.21377 3.67852 3.45397
# Velocity P-wave (km/s) = 4.62524 5.72009 5.20155
#
# Compressibility (1/GPa) = 0.05762646
#
# Stress axis : x y z
#
# Youngs Moduli (GPa) = 29.27446 81.86372 64.79794
#
# Poissons Ratio (x) = -0.15187 0.20121
# Poissons Ratio (y) = -0.05431 0.05445
# Poissons Ratio (z) = 0.09090 0.06880
#
# Static dielectric constant tensor:
#      x y z
#    x 1.934940 0.245820 -0.113300 
#    y 0.245820 2.293780 -0.241420 
#    z -0.113300 -0.241420 1.988860 
# 
# From -- ./inp_files/38185.got.cif
#   From: 2010.05.17/outbox.cif.g08.bks.cpg/sg2_20_cif.got.tgz:38185.got - 2010.06.03 11:33:40.
