data_PCOD9036408
_publ_section_title
;
Structure prediction by ZEFSAII (Michael W. Deem and Ramdas Pophale) SiO2 
 PCOD9036408
Probable space group: P -1
;
_chemical_formula_sum "Si O2"
_cell_formula_units_Z 16
_cell_length_a 8.275713
_cell_length_b 8.824814
_cell_length_c 15.907203
_cell_angle_alpha 123.724292
_cell_angle_beta 126.939047
_cell_angle_gamma 89.159260
_cell_volume 677.571239
_symmetry_space_group_name_H-M "P -1"
_symmetry_group_IT_number 2
_symmetry_cell_setting 'triclinic'
loop_
_space_group_symop_operation_xyz
x,y,z
-x,-y,-z
loop_
_atom_site_type_symbol
_atom_site_label
_atom_site_fract_x
_atom_site_fract_y
_atom_site_fract_z
Si Si1 0.892100 0.611869 0.270032
Si Si2 0.625063 0.037917 0.802453
Si Si3 0.400798 0.569237 0.153787
Si Si4 0.126842 0.189156 0.833519
Si Si5 0.929799 0.649642 0.863741
Si Si6 0.919469 0.517633 0.572585
Si Si7 0.245422 0.228127 0.321440
Si Si8 0.632759 0.054527 0.144080
O O1 0.638797 0.557619 0.210593
O O2 0.953703 0.796289 0.280072
O O3 0.061085 0.647366 0.411482
O O4 0.931158 0.451995 0.172349
O O5 0.566876 0.206621 0.793986
O O6 0.572728 0.851465 0.664915
O O7 0.490176 0.916284 0.805579
O O8 0.885198 0.173160 0.962665
O O9 0.280846 0.502943 0.187904
O O10 0.215916 0.398627 0.979107
O O11 0.338583 0.141932 0.879687
O O12 0.944133 0.988680 0.763252
O O13 0.833916 0.729763 0.781549
O O14 0.137570 0.735403 0.736835
O O15 0.000000 0.500000 0.500000
O O16 0.722464 0.584215 0.549336
O O17 0.500000 0.000000 0.000000
#
# Coordination Sequence:
#
# PCOD9036408 Si02
#       8
#     2   2   2   2   2   2   2   2
#     4  11  22  38  61  90 123 168 222 257 315 387
#     4  12  20  35  54  90 133 165 209 258 323 375
#     4  12  22  33  59  94 138 174 204 256 329 385
#     4  11  19  36  54  90 130 166 208 256 313 384
#     4  11  22  35  55  92 136 175 205 260 320 383
#     4  10  24  47  67  88 122 172 220 262 327 393
#     4  10  23  36  59  86 122 166 217 263 315 373
#     4  11  23  36  63  97 128 165 209 268 314 379
#
# _framework density 23.613752999999999
#
# number of rings (size 3 to 8) (size 9 to 14) (size 15 to 20)
#    0.000    1.000    3.750    5.625    3.500    0.000 
#    0.000    3.125    0.000    0.750    0.000    0.000 
#    0.000    0.000    0.000    0.000    0.000    0.000 
#
# Total GULP energy -89258.342316 kJ/mol
# GULP energy per Si atom -5578.646395 kJ/mol
# Density = 2.356001 g / cm^3
# Si number density = 23.613753 Si / 1000 Ang^3
#
#
#
# Elastic Constant Matrix: (Units=GPa)
#
#
# Indices 1 2 3 4 5 6 
#
# 1 147.4329 57.8261 32.9325 -6.7747 -34.0079 12.0658
# 2 57.8261 149.3458 32.0869 -25.1712 -10.9102 -2.3197
# 3 32.9325 32.0869 47.8719 -7.3895 -11.6894 -10.7489
# 4 -6.7747 -25.1712 -7.3895 38.8068 7.7674 -10.6776
# 5 -34.0079 -10.9102 -11.6894 7.7674 37.5435 5.1840
# 6 12.0658 -2.3197 -10.7489 -10.6776 5.1840 45.5953
#
#
#
# Elastic Compliance Matrix: (Units=1/GPa)
#
#
# Indices 1 2 3 4 5 6 
#
# 1 0.012328 -0.003792 -0.005900 -0.005523 0.010381 -0.007320
# 2 -0.003792 0.009720 -0.003121 0.006431 -0.003277 0.002641
# 3 -0.005900 -0.003121 0.030191 0.005203 0.000739 0.009655
# 4 -0.005523 0.006431 0.005203 0.035539 -0.010598 0.012543
# 5 0.010381 -0.003277 0.000739 -0.010598 0.038841 -0.009638
# 6 -0.007320 0.002641 0.009655 0.012543 -0.009638 0.030313
#
#
# Mechanical properties :
#
#
# Convention : Reuss Voigt Hill
#
# Bulk Modulus (GPa) = 37.57571 65.59349 51.58460
# Shear Modulus (GPa) = 26.11937 39.17613 32.64775
#
# Velocity S-wave (km/s) = 3.32943 4.07755 3.72233
# Velocity P-wave (km/s) = 5.54322 7.07153 6.35350
#
# Compressibility (1/GPa) = 0.02661294
#
# Stress axis : x y z
#
# Youngs Moduli (GPa) = 81.11780 102.87961 33.12195
#
# Poissons Ratio (x) = 0.39009 0.19543
# Poissons Ratio (y) = 0.30757 0.10338
# Poissons Ratio (z) = 0.47862 0.32110
#
# Static dielectric constant tensor:
#      x y z
#    x 2.221860 -0.076640 0.005860 
#    y -0.076640 1.882750 0.021980 
#    z 0.005860 0.021980 1.889540 
# 
# From -- ./inp_files/218620.got.cif
#   From: 2010.05.17/outbox.cif.g08.bks.cpg/sg2_110_cif.got.tgz:218620.got - 2010.06.03 11:33:40.
