data_PCOD9036563
_publ_section_title
;
Structure prediction by ZEFSAII (Michael W. Deem and Ramdas Pophale) SiO2 
 PCOD9036563
Probable space group: P -1
;
_chemical_formula_sum "Si O2"
_cell_formula_units_Z 16
_cell_length_a 17.117788
_cell_length_b 7.346896
_cell_length_c 7.450385
_cell_angle_alpha 122.728220
_cell_angle_beta 109.311513
_cell_angle_gamma 101.627728
_cell_volume 652.954944
_symmetry_space_group_name_H-M "P -1"
_symmetry_group_IT_number 2
_symmetry_cell_setting 'triclinic'
loop_
_space_group_symop_operation_xyz
x,y,z
-x,-y,-z
loop_
_atom_site_type_symbol
_atom_site_label
_atom_site_fract_x
_atom_site_fract_y
_atom_site_fract_z
Si Si1 0.342092 0.894346 0.326568
Si Si2 0.557911 0.798707 0.880027
Si Si3 0.691903 0.725500 0.719300
Si Si4 0.081590 0.667841 0.416309
Si Si5 0.275421 0.703227 0.561435
Si Si6 0.527296 0.179906 0.837494
Si Si7 0.893350 0.952999 0.085059
Si Si8 0.949690 0.176958 0.873410
O O1 0.283703 0.750365 0.378199
O O2 0.372703 0.730672 0.135758
O O3 0.298808 0.040431 0.262206
O O4 0.442870 0.101860 0.591744
O O5 0.652260 0.039467 0.154763
O O6 0.491878 0.680745 0.939011
O O7 0.512950 0.924531 0.784345
O O8 0.597605 0.644954 0.720431
O O9 0.693950 0.505508 0.493701
O O10 0.782783 0.815794 0.964837
O O11 0.168704 0.617751 0.492896
O O12 0.063641 0.792206 0.639840
O O13 0.110383 0.849545 0.361822
O O14 0.989129 0.434919 0.146014
O O15 0.901564 0.981467 0.890664
O O16 0.955671 0.827848 0.119814
#
# Coordination Sequence:
#
# PCOD9036563 Si02
#       8
#     2   2   2   2   2   2   2   2
#     4   9  19  36  59  84 116 150 192 244 289 340
#     4   9  18  36  60  82 114 152 190 240 294 344
#     4  11  21  37  59  85 117 155 192 237 296 347
#     4  11  21  39  61  86 119 156 194 244 295 348
#     4  11  21  37  59  85 117 155 192 237 296 347
#     4   8  16  36  58  80 114 152 188 240 292 344
#     4  11  21  39  61  86 119 156 194 244 295 348
#     4  10  23  38  61  88 116 152 200 242 293 352
#
# _framework density 24.503986999999999
#
# number of rings (size 3 to 8) (size 9 to 14) (size 15 to 20)
#    0.000    2.000    2.500    1.500    0.000    0.000 
#    0.000   28.750    0.000    0.000    0.000    0.000 
#    0.000    0.000    0.000    0.000    0.000    0.000 
#
# Total GULP energy -89426.205791 kJ/mol
# GULP energy per Si atom -5589.137862 kJ/mol
# Density = 2.444821 g / cm^3
# Si number density = 24.503987 Si / 1000 Ang^3
#
#
#
# Elastic Constant Matrix: (Units=GPa)
#
#
# Indices 1 2 3 4 5 6 
#
# 1 68.0802 23.9142 10.7454 -9.7743 -5.2979 -32.6873
# 2 23.9142 65.6501 19.5664 -1.9162 -6.3987 -15.5779
# 3 10.7454 19.5664 61.4374 -7.7162 -0.9076 -10.0599
# 4 -9.7743 -1.9162 -7.7162 27.6973 3.1599 -1.7077
# 5 -5.2979 -6.3987 -0.9076 3.1599 32.5761 -3.5789
# 6 -32.6873 -15.5779 -10.0599 -1.7077 -3.5789 36.6004
#
#
#
# Elastic Compliance Matrix: (Units=1/GPa)
#
#
# Indices 1 2 3 4 5 6 
#
# 1 0.031792 -0.004556 0.002183 0.012544 0.006223 0.028248
# 2 -0.004556 0.019407 -0.005071 -0.001883 0.003447 0.003047
# 3 0.002183 -0.005071 0.019146 0.006095 -0.000113 0.005328
# 4 0.012544 -0.001883 0.006095 0.043054 -0.000797 0.014008
# 5 0.006223 0.003447 -0.000113 -0.000797 0.033586 0.010241
# 6 0.028248 0.003047 0.005328 0.014008 0.010241 0.056966
#
#
# Mechanical properties :
#
#
# Convention : Reuss Voigt Hill
#
# Bulk Modulus (GPa) = 18.03140 33.73549 25.88345
# Shear Modulus (GPa) = 21.06825 28.77089 24.91957
#
# Velocity S-wave (km/s) = 2.93540 3.43028 3.19244
# Velocity P-wave (km/s) = 4.34319 5.43013 4.91679
#
# Compressibility (1/GPa) = 0.05545880
#
# Stress axis : x y z
#
# Youngs Moduli (GPa) = 31.45404 51.52763 52.23060
#
# Poissons Ratio (x) = 0.23476 -0.11404
# Poissons Ratio (y) = 0.14331 0.26484
# Poissons Ratio (z) = -0.06868 0.26127
#
# Static dielectric constant tensor:
#      x y z
#    x 2.006560 0.044810 -0.017320 
#    y 0.044810 1.970580 0.011060 
#    z -0.017320 0.011060 1.963900 
# 
# From -- ./inp_files/299764.got.cif
#   From: 2010.05.17/outbox.cif.g08.bks.cpg/sg2_150_cif.got.tgz:299764.got - 2010.06.03 11:33:40.
