data_PCOD9036197
_publ_section_title
;
Structure prediction by ZEFSAII (Michael W. Deem and Ramdas Pophale) SiO2 
 PCOD9036197
Probable space group: P -1
;
_chemical_formula_sum "Si O2"
_cell_formula_units_Z 16
_cell_length_a 8.671138
_cell_length_b 5.904611
_cell_length_c 15.962271
_cell_angle_alpha 66.690589
_cell_angle_beta 66.052316
_cell_angle_gamma 92.171413
_cell_volume 666.488735
_symmetry_space_group_name_H-M "P -1"
_symmetry_group_IT_number 2
_symmetry_cell_setting 'triclinic'
loop_
_space_group_symop_operation_xyz
x,y,z
-x,-y,-z
loop_
_atom_site_type_symbol
_atom_site_label
_atom_site_fract_x
_atom_site_fract_y
_atom_site_fract_z
Si Si1 0.107292 0.413894 0.412290
Si Si2 0.593817 0.307698 0.159608
Si Si3 0.920535 0.131218 0.347050
Si Si4 0.395247 0.228906 0.480434
Si Si5 0.630441 0.823708 0.003718
Si Si6 0.757946 0.038383 0.772550
Si Si7 0.292256 0.483978 0.714237
Si Si8 0.836191 0.002232 0.094220
O O1 0.267876 0.300724 0.425141
O O2 0.000000 0.500000 0.500000
O O3 0.962977 0.215027 0.421374
O O4 0.185922 0.659841 0.300337
O O5 0.430079 0.073209 0.212881
O O6 0.608241 0.394136 0.240325
O O7 0.780295 0.250862 0.102485
O O8 0.565829 0.522311 0.069341
O O9 0.854368 0.361937 0.289232
O O10 0.098289 0.080779 0.284462
O O11 0.763663 0.884019 0.405173
O O12 0.563384 0.463494 0.399109
O O13 0.500000 0.000000 0.500000
O O14 0.755755 0.932916 0.883386
O O15 0.695492 0.884526 0.073807
O O16 0.500000 0.000000 0.000000
O O17 0.195217 0.195353 0.794240
O O18 0.000000 0.000000 0.000000
#
# Coordination Sequence:
#
# PCOD9036197 Si02
#       8
#     2   2   2   2   2   2   2   2
#     4  12  26  44  72 106 138 177 236 288 348 412
#     4  11  25  44  69 100 139 187 228 287 352 410
#     4  11  26  44  72 103 138 184 232 289 341 422
#     4  10  22  48  69  98 141 179 226 282 347 413
#     4  11  26  44  67 104 136 181 237 283 348 413
#     4  12  26  42  75 100 139 183 233 287 349 408
#     4  10  25  44  69  99 143 186 231 283 350 414
#     4  11  26  43  68 100 144 182 232 287 341 421
#
# _framework density 24.006406999999999
#
# number of rings (size 3 to 8) (size 9 to 14) (size 15 to 20)
#    0.000    1.000    2.500    2.250   10.500    1.000 
#    0.000    1.250    0.000    0.000    0.000    0.000 
#    0.000    0.000    0.000    0.000    0.000    0.000 
#
# Total GULP energy -89171.474378 kJ/mol
# GULP energy per Si atom -5573.217149 kJ/mol
# Density = 2.395177 g / cm^3
# Si number density = 24.006407 Si / 1000 Ang^3
#
#
#
# Elastic Constant Matrix: (Units=GPa)
#
#
# Indices 1 2 3 4 5 6 
#
# 1 107.4975 42.2703 26.1129 -10.7453 -1.3992 -28.2203
# 2 42.2703 70.9290 50.5413 -3.2664 -10.5645 -8.9691
# 3 26.1129 50.5413 117.6841 -7.2099 -11.5882 -13.6178
# 4 -10.7453 -3.2664 -7.2099 57.5831 -11.4480 3.4324
# 5 -1.3992 -10.5645 -11.5882 -11.4480 45.6383 5.5892
# 6 -28.2203 -8.9691 -13.6178 3.4324 5.5892 35.7066
#
#
#
# Elastic Compliance Matrix: (Units=1/GPa)
#
#
# Indices 1 2 3 4 5 6 
#
# 1 0.015513 -0.009350 0.001693 0.001498 -0.002201 0.010758
# 2 -0.009350 0.026345 -0.009448 -0.000356 0.003930 -0.004956
# 3 0.001693 -0.009448 0.012774 0.001370 0.001018 0.003546
# 4 0.001498 -0.000356 0.001370 0.018885 0.005172 -0.001008
# 5 -0.002201 0.003930 0.001018 0.005172 0.024892 -0.004757
# 6 0.010758 -0.004956 0.003546 -0.001008 -0.004757 0.037458
#
#
# Mechanical properties :
#
#
# Convention : Reuss Voigt Hill
#
# Bulk Modulus (GPa) = 48.96563 59.32883 54.14723
# Shear Modulus (GPa) = 28.26694 39.59801 33.93247
#
# Velocity S-wave (km/s) = 3.43516 4.06578 3.76370
# Velocity P-wave (km/s) = 6.01456 6.84165 6.44139
#
# Compressibility (1/GPa) = 0.02042249
#
# Stress axis : x y z
#
# Youngs Moduli (GPa) = 64.46108 37.95720 78.28583
#
# Poissons Ratio (x) = 0.35490 -0.13256
# Poissons Ratio (y) = 0.60272 0.73965
# Poissons Ratio (z) = -0.10915 0.35862
#
# Static dielectric constant tensor:
#      x y z
#    x 1.906930 0.089720 0.011960 
#    y 0.089720 1.807770 -0.116230 
#    z 0.011960 -0.116230 1.992620 
# 
# From -- ./inp_files/49401.got.cif
#   From: 2010.05.17/outbox.cif.g08.bks.cpg/sg2_25_cif.got.tgz:49401.got - 2010.06.03 11:33:40.
