data_PCOD9036186
_publ_section_title
;
Structure prediction by ZEFSAII (Michael W. Deem and Ramdas Pophale) SiO2 
 PCOD9036186
Probable space group: P -1
;
_chemical_formula_sum "Si O2"
_cell_formula_units_Z 13
_cell_length_a 13.817439
_cell_length_b 5.236090
_cell_length_c 14.700461
_cell_angle_alpha 110.963343
_cell_angle_beta 28.747613
_cell_angle_gamma 107.900876
_cell_volume 477.620642
_symmetry_space_group_name_H-M "P -1"
_symmetry_group_IT_number 2
_symmetry_cell_setting 'triclinic'
loop_
_space_group_symop_operation_xyz
x,y,z
-x,-y,-z
loop_
_atom_site_type_symbol
_atom_site_label
_atom_site_fract_x
_atom_site_fract_y
_atom_site_fract_z
Si Si1 0.873654 0.906011 0.814305
Si Si2 0.000000 0.000000 0.500000
Si Si3 0.301483 0.470734 0.218825
Si Si4 0.384494 0.098785 0.802920
Si Si5 0.213289 0.452427 0.487087
Si Si6 0.235398 0.491961 0.825303
Si Si7 0.254145 0.194395 0.592215
O O1 0.798896 0.831098 0.762134
O O2 0.021038 0.650204 0.678782
O O3 0.015659 0.145157 0.765831
O O4 0.679573 0.896848 0.037973
O O5 0.126532 0.150317 0.496891
O O6 0.857600 0.289921 0.641096
O O7 0.345086 0.481017 0.290881
O O8 0.500000 0.500000 0.000000
O O9 0.303123 0.803931 0.799611
O O10 0.617820 0.070017 0.578741
O O11 0.282521 0.346224 0.863644
O O12 0.312906 0.421462 0.498916
O O13 0.311122 0.289620 0.656945
O O14 0.000000 0.500000 0.000000
#
# Coordination Sequence:
#
# PCOD9036186 Si02
#       7
#     2   1   2   2   2   2   2
#     4  11  26  46  75 109 152 201 253 328 383 462
#     4  10  22  48  68 104 146 200 248 332 378 464
#     4  11  26  48  76 111 155 203 266 318 403 475
#     4  12  29  49  78 117 153 203 266 316 396 472
#     4  11  24  46  73 102 150 198 250 320 390 456
#     4  12  26  52  79 112 158 205 252 327 392 464
#     4  12  27  46  78 107 153 201 258 319 391 469
#
# _framework density 27.218254000000002
#
# number of rings (size 3 to 8) (size 9 to 14) (size 15 to 20)
#    0.000    0.615    1.538    6.000    8.615    0.615 
#    5.538    0.000    0.000    0.000    0.000    0.000 
#    0.000    0.000    0.000    0.000    0.000    0.000 
#
# Total GULP energy -72597.665186 kJ/mol
# GULP energy per Si atom -5584.435784 kJ/mol
# Density = 2.715630 g / cm^3
# Si number density = 27.218254 Si / 1000 Ang^3
#
#
#
# Elastic Constant Matrix: (Units=GPa)
#
#
# Indices 1 2 3 4 5 6 
#
# 1 91.8396 -7.3081 6.4057 12.0491 22.0808 -6.3339
# 2 -7.3081 104.5734 6.5293 -0.4956 0.5363 7.0959
# 3 6.4057 6.5293 141.6108 2.0082 12.2799 13.2608
# 4 12.0491 -0.4956 2.0082 33.9407 11.9738 -4.8131
# 5 22.0808 0.5363 12.2799 11.9738 50.5273 13.2953
# 6 -6.3339 7.0959 13.2608 -4.8131 13.2953 52.6264
#
#
#
# Elastic Compliance Matrix: (Units=1/GPa)
#
#
# Indices 1 2 3 4 5 6 
#
# 1 0.012826 0.000748 -0.000347 -0.002090 -0.005770 0.002797
# 2 0.000748 0.009715 -0.000372 -0.000277 0.000031 -0.001159
# 3 -0.000347 -0.000372 0.007345 -0.000116 -0.001194 -0.001551
# 4 -0.002090 -0.000277 -0.000116 0.033891 -0.008413 0.005040
# 5 -0.005770 0.000031 -0.001194 -0.008413 0.026677 -0.007907
# 6 0.002797 -0.001159 -0.001551 0.005040 -0.007907 0.022344
#
#
# Mechanical properties :
#
#
# Convention : Reuss Voigt Hill
#
# Bulk Modulus (GPa) = 33.39410 38.80860 36.10135
# Shear Modulus (GPa) = 40.74270 49.57867 45.16069
#
# Velocity S-wave (km/s) = 3.87316 4.27256 4.07775
# Velocity P-wave (km/s) = 5.68309 6.21522 5.95510
#
# Compressibility (1/GPa) = 0.02994541
#
# Stress axis : x y z
#
# Youngs Moduli (GPa) = 77.96365 102.92982 136.14920
#
# Poissons Ratio (x) = -0.07699 0.04719
# Poissons Ratio (y) = -0.05831 0.05064
# Poissons Ratio (z) = 0.02702 0.03829
#
# Static dielectric constant tensor:
#      x y z
#    x 2.166350 0.140520 0.031650 
#    y 0.140520 2.181280 -0.072350 
#    z 0.031650 -0.072350 2.134900 
# 
# From -- ./inp_files/525446.got.cif
#   From: 2010.05.17/outbox.cif.g08.bks.cpg/sg2_263_cif.got.tgz:525446.got - 2010.06.03 11:33:40.
