data_PCOD9036187
_publ_section_title
;
Structure prediction by ZEFSAII (Michael W. Deem and Ramdas Pophale) SiO2 
 PCOD9036187
Probable space group: P -1
;
_chemical_formula_sum "Si O2"
_cell_formula_units_Z 13
_cell_length_a 4.892561
_cell_length_b 23.395187
_cell_length_c 11.497123
_cell_angle_alpha 151.077869
_cell_angle_beta 124.452494
_cell_angle_gamma 63.208101
_cell_volume 521.539820
_symmetry_space_group_name_H-M "P -1"
_symmetry_group_IT_number 2
_symmetry_cell_setting 'triclinic'
loop_
_space_group_symop_operation_xyz
x,y,z
-x,-y,-z
loop_
_atom_site_type_symbol
_atom_site_label
_atom_site_fract_x
_atom_site_fract_y
_atom_site_fract_z
Si Si1 0.697742 0.809738 0.758476
Si Si2 0.330290 0.802409 0.411412
Si Si3 0.707544 0.038491 0.918600
Si Si4 0.251727 0.644838 0.907814
Si Si5 0.615544 0.869712 0.288274
Si Si6 0.500000 0.500000 0.500000
Si Si7 0.424539 0.297592 0.222820
O O1 0.086207 0.847617 0.890760
O O2 0.479646 0.789070 0.552338
O O3 0.622778 0.715834 0.676482
O O4 0.575115 0.923604 0.997050
O O5 0.957663 0.840711 0.380169
O O6 0.551804 0.915538 0.605764
O O7 0.342767 0.681636 0.126933
O O8 0.000000 0.000000 0.000000
O O9 0.457504 0.558844 0.733937
O O10 0.847067 0.616465 0.750700
O O11 0.324972 0.773129 0.091364
O O12 0.500000 0.000000 0.500000
O O13 0.658472 0.826549 0.087472
O O14 0.719900 0.390390 0.412848
#
# Coordination Sequence:
#
# PCOD9036187 Si02
#       7
#     2   2   2   2   2   1   2
#     4  11  25  40  67 101 138 179 227 270 336 403
#     4  10  23  40  63  99 138 186 218 271 330 400
#     4  10  23  39  61  97 147 187 213 259 333 412
#     4  10  23  40  67  90 129 172 225 280 335 401
#     4  10  24  39  63  99 141 179 223 268 331 406
#     4  10  22  48  68  90 122 176 228 282 354 388
#     4  10  24  42  67  95 127 177 220 290 333 407
#
# _framework density 24.926190999999999
#
# number of rings (size 3 to 8) (size 9 to 14) (size 15 to 20)
#    0.000    1.846    0.000    2.308   15.077    1.231 
#    0.000    3.077    0.000    9.231    0.000    0.000 
#    0.000    0.000    0.000    0.000    0.000    0.000 
#
# Total GULP energy -72434.723113 kJ/mol
# GULP energy per Si atom -5571.901778 kJ/mol
# Density = 2.486946 g / cm^3
# Si number density = 24.926191 Si / 1000 Ang^3
#
#
#
# Elastic Constant Matrix: (Units=GPa)
#
#
# Indices 1 2 3 4 5 6 
#
# 1 126.0672 31.2766 47.9863 -25.9603 -2.0038 -1.0908
# 2 31.2766 145.0667 63.0113 -23.4609 11.4239 27.0507
# 3 47.9863 63.0113 206.0912 -10.3936 -19.5944 4.9392
# 4 -25.9603 -23.4609 -10.3936 50.6589 7.0411 4.5766
# 5 -2.0038 11.4239 -19.5944 7.0411 48.0927 4.6496
# 6 -1.0908 27.0507 4.9392 4.5766 4.6496 44.4814
#
#
#
# Elastic Compliance Matrix: (Units=1/GPa)
#
#
# Indices 1 2 3 4 5 6 
#
# 1 0.009716 -0.000520 -0.001982 0.004428 -0.000968 0.000420
# 2 -0.000520 0.010673 -0.003109 0.005157 -0.003972 -0.006273
# 3 -0.001982 -0.003109 0.006485 -0.001690 0.003455 0.000935
# 4 0.004428 0.005157 -0.001690 0.025182 -0.004941 -0.004915
# 5 -0.000968 -0.003972 0.003455 -0.004941 0.023825 0.000026
# 6 0.000420 -0.006273 0.000935 -0.004915 0.000026 0.026706
#
#
# Mechanical properties :
#
#
# Convention : Reuss Voigt Hill
#
# Bulk Modulus (GPa) = 63.89192 84.64152 74.26672
# Shear Modulus (GPa) = 42.00779 50.97666 46.49222
#
# Velocity S-wave (km/s) = 4.10968 4.52719 4.32348
# Velocity P-wave (km/s) = 6.94315 7.83312 7.40153
#
# Compressibility (1/GPa) = 0.01565143
#
# Stress axis : x y z
#
# Youngs Moduli (GPa) = 102.92507 93.69729 154.19496
#
# Poissons Ratio (x) = 0.04869 0.30563
# Poissons Ratio (y) = 0.05349 0.47944
# Poissons Ratio (z) = 0.20401 0.29134
#
# Static dielectric constant tensor:
#      x y z
#    x 2.636800 -0.072710 -0.394360 
#    y -0.072710 2.136980 0.166960 
#    z -0.394360 0.166960 2.362870 
# 
# From -- ./inp_files/370681.got.cif
#   From: 2010.05.17/outbox.cif.g08.bks.cpg/sg2_186_cif.got.tgz:370681.got - 2010.06.03 11:33:40.
