data_PCOD9036268
_publ_section_title
;
Structure prediction by ZEFSAII (Michael W. Deem and Ramdas Pophale) SiO2 
 PCOD9036268
Probable space group: P -1
;
_chemical_formula_sum "Si O2"
_cell_formula_units_Z 12
_cell_length_a 8.566847
_cell_length_b 14.121686
_cell_length_c 5.322529
_cell_angle_alpha 100.943389
_cell_angle_beta 128.093130
_cell_angle_gamma 78.634042
_cell_volume 494.877249
_symmetry_space_group_name_H-M "P -1"
_symmetry_group_IT_number 2
_symmetry_cell_setting 'triclinic'
loop_
_space_group_symop_operation_xyz
x,y,z
-x,-y,-z
loop_
_atom_site_type_symbol
_atom_site_label
_atom_site_fract_x
_atom_site_fract_y
_atom_site_fract_z
Si Si1 0.700126 0.434348 0.738418
Si Si2 0.569035 0.107386 0.612132
Si Si3 0.120792 0.616420 0.606804
Si Si4 0.238496 0.234467 0.611821
Si Si5 0.042770 0.936232 0.755334
Si Si6 0.389389 0.754416 0.673420
O O1 0.500000 0.500000 0.500000
O O2 0.858973 0.437111 0.669602
O O3 0.639264 0.324471 0.613524
O O4 0.781367 0.448613 0.103791
O O5 0.383482 0.187822 0.515036
O O6 0.663270 0.142762 0.466286
O O7 0.500000 0.000000 0.500000
O O8 0.729291 0.105759 0.991905
O O9 0.254730 0.704839 0.720772
O O10 0.906923 0.667025 0.507450
O O11 0.095848 0.149595 0.458703
O O12 0.389710 0.247219 0.996052
O O13 0.000000 0.000000 0.500000
O O14 0.000000 0.000000 0.000000
#
# Coordination Sequence:
#
# PCOD9036268 Si02
#       6
#     2   2   2   2   2   2
#     4  10  22  48  76 104 139 180 227 284 349 421
#     4  12  26  45  69 100 141 188 240 287 339 404
#     4  10  25  44  74 103 141 180 226 284 353 408
#     4  12  25  42  69  98 144 177 238 281 351 400
#     4  12  28  44  65  95 134 181 241 292 337 398
#     4  10  25  42  73 101 140 180 233 284 349 405
#
# _framework density 24.248436999999999
#
# number of rings (size 3 to 8) (size 9 to 14) (size 15 to 20)
#    1.000    0.000    1.667    4.500    7.000    1.333 
#    0.000    1.667    0.000    0.000    0.000    0.000 
#    0.000    0.000    0.000    0.000    0.000    0.000 
#
# Total GULP energy -66987.072196 kJ/mol
# GULP energy per Si atom -5582.256016 kJ/mol
# Density = 2.419325 g / cm^3
# Si number density = 24.248437 Si / 1000 Ang^3
#
#
#
# Elastic Constant Matrix: (Units=GPa)
#
#
# Indices 1 2 3 4 5 6 
#
# 1 109.6375 46.5817 55.0334 -24.0134 -6.2715 -8.4264
# 2 46.5817 72.3328 23.0834 -8.8001 -7.0834 8.9783
# 3 55.0334 23.0834 142.8427 -21.2087 -13.7246 13.7863
# 4 -24.0134 -8.8001 -21.2087 55.0865 4.8446 11.9824
# 5 -6.2715 -7.0834 -13.7246 4.8446 51.2370 -0.3455
# 6 -8.4264 8.9783 13.7863 11.9824 -0.3455 45.4119
#
#
#
# Elastic Compliance Matrix: (Units=1/GPa)
#
#
# Indices 1 2 3 4 5 6 
#
# 1 0.016800 -0.009672 -0.005183 0.002573 -0.000872 0.005918
# 2 -0.009672 0.020732 0.001313 0.000847 0.001910 -0.006501
# 3 -0.005183 0.001313 0.009830 0.002631 0.001899 -0.004885
# 4 0.002573 0.000847 0.002631 0.021872 -0.000974 -0.006267
# 5 -0.000872 0.001910 0.001899 -0.000974 0.020270 -0.000705
# 6 0.005918 -0.006501 -0.004885 -0.006267 -0.000705 0.027535
#
#
# Mechanical properties :
#
#
# Convention : Reuss Voigt Hill
#
# Bulk Modulus (GPa) = 49.31437 63.80112 56.55774
# Shear Modulus (GPa) = 33.13837 43.68804 38.41321
#
# Velocity S-wave (km/s) = 3.70079 4.24923 3.98446
# Velocity P-wave (km/s) = 6.21630 7.10234 6.67404
#
# Compressibility (1/GPa) = 0.02027807
#
# Stress axis : x y z
#
# Youngs Moduli (GPa) = 59.52299 48.23483 101.73199
#
# Poissons Ratio (x) = 0.46654 0.52724
# Poissons Ratio (y) = 0.57572 -0.13357
# Poissons Ratio (z) = 0.30848 -0.06333
#
# Static dielectric constant tensor:
#      x y z
#    x 2.184180 -0.094300 -0.145120 
#    y -0.094300 1.997690 0.025630 
#    z -0.145120 0.025630 2.023170 
# 
# From -- ./inp_files/30174.got.cif
#   From: 2010.05.17/outbox.cif.g08.bks.cpg/sg2_16_cif.got.tgz:30174.got - 2010.06.03 11:33:40.
