data_PCOD9036292
_publ_section_title
;
Structure prediction by ZEFSAII (Michael W. Deem and Ramdas Pophale) SiO2 
 PCOD9036292
Probable space group: P -1
;
_chemical_formula_sum "Si O2"
_cell_formula_units_Z 14
_cell_length_a 20.333527
_cell_length_b 26.070086
_cell_length_c 17.500239
_cell_angle_alpha 15.845163
_cell_angle_beta 153.986815
_cell_angle_gamma 162.950042
_cell_volume 716.588215
_symmetry_space_group_name_H-M "P -1"
_symmetry_group_IT_number 2
_symmetry_cell_setting 'triclinic'
loop_
_space_group_symop_operation_xyz
x,y,z
-x,-y,-z
loop_
_atom_site_type_symbol
_atom_site_label
_atom_site_fract_x
_atom_site_fract_y
_atom_site_fract_z
Si Si1 0.957991 0.238842 0.918645
Si Si2 0.632623 0.818233 0.543404
Si Si3 0.300676 0.662611 0.944634
Si Si4 0.325818 0.686362 0.534034
Si Si5 0.140995 0.598020 0.087545
Si Si6 0.838924 0.732381 0.495615
Si Si7 0.198211 0.302206 0.225063
O O1 0.165299 0.447474 0.774471
O O2 0.829623 0.313984 0.674562
O O3 0.058376 0.283266 0.041950
O O4 0.790374 0.906125 0.194948
O O5 0.439094 0.642765 0.658064
O O6 0.634013 0.679344 0.672487
O O7 0.881362 0.009918 0.568106
O O8 0.656658 0.055832 0.198075
O O9 0.049090 0.524799 0.873273
O O10 0.478372 0.993985 0.680265
O O11 0.270740 0.477652 0.245062
O O12 0.338662 0.579663 0.027327
O O13 0.216113 0.454448 0.365704
O O14 0.000000 0.500000 0.000000
O O15 0.000000 0.000000 0.500000
#
# Coordination Sequence:
#
# PCOD9036292 Si02
#       7
#     2   2   2   2   2   2   2
#     4  10  24  35  55  78 117 145 176 227 275 308
#     4   9  16  31  58  77 109 139 181 219 267 318
#     4  10  17  32  62  78 109 136 183 225 265 322
#     4  11  21  39  54  80 112 146 184 218 268 328
#     4   8  12  26  51  84 100 129 178 232 255 294
#     4   9  15  31  54  84  99 139 184 229 257 305
#     4  11  19  36  58  84 113 136 177 231 273 316
#
# _framework density 19.537023000000001
#
# number of rings (size 3 to 8) (size 9 to 14) (size 15 to 20)
#    0.000    2.571    8.571    0.000    0.000    3.429 
#    0.000    0.714    3.143    1.714    0.000    0.000 
#    0.000    0.000    0.000    0.000    0.000    0.000 
#
# Total GULP energy -77961.702751 kJ/mol
# GULP energy per Si atom -5568.693054 kJ/mol
# Density = 1.949256 g / cm^3
# Si number density = 19.537023 Si / 1000 Ang^3
#
#
#
# Elastic Constant Matrix: (Units=GPa)
#
#
# Indices 1 2 3 4 5 6 
#
# 1 148.2635 27.4006 18.3999 3.9486 13.0477 3.6276
# 2 27.4006 33.6849 11.3246 -1.3143 -12.3401 12.8899
# 3 18.3999 11.3246 66.8807 16.2299 -0.6364 -13.3355
# 4 3.9486 -1.3143 16.2299 -0.7612 -12.0856 13.3628
# 5 13.0477 -12.3401 -0.6364 -12.0856 15.9907 0.0038
# 6 3.6276 12.8899 -13.3355 13.3628 0.0038 8.2286
#
#
#
# Elastic Compliance Matrix: (Units=1/GPa)
#
#
# Indices 1 2 3 4 5 6 
#
# 1 0.009461 -0.007004 -0.004054 0.004573 -0.009829 -0.007190
# 2 -0.007004 0.033624 0.004797 -0.029677 0.009423 0.006382
# 3 -0.004054 0.004797 0.013021 0.009602 0.014785 -0.000226
# 4 0.004573 -0.029677 0.009602 0.010527 -0.018305 0.042947
# 5 -0.009829 0.009423 0.014785 -0.018305 0.064571 0.043231
# 6 -0.007190 0.006382 -0.000226 0.042947 0.043231 0.044571
#
#
# Mechanical properties :
#
#
# Convention : Reuss Voigt Hill
#
# Bulk Modulus (GPa) = 22.94413 40.34212 31.64313
# Shear Modulus (GPa) = 24.65191 17.47188 21.06190
#
# Velocity S-wave (km/s) = 3.55604 2.99372 3.28693
# Velocity P-wave (km/s) = 5.35070 5.71347 5.53506
#
# Compressibility (1/GPa) = 0.04358413
#
# Stress axis : x y z
#
# Youngs Moduli (GPa) = 105.69228 29.74104 76.80123
#
# Poissons Ratio (x) = 0.20832 0.31134
# Poissons Ratio (y) = 0.74030 -0.36845
# Poissons Ratio (z) = 0.42846 -0.14268
#
# Static dielectric constant tensor:
#      x y z
#    x 1.755220 0.026380 0.048810 
#    y 0.026380 1.725270 0.012960 
#    z 0.048810 0.012960 1.721860 
# 
# From -- ./inp_files/415592.got.cif
#   From: 2010.05.17/outbox.cif.g08.bks.cpg/sg2_208_cif.got.tgz:415592.got - 2010.06.03 11:33:40.
