data_PCOD9036513
_publ_section_title
;
Structure prediction by ZEFSAII (Michael W. Deem and Ramdas Pophale) SiO2 
 PCOD9036513
Probable space group: P -1
;
_chemical_formula_sum "Si O2"
_cell_formula_units_Z 16
_cell_length_a 9.737323
_cell_length_b 17.013947
_cell_length_c 8.132016
_cell_angle_alpha 120.916772
_cell_angle_beta 43.195019
_cell_angle_gamma 127.729076
_cell_volume 723.626067
_symmetry_space_group_name_H-M "P -1"
_symmetry_group_IT_number 2
_symmetry_cell_setting 'triclinic'
loop_
_space_group_symop_operation_xyz
x,y,z
-x,-y,-z
loop_
_atom_site_type_symbol
_atom_site_label
_atom_site_fract_x
_atom_site_fract_y
_atom_site_fract_z
Si Si1 0.709420 0.042038 0.127475
Si Si2 0.877569 0.719254 0.587432
Si Si3 0.584880 0.829315 0.963834
Si Si4 0.259059 0.772191 0.883086
Si Si5 0.884388 0.576886 0.158650
Si Si6 0.702561 0.491217 0.906073
Si Si7 0.266946 0.898646 0.457648
Si Si8 0.854433 0.341785 0.454344
O O1 0.792042 0.134064 0.030391
O O2 0.776833 0.072400 0.290587
O O3 0.439656 0.996815 0.319764
O O4 0.757197 0.945779 0.934296
O O5 0.674844 0.746192 0.831108
O O6 0.820561 0.619348 0.424412
O O7 0.051693 0.824745 0.472103
O O8 0.013646 0.709891 0.614405
O O9 0.452698 0.804944 0.881849
O O10 0.421442 0.835989 0.255257
O O11 0.300134 0.727231 0.626659
O O12 0.057925 0.680196 0.040311
O O13 0.694476 0.519508 0.133309
O O14 0.000000 0.500000 0.000000
O O15 0.726965 0.388763 0.732846
O O16 0.939989 0.570724 0.721385
O O17 0.500000 0.500000 0.000000
#
# Coordination Sequence:
#
# PCOD9036513 Si02
#       8
#     2   2   2   2   2   2   2   2
#     4   9  19  42  65  88 124 171 202 256 316 360
#     4  12  22  41  62  95 126 166 211 251 308 373
#     4  10  23  37  66  95 123 164 216 249 307 374
#     4  11  21  41  64  88 130 163 201 264 312 360
#     4  11  23  41  65  90 127 170 201 256 317 365
#     4  10  23  43  63  88 120 163 215 256 312 364
#     4   9  20  41  63  88 129 162 204 256 314 364
#     4  10  23  40  62  88 127 163 202 264 310 360
#
# _framework density 22.110869000000001
#
# number of rings (size 3 to 8) (size 9 to 14) (size 15 to 20)
#    0.750    1.000    3.750    0.375    1.750    2.500 
#    0.000    3.750    0.000    0.000    0.000    0.000 
#    0.000    0.000    0.000    0.000    0.000    0.000 
#
# Total GULP energy -89155.449539 kJ/mol
# GULP energy per Si atom -5572.215596 kJ/mol
# Density = 2.206054 g / cm^3
# Si number density = 22.110869 Si / 1000 Ang^3
#
#
#
# Elastic Constant Matrix: (Units=GPa)
#
#
# Indices 1 2 3 4 5 6 
#
# 1 107.6613 22.7076 40.0786 34.7702 13.7284 10.5028
# 2 22.7076 86.8221 39.4145 24.0897 9.9227 -4.0491
# 3 40.0786 39.4145 79.5348 36.0089 0.7142 8.1687
# 4 34.7702 24.0897 36.0089 42.7298 2.2204 9.6198
# 5 13.7284 9.9227 0.7142 2.2204 29.1368 12.8802
# 6 10.5028 -4.0491 8.1687 9.6198 12.8802 35.5109
#
#
#
# Elastic Compliance Matrix: (Units=1/GPa)
#
#
# Indices 1 2 3 4 5 6 
#
# 1 0.014084 0.001525 -0.003851 -0.009149 -0.007249 0.002002
# 2 0.001525 0.017848 -0.007514 -0.006402 -0.009951 0.008656
# 3 -0.003851 -0.007514 0.024255 -0.012438 0.006645 -0.004338
# 4 -0.009149 -0.006402 -0.012438 0.046950 0.007982 -0.010777
# 5 -0.007249 -0.009951 0.006645 0.007982 0.049472 -0.020626
# 6 0.002002 0.008656 -0.004338 -0.010777 -0.020626 0.039954
#
#
# Mechanical properties :
#
#
# Convention : Reuss Voigt Hill
#
# Bulk Modulus (GPa) = 27.39310 53.15773 40.27541
# Shear Modulus (GPa) = 22.28046 32.93001 27.60524
#
# Velocity S-wave (km/s) = 3.17783 3.86335 3.53723
# Velocity P-wave (km/s) = 5.08730 6.63282 5.91079
#
# Compressibility (1/GPa) = 0.03650554
#
# Stress axis : x y z
#
# Youngs Moduli (GPa) = 71.00152 56.03020 41.22884
#
# Poissons Ratio (x) = -0.08545 0.15879
# Poissons Ratio (y) = -0.10828 0.30980
# Poissons Ratio (z) = 0.27346 0.42102
#
# Static dielectric constant tensor:
#      x y z
#    x 1.780180 0.006540 0.032010 
#    y 0.006540 1.977940 -0.052070 
#    z 0.032010 -0.052070 1.857580 
# 
# From -- ./inp_files/213205.got.cif
#   From: 2010.05.17/outbox.cif.g08.bks.cpg/sg2_107_cif.got.tgz:213205.got - 2010.06.03 11:33:40.
