data_PCOD9036688
_publ_section_title
;
Structure prediction by ZEFSAII (Michael W. Deem and Ramdas Pophale) SiO2 
 PCOD9036688
Probable space group: P -1
;
_chemical_formula_sum "Si O2"
_cell_formula_units_Z 16
_cell_length_a 18.876827
_cell_length_b 9.464897
_cell_length_c 8.679001
_cell_angle_alpha 65.742130
_cell_angle_beta 149.379579
_cell_angle_gamma 123.552933
_cell_volume 650.505109
_symmetry_space_group_name_H-M "P -1"
_symmetry_group_IT_number 2
_symmetry_cell_setting 'triclinic'
loop_
_space_group_symop_operation_xyz
x,y,z
-x,-y,-z
loop_
_atom_site_type_symbol
_atom_site_label
_atom_site_fract_x
_atom_site_fract_y
_atom_site_fract_z
Si Si1 0.389580 0.083793 0.692042
Si Si2 0.164051 0.994840 0.801147
Si Si3 0.449891 0.279706 0.390838
Si Si4 0.533907 0.442192 0.920935
Si Si5 0.216465 0.591275 0.446089
Si Si6 0.951096 0.714795 0.952137
Si Si7 0.915248 0.056351 0.661022
Si Si8 0.347963 0.829273 0.334438
O O1 0.412056 0.167469 0.526263
O O2 0.211528 0.962558 0.438798
O O3 0.417025 0.245745 0.777401
O O4 0.500000 0.000000 0.000000
O O5 0.168618 0.948601 0.652763
O O6 0.306517 0.163898 0.057374
O O7 0.000000 0.000000 0.500000
O O8 0.191581 0.848056 0.009790
O O9 0.620630 0.297194 0.661916
O O10 0.471336 0.465101 0.289647
O O11 0.705362 0.453752 0.244863
O O12 0.500000 0.500000 0.000000
O O13 0.078136 0.638613 0.207325
O O14 0.344393 0.762261 0.528555
O O15 0.179354 0.438895 0.319958
O O16 0.944699 0.767161 0.097283
O O17 0.958258 0.894006 0.812559
O O18 0.500000 0.000000 0.500000
#
# Coordination Sequence:
#
# PCOD9036688 Si02
#       8
#     2   2   2   2   2   2   2   2
#     4  12  27  44  74 105 143 186 242 303 363 432
#     4  11  24  42  68 103 144 189 240 294 364 435
#     4  11  25  44  69 106 144 187 244 300 364 433
#     4  12  24  44  71 104 140 185 234 299 369 425
#     4  11  22  43  71 101 138 189 238 294 364 432
#     4  10  24  41  70  97 138 190 241 287 355 441
#     4  11  24  43  68 100 139 186 241 290 363 427
#     4  10  23  38  68 100 143 181 242 295 363 428
#
# _framework density 24.596273
#
# number of rings (size 3 to 8) (size 9 to 14) (size 15 to 20)
#    0.000    1.000    1.250    4.875   12.250    1.000 
#    0.000    0.625    0.000    0.000    0.000    0.000 
#    0.000    0.000    0.000    0.000    0.000    0.000 
#
# Total GULP energy -89097.517160 kJ/mol
# GULP energy per Si atom -5568.594822 kJ/mol
# Density = 2.454029 g / cm^3
# Si number density = 24.596273 Si / 1000 Ang^3
#
#
#
# Elastic Constant Matrix: (Units=GPa)
#
#
# Indices 1 2 3 4 5 6 
#
# 1 62.6949 0.0164 31.0825 -25.0498 -6.3975 -7.8146
# 2 0.0164 112.9504 41.1278 -10.7548 -10.5292 -23.9292
# 3 31.0825 41.1278 143.7173 -34.8370 2.5951 -4.5039
# 4 -25.0498 -10.7548 -34.8370 48.6019 -3.3635 -10.7621
# 5 -6.3975 -10.5292 2.5951 -3.3635 51.0246 -0.6557
# 6 -7.8146 -23.9292 -4.5039 -10.7621 -0.6557 22.7615
#
#
#
# Elastic Compliance Matrix: (Units=1/GPa)
#
#
# Indices 1 2 3 4 5 6 
#
# 1 0.033705 0.012384 -0.003455 0.026385 0.009167 0.036647
# 2 0.012384 0.018738 -0.003495 0.015306 0.007000 0.030698
# 3 -0.003455 -0.003495 0.009679 0.004050 -0.001393 -0.001070
# 4 0.026385 0.015306 0.004050 0.052491 0.010377 0.051070
# 5 0.009167 0.007000 -0.001393 0.010377 0.023150 0.015805
# 6 0.036647 0.030698 -0.001070 0.051070 0.015805 0.113179
#
#
# Mechanical properties :
#
#
# Convention : Reuss Voigt Hill
#
# Bulk Modulus (GPa) = 13.70037 51.53510 32.61773
# Shear Modulus (GPa) = 18.91048 40.95334 29.93191
#
# Velocity S-wave (km/s) = 2.77580 4.08490 3.49223
# Velocity P-wave (km/s) = 3.98191 6.57620 5.43608
#
# Compressibility (1/GPa) = 0.07299075
#
# Stress axis : x y z
#
# Youngs Moduli (GPa) = 29.66878 53.36854 103.31871
#
# Poissons Ratio (x) = -0.66091 0.35695
# Poissons Ratio (y) = -0.36742 0.36106
# Poissons Ratio (z) = 0.10250 0.18651
#
# Static dielectric constant tensor:
#      x y z
#    x 2.067870 -0.079850 -0.003010 
#    y -0.079850 2.103830 0.014470 
#    z -0.003010 0.014470 2.035440 
# 
# From -- ./inp_files/343472.got.cif
#   From: 2010.05.17/outbox.cif.g08.bks.cpg/sg2_172_cif.got.tgz:343472.got - 2010.06.03 11:33:40.
