data_PCOD9036343
_publ_section_title
;
Structure prediction by ZEFSAII (Michael W. Deem and Ramdas Pophale) SiO2 
 PCOD9036343
Probable space group: P -1
;
_chemical_formula_sum "Si O2"
_cell_formula_units_Z 13
_cell_length_a 5.283937
_cell_length_b 5.327077
_cell_length_c 19.221789
_cell_angle_alpha 65.580567
_cell_angle_beta 96.687087
_cell_angle_gamma 92.211574
_cell_volume 489.274125
_symmetry_space_group_name_H-M "P -1"
_symmetry_group_IT_number 2
_symmetry_cell_setting 'triclinic'
loop_
_space_group_symop_operation_xyz
x,y,z
-x,-y,-z
loop_
_atom_site_type_symbol
_atom_site_label
_atom_site_fract_x
_atom_site_fract_y
_atom_site_fract_z
Si Si1 0.014701 0.042292 0.676325
Si Si2 0.771432 0.487993 0.204291
Si Si3 0.460512 0.691912 0.291819
Si Si4 0.565212 0.645792 0.912856
Si Si5 0.609085 0.700966 0.543697
Si Si6 0.000000 0.500000 0.500000
Si Si7 0.118981 0.844422 0.088183
O O1 0.292763 0.134868 0.699430
O O2 0.979364 0.209233 0.583586
O O3 0.789671 0.140921 0.710208
O O4 0.044539 0.710345 0.720995
O O5 0.526604 0.575905 0.231754
O O6 0.673170 0.338688 0.148499
O O7 0.915725 0.753478 0.149461
O O8 0.468687 0.428162 0.372624
O O9 0.760944 0.436521 0.905875
O O10 0.684932 0.939193 0.898459
O O11 0.500000 0.500000 0.000000
O O12 0.500000 0.500000 0.500000
O O13 0.905992 0.677768 0.542226
O O14 0.500000 0.000000 0.500000
O O15 0.000000 0.000000 0.000000
#
# Coordination Sequence:
#
# PCOD9036343 Si02
#       7
#     2   2   2   2   2   1   2
#     4  11  27  50  80 119 170 226 289 358 435 510
#     4  12  31  49  82 121 180 219 298 357 444 512
#     4  11  28  49  77 119 168 224 283 361 437 508
#     4  12  29  53  86 124 167 226 287 357 437 530
#     4  11  23  46  76 112 154 214 279 348 427 505
#     4  10  22  50  78 114 164 224 292 350 428 518
#     4  12  29  53  86 124 166 226 286 357 439 527
#
# _framework density 26.569970999999999
#
# number of rings (size 3 to 8) (size 9 to 14) (size 15 to 20)
#    0.000    0.615    3.077    1.846    8.615    0.615 
#    8.308    0.000    0.000    0.000    0.000    0.000 
#    0.000    0.000    0.000    0.000    0.000    0.000 
#
# Total GULP energy -72670.288212 kJ/mol
# GULP energy per Si atom -5590.022170 kJ/mol
# Density = 2.650950 g / cm^3
# Si number density = 26.569971 Si / 1000 Ang^3
#
#
#
# Elastic Constant Matrix: (Units=GPa)
#
#
# Indices 1 2 3 4 5 6 
#
# 1 121.4231 49.6240 63.8666 7.9623 -23.5864 -1.2423
# 2 49.6240 152.7731 71.8802 -15.8072 -19.8105 -12.7718
# 3 63.8666 71.8802 231.0410 -8.0074 -32.8837 -7.3377
# 4 7.9623 -15.8072 -8.0074 62.8381 -7.1276 4.8405
# 5 -23.5864 -19.8105 -32.8837 -7.1276 51.7913 12.4460
# 6 -1.2423 -12.7718 -7.3377 4.8405 12.4460 52.1799
#
#
#
# Elastic Compliance Matrix: (Units=1/GPa)
#
#
# Indices 1 2 3 4 5 6 
#
# 1 0.010959 -0.002578 -0.001931 -0.001879 0.002792 -0.001133
# 2 -0.002578 0.008678 -0.001715 0.002305 0.001047 0.001358
# 3 -0.001931 -0.001715 0.005741 0.000826 0.002291 -0.000282
# 4 -0.001879 0.002305 0.000826 0.017356 0.003366 -0.001777
# 5 0.002792 0.001047 0.002291 0.003366 0.024206 -0.005441
# 6 -0.001133 0.001358 -0.000282 -0.001777 -0.005441 0.020893
#
#
# Mechanical properties :
#
#
# Convention : Reuss Voigt Hill
#
# Bulk Modulus (GPa) = 77.34072 97.33099 87.33586
# Shear Modulus (GPa) = 47.80477 54.68630 51.24554
#
# Velocity S-wave (km/s) = 4.24630 4.54166 4.39646
# Velocity P-wave (km/s) = 7.29472 8.01335 7.66246
#
# Compressibility (1/GPa) = 0.01292980
#
# Stress axis : x y z
#
# Youngs Moduli (GPa) = 91.24832 115.23499 174.17313
#
# Poissons Ratio (x) = 0.29711 0.33632
# Poissons Ratio (y) = 0.23527 0.29871
# Poissons Ratio (z) = 0.17620 0.19763
#
# Static dielectric constant tensor:
#      x y z
#    x 2.345140 -0.105520 0.208250 
#    y -0.105520 2.539450 -0.304200 
#    z 0.208250 -0.304200 2.276470 
# 
# From -- ./inp_files/580594.got.cif
#   From: 2010.05.17/outbox.cif.g08.bks.cpg/sg2_291_cif.got.tgz:580594.got - 2010.06.03 11:33:40.
