data_PCOD9036632
_publ_section_title
;
Structure prediction by ZEFSAII (Michael W. Deem and Ramdas Pophale) SiO2 
 PCOD9036632
Probable space group: P -1
;
_chemical_formula_sum "Si O2"
_cell_formula_units_Z 16
_cell_length_a 14.402907
_cell_length_b 9.547786
_cell_length_c 11.958355
_cell_angle_alpha 108.322764
_cell_angle_beta 137.769943
_cell_angle_gamma 46.105193
_cell_volume 726.120750
_symmetry_space_group_name_H-M "P -1"
_symmetry_group_IT_number 2
_symmetry_cell_setting 'triclinic'
loop_
_space_group_symop_operation_xyz
x,y,z
-x,-y,-z
loop_
_atom_site_type_symbol
_atom_site_label
_atom_site_fract_x
_atom_site_fract_y
_atom_site_fract_z
Si Si1 0.307470 0.225737 0.338734
Si Si2 0.703673 0.424214 0.912742
Si Si3 0.495983 0.631562 0.436775
Si Si4 0.566973 0.614622 0.076238
Si Si5 0.881578 0.875930 0.718527
Si Si6 0.296401 0.076774 0.880000
Si Si7 0.187178 0.368219 0.049217
Si Si8 0.000474 0.324016 0.470550
O O1 0.322743 0.390314 0.415217
O O2 0.136776 0.262130 0.259199
O O3 0.340915 0.175857 0.223847
O O4 0.500000 0.000000 0.500000
O O5 0.553150 0.416658 0.733967
O O6 0.740546 0.521711 0.878136
O O7 0.639490 0.564612 0.999575
O O8 0.919846 0.194645 0.079670
O O9 0.500000 0.500000 0.500000
O O10 0.306645 0.877971 0.362542
O O11 0.760800 0.480370 0.294934
O O12 0.500000 0.500000 0.000000
O O13 0.382783 0.870945 0.975994
O O14 0.910333 0.815466 0.598901
O O15 0.142977 0.167501 0.662488
O O16 0.184326 0.273419 0.913140
O O17 0.500000 0.000000 0.000000
O O18 0.000000 0.500000 0.000000
O O19 0.000000 0.500000 0.500000
#
# Coordination Sequence:
#
# PCOD9036632 Si02
#       8
#     2   2   2   2   2   2   2   2
#     4  10  23  38  64  96 131 176 225 280 338 415
#     4  11  22  44  67  96 139 184 226 290 357 417
#     4  11  23  37  60  96 134 176 221 277 347 413
#     4  11  27  48  71 106 148 185 241 304 362 431
#     4  10  23  42  67  95 136 180 230 289 345 421
#     4  12  25  46  81 104 141 199 240 300 362 432
#     4  12  24  45  70 106 141 179 242 293 354 425
#     4  11  24  45  77 106 136 189 251 295 358 435
#
# _framework density 22.034901999999999
#
# number of rings (size 3 to 8) (size 9 to 14) (size 15 to 20)
#    0.000    1.000    5.000    1.125    5.250    3.500 
#    4.500    0.000    0.000    0.000    0.000    0.000 
#    0.000    0.000    0.000    0.000    0.000    0.000 
#
# Total GULP energy -89194.466243 kJ/mol
# GULP energy per Si atom -5574.654140 kJ/mol
# Density = 2.198475 g / cm^3
# Si number density = 22.034902 Si / 1000 Ang^3
#
#
#
# Elastic Constant Matrix: (Units=GPa)
#
#
# Indices 1 2 3 4 5 6 
#
# 1 65.2281 18.7738 28.2770 5.4195 -2.4872 14.2519
# 2 18.7738 104.2270 17.5534 -7.0230 0.5895 8.1587
# 3 28.2770 17.5534 130.0730 11.9595 -6.6489 9.4485
# 4 5.4195 -7.0230 11.9595 32.8753 2.5259 -1.0654
# 5 -2.4872 0.5895 -6.6489 2.5259 40.0219 9.0384
# 6 14.2519 8.1587 9.4485 -1.0654 9.0384 39.4289
#
#
#
# Elastic Compliance Matrix: (Units=1/GPa)
#
#
# Indices 1 2 3 4 5 6 
#
# 1 0.019080 -0.002670 -0.002934 -0.003031 0.002343 -0.006260
# 2 -0.002670 0.010531 -0.001099 0.003107 -0.000532 -0.000745
# 3 -0.002934 -0.001099 0.008961 -0.003196 0.001833 -0.001366
# 4 -0.003031 0.003107 -0.003196 0.033109 -0.003514 0.002919
# 5 0.002343 -0.000532 0.001833 -0.003514 0.027370 -0.007545
# 6 -0.006260 -0.000745 -0.001366 0.002919 -0.007545 0.029915
#
#
# Mechanical properties :
#
#
# Convention : Reuss Voigt Hill
#
# Bulk Modulus (GPa) = 39.73831 47.63738 43.68784
# Shear Modulus (GPa) = 33.16490 38.12682 35.64586
#
# Velocity S-wave (km/s) = 3.88378 4.16419 4.02643
# Velocity P-wave (km/s) = 6.17941 6.69228 6.44095
#
# Compressibility (1/GPa) = 0.02516464
#
# Stress axis : x y z
#
# Youngs Moduli (GPa) = 52.40989 94.95612 111.59430
#
# Poissons Ratio (x) = 0.25354 0.32747
# Poissons Ratio (y) = 0.13994 0.12269
# Poissons Ratio (z) = 0.15379 0.10440
#
# Static dielectric constant tensor:
#      x y z
#    x 2.059300 0.031650 -0.184050 
#    y 0.031650 1.869190 -0.181210 
#    z -0.184050 -0.181210 2.092510 
# 
# From -- ./inp_files/447910.got.cif
#   From: 2010.05.17/outbox.cif.g08.bks.cpg/sg2_224_cif.got.tgz:447910.got - 2010.06.03 11:33:40.
