data_PCOD9036220
_publ_section_title
;
Structure prediction by ZEFSAII (Michael W. Deem and Ramdas Pophale) SiO2 
 PCOD9036220
Probable space group: P -1
;
_chemical_formula_sum "Si O2"
_cell_formula_units_Z 10
_cell_length_a 5.496025
_cell_length_b 14.290993
_cell_length_c 7.551398
_cell_angle_alpha 84.788076
_cell_angle_beta 63.057259
_cell_angle_gamma 54.461218
_cell_volume 417.899855
_symmetry_space_group_name_H-M "P -1"
_symmetry_group_IT_number 2
_symmetry_cell_setting 'triclinic'
loop_
_space_group_symop_operation_xyz
x,y,z
-x,-y,-z
loop_
_atom_site_type_symbol
_atom_site_label
_atom_site_fract_x
_atom_site_fract_y
_atom_site_fract_z
Si Si1 0.129184 0.265911 0.837075
Si Si2 0.686891 0.061098 0.453897
Si Si3 0.051562 0.682999 0.746411
Si Si4 0.910902 0.899118 0.908014
Si Si5 0.800073 0.448474 0.626997
O O1 0.871986 0.389858 0.804051
O O2 0.427527 0.187129 0.612683
O O3 0.206556 0.286062 0.009007
O O4 0.010430 0.183513 0.934813
O O5 0.500000 0.000000 0.500000
O O6 0.000000 0.000000 0.500000
O O7 0.849699 0.061971 0.214134
O O8 0.403942 0.559412 0.714211
O O9 0.043098 0.654896 0.552596
O O10 0.032878 0.799235 0.734489
O O11 0.500000 0.000000 0.000000
O O12 0.000000 0.500000 0.500000
#
# Coordination Sequence:
#
# PCOD9036220 Si02
#       5
#     2   2   2   2   2
#     4  10  24  44  74 106 149 202 249 316 384 455
#     4  12  26  47  76 112 157 206 257 318 385 462
#     4   9  23  45  68 102 153 188 256 310 380 452
#     4  10  22  48  71 109 153 201 252 308 389 459
#     4  11  22  43  73 106 143 197 255 314 379 454
#
# _framework density 23.929175000000001
#
# number of rings (size 3 to 8) (size 9 to 14) (size 15 to 20)
#    1.200    0.400    2.000    1.800    2.800    1.600 
#    7.200    0.000    0.000    0.000    0.000    0.000 
#    0.000    0.000    0.000    0.000    0.000    0.000 
#
# Total GULP energy -55698.981183 kJ/mol
# GULP energy per Si atom -5569.898118 kJ/mol
# Density = 2.387471 g / cm^3
# Si number density = 23.929175 Si / 1000 Ang^3
#
#
#
# Elastic Constant Matrix: (Units=GPa)
#
#
# Indices 1 2 3 4 5 6 
#
# 1 65.9600 31.5591 28.6460 -11.5396 -12.0332 -6.0075
# 2 31.5591 107.1860 43.1973 -15.0544 -12.9990 -8.0161
# 3 28.6460 43.1973 153.9120 -8.4877 -17.4982 3.3831
# 4 -11.5396 -15.0544 -8.4877 68.4377 3.3883 4.3471
# 5 -12.0332 -12.9990 -17.4982 3.3883 25.1781 -6.3512
# 6 -6.0075 -8.0161 3.3831 4.3471 -6.3512 30.0596
#
#
#
# Elastic Compliance Matrix: (Units=1/GPa)
#
#
# Indices 1 2 3 4 5 6 
#
# 1 0.019696 -0.003623 -0.001841 0.001658 0.007163 0.004451
# 2 -0.003623 0.012226 -0.002343 0.001396 0.003612 0.003362
# 3 -0.001841 -0.002343 0.007877 0.000079 0.003060 -0.001244
# 4 0.001658 0.001396 0.000079 0.015364 -0.000935 -0.001725
# 5 0.007163 0.003612 0.003060 -0.000935 0.050501 0.012856
# 6 0.004451 0.003362 -0.001244 -0.001725 0.012856 0.038159
#
#
# Mechanical properties :
#
#
# Convention : Reuss Voigt Hill
#
# Bulk Modulus (GPa) = 41.34810 59.31809 50.33310
# Shear Modulus (GPa) = 29.85092 39.64545 34.74819
#
# Velocity S-wave (km/s) = 3.53579 4.07478 3.81481
# Velocity P-wave (km/s) = 5.82974 6.85429 6.36267
#
# Compressibility (1/GPa) = 0.02418491
#
# Stress axis : x y z
#
# Youngs Moduli (GPa) = 50.77217 81.79214 126.94889
#
# Poissons Ratio (x) = 0.29630 0.23372
# Poissons Ratio (y) = 0.18393 0.29749
# Poissons Ratio (z) = 0.09348 0.19167
#
# Static dielectric constant tensor:
#      x y z
#    x 2.023650 0.065690 0.070920 
#    y 0.065690 1.892380 0.017970 
#    z 0.070920 0.017970 2.121210 
# 
# From -- ./inp_files/130247.got.cif
#   From: 2010.05.17/outbox.cif.g08.bks.cpg/sg2_66_cif.got.tgz:130247.got - 2010.06.03 11:33:40.
