data_PCOD9036366
_publ_section_title
;
Structure prediction by ZEFSAII (Michael W. Deem and Ramdas Pophale) SiO2 
 PCOD9036366
Probable space group: P -1
;
_chemical_formula_sum "Si O2"
_cell_formula_units_Z 16
_cell_length_a 13.320520
_cell_length_b 13.561889
_cell_length_c 7.434283
_cell_angle_alpha 40.007099
_cell_angle_beta 86.127001
_cell_angle_gamma 111.285020
_cell_volume 657.115455
_symmetry_space_group_name_H-M "P -1"
_symmetry_group_IT_number 2
_symmetry_cell_setting 'triclinic'
loop_
_space_group_symop_operation_xyz
x,y,z
-x,-y,-z
loop_
_atom_site_type_symbol
_atom_site_label
_atom_site_fract_x
_atom_site_fract_y
_atom_site_fract_z
Si Si1 0.786486 0.261900 0.782209
Si Si2 0.952718 0.651848 0.420143
Si Si3 0.236281 0.591485 0.762697
Si Si4 0.356646 0.154920 0.713765
Si Si5 0.724538 0.587556 0.688155
Si Si6 0.012865 0.832471 0.764738
Si Si7 0.266586 0.963701 0.366616
Si Si8 0.469245 0.650485 0.272019
O O1 0.846438 0.411828 0.731569
O O2 0.723661 0.318962 0.569553
O O3 0.915338 0.311741 0.601420
O O4 0.683284 0.025016 0.156260
O O5 0.880408 0.706471 0.473910
O O6 0.986270 0.764483 0.069597
O O7 0.237886 0.757052 0.629650
O O8 0.311966 0.550638 0.942539
O O9 0.094405 0.371559 0.049398
O O10 0.323034 0.285701 0.452790
O O11 0.496485 0.268961 0.637759
O O12 0.263536 0.046923 0.055460
O O13 0.658497 0.473492 0.665169
O O14 0.158774 0.928057 0.557642
O O15 0.000000 0.000000 0.500000
O O16 0.418509 0.149294 0.135512
O O17 0.500000 0.500000 0.500000
#
# Coordination Sequence:
#
# PCOD9036366 Si02
#       8
#     2   2   2   2   2   2   2   2
#     4   9  20  40  52  80 118 157 178 226 300 344
#     4  10  23  34  58  81 124 147 185 229 292 352
#     4  10  23  35  60  86 120 147 190 241 281 340
#     4   8  18  36  60  77 110 146 196 229 273 340
#     4  11  21  34  60  91 106 148 199 240 269 332
#     4  11  23  37  57  91 120 150 184 239 290 340
#     4   9  19  38  62  79 113 158 184 232 283 338
#     4   8  18  37  61  83 109 148 201 238 274 327
#
# _framework density 24.348842999999999
#
# number of rings (size 3 to 8) (size 9 to 14) (size 15 to 20)
#    0.750    1.750    0.000    1.125   10.500    1.000 
#    0.000    0.625    0.000    0.750    0.000    0.000 
#    0.000    0.000    0.000    0.000    0.000    0.000 
#
# Total GULP energy -89223.573256 kJ/mol
# GULP energy per Si atom -5576.473329 kJ/mol
# Density = 2.429342 g / cm^3
# Si number density = 24.348843 Si / 1000 Ang^3
#
#
#
# Elastic Constant Matrix: (Units=GPa)
#
#
# Indices 1 2 3 4 5 6 
#
# 1 92.4024 10.3814 50.0941 -0.7153 26.0766 27.7625
# 2 10.3814 26.3845 37.8252 12.2686 11.9817 24.3789
# 3 50.0941 37.8252 108.3287 6.0632 43.9093 -8.9299
# 4 -0.7153 12.2686 6.0632 42.5914 4.0610 -1.3059
# 5 26.0766 11.9817 43.9093 4.0610 27.7444 24.8289
# 6 27.7625 24.3789 -8.9299 -1.3059 24.8289 12.7867
#
#
#
# Elastic Compliance Matrix: (Units=1/GPa)
#
#
# Indices 1 2 3 4 5 6 
#
# 1 0.014706 -0.001982 0.000155 0.002323 -0.015362 0.002023
# 2 -0.001982 0.033112 0.006371 -0.006359 -0.037490 0.017767
# 3 0.000155 0.006371 0.004929 -0.003209 0.002500 -0.014222
# 4 0.002323 -0.006359 -0.003209 0.025057 0.006301 -0.004835
# 5 -0.015362 -0.037490 0.002500 0.006301 0.046304 0.017309
# 6 0.002023 0.017767 -0.014222 -0.004835 0.017309 -0.004097
#
#
# Mechanical properties :
#
#
# Convention : Reuss Voigt Hill
#
# Bulk Modulus (GPa) = 16.17185 47.07967 31.62576
# Shear Modulus (GPa) = 38.01265 25.21215 31.61240
#
# Velocity S-wave (km/s) = 3.95545 3.22134 3.60712
# Velocity P-wave (km/s) = 5.24566 5.76312 5.51046
#
# Compressibility (1/GPa) = 0.06183583
#
# Stress axis : x y z
#
# Youngs Moduli (GPa) = 67.99808 30.20028 202.88289
#
# Poissons Ratio (x) = 0.05985 -0.03144
# Poissons Ratio (y) = 0.13475 -1.29254
# Poissons Ratio (z) = -0.01054 -0.19240
#
# Static dielectric constant tensor:
#      x y z
#    x 1.932030 0.045540 -0.004840 
#    y 0.045540 1.925600 -0.040830 
#    z -0.004840 -0.040830 1.915100 
# 
# From -- ./inp_files/317475.got.cif
#   From: 2010.05.17/outbox.cif.g08.bks.cpg/sg2_159_cif.got.tgz:317475.got - 2010.06.03 11:33:40.
