data_PCOD9036054
_publ_section_title
;
Structure prediction by ZEFSAII (Michael W. Deem and Ramdas Pophale) SiO2 
 PCOD9036054
Probable space group: P -1
;
_chemical_formula_sum "Si O2"
_cell_formula_units_Z 14
_cell_length_a 9.909890
_cell_length_b 14.620874
_cell_length_c 17.921044
_cell_angle_alpha 156.884617
_cell_angle_beta 143.755008
_cell_angle_gamma 50.680468
_cell_volume 533.342972
_symmetry_space_group_name_H-M "P -1"
_symmetry_group_IT_number 2
_symmetry_cell_setting 'triclinic'
loop_
_space_group_symop_operation_xyz
x,y,z
-x,-y,-z
loop_
_atom_site_type_symbol
_atom_site_label
_atom_site_fract_x
_atom_site_fract_y
_atom_site_fract_z
Si Si1 0.775967 0.231279 0.097909
Si Si2 0.496368 0.724871 0.768461
Si Si3 0.176353 0.303801 0.438972
Si Si4 0.908363 0.604103 0.784605
Si Si5 0.708487 0.943951 0.324500
Si Si6 0.587238 0.159759 0.566108
Si Si7 0.682778 0.426856 0.951070
O O1 0.864520 0.527606 0.387470
O O2 0.914811 0.140450 0.153262
O O3 0.885997 0.224794 0.060718
O O4 0.467264 0.081090 0.843691
O O5 0.367858 0.515495 0.622383
O O6 0.760645 0.714727 0.856657
O O7 0.313445 0.608779 0.527181
O O8 0.500000 0.000000 0.000000
O O9 0.315140 0.156661 0.429590
O O10 0.076936 0.510096 0.840628
O O11 0.693363 0.158363 0.531274
O O12 0.577290 0.638589 0.065244
O O13 0.000000 0.000000 0.500000
O O14 0.747118 0.395826 0.870109
O O15 0.534064 0.873976 0.357845
#
# Coordination Sequence:
#
# PCOD9036054 Si02
#       7
#     2   2   2   2   2   2   2
#     4  10  22  47  71 107 143 183 256 298 362 440
#     4  10  24  47  70 108 152 193 240 306 375 434
#     4  10  23  45  76 107 143 188 248 309 364 429
#     4  10  23  44  73 104 146 194 247 297 366 445
#     4  12  27  45  70 105 147 192 240 304 366 435
#     4  11  25  46  74 101 142 192 244 307 354 438
#     4  11  25  46  70 104 141 192 248 289 368 437
#
# _framework density 26.249524000000001
#
# number of rings (size 3 to 8) (size 9 to 14) (size 15 to 20)
#    0.000    1.429    2.857    0.429    2.000    8.000 
#    5.143    0.000    0.000    0.000    0.000    0.000 
#    0.000    0.000    0.000    0.000    0.000    0.000 
#
# Total GULP energy -78291.337958 kJ/mol
# GULP energy per Si atom -5592.238426 kJ/mol
# Density = 2.618978 g / cm^3
# Si number density = 26.249524 Si / 1000 Ang^3
#
#
#
# Elastic Constant Matrix: (Units=GPa)
#
#
# Indices 1 2 3 4 5 6 
#
# 1 86.7036 35.5522 30.1689 -3.9259 -19.5944 -24.4553
# 2 35.5522 124.0897 44.8890 -20.5134 -11.5399 -15.8349
# 3 30.1689 44.8890 109.5381 -34.9821 -20.0885 -7.3864
# 4 -3.9259 -20.5134 -34.9821 64.6581 -2.4630 0.9319
# 5 -19.5944 -11.5399 -20.0885 -2.4630 57.1815 4.9817
# 6 -24.4553 -15.8349 -7.3864 0.9319 4.9817 49.9923
#
#
#
# Elastic Compliance Matrix: (Units=1/GPa)
#
#
# Indices 1 2 3 4 5 6 
#
# 1 0.016068 -0.002733 -0.002670 -0.001296 0.003413 0.006284
# 2 -0.002733 0.010332 -0.002877 0.001537 0.000076 0.001474
# 3 -0.002670 -0.002877 0.013753 0.006516 0.003675 -0.000673
# 4 -0.001296 0.001537 0.006516 0.019511 0.002982 0.000154
# 5 0.003413 0.000076 0.003675 0.002982 0.020077 0.000180
# 6 0.006284 0.001474 -0.000673 0.000154 0.000180 0.023424
#
#
# Mechanical properties :
#
#
# Convention : Reuss Voigt Hill
#
# Bulk Modulus (GPa) = 42.38469 60.17239 51.27854
# Shear Modulus (GPa) = 39.18812 48.34781 43.76797
#
# Velocity S-wave (km/s) = 3.86801 4.29634 4.08779
# Velocity P-wave (km/s) = 6.01087 6.89814 6.46973
#
# Compressibility (1/GPa) = 0.02359342
#
# Stress axis : x y z
#
# Youngs Moduli (GPa) = 62.23426 96.78960 72.71058
#
# Poissons Ratio (x) = 0.26450 0.19413
# Poissons Ratio (y) = 0.17007 0.20920
# Poissons Ratio (z) = 0.16616 0.27848
#
# Static dielectric constant tensor:
#      x y z
#    x 2.245910 0.096120 0.105710 
#    y 0.096120 2.028250 0.052800 
#    z 0.105710 0.052800 2.147380 
# 
# From -- ./inp_files/467033.got.cif
#   From: 2010.05.17/outbox.cif.g08.bks.cpg/sg2_234_cif.got.tgz:467033.got - 2010.06.03 11:33:40.
