data_PCOD9036541
_publ_section_title
;
Structure prediction by ZEFSAII (Michael W. Deem and Ramdas Pophale) SiO2 
 PCOD9036541
Probable space group: P -1
;
_chemical_formula_sum "Si O2"
_cell_formula_units_Z 16
_cell_length_a 13.147033
_cell_length_b 5.603421
_cell_length_c 9.843822
_cell_angle_alpha 99.285271
_cell_angle_beta 60.598636
_cell_angle_gamma 86.601505
_cell_volume 615.357163
_symmetry_space_group_name_H-M "P -1"
_symmetry_group_IT_number 2
_symmetry_cell_setting 'triclinic'
loop_
_space_group_symop_operation_xyz
x,y,z
-x,-y,-z
loop_
_atom_site_type_symbol
_atom_site_label
_atom_site_fract_x
_atom_site_fract_y
_atom_site_fract_z
Si Si1 0.669456 0.461597 0.444959
Si Si2 0.034034 0.272679 0.605822
Si Si3 0.093161 0.272741 0.136599
Si Si4 0.539534 0.186517 0.293489
Si Si5 0.187073 0.969549 0.292332
Si Si6 0.876933 0.077342 0.238596
Si Si7 0.282204 0.251715 0.826750
Si Si8 0.432605 0.760802 0.019576
O O1 0.584879 0.285495 0.415217
O O2 0.595364 0.671928 0.605179
O O3 0.783492 0.275922 0.401058
O O4 0.711830 0.599552 0.299457
O O5 0.151426 0.203540 0.433780
O O6 0.985523 0.551646 0.689919
O O7 0.066031 0.133282 0.714883
O O8 0.916490 0.181883 0.617155
O O9 0.164635 0.058714 0.160385
O O10 0.983555 0.199035 0.117598
O O11 0.194914 0.395564 0.008643
O O12 0.587629 0.894091 0.235841
O O13 0.594294 0.271659 0.126219
O O14 0.318549 0.830534 0.195691
O O15 0.796706 0.962545 0.172451
O O16 0.500000 0.500000 0.000000
O O17 0.500000 0.000000 0.000000
#
# Coordination Sequence:
#
# PCOD9036541 Si02
#       8
#     2   2   2   2   2   2   2   2
#     4  10  23  41  69  92 135 180 225 290 343 428
#     4  10  23  41  69  92 135 180 225 290 343 428
#     4  11  22  39  67  93 134 171 225 279 348 416
#     4  10  24  45  65  99 131 179 234 283 357 412
#     4  10  24  45  65  99 131 179 234 283 357 412
#     4  10  23  38  58 103 126 170 218 279 348 410
#     4  11  22  39  67  93 134 171 225 279 348 416
#     4  12  30  48  76 109 144 189 238 302 354 424
#
# _framework density 26.001161
#
# number of rings (size 3 to 8) (size 9 to 14) (size 15 to 20)
#    0.000    1.500    1.250    1.875    7.000    5.000 
#    0.000    0.000    0.000    0.000    0.000    0.000 
#    0.000    0.000    0.000    0.000    0.000    0.000 
#
# Total GULP energy -89372.534957 kJ/mol
# GULP energy per Si atom -5585.783435 kJ/mol
# Density = 2.594198 g / cm^3
# Si number density = 26.001161 Si / 1000 Ang^3
#
#
#
# Elastic Constant Matrix: (Units=GPa)
#
#
# Indices 1 2 3 4 5 6 
#
# 1 56.9759 25.3430 23.0544 18.0400 -25.5420 -6.8294
# 2 25.3430 67.9661 10.0248 9.4872 -17.0453 -20.3569
# 3 23.0544 10.0248 144.1478 10.3538 -36.7793 -3.1715
# 4 18.0400 9.4872 10.3538 42.7931 -12.8972 -5.6318
# 5 -25.5420 -17.0453 -36.7793 -12.8972 45.7674 3.2498
# 6 -6.8294 -20.3569 -3.1715 -5.6318 3.2498 41.1484
#
#
#
# Elastic Compliance Matrix: (Units=1/GPa)
#
#
# Indices 1 2 3 4 5 6 
#
# 1 0.027669 -0.006821 -0.000833 -0.006919 0.010325 -0.000609
# 2 -0.006821 0.020778 0.000860 0.000482 0.004123 0.008954
# 3 -0.000833 0.000860 0.008775 0.000183 0.006927 0.000442
# 4 -0.006919 0.000482 0.000183 0.027705 0.004090 0.002573
# 5 0.010325 0.004123 0.006927 0.004090 0.035723 0.002026
# 6 -0.000609 0.008954 0.000442 0.002573 0.002026 0.028857
#
#
# Mechanical properties :
#
#
# Convention : Reuss Voigt Hill
#
# Bulk Modulus (GPa) = 22.91775 42.88158 32.89967
# Shear Modulus (GPa) = 28.14681 39.98630 34.06655
#
# Velocity S-wave (km/s) = 3.29374 3.92582 3.62359
# Velocity P-wave (km/s) = 4.82682 6.08912 5.49434
#
# Compressibility (1/GPa) = 0.04363429
#
# Stress axis : x y z
#
# Youngs Moduli (GPa) = 36.14178 48.12669 113.96298
#
# Poissons Ratio (x) = 0.32829 0.09491
# Poissons Ratio (y) = 0.24654 -0.09805
# Poissons Ratio (z) = 0.03010 -0.04141
#
# Static dielectric constant tensor:
#      x y z
#    x 2.115480 0.108240 0.056910 
#    y 0.108240 2.068420 0.116020 
#    z 0.056910 0.116020 2.210450 
# 
# From -- ./inp_files/68663.got.cif
#   From: 2010.05.17/outbox.cif.g08.bks.cpg/sg2_35_cif.got.tgz:68663.got - 2010.06.03 11:33:40.
