data_PCOD9036458
_publ_section_title
;
Structure prediction by ZEFSAII (Michael W. Deem and Ramdas Pophale) SiO2 
 PCOD9036458
Probable space group: P -1
;
_chemical_formula_sum "Si O2"
_cell_formula_units_Z 14
_cell_length_a 9.747867
_cell_length_b 9.877899
_cell_length_c 8.439833
_cell_angle_alpha 122.060457
_cell_angle_beta 89.721272
_cell_angle_gamma 55.354851
_cell_volume 508.865431
_symmetry_space_group_name_H-M "P -1"
_symmetry_group_IT_number 2
_symmetry_cell_setting 'triclinic'
loop_
_space_group_symop_operation_xyz
x,y,z
-x,-y,-z
loop_
_atom_site_type_symbol
_atom_site_label
_atom_site_fract_x
_atom_site_fract_y
_atom_site_fract_z
Si Si1 0.264367 0.596665 0.499189
Si Si2 0.057935 0.171632 0.830114
Si Si3 0.568570 0.079204 0.181000
Si Si4 0.136938 0.193398 0.482331
Si Si5 0.312755 0.622441 0.181422
Si Si6 0.534261 0.799662 0.184502
Si Si7 0.216605 0.477157 0.715146
O O1 0.309002 0.678274 0.400226
O O2 0.237252 0.624167 0.707294
O O3 0.059445 0.700417 0.518368
O O4 0.427381 0.336172 0.337185
O O5 0.227786 0.999934 0.842629
O O6 0.124529 0.177319 0.661199
O O7 0.883079 0.193644 0.792321
O O8 0.947403 0.385060 0.070545
O O9 0.569809 0.955762 0.250346
O O10 0.500000 0.000000 0.000000
O O11 0.174912 0.348936 0.539399
O O12 0.312981 0.955800 0.268886
O O13 0.500000 0.500000 0.000000
O O14 0.336426 0.409505 0.058931
O O15 0.600098 0.699014 0.294777
#
# Coordination Sequence:
#
# PCOD9036458 Si02
#       7
#     2   2   2   2   2   2   2
#     4  11  23  34  60  90 123 157 199 250 294 365
#     4  10  23  37  60  88 128 165 193 244 305 361
#     4  12  21  35  59  98 127 153 195 247 314 367
#     4  11  20  35  55  94 128 158 191 236 317 371
#     4  10  24  47  63  82 118 167 212 251 293 349
#     4  11  22  36  61  89 126 159 192 249 308 366
#     4  11  20  33  55  92 128 153 191 240 316 369
#
# _framework density 27.512184999999999
#
# number of rings (size 3 to 8) (size 9 to 14) (size 15 to 20)
#    0.000    1.143    4.286    3.000    4.000    0.000 
#    0.000    6.429    0.000    0.000    0.000    0.000 
#    0.000    0.000    0.000    0.000    0.000    0.000 
#
# Total GULP energy -78083.545461 kJ/mol
# GULP energy per Si atom -5577.396104 kJ/mol
# Density = 2.744957 g / cm^3
# Si number density = 27.512185 Si / 1000 Ang^3
#
#
#
# Elastic Constant Matrix: (Units=GPa)
#
#
# Indices 1 2 3 4 5 6 
#
# 1 80.6320 59.3244 -1.4792 -0.4540 -27.9786 -16.0374
# 2 59.3244 176.6747 33.2906 1.3851 -15.9640 -37.6518
# 3 -1.4792 33.2906 67.1285 -2.1804 2.3219 -1.3074
# 4 -0.4540 1.3851 -2.1804 62.4671 3.5730 -7.8074
# 5 -27.9786 -15.9640 2.3219 3.5730 36.9878 4.1886
# 6 -16.0374 -37.6518 -1.3074 -7.8074 4.1886 40.2630
#
#
#
# Elastic Compliance Matrix: (Units=1/GPa)
#
#
# Indices 1 2 3 4 5 6 
#
# 1 0.022343 -0.006591 0.003308 -0.000188 0.013710 0.001381
# 2 -0.006591 0.010197 -0.005013 0.000484 -0.001105 0.006956
# 3 0.003308 -0.005013 0.017435 0.000439 -0.000496 -0.002667
# 4 -0.000188 0.000484 0.000439 0.016603 -0.001997 0.003819
# 5 0.013710 -0.001105 -0.000496 -0.001997 0.037136 0.000161
# 6 0.001381 0.006956 -0.002667 0.003819 0.000161 0.032529
#
#
# Mechanical properties :
#
#
# Convention : Reuss Voigt Hill
#
# Bulk Modulus (GPa) = 29.95590 56.30076 43.12833
# Shear Modulus (GPa) = 30.49491 43.49687 36.99589
#
# Velocity S-wave (km/s) = 3.33290 3.98050 3.67101
# Velocity P-wave (km/s) = 5.07177 6.45245 5.80332
#
# Compressibility (1/GPa) = 0.03338240
#
# Stress axis : x y z
#
# Youngs Moduli (GPa) = 44.75688 98.07182 57.35579
#
# Poissons Ratio (x) = 0.64640 -0.18971
# Poissons Ratio (y) = 0.29500 0.28750
# Poissons Ratio (z) = -0.14804 0.49159
#
# Static dielectric constant tensor:
#      x y z
#    x 2.304290 0.052200 0.011320 
#    y 0.052200 2.182280 -0.046140 
#    z 0.011320 -0.046140 2.264410 
# 
# From -- ./inp_files/163551.got.cif
#   From: 2010.05.17/outbox.cif.g08.bks.cpg/sg2_82_cif.got.tgz:163551.got - 2010.06.03 11:33:40.
