data_PCOD9036104
_publ_section_title
;
Structure prediction by ZEFSAII (Michael W. Deem and Ramdas Pophale) SiO2 
 PCOD9036104
Probable space group: P -1
;
_chemical_formula_sum "Si O2"
_cell_formula_units_Z 14
_cell_length_a 7.819371
_cell_length_b 12.806600
_cell_length_c 14.165056
_cell_angle_alpha 140.791568
_cell_angle_beta 46.865652
_cell_angle_gamma 105.806766
_cell_volume 543.040461
_symmetry_space_group_name_H-M "P -1"
_symmetry_group_IT_number 2
_symmetry_cell_setting 'triclinic'
loop_
_space_group_symop_operation_xyz
x,y,z
-x,-y,-z
loop_
_atom_site_type_symbol
_atom_site_label
_atom_site_fract_x
_atom_site_fract_y
_atom_site_fract_z
Si Si1 0.339510 0.347700 0.380133
Si Si2 0.705511 0.111339 0.250498
Si Si3 0.867300 0.086130 0.507820
Si Si4 0.024956 0.249996 0.291528
Si Si5 0.584237 0.180772 0.980325
Si Si6 0.265574 0.211200 0.626033
Si Si7 0.368519 0.488899 0.912806
O O1 0.470154 0.272727 0.379452
O O2 0.096132 0.324903 0.411148
O O3 0.190770 0.578877 0.579923
O O4 0.580701 0.231385 0.127486
O O5 0.502873 0.072613 0.361504
O O6 0.848502 0.159133 0.315494
O O7 0.000000 0.000000 0.000000
O O8 0.618146 0.315889 0.760608
O O9 0.765719 0.944831 0.411710
O O10 0.000000 0.000000 0.500000
O O11 0.139182 0.019487 0.296854
O O12 0.325212 0.150250 0.053994
O O13 0.555356 0.363202 0.060368
O O14 0.331495 0.356277 0.756379
O O15 0.942161 0.371522 0.825450
#
# Coordination Sequence:
#
# PCOD9036104 Si02
#       7
#     2   2   2   2   2   2   2
#     4   9  21  43  66  98 137 179 224 275 344 404
#     4  12  26  41  67 106 140 180 224 276 350 417
#     4  11  25  42  68 101 133 179 226 290 340 400
#     4   9  21  43  64 100 134 178 221 276 342 403
#     4   9  21  43  70  99 132 180 226 284 351 398
#     4  10  25  44  66 102 133 179 234 276 341 406
#     4  10  22  47  73  92 132 184 229 285 341 398
#
# _framework density 25.780767000000001
#
# number of rings (size 3 to 8) (size 9 to 14) (size 15 to 20)
#    0.857    1.143    0.000    1.714    4.000    5.143 
#    2.571    0.000    0.000    0.000    0.000    0.000 
#    0.000    0.000    0.000    0.000    0.000    0.000 
#
# Total GULP energy -77994.839592 kJ/mol
# GULP energy per Si atom -5571.059971 kJ/mol
# Density = 2.572209 g / cm^3
# Si number density = 25.780767 Si / 1000 Ang^3
#
#
#
# Elastic Constant Matrix: (Units=GPa)
#
#
# Indices 1 2 3 4 5 6 
#
# 1 101.8593 17.9286 4.4329 8.6279 -31.6221 2.7623
# 2 17.9286 99.2485 30.6041 7.5673 -23.6364 6.8770
# 3 4.4329 30.6041 135.6240 -5.8642 -20.0473 13.6148
# 4 8.6279 7.5673 -5.8642 52.9746 -6.7329 -12.9963
# 5 -31.6221 -23.6364 -20.0473 -6.7329 37.2271 3.4209
# 6 2.7623 6.8770 13.6148 -12.9963 3.4209 35.6993
#
#
#
# Elastic Compliance Matrix: (Units=1/GPa)
#
#
# Indices 1 2 3 4 5 6 
#
# 1 0.013950 0.000433 0.001683 -0.001353 0.013113 -0.003554
# 2 0.000433 0.012629 -0.001499 -0.001893 0.007541 -0.003306
# 3 0.001683 -0.001499 0.008888 0.000796 0.005729 -0.003490
# 4 -0.001353 -0.001893 0.000796 0.021551 0.001250 0.007892
# 5 0.013113 0.007541 0.005729 0.001250 0.046898 -0.008691
# 6 -0.003554 -0.003306 -0.003490 0.007892 -0.008691 0.033961
#
#
# Mechanical properties :
#
#
# Convention : Reuss Voigt Hill
#
# Bulk Modulus (GPa) = 27.24740 49.18479 38.21610
# Shear Modulus (GPa) = 33.58496 44.09793 38.84144
#
# Velocity S-wave (km/s) = 3.61323 4.14030 3.88571
# Velocity P-wave (km/s) = 5.29141 6.47886 5.91501
#
# Compressibility (1/GPa) = 0.03670074
#
# Stress axis : x y z
#
# Youngs Moduli (GPa) = 71.68604 79.18249 112.50860
#
# Poissons Ratio (x) = -0.03432 -0.18932
# Poissons Ratio (y) = -0.03107 0.16868
# Poissons Ratio (z) = -0.12063 0.11872
#
# Static dielectric constant tensor:
#      x y z
#    x 2.142720 0.035250 0.137630 
#    y 0.035250 2.035930 0.047980 
#    z 0.137630 0.047980 2.152570 
# 
# From -- ./inp_files/560891.got.cif
#   From: 2010.05.17/outbox.cif.g08.bks.cpg/sg2_281_cif.got.tgz:560891.got - 2010.06.03 11:33:40.
