data_PCOD9036309
_publ_section_title
;
Structure prediction by ZEFSAII (Michael W. Deem and Ramdas Pophale) SiO2 
 PCOD9036309
Probable space group: P -1
;
_chemical_formula_sum "Si O2"
_cell_formula_units_Z 16
_cell_length_a 10.913018
_cell_length_b 16.246585
_cell_length_c 8.347656
_cell_angle_alpha 97.215040
_cell_angle_beta 137.908504
_cell_angle_gamma 52.618975
_cell_volume 624.655316
_symmetry_space_group_name_H-M "P -1"
_symmetry_group_IT_number 2
_symmetry_cell_setting 'triclinic'
loop_
_space_group_symop_operation_xyz
x,y,z
-x,-y,-z
loop_
_atom_site_type_symbol
_atom_site_label
_atom_site_fract_x
_atom_site_fract_y
_atom_site_fract_z
Si Si1 0.337158 0.605862 0.725920
Si Si2 0.687363 0.623886 0.154008
Si Si3 0.074292 0.105774 0.688705
Si Si4 0.621854 0.239717 0.790147
Si Si5 0.828607 0.892747 0.844581
Si Si6 0.429400 0.856303 0.778793
Si Si7 0.696575 0.502238 0.617205
Si Si8 0.230653 0.263338 0.245138
O O1 0.245558 0.563919 0.510660
O O2 0.062681 0.764713 0.496327
O O3 0.500000 0.500000 0.000000
O O4 0.587903 0.586858 0.924926
O O5 0.455688 0.702868 0.094167
O O6 0.000000 0.500000 0.500000
O O7 0.655090 0.724877 0.070080
O O8 0.834725 0.116726 0.478084
O O9 0.321499 0.976688 0.791080
O O10 0.154254 0.098290 0.947146
O O11 0.479066 0.352994 0.551465
O O12 0.437423 0.221814 0.576342
O O13 0.959001 0.120099 0.047775
O O14 0.937170 0.761512 0.879454
O O15 0.500000 0.000000 0.500000
O O16 0.561694 0.825619 0.726454
O O17 0.500000 0.500000 0.500000
O O18 0.985474 0.410118 0.976946
#
# Coordination Sequence:
#
# PCOD9036309 Si02
#       8
#     2   2   2   2   2   2   2   2
#     4  11  23  45  72 103 146 189 247 310 373 449
#     4  11  26  44  74 112 151 197 253 312 381 456
#     4  10  22  49  72 103 152 192 252 313 370 454
#     4  12  26  49  74 111 153 196 255 317 375 459
#     4  12  28  48  74 111 152 200 259 311 377 452
#     4  10  24  45  78 104 146 203 245 307 384 443
#     4  12  24  45  75 106 147 193 247 312 386 449
#     4  12  26  47  77 108 147 201 248 312 382 453
#
# _framework density 25.614125000000001
#
# number of rings (size 3 to 8) (size 9 to 14) (size 15 to 20)
#    0.000    0.750    5.000    1.125    5.250    4.000 
#    2.250    0.000    0.000    0.000    0.000    0.000 
#    0.000    0.000    0.000    0.000    0.000    0.000 
#
# Total GULP energy -89549.305586 kJ/mol
# GULP energy per Si atom -5596.831599 kJ/mol
# Density = 2.555583 g / cm^3
# Si number density = 25.614125 Si / 1000 Ang^3
#
#
#
# Elastic Constant Matrix: (Units=GPa)
#
#
# Indices 1 2 3 4 5 6 
#
# 1 70.9760 12.9575 17.7271 -1.4232 2.2734 -7.3305
# 2 12.9575 94.1866 44.8228 -2.5140 -1.5856 6.3233
# 3 17.7271 44.8228 162.8696 -4.5049 5.5974 -9.9817
# 4 -1.4232 -2.5140 -4.5049 37.7405 8.5711 -3.7737
# 5 2.2734 -1.5856 5.5974 8.5711 36.7366 -4.1868
# 6 -7.3305 6.3233 -9.9817 -3.7737 -4.1868 41.2053
#
#
#
# Elastic Compliance Matrix: (Units=1/GPa)
#
#
# Indices 1 2 3 4 5 6 
#
# 1 0.014966 -0.001794 -0.000923 0.000773 -0.000734 0.002710
# 2 -0.001794 0.012765 -0.003540 -0.000147 0.000887 -0.003059
# 3 -0.000923 -0.003540 0.007420 0.001112 -0.001240 0.002152
# 4 0.000773 -0.000147 0.001112 0.028378 -0.006576 0.002360
# 5 -0.000734 0.000887 -0.001240 -0.006576 0.029233 0.001801
# 6 0.002710 -0.003059 0.002152 0.002360 0.001801 0.026141
#
#
# Mechanical properties :
#
#
# Convention : Reuss Voigt Hill
#
# Bulk Modulus (GPa) = 44.17196 53.22746 48.69971
# Shear Modulus (GPa) = 35.98135 39.97146 37.97641
#
# Velocity S-wave (km/s) = 3.75206 3.95463 3.85468
# Velocity P-wave (km/s) = 6.00443 6.45583 6.23422
#
# Compressibility (1/GPa) = 0.02263880
#
# Stress axis : x y z
#
# Youngs Moduli (GPa) = 66.81768 78.33988 134.77514
#
# Poissons Ratio (x) = 0.14051 0.12435
# Poissons Ratio (y) = 0.11984 0.47708
# Poissons Ratio (z) = 0.06165 0.27731
#
# Static dielectric constant tensor:
#      x y z
#    x 1.720760 0.238800 0.018060 
#    y 0.238800 1.919750 -0.034290 
#    z 0.018060 -0.034290 2.025210 
# 
# From -- ./inp_files/279572.got.cif
#   From: 2010.05.17/outbox.cif.g08.bks.cpg/sg2_140_cif.got.tgz:279572.got - 2010.06.03 11:33:40.
