data_PCOD9036841
_publ_section_title
;
Structure prediction by ZEFSAII (Michael W. Deem and Ramdas Pophale) SiO2 
 PCOD9036841
Probable space group: P -1
;
_chemical_formula_sum "Si O2"
_cell_formula_units_Z 14
_cell_length_a 11.579719
_cell_length_b 7.399089
_cell_length_c 14.831909
_cell_angle_alpha 51.895711
_cell_angle_beta 127.248422
_cell_angle_gamma 140.159226
_cell_volume 618.475099
_symmetry_space_group_name_H-M "P -1"
_symmetry_group_IT_number 2
_symmetry_cell_setting 'triclinic'
loop_
_space_group_symop_operation_xyz
x,y,z
-x,-y,-z
loop_
_atom_site_type_symbol
_atom_site_label
_atom_site_fract_x
_atom_site_fract_y
_atom_site_fract_z
Si Si1 0.138773 0.501893 0.271151
Si Si2 0.518279 0.073685 0.824937
Si Si3 0.696611 0.474857 0.201776
Si Si4 0.726552 0.240924 0.544199
Si Si5 0.875854 0.655619 0.047016
Si Si6 0.509791 0.315056 0.910407
Si Si7 0.005050 0.150918 0.624332
O O1 0.301607 0.665285 0.223173
O O2 0.985550 0.533924 0.156184
O O3 0.219995 0.681543 0.348716
O O4 0.054660 0.160861 0.340566
O O5 0.422584 0.155688 0.822976
O O6 0.373862 0.852730 0.746099
O O7 0.562817 0.912890 0.969650
O O8 0.739256 0.580189 0.087703
O O9 0.528086 0.457714 0.163075
O O10 0.877057 0.722608 0.266166
O O11 0.844810 0.572238 0.455049
O O12 0.823237 0.123712 0.572345
O O13 0.500000 0.000000 0.500000
O O14 0.730460 0.490408 0.948422
O O15 0.000000 0.000000 0.000000
#
# Coordination Sequence:
#
# PCOD9036841 Si02
#       7
#     2   2   2   2   2   2   2
#     4  12  25  44  71 107 137 178 237 291 347 419
#     4  10  23  39  63  96 138 186 227 274 339 405
#     4  11  22  43  65  95 139 183 227 277 345 405
#     4  11  26  53  74 100 139 179 231 301 369 426
#     4  11  23  40  66  99 146 186 228 277 337 407
#     4  10  23  40  62  96 140 190 233 271 330 412
#     4  11  27  45  76 107 136 179 236 297 359 419
#
# _framework density 22.636316999999998
#
# number of rings (size 3 to 8) (size 9 to 14) (size 15 to 20)
#    0.000    1.143    1.429    4.714    8.000    3.429 
#    0.000    0.000    0.000    0.000    0.000    0.000 
#    0.000    0.000    0.000    0.000    0.000    0.000 
#
# Total GULP energy -78043.611034 kJ/mol
# GULP energy per Si atom -5574.543645 kJ/mol
# Density = 2.258480 g / cm^3
# Si number density = 22.636317 Si / 1000 Ang^3
#
#
#
# Elastic Constant Matrix: (Units=GPa)
#
#
# Indices 1 2 3 4 5 6 
#
# 1 80.5566 41.1777 23.1455 -13.4313 -2.4407 10.3842
# 2 41.1777 144.6184 49.5823 -7.7248 14.4942 19.5995
# 3 23.1455 49.5823 42.8259 -7.5196 20.3462 3.4341
# 4 -13.4313 -7.7248 -7.5196 36.6882 -1.0008 3.4799
# 5 -2.4407 14.4942 20.3462 -1.0008 27.3997 5.8763
# 6 10.3842 19.5995 3.4341 3.4799 5.8763 27.5270
#
#
#
# Elastic Compliance Matrix: (Units=1/GPa)
#
#
# Indices 1 2 3 4 5 6 
#
# 1 0.019890 0.000131 -0.017155 0.005167 0.016705 -0.009676
# 2 0.000131 0.014182 -0.020291 0.000057 0.009656 -0.009684
# 3 -0.017155 -0.020291 0.081297 0.002461 -0.055876 0.022394
# 4 0.005167 0.000057 0.002461 0.030297 0.001072 -0.006356
# 5 0.016705 0.009656 -0.055876 0.001072 0.079403 -0.023292
# 6 -0.009676 -0.009684 0.022394 -0.006356 -0.023292 0.049856
#
#
# Mechanical properties :
#
#
# Convention : Reuss Voigt Hill
#
# Bulk Modulus (GPa) = 24.54656 55.09019 39.81838
# Shear Modulus (GPa) = 13.76898 28.59600 21.18249
#
# Velocity S-wave (km/s) = 2.46899 3.55812 3.06236
# Velocity P-wave (km/s) = 4.35836 6.42419 5.48933
#
# Compressibility (1/GPa) = 0.04073890
#
# Stress axis : x y z
#
# Youngs Moduli (GPa) = 50.27549 70.51176 12.30055
#
# Poissons Ratio (x) = -0.00926 0.21102
# Poissons Ratio (y) = -0.00660 0.24960
# Poissons Ratio (z) = 0.86249 1.43078
#
# Static dielectric constant tensor:
#      x y z
#    x 1.753220 0.201960 -0.267030 
#    y 0.201960 1.632720 0.511200 
#    z -0.267030 0.511200 1.483640 
# 
# From -- ./inp_files/593403.got.cif
#   From: 2010.05.17/outbox.cif.g08.bks.cpg/sg2_297_cif.got.tgz:593403.got - 2010.06.03 11:33:40.
