data_PCOD9036185
_publ_section_title
;
Structure prediction by ZEFSAII (Michael W. Deem and Ramdas Pophale) SiO2 
 PCOD9036185
Probable space group: P -1
;
_chemical_formula_sum "Si O2"
_cell_formula_units_Z 16
_cell_length_a 8.628376
_cell_length_b 7.786517
_cell_length_c 12.078760
_cell_angle_alpha 73.448752
_cell_angle_beta 106.475648
_cell_angle_gamma 69.690767
_cell_volume 660.203870
_symmetry_space_group_name_H-M "P -1"
_symmetry_group_IT_number 2
_symmetry_cell_setting 'triclinic'
loop_
_space_group_symop_operation_xyz
x,y,z
-x,-y,-z
loop_
_atom_site_type_symbol
_atom_site_label
_atom_site_fract_x
_atom_site_fract_y
_atom_site_fract_z
Si Si1 0.043738 0.766278 0.531821
Si Si2 0.528085 0.477615 0.378509
Si Si3 0.256674 0.078031 0.733758
Si Si4 0.702606 0.317047 0.066220
Si Si5 0.909802 0.790775 0.105292
Si Si6 0.239574 0.862423 0.135602
Si Si7 0.554933 0.883083 0.648634
Si Si8 0.040672 0.345007 0.227573
O O1 0.257077 0.623967 0.583792
O O2 0.982308 0.687707 0.641149
O O3 0.000000 0.000000 0.500000
O O4 0.925300 0.781197 0.397289
O O5 0.500000 0.500000 0.500000
O O6 0.412180 0.703047 0.266222
O O7 0.461630 0.322950 0.339561
O O8 0.275293 0.861107 0.813232
O O9 0.420450 0.018050 0.692664
O O10 0.232672 0.179960 0.830479
O O11 0.865061 0.362485 0.125856
O O12 0.500000 0.500000 0.000000
O O13 0.732379 0.241263 0.960727
O O14 0.054767 0.874365 0.149133
O O15 0.036586 0.555641 0.160846
O O16 0.802534 0.913682 0.953271
O O17 0.760873 0.832158 0.727462
O O18 0.500000 0.000000 0.500000
#
# Coordination Sequence:
#
# PCOD9036185 Si02
#       8
#     2   2   2   2   2   2   2   2
#     4  12  22  41  69 100 140 186 238 283 353 423
#     4  12  25  45  73 101 136 189 234 286 362 427
#     4  11  23  45  68  96 144 191 228 284 363 421
#     4  11  24  44  74  97 138 196 236 284 354 432
#     4  10  24  43  71  98 141 187 232 297 347 416
#     4  10  22  48  67  99 144 187 235 283 365 426
#     4  12  24  44  66 110 145 177 235 304 347 415
#     4  12  24  43  74 109 136 183 246 294 349 409
#
# _framework density 24.234940000000002
#
# number of rings (size 3 to 8) (size 9 to 14) (size 15 to 20)
#    0.000    0.750    5.000    2.250    0.000    2.000 
#    0.000    5.625    0.000    0.000    0.000    0.000 
#    0.000    0.000    0.000    0.000    0.000    0.000 
#
# Total GULP energy -89617.639400 kJ/mol
# GULP energy per Si atom -5601.102462 kJ/mol
# Density = 2.417978 g / cm^3
# Si number density = 24.234940 Si / 1000 Ang^3
#
#
#
# Elastic Constant Matrix: (Units=GPa)
#
#
# Indices 1 2 3 4 5 6 
#
# 1 127.6227 29.7942 73.2806 -11.0141 8.8913 -44.3250
# 2 29.7942 48.9997 49.3723 -24.1795 2.2530 -20.9270
# 3 73.2806 49.3723 203.6328 -26.4746 -0.0041 -21.5041
# 4 -11.0141 -24.1795 -26.4746 51.3926 -10.0304 2.5513
# 5 8.8913 2.2530 -0.0041 -10.0304 47.7774 -8.0949
# 6 -44.3250 -20.9270 -21.5041 2.5513 -8.0949 50.6082
#
#
#
# Elastic Compliance Matrix: (Units=1/GPa)
#
#
# Indices 1 2 3 4 5 6 
#
# 1 0.013630 0.000144 -0.003809 0.000376 -0.000729 0.010243
# 2 0.000144 0.040163 -0.006280 0.015732 0.003731 0.013870
# 3 -0.003809 -0.006280 0.007577 0.000388 0.000641 -0.002631
# 4 0.000376 0.015732 0.000388 0.028021 0.006185 0.006576
# 5 -0.000729 0.003731 0.000641 0.006185 0.022957 0.004537
# 6 0.010243 0.013870 -0.002631 0.006576 0.004537 0.033743
#
#
# Mechanical properties :
#
#
# Convention : Reuss Voigt Hill
#
# Bulk Modulus (GPa) = 24.10773 76.12773 50.11773
# Shear Modulus (GPa) = 27.80749 45.14286 36.47517
#
# Velocity S-wave (km/s) = 3.39102 4.32060 3.88373
# Velocity P-wave (km/s) = 5.03003 7.50804 6.39030
#
# Compressibility (1/GPa) = 0.04148047
#
# Stress axis : x y z
#
# Youngs Moduli (GPa) = 73.36665 24.89854 131.97951
#
# Poissons Ratio (x) = -0.00360 0.50277
# Poissons Ratio (y) = -0.01059 0.82880
# Poissons Ratio (z) = 0.27949 0.15636
#
# Static dielectric constant tensor:
#      x y z
#    x 1.968430 0.043930 0.022330 
#    y 0.043930 1.998330 0.021210 
#    z 0.022330 0.021210 1.881170 
# 
# From -- ./inp_files/381761.got.cif
#   From: 2010.05.17/outbox.cif.g08.bks.cpg/sg2_191_cif.got.tgz:381761.got - 2010.06.03 11:33:40.
