data_PCOD9036024
_publ_section_title
;
Structure prediction by ZEFSAII (Michael W. Deem and Ramdas Pophale) SiO2 
 PCOD9036024
Probable space group: P -1
;
_chemical_formula_sum "Si O2"
_cell_formula_units_Z 14
_cell_length_a 11.102459
_cell_length_b 6.336358
_cell_length_c 11.871100
_cell_angle_alpha 109.294689
_cell_angle_beta 130.418021
_cell_angle_gamma 75.049786
_cell_volume 598.981740
_symmetry_space_group_name_H-M "P -1"
_symmetry_group_IT_number 2
_symmetry_cell_setting 'triclinic'
loop_
_space_group_symop_operation_xyz
x,y,z
-x,-y,-z
loop_
_atom_site_type_symbol
_atom_site_label
_atom_site_fract_x
_atom_site_fract_y
_atom_site_fract_z
Si Si1 0.675750 0.195717 0.581215
Si Si2 0.518154 0.971380 0.258296
Si Si3 0.888422 0.839406 0.773491
Si Si4 0.770842 0.336136 0.008502
Si Si5 0.316017 0.387323 0.200305
Si Si6 0.852803 0.418009 0.522263
Si Si7 0.785591 0.627592 0.291117
O O1 0.610086 0.411619 0.649380
O O2 0.764396 0.283566 0.539437
O O3 0.554280 0.032948 0.421490
O O4 0.804102 0.066889 0.716608
O O5 0.672618 0.849476 0.275791
O O6 0.449468 0.205868 0.206350
O O7 0.382089 0.799401 0.131983
O O8 0.791926 0.740693 0.800667
O O9 0.874900 0.661548 0.632896
O O10 0.073357 0.830384 0.914253
O O11 0.751340 0.486224 0.134749
O O12 0.786293 0.504762 0.943686
O O13 0.767769 0.469227 0.361513
O O14 0.030397 0.314908 0.590481
#
# Coordination Sequence:
#
# PCOD9036024 Si02
#       7
#     2   2   2   2   2   2   2
#     4  11  24  45  74  99 131 176 234 281 328 393
#     4  12  26  43  67 105 139 177 220 277 345 397
#     4  10  22  47  73  99 130 177 234 278 329 395
#     4  11  26  45  69 101 141 178 216 282 339 403
#     4  11  26  43  69 100 137 180 226 275 334 400
#     4   9  21  44  73 101 129 174 231 282 324 393
#     4  10  22  47  69  99 139 174 226 276 331 407
#
# _framework density 23.373000999999999
#
# number of rings (size 3 to 8) (size 9 to 14) (size 15 to 20)
#    0.000    1.429    1.429    2.143    2.000    9.143 
#    2.571    0.000    0.000    0.000    0.000    0.000 
#    0.000    0.000    0.000    0.000    0.000    0.000 
#
# Total GULP energy -78424.100613 kJ/mol
# GULP energy per Si atom -5601.721472 kJ/mol
# Density = 2.331980 g / cm^3
# Si number density = 23.373001 Si / 1000 Ang^3
#
#
#
# Elastic Constant Matrix: (Units=GPa)
#
#
# Indices 1 2 3 4 5 6 
#
# 1 69.6399 41.7369 34.4888 0.3991 -10.0188 -13.7188
# 2 41.7369 114.2445 46.3740 -6.0135 -6.8952 -28.2856
# 3 34.4888 46.3740 119.6527 -4.3455 -22.8746 -1.1370
# 4 0.3991 -6.0135 -4.3455 41.7469 0.3823 -5.3338
# 5 -10.0188 -6.8952 -22.8746 0.3823 34.2428 -10.1306
# 6 -13.7188 -28.2856 -1.1370 -5.3338 -10.1306 42.7965
#
#
#
# Elastic Compliance Matrix: (Units=1/GPa)
#
#
# Indices 1 2 3 4 5 6 
#
# 1 0.020241 -0.004921 -0.003147 -0.000754 0.004024 0.004011
# 2 -0.004921 0.014406 -0.003697 0.002816 0.001490 0.008550
# 3 -0.003147 -0.003697 0.011785 0.000450 0.005688 -0.001736
# 4 -0.000754 0.002816 0.000450 0.025061 0.001908 0.005206
# 5 0.004024 0.001490 0.005688 0.001908 0.037901 0.011635
# 6 0.004011 0.008550 -0.001736 0.005206 0.011635 0.033660
#
#
# Mechanical properties :
#
#
# Convention : Reuss Voigt Hill
#
# Bulk Modulus (GPa) = 43.66347 60.97072 52.31710
# Shear Modulus (GPa) = 28.69965 35.81973 32.25969
#
# Velocity S-wave (km/s) = 3.50794 3.91900 3.71915
# Velocity P-wave (km/s) = 5.92699 6.82793 6.39335
#
# Compressibility (1/GPa) = 0.02290244
#
# Stress axis : x y z
#
# Youngs Moduli (GPa) = 49.40537 69.41335 84.85541
#
# Poissons Ratio (x) = 0.34158 0.26704
# Poissons Ratio (y) = 0.24312 0.31370
# Poissons Ratio (z) = 0.15548 0.25661
#
# Static dielectric constant tensor:
#      x y z
#    x 1.893680 0.007120 0.031800 
#    y 0.007120 1.877220 0.007680 
#    z 0.031800 0.007680 1.884500 
# 
# From -- ./inp_files/68623.got.cif
#   From: 2010.05.17/outbox.cif.g08.bks.cpg/sg2_35_cif.got.tgz:68623.got - 2010.06.03 11:33:40.
