data_PCOD9036922
_publ_section_title
;
Structure prediction by ZEFSAII (Michael W. Deem and Ramdas Pophale) SiO2 
 PCOD9036922
Probable space group: P -1
;
_chemical_formula_sum "Si O2"
_cell_formula_units_Z 16
_cell_length_a 14.641425
_cell_length_b 13.910721
_cell_length_c 13.959631
_cell_angle_alpha 20.863751
_cell_angle_beta 139.099443
_cell_angle_gamma 141.826302
_cell_volume 622.908108
_symmetry_space_group_name_H-M "P -1"
_symmetry_group_IT_number 2
_symmetry_cell_setting 'triclinic'
loop_
_space_group_symop_operation_xyz
x,y,z
-x,-y,-z
loop_
_atom_site_type_symbol
_atom_site_label
_atom_site_fract_x
_atom_site_fract_y
_atom_site_fract_z
Si Si1 0.201800 0.470119 0.562197
Si Si2 0.673868 0.114926 0.545707
Si Si3 0.477676 0.297132 0.945287
Si Si4 0.349363 0.080081 0.483275
Si Si5 0.126616 0.448591 0.308654
Si Si6 0.071739 0.011800 0.147813
Si Si7 0.056517 0.174648 0.194588
Si Si8 0.581792 0.329072 0.783780
O O1 0.264899 0.679112 0.508134
O O2 0.304643 0.266434 0.833986
O O3 0.202876 0.575874 0.354252
O O4 0.028346 0.309485 0.596744
O O5 0.723852 0.165558 0.426465
O O6 0.754786 0.882645 0.841623
O O7 0.500000 0.000000 0.500000
O O8 0.546737 0.364088 0.832770
O O9 0.560356 0.599740 0.783054
O O10 0.530013 0.036940 0.263351
O O11 0.211942 0.127760 0.385245
O O12 0.249155 0.556213 0.223501
O O13 0.068119 0.107734 0.598783
O O14 0.990140 0.552245 0.074447
O O15 0.055827 0.178634 0.073938
O O16 0.000000 0.000000 0.000000
O O17 0.500000 0.500000 0.500000
O O18 0.500000 0.000000 0.000000
#
# Coordination Sequence:
#
# PCOD9036922 Si02
#       8
#     2   2   2   2   2   2   2   2
#     4  11  24  41  72 103 142 188 238 292 356 415
#     4  11  23  41  65 102 138 190 231 287 344 423
#     4  12  26  45  70 103 141 183 232 293 356 419
#     4  11  26  46  67 100 146 186 232 281 351 428
#     4  11  23  44  72 104 135 178 240 296 355 415
#     4  10  23  39  65  99 140 183 244 292 343 413
#     4  10  23  44  70  97 140 189 228 288 354 420
#     4  12  25  44  72 106 139 175 234 299 362 416
#
# _framework density 25.685972
#
# number of rings (size 3 to 8) (size 9 to 14) (size 15 to 20)
#    0.000    1.000    2.500    3.375    3.500    4.500 
#    0.000    3.750    0.000    0.000    0.000    0.000 
#    0.000    0.000    0.000    0.000    0.000    0.000 
#
# Total GULP energy -89239.140841 kJ/mol
# GULP energy per Si atom -5577.446303 kJ/mol
# Density = 2.562751 g / cm^3
# Si number density = 25.685972 Si / 1000 Ang^3
#
#
#
# Elastic Constant Matrix: (Units=GPa)
#
#
# Indices 1 2 3 4 5 6 
#
# 1 107.8216 19.2937 18.6930 10.3254 7.1988 10.0647
# 2 19.2937 101.1183 14.9380 9.8910 9.8497 14.6110
# 3 18.6930 14.9380 128.4245 16.8753 13.5858 10.4552
# 4 10.3254 9.8910 16.8753 38.6589 15.0252 9.2699
# 5 7.1988 9.8497 13.5858 15.0252 37.0227 8.8419
# 6 10.0647 14.6110 10.4552 9.2699 8.8419 49.6544
#
#
#
# Elastic Compliance Matrix: (Units=1/GPa)
#
#
# Indices 1 2 3 4 5 6 
#
# 1 0.009961 -0.001426 -0.000966 -0.001485 -0.000348 -0.001057
# 2 -0.001426 0.010822 -0.000577 -0.001027 -0.001417 -0.002330
# 3 -0.000966 -0.000577 0.008553 -0.002543 -0.001604 -0.000675
# 4 -0.001485 -0.001027 -0.002543 0.032644 -0.011039 -0.002990
# 5 -0.000348 -0.001417 -0.001604 -0.011039 0.033248 -0.003034
# 6 -0.001057 -0.002330 -0.000675 -0.002990 -0.003034 0.022280
#
#
# Mechanical properties :
#
#
# Convention : Reuss Voigt Hill
#
# Bulk Modulus (GPa) = 42.73738 49.24599 45.99168
# Shear Modulus (GPa) = 38.09649 44.02985 41.06317
#
# Velocity S-wave (km/s) = 3.85536 4.14473 4.00266
# Velocity P-wave (km/s) = 6.04094 6.48992 6.26945
#
# Compressibility (1/GPa) = 0.02339872
#
# Stress axis : x y z
#
# Youngs Moduli (GPa) = 100.38785 92.40599 116.91597
#
# Poissons Ratio (x) = 0.13178 0.11295
# Poissons Ratio (y) = 0.14316 0.06742
# Poissons Ratio (z) = 0.09698 0.05329
#
# Static dielectric constant tensor:
#      x y z
#    x 2.138340 0.014710 0.006610 
#    y 0.014710 2.131020 0.036960 
#    z 0.006610 0.036960 2.152800 
# 
# From -- ./inp_files/534026.got.cif
#   From: 2010.05.17/outbox.cif.g08.bks.cpg/sg2_268_cif.got.tgz:534026.got - 2010.06.03 11:33:40.
