data_PCOD9036643
_publ_section_title
;
Structure prediction by ZEFSAII (Michael W. Deem and Ramdas Pophale) SiO2 
 PCOD9036643
Probable space group: P -1
;
_chemical_formula_sum "Si O2"
_cell_formula_units_Z 15
_cell_length_a 12.680987
_cell_length_b 18.121409
_cell_length_c 7.402473
_cell_angle_alpha 134.734909
_cell_angle_beta 139.255252
_cell_angle_gamma 36.012913
_cell_volume 634.185937
_symmetry_space_group_name_H-M "P -1"
_symmetry_group_IT_number 2
_symmetry_cell_setting 'triclinic'
loop_
_space_group_symop_operation_xyz
x,y,z
-x,-y,-z
loop_
_atom_site_type_symbol
_atom_site_label
_atom_site_fract_x
_atom_site_fract_y
_atom_site_fract_z
Si Si1 0.342705 0.053617 0.088284
Si Si2 0.612895 0.520061 0.934747
Si Si3 0.913465 0.932915 0.932323
Si Si4 0.634936 0.293680 0.767589
Si Si5 0.198402 0.605614 0.377649
Si Si6 0.953841 0.906412 0.531852
Si Si7 0.000000 0.500000 0.000000
Si Si8 0.615590 0.783531 0.853028
O O1 0.222038 0.097055 0.191078
O O2 0.202743 0.044931 0.747402
O O3 0.539408 0.905508 0.095822
O O4 0.368515 0.156976 0.211823
O O5 0.669353 0.391748 0.887091
O O6 0.406095 0.572570 0.655808
O O7 0.770385 0.480708 0.908909
O O8 0.542273 0.628554 0.179144
O O9 0.150633 0.816749 0.058736
O O10 0.858228 0.958644 0.695641
O O11 0.897636 0.051901 0.211955
O O12 0.552513 0.241284 0.429925
O O13 0.066422 0.754199 0.416056
O O14 0.116852 0.556768 0.333264
O O15 0.180994 0.349999 0.050292
#
# Coordination Sequence:
#
# PCOD9036643 Si02
#       8
#     2   2   2   2   2   2   1   2
#     4  11  24  45  69 100 136 182 220 273 344 406
#     4  10  23  38  65  93 127 169 222 272 331 392
#     4  11  24  40  73 103 130 174 224 284 334 396
#     4  11  21  42  62  98 129 166 219 281 325 395
#     4  11  22  41  64  94 128 178 218 272 330 399
#     4  11  22  41  69 101 132 167 232 278 327 398
#     4  12  24  44  62  96 130 180 224 268 330 400
#     4  11  25  43  67  96 138 177 225 274 339 406
#
# _framework density 23.652369
#
# number of rings (size 3 to 8) (size 9 to 14) (size 15 to 20)
#    0.000    1.067    5.333    1.200    1.867    0.000 
#    2.400    3.333    0.000    0.000    0.000    0.000 
#    0.000    0.000    0.000    0.000    0.000    0.000 
#
# Total GULP energy -83555.405826 kJ/mol
# GULP energy per Si atom -5570.360388 kJ/mol
# Density = 2.359854 g / cm^3
# Si number density = 23.652369 Si / 1000 Ang^3
#
#
#
# Elastic Constant Matrix: (Units=GPa)
#
#
# Indices 1 2 3 4 5 6 
#
# 1 49.8137 13.7505 -2.0676 -2.6601 -12.1847 5.1407
# 2 13.7505 161.3729 15.1452 17.8629 -0.7391 21.1959
# 3 -2.0676 15.1452 46.7345 7.5722 1.7118 -1.3192
# 4 -2.6601 17.8629 7.5722 24.3764 4.9544 0.6605
# 5 -12.1847 -0.7391 1.7118 4.9544 23.7993 1.4080
# 6 5.1407 21.1959 -1.3192 0.6605 1.4080 15.2775
#
#
#
# Elastic Compliance Matrix: (Units=1/GPa)
#
#
# Indices 1 2 3 4 5 6 
#
# 1 0.024367 -0.001167 0.000619 0.000960 0.012652 -0.007734
# 2 -0.001167 0.008720 -0.002331 -0.005830 0.001754 -0.011817
# 3 0.000619 -0.002331 0.023238 -0.005464 -0.000604 0.005324
# 4 0.000960 -0.005830 -0.005464 0.048933 -0.009843 0.006085
# 5 0.012652 0.001754 -0.000604 -0.009843 0.051296 -0.011045
# 6 -0.007734 -0.011817 0.005324 0.006085 -0.011045 0.085667
#
#
# Mechanical properties :
#
#
# Convention : Reuss Voigt Hill
#
# Bulk Modulus (GPa) = 19.77546 34.61971 27.19758
# Shear Modulus (GPa) = 18.87963 28.09684 23.48824
#
# Velocity S-wave (km/s) = 2.82833 3.45034 3.15471
# Velocity P-wave (km/s) = 4.36406 5.52647 4.97930
#
# Compressibility (1/GPa) = 0.05056772
#
# Stress axis : x y z
#
# Youngs Moduli (GPa) = 41.03947 114.67239 43.03295
#
# Poissons Ratio (x) = 0.13380 -0.02663
# Poissons Ratio (y) = 0.04788 0.10030
# Poissons Ratio (z) = -0.02540 0.26729
#
# Static dielectric constant tensor:
#      x y z
#    x 2.020880 -0.116330 0.060310 
#    y -0.116330 1.895040 0.022940 
#    z 0.060310 0.022940 1.883560 
# 
# From -- ./inp_files/319121.got.cif
#   From: 2010.05.17/outbox.cif.g08.bks.cpg/sg2_160_cif.got.tgz:319121.got - 2010.06.03 11:33:40.
