data_PCOD9036028
_publ_section_title
;
Structure prediction by ZEFSAII (Michael W. Deem and Ramdas Pophale) SiO2 
 PCOD9036028
Probable space group: P -1
;
_chemical_formula_sum "Si O2"
_cell_formula_units_Z 16
_cell_length_a 9.198704
_cell_length_b 14.124550
_cell_length_c 9.567166
_cell_angle_alpha 72.570326
_cell_angle_beta 146.011221
_cell_angle_gamma 99.897831
_cell_volume 656.141538
_symmetry_space_group_name_H-M "P -1"
_symmetry_group_IT_number 2
_symmetry_cell_setting 'triclinic'
loop_
_space_group_symop_operation_xyz
x,y,z
-x,-y,-z
loop_
_atom_site_type_symbol
_atom_site_label
_atom_site_fract_x
_atom_site_fract_y
_atom_site_fract_z
Si Si1 0.255814 0.445571 0.646275
Si Si2 0.596983 0.990691 0.425874
Si Si3 0.991424 0.202484 0.262154
Si Si4 0.467419 0.628538 0.670902
Si Si5 0.056480 0.866151 0.435930
Si Si6 0.159515 0.286534 0.848540
Si Si7 0.305586 0.948699 0.961940
Si Si8 0.160244 0.411145 0.258009
O O1 0.479906 0.517833 0.800125
O O2 0.298782 0.340971 0.809329
O O3 0.199516 0.435940 0.440789
O O4 0.000000 0.500000 0.500000
O O5 0.790218 0.882387 0.598190
O O6 0.352862 0.971435 0.146846
O O7 0.500000 0.000000 0.500000
O O8 0.659971 0.105345 0.389471
O O9 0.989716 0.191977 0.434031
O O10 0.019388 0.312298 0.188697
O O11 0.713712 0.166363 0.020168
O O12 0.569063 0.617044 0.598909
O O13 0.154107 0.668386 0.403904
O O14 0.662791 0.690240 0.887258
O O15 0.893440 0.820711 0.205811
O O16 0.952606 0.982723 0.324989
O O17 0.500000 0.000000 0.000000
O O18 0.000000 0.500000 0.000000
#
# Coordination Sequence:
#
# PCOD9036028 Si02
#       8
#     2   2   2   2   2   2   2   2
#     4  10  22  47  70 101 143 193 251 309 373 445
#     4  11  25  43  72 109 151 184 238 312 376 447
#     4  11  24  46  71 107 145 196 252 299 382 452
#     4  11  26  47  71 106 153 192 251 322 377 446
#     4  11  23  43  72 107 146 191 249 302 373 462
#     4  11  25  45  76 110 145 199 254 308 379 459
#     4  11  21  43  74 103 146 193 242 305 369 464
#     4  12  26  48  74 108 151 199 254 321 384 449
#
# _framework density 24.384982999999998
#
# number of rings (size 3 to 8) (size 9 to 14) (size 15 to 20)
#    0.000    1.000    3.750    3.000    3.500    4.000 
#    6.750    0.000    0.000    0.000    0.000    0.000 
#    0.000    0.000    0.000    0.000    0.000    0.000 
#
# Total GULP energy -89146.798372 kJ/mol
# GULP energy per Si atom -5571.674898 kJ/mol
# Density = 2.432948 g / cm^3
# Si number density = 24.384983 Si / 1000 Ang^3
#
#
#
# Elastic Constant Matrix: (Units=GPa)
#
#
# Indices 1 2 3 4 5 6 
#
# 1 135.7167 49.0562 51.0917 7.1672 -34.3576 -1.6526
# 2 49.0562 165.4057 34.9609 18.1567 3.8976 12.7568
# 3 51.0917 34.9609 82.0184 24.8648 -16.8886 -14.3039
# 4 7.1672 18.1567 24.8648 45.7731 -0.9468 -6.0095
# 5 -34.3576 3.8976 -16.8886 -0.9468 32.2150 8.5222
# 6 -1.6526 12.7568 -14.3039 -6.0095 8.5222 32.7089
#
#
#
# Elastic Compliance Matrix: (Units=1/GPa)
#
#
# Indices 1 2 3 4 5 6 
#
# 1 0.013884 -0.003125 -0.005874 0.002043 0.013144 -0.003698
# 2 -0.003125 0.008100 -0.002520 -0.001917 -0.004756 -0.003532
# 3 -0.005874 -0.002520 0.021534 -0.008703 0.003032 0.007714
# 4 0.002043 -0.001917 -0.008703 0.027313 -0.002035 0.002593
# 5 0.013144 -0.004756 0.003032 -0.002035 0.049670 -0.009470
# 6 -0.003698 -0.003532 0.007714 0.002593 -0.009470 0.038081
#
#
# Mechanical properties :
#
#
# Convention : Reuss Voigt Hill
#
# Bulk Modulus (GPa) = 48.83120 72.59537 60.71329
# Shear Modulus (GPa) = 26.53248 38.67487 32.60367
#
# Velocity S-wave (km/s) = 3.30216 3.98680 3.66052
# Velocity P-wave (km/s) = 5.88283 7.14338 6.54353
#
# Compressibility (1/GPa) = 0.02047871
#
# Stress axis : x y z
#
# Youngs Moduli (GPa) = 72.02607 123.45486 46.43777
#
# Poissons Ratio (x) = 0.38577 0.27280
# Poissons Ratio (y) = 0.22507 0.11704
# Poissons Ratio (z) = 0.42312 0.31116
#
# Static dielectric constant tensor:
#      x y z
#    x 1.862380 -0.055790 0.032790 
#    y -0.055790 2.028620 -0.051810 
#    z 0.032790 -0.051810 2.005180 
# 
# From -- ./inp_files/206617.got.cif
#   From: 2010.05.17/outbox.cif.g08.bks.cpg/sg2_104_cif.got.tgz:206617.got - 2010.06.03 11:33:40.
