data_PCOD9036436
_publ_section_title
;
Structure prediction by ZEFSAII (Michael W. Deem and Ramdas Pophale) SiO2 
 PCOD9036436
Probable space group: P -1
;
_chemical_formula_sum "Si O2"
_cell_formula_units_Z 16
_cell_length_a 10.896413
_cell_length_b 8.494284
_cell_length_c 22.071992
_cell_angle_alpha 130.437555
_cell_angle_beta 151.287248
_cell_angle_gamma 41.570220
_cell_volume 651.052411
_symmetry_space_group_name_H-M "P -1"
_symmetry_group_IT_number 2
_symmetry_cell_setting 'triclinic'
loop_
_space_group_symop_operation_xyz
x,y,z
-x,-y,-z
loop_
_atom_site_type_symbol
_atom_site_label
_atom_site_fract_x
_atom_site_fract_y
_atom_site_fract_z
Si Si1 0.924304 0.340607 0.344988
Si Si2 0.517956 0.470772 0.908530
Si Si3 0.849937 0.332861 0.452234
Si Si4 0.095694 0.106875 0.794084
Si Si5 0.086083 0.128424 0.135686
Si Si6 0.017218 0.433701 0.738622
Si Si7 0.708259 0.951179 0.335969
Si Si8 0.719532 0.986996 0.021620
O O1 0.653190 0.495719 0.220968
O O2 0.162344 0.430495 0.466852
O O3 0.825731 0.367242 0.378657
O O4 0.036606 0.068804 0.309006
O O5 0.341832 0.404018 0.865227
O O6 0.431597 0.743202 0.951414
O O7 0.854970 0.307870 0.031570
O O8 0.670835 0.206089 0.366044
O O9 0.171932 0.131435 0.565105
O O10 0.947222 0.326350 0.739979
O O11 0.112530 0.170473 0.886785
O O12 0.434316 0.961198 0.878050
O O13 0.394094 0.971409 0.198155
O O14 0.147460 0.282108 0.252126
O O15 0.946263 0.981883 0.069488
O O16 0.044559 0.256403 0.651644
#
# Coordination Sequence:
#
# PCOD9036436 Si02
#       8
#     2   2   2   2   2   2   2   2
#     4  10  20  36  67  85 126 173 211 260 313 378
#     4  10  18  35  62  97 126 165 199 256 329 375
#     4  10  22  43  61  88 122 174 224 260 312 362
#     4  10  17  32  63  92 121 176 199 242 330 378
#     4  11  22  39  65 103 132 154 211 266 315 393
#     4  11  19  39  64  94 129 170 201 255 329 379
#     4  11  24  42  69  92 122 172 218 266 312 371
#     4   9  18  33  60  91 134 166 195 253 326 387
#
# _framework density 24.575593999999999
#
# number of rings (size 3 to 8) (size 9 to 14) (size 15 to 20)
#    0.000    1.750    5.000    0.750    0.000    0.500 
#    0.000    5.625    0.000    7.500    0.000    0.000 
#    0.000    0.000    0.000    0.000    0.000    0.000 
#
# Total GULP energy -89196.884381 kJ/mol
# GULP energy per Si atom -5574.805274 kJ/mol
# Density = 2.451966 g / cm^3
# Si number density = 24.575594 Si / 1000 Ang^3
#
#
#
# Elastic Constant Matrix: (Units=GPa)
#
#
# Indices 1 2 3 4 5 6 
#
# 1 95.9840 41.2766 32.2123 -5.7647 -13.3693 21.8865
# 2 41.2766 62.0437 12.3068 18.3163 0.2829 12.5545
# 3 32.2123 12.3068 67.2500 12.6315 -21.3750 2.8683
# 4 -5.7647 18.3163 12.6315 44.6064 12.3936 2.9879
# 5 -13.3693 0.2829 -21.3750 12.3936 32.7039 0.6804
# 6 21.8865 12.5545 2.8683 2.9879 0.6804 42.7370
#
#
#
# Elastic Compliance Matrix: (Units=1/GPa)
#
#
# Indices 1 2 3 4 5 6 
#
# 1 0.023178 -0.015785 -0.011541 0.014109 -0.003124 -0.007395
# 2 -0.015785 0.030522 0.006681 -0.017661 0.004346 -0.000165
# 3 -0.011541 0.006681 0.029388 -0.018718 0.021464 0.002942
# 4 0.014109 -0.017661 -0.018718 0.043321 -0.022659 -0.003449
# 5 -0.003124 0.004346 0.021464 -0.022659 0.051885 -0.000359
# 6 -0.007395 -0.000165 0.002942 -0.003449 -0.000359 0.027284
#
#
# Mechanical properties :
#
#
# Convention : Reuss Voigt Hill
#
# Bulk Modulus (GPa) = 23.92496 44.09654 34.01075
# Shear Modulus (GPa) = 19.17171 33.30827 26.23999
#
# Velocity S-wave (km/s) = 2.79608 3.68549 3.27115
# Velocity P-wave (km/s) = 4.49227 6.00771 5.30439
#
# Compressibility (1/GPa) = 0.04179735
#
# Stress axis : x y z
#
# Youngs Moduli (GPa) = 43.14365 32.76366 34.02770
#
# Poissons Ratio (x) = 0.51719 0.39272
# Poissons Ratio (y) = 0.68104 -0.22736
# Poissons Ratio (z) = 0.49793 -0.21891
#
# Static dielectric constant tensor:
#      x y z
#    x 1.981580 -0.022280 -0.042570 
#    y -0.022280 2.052270 0.072390 
#    z -0.042570 0.072390 2.003910 
# 
# From -- ./inp_files/609895.got.cif
#   From: 2010.05.17/outbox.cif.g08.bks.cpg/sg2_305_cif.got.tgz:609895.got - 2010.06.03 11:33:40.
