data_PCOD9036667
_publ_section_title
;
Structure prediction by ZEFSAII (Michael W. Deem and Ramdas Pophale) SiO2 
 PCOD9036667
Probable space group: P -1
;
_chemical_formula_sum "Si O2"
_cell_formula_units_Z 14
_cell_length_a 8.393216
_cell_length_b 12.176507
_cell_length_c 7.464601
_cell_angle_alpha 69.753143
_cell_angle_beta 116.339073
_cell_angle_gamma 96.607871
_cell_volume 640.766954
_symmetry_space_group_name_H-M "P -1"
_symmetry_group_IT_number 2
_symmetry_cell_setting 'triclinic'
loop_
_space_group_symop_operation_xyz
x,y,z
-x,-y,-z
loop_
_atom_site_type_symbol
_atom_site_label
_atom_site_fract_x
_atom_site_fract_y
_atom_site_fract_z
Si Si1 0.064612 0.765347 0.895071
Si Si2 0.981942 0.856437 0.405577
Si Si3 0.377722 0.892062 0.536385
Si Si4 0.850221 0.687317 0.153815
Si Si5 0.789011 0.463689 0.083331
Si Si6 0.520909 0.657123 0.804073
Si Si7 0.322716 0.939929 0.890038
O O1 0.111201 0.632176 0.933643
O O2 0.236817 0.832593 0.010746
O O3 0.001933 0.829259 0.643023
O O4 0.922123 0.764080 0.981967
O O5 0.921792 0.740536 0.339706
O O6 0.167255 0.895884 0.386471
O O7 0.830772 0.957550 0.249197
O O8 0.476416 0.769869 0.597674
O O9 0.364634 0.887356 0.746599
O O10 0.500000 0.000000 0.500000
O O11 0.901938 0.551992 0.208184
O O12 0.637083 0.691755 0.017712
O O13 0.661382 0.394744 0.191843
O O14 0.654381 0.553533 0.855095
O O15 0.500000 0.000000 0.000000
#
# Coordination Sequence:
#
# PCOD9036667 Si02
#       7
#     2   2   2   2   2   2   2
#     4  11  22  42  63  92 127 162 215 262 314 372
#     4  11  25  41  61  97 127 162 214 264 314 375
#     4  11  23  40  64  92 130 165 210 265 318 374
#     4  10  23  38  67  90 124 167 213 253 319 375
#     4   9  19  39  66  88 127 170 208 257 321 371
#     4   9  19  38  64  89 124 171 203 258 320 367
#     4  11  25  41  62  90 128 170 208 264 321 375
#
# _framework density 21.848817
#
# number of rings (size 3 to 8) (size 9 to 14) (size 15 to 20)
#    0.857    0.857    2.857    3.000    6.000    1.143 
#    0.000    0.000    0.000    2.571    0.000    0.000 
#    0.000    0.000    0.000    0.000    0.000    0.000 
#
# Total GULP energy -78022.527859 kJ/mol
# GULP energy per Si atom -5573.037704 kJ/mol
# Density = 2.179909 g / cm^3
# Si number density = 21.848817 Si / 1000 Ang^3
#
#
#
# Elastic Constant Matrix: (Units=GPa)
#
#
# Indices 1 2 3 4 5 6 
#
# 1 37.7362 22.0070 17.8549 2.1197 4.3072 17.5460
# 2 22.0070 128.2113 27.3934 -1.1558 17.0876 12.9383
# 3 17.8549 27.3934 48.4683 9.1330 16.6143 3.8024
# 4 2.1197 -1.1558 9.1330 43.0092 -2.3542 12.9795
# 5 4.3072 17.0876 16.6143 -2.3542 28.3835 -3.9212
# 6 17.5460 12.9383 3.8024 12.9795 -3.9212 45.7807
#
#
#
# Elastic Compliance Matrix: (Units=1/GPa)
#
#
# Indices 1 2 3 4 5 6 
#
# 1 0.041441 -0.002735 -0.014295 0.005666 0.002075 -0.015351
# 2 -0.002735 0.009703 -0.003356 0.001564 -0.003632 -0.002170
# 3 -0.014295 -0.003356 0.034691 -0.009066 -0.016216 0.004727
# 4 0.005666 0.001564 -0.009066 0.028029 0.004529 -0.009419
# 5 0.002075 -0.003632 -0.016216 0.004529 0.047575 0.004369
# 6 -0.015351 -0.002170 0.004727 -0.009419 0.004369 0.030992
#
#
# Mechanical properties :
#
#
# Convention : Reuss Voigt Hill
#
# Bulk Modulus (GPa) = 22.19106 38.76961 30.48034
# Shear Modulus (GPa) = 20.14310 33.24539 26.69424
#
# Velocity S-wave (km/s) = 3.03963 3.90501 3.49918
# Velocity P-wave (km/s) = 4.74318 6.17375 5.50513
#
# Compressibility (1/GPa) = 0.04506319
#
# Stress axis : x y z
#
# Youngs Moduli (GPa) = 24.13068 103.05762 28.82618
#
# Poissons Ratio (x) = 0.28190 0.41206
# Poissons Ratio (y) = 0.06601 0.09674
# Poissons Ratio (z) = 0.34494 0.34586
#
# Static dielectric constant tensor:
#      x y z
#    x 1.809220 0.033270 0.034220 
#    y 0.033270 1.959080 -0.004420 
#    z 0.034220 -0.004420 1.835300 
# 
# From -- ./inp_files/187069.got.cif
#   From: 2010.05.17/outbox.cif.g08.bks.cpg/sg2_94_cif.got.tgz:187069.got - 2010.06.03 11:33:40.
