data_PCOD9036798
_publ_section_title
;
Structure prediction by ZEFSAII (Michael W. Deem and Ramdas Pophale) SiO2 
 PCOD9036798
Probable space group: P -1
;
_chemical_formula_sum "Si O2"
_cell_formula_units_Z 16
_cell_length_a 8.650384
_cell_length_b 14.149510
_cell_length_c 11.686526
_cell_angle_alpha 38.630568
_cell_angle_beta 81.749606
_cell_angle_gamma 58.625929
_cell_volume 662.992675
_symmetry_space_group_name_H-M "P -1"
_symmetry_group_IT_number 2
_symmetry_cell_setting 'triclinic'
loop_
_space_group_symop_operation_xyz
x,y,z
-x,-y,-z
loop_
_atom_site_type_symbol
_atom_site_label
_atom_site_fract_x
_atom_site_fract_y
_atom_site_fract_z
Si Si1 0.092356 0.450508 0.366415
Si Si2 0.520534 0.799398 0.919997
Si Si3 0.809494 0.137995 0.481301
Si Si4 0.084575 0.598487 0.782150
Si Si5 0.342028 0.798260 0.157045
Si Si6 0.323942 0.990628 0.541331
Si Si7 0.432721 0.893494 0.292211
Si Si8 0.961918 0.266743 0.724409
O O1 0.341735 0.290218 0.504091
O O2 0.022047 0.656723 0.228391
O O3 0.013697 0.454788 0.246988
O O4 0.996465 0.377974 0.524564
O O5 0.708589 0.617226 0.993665
O O6 0.481159 0.709531 0.112836
O O7 0.323701 0.949885 0.714362
O O8 0.578727 0.919800 0.861279
O O9 0.826428 0.297583 0.370384
O O10 0.633124 0.187487 0.367333
O O11 0.762145 0.063276 0.665867
O O12 0.000000 0.000000 0.500000
O O13 0.883086 0.789853 0.689208
O O14 0.440695 0.825502 0.226810
O O15 0.250549 0.693092 0.299377
O O16 0.147111 0.028061 0.922075
O O17 0.500000 0.000000 0.500000
#
# Coordination Sequence:
#
# PCOD9036798 Si02
#       8
#     2   2   2   2   2   2   2   2
#     4  11  22  40  63  94 135 186 224 267 333 407
#     4  12  25  41  72 102 135 179 226 281 339 406
#     4  10  24  44  71  97 132 181 223 283 339 399
#     4  11  24  42  68 102 134 170 233 279 339 400
#     4  11  24  42  62 104 138 175 228 280 334 406
#     4  11  22  49  71  95 136 177 229 283 342 399
#     4  12  23  42  70  96 139 184 220 279 342 398
#     4  10  23  39  62  90 139 189 220 272 331 397
#
# _framework density 24.132995999999999
#
# number of rings (size 3 to 8) (size 9 to 14) (size 15 to 20)
#    0.000    1.000    3.750    1.875    5.250    4.500 
#    0.000    0.000    0.000    0.000    0.000    0.000 
#    0.000    0.000    0.000    0.000    0.000    0.000 
#
# Total GULP energy -89267.403931 kJ/mol
# GULP energy per Si atom -5579.212746 kJ/mol
# Density = 2.407807 g / cm^3
# Si number density = 24.132996 Si / 1000 Ang^3
#
#
#
# Elastic Constant Matrix: (Units=GPa)
#
#
# Indices 1 2 3 4 5 6 
#
# 1 93.8425 10.8052 13.4083 -3.1569 -12.4402 -3.6857
# 2 10.8052 74.1115 18.7096 -1.5747 0.5644 -8.5850
# 3 13.4083 18.7096 35.9120 -0.2086 1.1279 -20.2874
# 4 -3.1569 -1.5747 -0.2086 39.0895 -0.4289 2.9037
# 5 -12.4402 0.5644 1.1279 -0.4289 32.3299 10.1515
# 6 -3.6857 -8.5850 -20.2874 2.9037 10.1515 39.9979
#
#
#
# Elastic Compliance Matrix: (Units=1/GPa)
#
#
# Indices 1 2 3 4 5 6 
#
# 1 0.012433 -0.000576 -0.006902 0.001325 0.006368 -0.004191
# 2 -0.000576 0.015620 -0.008564 0.000623 0.000168 -0.001132
# 3 -0.006902 -0.008564 0.050148 -0.002730 -0.012566 0.026349
# 4 0.001325 0.000623 -0.002730 0.025985 0.002049 -0.003535
# 5 0.006368 0.000168 -0.012566 0.002049 0.038788 -0.015744
# 6 -0.004191 -0.001132 0.026349 -0.003535 -0.015744 0.041989
#
#
# Mechanical properties :
#
#
# Convention : Reuss Voigt Hill
#
# Bulk Modulus (GPa) = 21.68378 32.19024 26.93701
# Shear Modulus (GPa) = 21.51290 33.01300 27.26295
#
# Velocity S-wave (km/s) = 2.98892 3.70261 3.36474
# Velocity P-wave (km/s) = 4.57342 5.62554 5.12654
#
# Compressibility (1/GPa) = 0.04611741
#
# Stress axis : x y z
#
# Youngs Moduli (GPa) = 80.43219 64.02069 19.94088
#
# Poissons Ratio (x) = 0.03688 0.13763
# Poissons Ratio (y) = 0.04634 0.17077
# Poissons Ratio (z) = 0.55513 0.54826
#
# Static dielectric constant tensor:
#      x y z
#    x 2.427540 -0.182650 0.054000 
#    y -0.182650 2.042050 -0.021420 
#    z 0.054000 -0.021420 1.961130 
# 
# From -- ./inp_files/398410.got.cif
#   From: 2010.05.17/outbox.cif.g08.bks.cpg/sg2_200_cif.got.tgz:398410.got - 2010.06.03 11:33:40.
