data_PCOD9036313
_publ_section_title
;
Structure prediction by ZEFSAII (Michael W. Deem and Ramdas Pophale) SiO2 
 PCOD9036313
Probable space group: P -1
;
_chemical_formula_sum "Si O2"
_cell_formula_units_Z 11
_cell_length_a 14.648680
_cell_length_b 11.828298
_cell_length_c 9.008051
_cell_angle_alpha 41.841990
_cell_angle_beta 36.385153
_cell_angle_gamma 29.459467
_cell_volume 450.145259
_symmetry_space_group_name_H-M "P -1"
_symmetry_group_IT_number 2
_symmetry_cell_setting 'triclinic'
loop_
_space_group_symop_operation_xyz
x,y,z
-x,-y,-z
loop_
_atom_site_type_symbol
_atom_site_label
_atom_site_fract_x
_atom_site_fract_y
_atom_site_fract_z
Si Si1 0.500000 0.500000 0.000000
Si Si2 0.597881 0.589310 0.093603
Si Si3 0.902196 0.245832 0.563636
Si Si4 0.556527 0.954363 0.300409
Si Si5 0.383254 0.925047 0.298541
Si Si6 0.992716 0.230309 0.128800
O O1 0.535538 0.506654 0.127941
O O2 0.275009 0.576396 0.259960
O O3 0.441318 0.726516 0.307580
O O4 0.826993 0.391287 0.058733
O O5 0.565878 0.792786 0.855161
O O6 0.885388 0.318639 0.344412
O O7 0.133428 0.133119 0.421530
O O8 0.914721 0.029574 0.757563
O O9 0.500000 0.000000 0.500000
O O10 0.471634 0.858617 0.413805
O O11 0.805661 0.798137 0.107663
O O12 0.500000 0.000000 0.000000
#
# Coordination Sequence:
#
# PCOD9036313 Si02
#       6
#     1   2   2   2   2   2
#     4  12  26  44  72 114 142 184 252 298 348 426
#     4  11  25  46  71 108 139 194 241 288 369 417
#     4  11  23  46  74 105 147 189 240 299 356 428
#     4  11  25  48  72 108 149 187 243 301 353 433
#     4  10  22  49  73 102 148 189 234 292 369 427
#     4  11  24  47  75 104 147 191 240 296 363 431
#
# _framework density 24.436554000000001
#
# number of rings (size 3 to 8) (size 9 to 14) (size 15 to 20)
#    0.000    1.091    5.455    1.091    2.545    8.000 
#    3.273    0.000    0.000    0.000    0.000    0.000 
#    0.000    0.000    0.000    0.000    0.000    0.000 
#
# Total GULP energy -61335.809392 kJ/mol
# GULP energy per Si atom -5575.982672 kJ/mol
# Density = 2.438094 g / cm^3
# Si number density = 24.436554 Si / 1000 Ang^3
#
#
#
# Elastic Constant Matrix: (Units=GPa)
#
#
# Indices 1 2 3 4 5 6 
#
# 1 235.9881 57.3946 64.2011 21.4140 19.4320 -14.9135
# 2 57.3946 78.4350 44.1367 -2.7105 15.4931 -21.6462
# 3 64.2011 44.1367 126.3353 33.0523 9.8190 0.7385
# 4 21.4140 -2.7105 33.0523 38.5678 1.2978 1.6593
# 5 19.4320 15.4931 9.8190 1.2978 50.2757 6.3709
# 6 -14.9135 -21.6462 0.7385 1.6593 6.3709 40.4384
#
#
#
# Elastic Compliance Matrix: (Units=1/GPa)
#
#
# Indices 1 2 3 4 5 6 
#
# 1 0.005659 -0.003320 -0.000982 -0.002526 -0.000981 0.000586
# 2 -0.003320 0.026605 -0.010344 0.012218 -0.006960 0.013801
# 3 -0.000982 -0.010344 0.015378 -0.013162 0.001651 -0.005900
# 4 -0.002526 0.012218 -0.013162 0.039336 -0.001807 0.004520
# 5 -0.000981 -0.006960 0.001651 -0.001807 0.023112 -0.007685
# 6 0.000586 0.013801 -0.005900 0.004520 -0.007685 0.033466
#
#
# Mechanical properties :
#
#
# Convention : Reuss Voigt Hill
#
# Bulk Modulus (GPa) = 54.49635 85.80258 70.14946
# Shear Modulus (GPa) = 27.93820 44.19143 36.06481
#
# Velocity S-wave (km/s) = 3.38493 4.25716 3.84585
# Velocity P-wave (km/s) = 6.13405 7.70410 6.96347
#
# Compressibility (1/GPa) = 0.01834985
#
# Stress axis : x y z
#
# Youngs Moduli (GPa) = 176.70095 37.58630 65.02709
#
# Poissons Ratio (x) = 0.12479 0.06388
# Poissons Ratio (y) = 0.58665 0.67265
# Poissons Ratio (z) = 0.17359 0.38880
#
# Static dielectric constant tensor:
#      x y z
#    x 1.966860 0.045940 0.002640 
#    y 0.045940 2.024070 -0.037720 
#    z 0.002640 -0.037720 1.923960 
# 
# From -- ./inp_files/152630.got.cif
#   From: 2010.05.17/outbox.cif.g08.bks.cpg/sg2_77_cif.got.tgz:152630.got - 2010.06.03 11:33:40.
