data_PCOD9036953
_publ_section_title
;
Structure prediction by ZEFSAII (Michael W. Deem and Ramdas Pophale) SiO2 
 PCOD9036953
Probable space group: P -1
;
_chemical_formula_sum "Si O2"
_cell_formula_units_Z 12
_cell_length_a 12.231357
_cell_length_b 12.575401
_cell_length_c 6.866188
_cell_angle_alpha 43.725261
_cell_angle_beta 56.737949
_cell_angle_gamma 49.406502
_cell_volume 548.120355
_symmetry_space_group_name_H-M "P -1"
_symmetry_group_IT_number 2
_symmetry_cell_setting 'triclinic'
loop_
_space_group_symop_operation_xyz
x,y,z
-x,-y,-z
loop_
_atom_site_type_symbol
_atom_site_label
_atom_site_fract_x
_atom_site_fract_y
_atom_site_fract_z
Si Si1 0.417967 0.163613 0.170387
Si Si2 0.532350 0.621325 0.459023
Si Si3 0.788024 0.233749 0.360319
Si Si4 0.050553 0.979602 0.197692
Si Si5 0.680284 0.568205 0.774809
Si Si6 0.269102 0.132749 0.697164
O O1 0.435873 0.284856 0.164035
O O2 0.294999 0.122316 0.448467
O O3 0.568432 0.995707 0.218746
O O4 0.385347 0.282187 0.857077
O O5 0.500000 0.500000 0.500000
O O6 0.370353 0.760708 0.487628
O O7 0.610337 0.531736 0.699838
O O8 0.905342 0.076999 0.334687
O O9 0.853512 0.205319 0.552811
O O10 0.764604 0.405566 0.042667
O O11 0.156159 0.073151 0.973558
O O12 0.000000 0.000000 0.000000
O O13 0.770971 0.670084 0.481785
#
# Coordination Sequence:
#
# PCOD9036953 Si02
#       6
#     2   2   2   2   2   2
#     4   9  20  38  64  93 127 157 211 258 322 361
#     4  12  22  37  69  99 126 159 208 268 320 368
#     4  11  25  41  63  96 124 167 218 244 324 373
#     4  11  26  44  65  87 127 177 209 259 300 382
#     4  10  23  39  66  96 126 162 202 273 317 361
#     4   9  20  44  60  93 130 160 212 255 317 374
#
# _framework density 21.893000000000001
#
# number of rings (size 3 to 8) (size 9 to 14) (size 15 to 20)
#    1.000    0.667    3.333    0.500    4.667    1.333 
#    6.000    0.833    0.000    0.000    0.000    0.000 
#    0.000    0.000    0.000    0.000    0.000    0.000 
#
# Total GULP energy -66826.496594 kJ/mol
# GULP energy per Si atom -5568.874716 kJ/mol
# Density = 2.184317 g / cm^3
# Si number density = 21.893000 Si / 1000 Ang^3
#
#
#
# Elastic Constant Matrix: (Units=GPa)
#
#
# Indices 1 2 3 4 5 6 
#
# 1 46.8499 17.7769 36.6749 -5.3925 14.7587 -2.3737
# 2 17.7769 39.8519 23.1461 -3.3630 9.8893 -7.5970
# 3 36.6749 23.1461 165.6746 -26.8674 23.6037 1.6659
# 4 -5.3925 -3.3630 -26.8674 44.0072 -10.0980 -5.1584
# 5 14.7587 9.8893 23.6037 -10.0980 41.9879 5.3039
# 6 -2.3737 -7.5970 1.6659 -5.1584 5.3039 19.1183
#
#
#
# Elastic Compliance Matrix: (Units=1/GPa)
#
#
# Indices 1 2 3 4 5 6 
#
# 1 0.030486 -0.008895 -0.004784 -0.001095 -0.006469 0.002167
# 2 -0.008895 0.034455 -0.002097 0.000705 -0.005469 0.014477
# 3 -0.004784 -0.002097 0.008225 0.003865 -0.001430 -0.000704
# 4 -0.001095 0.000705 0.003865 0.026544 0.003679 0.005949
# 5 -0.006469 -0.005469 -0.001430 0.003679 0.030366 -0.010283
# 6 0.002167 0.014477 -0.000704 0.005949 -0.010283 0.062847
#
#
# Mechanical properties :
#
#
# Convention : Reuss Voigt Hill
#
# Bulk Modulus (GPa) = 24.02928 45.28579 34.65754
# Shear Modulus (GPa) = 20.97792 32.67458 26.82625
#
# Velocity S-wave (km/s) = 3.09884 3.86744 3.50428
# Velocity P-wave (km/s) = 4.87887 6.37752 5.67786
#
# Compressibility (1/GPa) = 0.04161589
#
# Stress axis : x y z
#
# Youngs Moduli (GPa) = 32.80175 29.02353 121.57500
#
# Poissons Ratio (x) = 0.25816 0.58158
# Poissons Ratio (y) = 0.29177 0.25490
# Poissons Ratio (z) = 0.15691 0.06085
#
# Static dielectric constant tensor:
#      x y z
#    x 1.836880 0.028880 0.011020 
#    y 0.028880 1.811180 0.017280 
#    z 0.011020 0.017280 1.891050 
# 
# From -- ./inp_files/76953.got.cif
#   From: 2010.05.17/outbox.cif.g08.bks.cpg/sg2_39_cif.got.tgz:76953.got - 2010.06.03 11:33:40.
