data_PCOD9036921
_publ_section_title
;
Structure prediction by ZEFSAII (Michael W. Deem and Ramdas Pophale) SiO2 
 PCOD9036921
Probable space group: P -1
;
_chemical_formula_sum "Si O2"
_cell_formula_units_Z 14
_cell_length_a 15.111745
_cell_length_b 16.473081
_cell_length_c 5.887512
_cell_angle_alpha 63.364664
_cell_angle_beta 50.500884
_cell_angle_gamma 32.442069
_cell_volume 592.655638
_symmetry_space_group_name_H-M "P -1"
_symmetry_group_IT_number 2
_symmetry_cell_setting 'triclinic'
loop_
_space_group_symop_operation_xyz
x,y,z
-x,-y,-z
loop_
_atom_site_type_symbol
_atom_site_label
_atom_site_fract_x
_atom_site_fract_y
_atom_site_fract_z
Si Si1 0.488577 0.076500 0.625104
Si Si2 0.601491 0.288297 0.144709
Si Si3 0.764475 0.907095 0.752018
Si Si4 0.858027 0.605912 0.302674
Si Si5 0.134033 0.549734 0.143911
Si Si6 0.429139 0.781179 0.225730
Si Si7 0.200041 0.645891 0.264480
O O1 0.372267 0.241624 0.549255
O O2 0.500000 0.000000 0.500000
O O3 0.698501 0.960403 0.531057
O O4 0.336610 0.123690 0.984399
O O5 0.644510 0.211127 0.416185
O O6 0.379196 0.471340 0.288972
O O7 0.618646 0.234003 0.926212
O O8 0.739353 0.288757 0.914174
O O9 0.995417 0.762710 0.580565
O O10 0.650902 0.064390 0.854482
O O11 0.896680 0.495725 0.533797
O O12 0.935875 0.652826 0.209128
O O13 0.000000 0.500000 0.000000
O O14 0.168694 0.627687 0.082417
O O15 0.335443 0.380349 0.927447
#
# Coordination Sequence:
#
# PCOD9036921 Si02
#       7
#     2   2   2   2   2   2   2
#     4  11  24  40  62  98 137 176 221 279 329 421
#     4  10  26  48  71 101 136 173 239 281 341 395
#     4  11  25  42  66  98 138 178 227 273 353 396
#     4  11  22  38  64  98 132 174 230 273 329 417
#     4  10  23  39  65  99 133 179 223 278 342 403
#     4  11  25  45  71  99 137 182 220 288 338 407
#     4  10  23  46  69  99 131 179 223 290 335 406
#
# _framework density 23.622485000000001
#
# number of rings (size 3 to 8) (size 9 to 14) (size 15 to 20)
#    0.000    1.429    0.000    3.429   12.000   10.857 
#    2.571    0.000    0.000    0.000    0.000    0.000 
#    0.000    0.000    0.000    0.000    0.000    0.000 
#
# Total GULP energy -78108.345297 kJ/mol
# GULP energy per Si atom -5579.167521 kJ/mol
# Density = 2.356872 g / cm^3
# Si number density = 23.622485 Si / 1000 Ang^3
#
#
#
# Elastic Constant Matrix: (Units=GPa)
#
#
# Indices 1 2 3 4 5 6 
#
# 1 121.7116 20.4589 28.2441 -4.7396 -2.0766 14.5246
# 2 20.4589 63.0119 14.5305 5.1628 6.5146 6.1497
# 3 28.2441 14.5305 77.6223 -3.1494 5.5991 -0.5219
# 4 -4.7396 5.1628 -3.1494 35.8327 -3.6316 1.4938
# 5 -2.0766 6.5146 5.5991 -3.6316 38.7362 6.1904
# 6 14.5246 6.1497 -0.5219 1.4938 6.1904 36.1288
#
#
#
# Elastic Compliance Matrix: (Units=1/GPa)
#
#
# Indices 1 2 3 4 5 6 
#
# 1 0.009992 -0.002463 -0.003292 0.001786 0.002249 -0.004104
# 2 -0.002463 0.017939 -0.002400 -0.003352 -0.002882 -0.001465
# 3 -0.003292 -0.002400 0.014739 0.000889 -0.002185 0.002282
# 4 0.001786 -0.003352 0.000889 0.029149 0.003576 -0.001953
# 5 0.002249 -0.002882 -0.002185 0.003576 0.027932 -0.005379
# 6 -0.004104 -0.001465 0.002282 -0.001953 -0.005379 0.030614
#
#
# Mechanical properties :
#
#
# Convention : Reuss Voigt Hill
#
# Bulk Modulus (GPa) = 37.93671 43.20140 40.56906
# Shear Modulus (GPa) = 32.16259 35.41371 33.78815
#
# Velocity S-wave (km/s) = 3.69389 3.87609 3.78608
# Velocity P-wave (km/s) = 5.85555 6.19355 6.02692
#
# Compressibility (1/GPa) = 0.02635969
#
# Stress axis : x y z
#
# Youngs Moduli (GPa) = 100.08125 55.74485 67.84749
#
# Poissons Ratio (x) = 0.13732 0.22335
# Poissons Ratio (y) = 0.24654 0.16281
# Poissons Ratio (z) = 0.32946 0.13377
#
# Static dielectric constant tensor:
#      x y z
#    x 1.997720 -0.012820 0.075950 
#    y -0.012820 1.905820 -0.044940 
#    z 0.075950 -0.044940 1.952820 
# 
# From -- ./inp_files/97646.got.cif
#   From: 2010.05.17/outbox.cif.g08.bks.cpg/sg2_49_cif.got.tgz:97646.got - 2010.06.03 11:33:40.
