data_PCOD9036177
_publ_section_title
;
Structure prediction by ZEFSAII (Michael W. Deem and Ramdas Pophale) SiO2 
 PCOD9036177
Probable space group: P -1
;
_chemical_formula_sum "Si O2"
_cell_formula_units_Z 12
_cell_length_a 6.741418
_cell_length_b 9.327649
_cell_length_c 11.603824
_cell_angle_alpha 74.949844
_cell_angle_beta 142.488393
_cell_angle_gamma 113.508222
_cell_volume 405.324855
_symmetry_space_group_name_H-M "P -1"
_symmetry_group_IT_number 2
_symmetry_cell_setting 'triclinic'
loop_
_space_group_symop_operation_xyz
x,y,z
-x,-y,-z
loop_
_atom_site_type_symbol
_atom_site_label
_atom_site_fract_x
_atom_site_fract_y
_atom_site_fract_z
Si Si1 0.684385 0.709673 0.201914
Si Si2 0.793490 0.376445 0.775612
Si Si3 0.723336 0.695332 0.665990
Si Si4 0.987069 0.019398 0.851073
Si Si5 0.761706 0.093667 0.419789
Si Si6 0.475014 0.637461 0.815123
O O1 0.412494 0.675934 0.187552
O O2 0.698179 0.840633 0.085879
O O3 0.700496 0.544942 0.196195
O O4 0.040830 0.805132 0.405247
O O5 0.920967 0.566596 0.779481
O O6 0.511267 0.320635 0.553276
O O7 0.596126 0.023757 0.673269
O O8 0.485494 0.628838 0.682140
O O9 0.942464 0.867101 0.780200
O O10 0.130302 0.325927 0.966362
O O11 0.000000 0.000000 0.000000
O O12 0.698362 0.226439 0.279617
O O13 0.000000 0.000000 0.500000
#
# Coordination Sequence:
#
# PCOD9036177 Si02
#       6
#     2   2   2   2   2   2
#     4  11  24  50  88 124 167 223 277 352 439 510
#     4  10  22  47  90 128 169 218 283 351 429 518
#     4   9  21  46  81 123 175 216 275 351 430 503
#     4  11  27  54  79 121 177 223 283 355 428 517
#     4  11  27  52  80 114 166 224 287 352 428 496
#     4  10  23  52  83 124 173 216 286 348 422 521
#
# _framework density 29.605886999999999
#
# number of rings (size 3 to 8) (size 9 to 14) (size 15 to 20)
#    0.000    1.667    0.000    3.000    2.333    4.000 
#   24.000   16.667    0.000    0.000    0.000    0.000 
#    0.000    0.000    0.000    0.000    0.000    0.000 
#
# Total GULP energy -67137.952729 kJ/mol
# GULP energy per Si atom -5594.829394 kJ/mol
# Density = 2.953850 g / cm^3
# Si number density = 29.605887 Si / 1000 Ang^3
#
#
#
# Elastic Constant Matrix: (Units=GPa)
#
#
# Indices 1 2 3 4 5 6 
#
# 1 158.0835 100.7301 67.8641 -18.0488 -11.6776 -12.7166
# 2 100.7301 268.9992 61.9470 -14.2949 -11.6921 -7.6575
# 3 67.8641 61.9470 231.6314 -21.4747 -27.9693 -11.3403
# 4 -18.0488 -14.2949 -21.4747 33.8182 1.0931 1.3084
# 5 -11.6776 -11.6921 -27.9693 1.0931 56.2592 -13.4231
# 6 -12.7166 -7.6575 -11.3403 1.3084 -13.4231 77.7536
#
#
#
# Elastic Compliance Matrix: (Units=1/GPa)
#
#
# Indices 1 2 3 4 5 6 
#
# 1 0.009302 -0.002919 -0.001551 0.002679 0.000762 0.001094
# 2 -0.002919 0.004928 -0.000416 0.000255 0.000201 -0.000022
# 3 -0.001551 -0.000416 0.005440 0.002337 0.002462 0.000885
# 4 0.002679 0.000255 0.002337 0.032533 0.001252 0.000473
# 5 0.000762 0.000201 0.002462 0.001252 0.020118 0.003956
# 6 0.001094 -0.000022 0.000885 0.000473 0.003956 0.013842
#
#
# Mechanical properties :
#
#
# Convention : Reuss Voigt Hill
#
# Bulk Modulus (GPa) = 101.02661 124.42185 112.72423
# Shear Modulus (GPa) = 50.38597 62.11107 56.24852
#
# Velocity S-wave (km/s) = 4.12987 4.58529 4.36352
# Velocity P-wave (km/s) = 7.54580 8.37558 7.97149
#
# Compressibility (1/GPa) = 0.00989838
#
# Stress axis : x y z
#
# Youngs Moduli (GPa) = 107.50532 202.91619 183.82550
#
# Poissons Ratio (x) = 0.59241 0.28503
# Poissons Ratio (y) = 0.31386 0.07642
# Poissons Ratio (z) = 0.16669 0.08436
#
# Static dielectric constant tensor:
#      x y z
#    x 2.391620 -0.041220 -0.045400 
#    y -0.041220 2.425420 -0.021560 
#    z -0.045400 -0.021560 2.391850 
# 
# From -- ./inp_files/156912.got.cif
#   From: 2010.05.17/outbox.cif.g08.bks.cpg/sg2_79_cif.got.tgz:156912.got - 2010.06.03 11:33:40.
