data_PCOD9036657
_publ_section_title
;
Structure prediction by ZEFSAII (Michael W. Deem and Ramdas Pophale) SiO2 
 PCOD9036657
Probable space group: P -1
;
_chemical_formula_sum "Si O2"
_cell_formula_units_Z 12
_cell_length_a 15.963966
_cell_length_b 7.754481
_cell_length_c 16.627322
_cell_angle_alpha 45.412858
_cell_angle_beta 161.211852
_cell_angle_gamma 136.246428
_cell_volume 456.926285
_symmetry_space_group_name_H-M "P -1"
_symmetry_group_IT_number 2
_symmetry_cell_setting 'triclinic'
loop_
_space_group_symop_operation_xyz
x,y,z
-x,-y,-z
loop_
_atom_site_type_symbol
_atom_site_label
_atom_site_fract_x
_atom_site_fract_y
_atom_site_fract_z
Si Si1 0.195564 0.981171 0.256678
Si Si2 0.328090 0.581487 0.609517
Si Si3 0.868688 0.188385 0.368081
Si Si4 0.468772 0.263954 0.697558
Si Si5 0.676238 0.631821 0.041968
Si Si6 0.974028 0.830559 0.802719
O O1 0.148293 0.722174 0.347690
O O2 0.154476 0.173206 0.224773
O O3 0.500000 0.000000 0.500000
O O4 0.000000 0.000000 0.000000
O O5 0.456883 0.439278 0.705843
O O6 0.136257 0.405167 0.558562
O O7 0.546416 0.752325 0.810207
O O8 0.715841 0.369166 0.124649
O O9 0.668636 0.018484 0.303642
O O10 0.000000 0.000000 0.500000
O O11 0.260357 0.299954 0.428506
O O12 0.767646 0.279499 0.935006
O O13 0.902446 0.870824 0.202910
O O14 0.500000 0.500000 0.000000
#
# Coordination Sequence:
#
# PCOD9036657 Si02
#       6
#     2   2   2   2   2   2
#     4  12  27  49  76 101 134 184 247 304 355 409
#     4  11  26  45  70 104 146 195 233 293 355 421
#     4  10  23  38  66 103 150 186 226 268 355 424
#     4  11  26  43  71 107 152 183 225 283 360 433
#     4  12  23  40  71 105 149 189 238 275 350 430
#     4  12  25  45  70 106 140 182 237 296 346 419
#
# _framework density 26.262443000000001
#
# number of rings (size 3 to 8) (size 9 to 14) (size 15 to 20)
#    0.000    0.667    3.333    4.000    4.667    2.667 
#    0.000    5.000    0.000    0.000    0.000    0.000 
#    0.000    0.000    0.000    0.000    0.000    0.000 
#
# Total GULP energy -66997.477351 kJ/mol
# GULP energy per Si atom -5583.123113 kJ/mol
# Density = 2.620267 g / cm^3
# Si number density = 26.262443 Si / 1000 Ang^3
#
#
#
# Elastic Constant Matrix: (Units=GPa)
#
#
# Indices 1 2 3 4 5 6 
#
# 1 160.6302 24.1366 90.2269 5.2334 8.2326 -10.5502
# 2 24.1366 82.3494 23.1433 -21.4289 0.6474 -2.8265
# 3 90.2269 23.1433 203.9776 3.3212 -7.0097 -14.7332
# 4 5.2334 -21.4289 3.3212 32.5578 -5.0707 3.3272
# 5 8.2326 0.6474 -7.0097 -5.0707 59.7954 4.1063
# 6 -10.5502 -2.8265 -14.7332 3.3272 4.1063 36.3307
#
#
#
# Elastic Compliance Matrix: (Units=1/GPa)
#
#
# Indices 1 2 3 4 5 6 
#
# 1 0.008880 -0.002325 -0.003578 -0.003049 -0.001975 0.001449
# 2 -0.002325 0.015998 -0.001005 0.011271 0.001053 -0.000990
# 3 -0.003578 -0.001005 0.006763 -0.000762 0.001124 0.001568
# 4 -0.003049 0.011271 -0.000762 0.039755 0.003882 -0.004397
# 5 -0.001975 0.001053 0.001124 0.003882 0.017609 -0.002381
# 6 0.001449 -0.000990 0.001568 -0.004397 -0.002381 0.029177
#
#
# Mechanical properties :
#
#
# Convention : Reuss Voigt Hill
#
# Bulk Modulus (GPa) = 56.10124 80.21900 68.16012
# Shear Modulus (GPa) = 36.24747 46.36681 41.30714
#
# Velocity S-wave (km/s) = 3.71914 4.20637 3.97023
# Velocity P-wave (km/s) = 6.31275 7.36225 6.85761
#
# Compressibility (1/GPa) = 0.01782492
#
# Stress axis : x y z
#
# Youngs Moduli (GPa) = 112.60877 62.50692 147.85304
#
# Poissons Ratio (x) = 0.14535 0.52899
# Poissons Ratio (y) = 0.26186 0.14865
# Poissons Ratio (z) = 0.40289 0.06284
#
# Static dielectric constant tensor:
#      x y z
#    x 1.966250 0.111820 -0.071010 
#    y 0.111820 2.115870 0.030580 
#    z -0.071010 0.030580 1.901220 
# 
# From -- ./inp_files/95379.got.cif
#   From: 2010.05.17/outbox.cif.g08.bks.cpg/sg2_48_cif.got.tgz:95379.got - 2010.06.03 11:33:40.
