data_PCOD9036744
_publ_section_title
;
Structure prediction by ZEFSAII (Michael W. Deem and Ramdas Pophale) SiO2 
 PCOD9036744
Probable space group: P -1
;
_chemical_formula_sum "Si O2"
_cell_formula_units_Z 16
_cell_length_a 5.623548
_cell_length_b 25.015303
_cell_length_c 4.811556
_cell_angle_alpha 92.067450
_cell_angle_beta 85.373178
_cell_angle_gamma 114.491973
_cell_volume 613.949909
_symmetry_space_group_name_H-M "P -1"
_symmetry_group_IT_number 2
_symmetry_cell_setting 'triclinic'
loop_
_space_group_symop_operation_xyz
x,y,z
-x,-y,-z
loop_
_atom_site_type_symbol
_atom_site_label
_atom_site_fract_x
_atom_site_fract_y
_atom_site_fract_z
Si Si1 0.636538 0.262528 0.013214
Si Si2 0.978661 0.434129 0.681106
Si Si3 0.190241 0.351880 0.980605
Si Si4 0.611989 0.061366 0.153513
Si Si5 0.447038 0.676474 0.486043
Si Si6 0.894579 0.127199 0.617247
Si Si7 0.541720 0.847963 0.632070
Si Si8 0.605947 0.459571 0.155597
O O1 0.481721 0.292427 0.219187
O O2 0.529397 0.196615 0.112932
O O3 0.936150 0.296802 0.091437
O O4 0.630793 0.280136 0.697495
O O5 0.792921 0.388003 0.467485
O O6 0.218930 0.496983 0.610564
O O7 0.793807 0.446408 0.921663
O O8 0.090420 0.394291 0.830108
O O9 0.369237 0.396289 0.209956
O O10 0.343169 0.332404 0.730890
O O11 0.819768 0.109262 0.936887
O O12 0.235925 0.932018 0.570279
O O13 0.395529 0.086734 0.245091
O O14 0.500000 0.000000 0.000000
O O15 0.204946 0.153959 0.542029
O O16 0.722125 0.162074 0.526376
O O17 0.500000 0.500000 0.000000
#
# Coordination Sequence:
#
# PCOD9036744 Si02
#       8
#     2   2   2   2   2   2   2   2
#     4  11  25  40  63  88 125 166 219 266 323 388
#     4   8  15  31  54  87 118 157 203 260 322 396
#     4   9  19  36  58  87 120 162 208 265 324 390
#     4  10  24  45  73 106 142 182 227 280 337 401
#     4  10  23  39  60  88 121 162 214 266 331 389
#     4  10  25  42  69 101 140 179 228 274 339 395
#     4  10  27  43  69  99 140 181 232 280 338 402
#     4   8  13  27  57  85 120 156 202 258 324 387
#
# _framework density 26.060759000000001
#
# number of rings (size 3 to 8) (size 9 to 14) (size 15 to 20)
#    0.750    1.750    0.000    0.375    5.250    4.000 
#    0.000    0.625    0.000   67.500    0.000    0.000 
#    0.000    0.000    0.000    0.000    0.000    0.000 
#
# Total GULP energy -89471.141520 kJ/mol
# GULP energy per Si atom -5591.946345 kJ/mol
# Density = 2.600144 g / cm^3
# Si number density = 26.060759 Si / 1000 Ang^3
#
#
#
# Elastic Constant Matrix: (Units=GPa)
#
#
# Indices 1 2 3 4 5 6 
#
# 1 132.3728 19.5862 30.5807 -1.6646 -20.2747 -4.5147
# 2 19.5862 74.7720 6.3121 2.7639 -10.0811 -8.2384
# 3 30.5807 6.3121 121.5977 -12.5065 0.2570 -8.3016
# 4 -1.6646 2.7639 -12.5065 34.4494 5.2056 -4.2364
# 5 -20.2747 -10.0811 0.2570 5.2056 41.1909 2.7925
# 6 -4.5147 -8.2384 -8.3016 -4.2364 2.7925 28.3882
#
#
#
# Elastic Compliance Matrix: (Units=1/GPa)
#
#
# Indices 1 2 3 4 5 6 
#
# 1 0.008933 -0.001580 -0.002287 -0.000932 0.004160 -0.000255
# 2 -0.001580 0.014608 -0.000269 -0.001336 0.002735 0.003441
# 3 -0.002287 -0.000269 0.009443 0.004020 -0.001969 0.003113
# 4 -0.000932 -0.001336 0.004020 0.032077 -0.005267 0.005945
# 5 0.004160 0.002735 -0.001969 -0.005267 0.027851 -0.002646
# 6 -0.000255 0.003441 0.003113 0.005945 -0.002646 0.038242
#
#
# Mechanical properties :
#
#
# Convention : Reuss Voigt Hill
#
# Bulk Modulus (GPa) = 40.46514 49.07783 44.77148
# Shear Modulus (GPa) = 33.86100 38.95659 36.40879
#
# Velocity S-wave (km/s) = 3.60850 3.87051 3.74180
# Velocity P-wave (km/s) = 5.73783 6.23277 5.99041
#
# Compressibility (1/GPa) = 0.02471263
#
# Stress axis : x y z
#
# Youngs Moduli (GPa) = 111.94295 68.45673 105.89833
#
# Poissons Ratio (x) = 0.10815 0.24215
# Poissons Ratio (y) = 0.17684 0.02852
# Poissons Ratio (z) = 0.25597 0.01843
#
# Static dielectric constant tensor:
#      x y z
#    x 2.194030 -0.003880 0.051810 
#    y -0.003880 2.065440 0.046130 
#    z 0.051810 0.046130 1.988430 
# 
# From -- ./inp_files/13408.got.cif
#   From: 2010.05.17/outbox.cif.g08.bks.cpg/sg2_7_cif.got.tgz:13408.got - 2010.06.03 11:33:40.
