data_PCOD9036635
_publ_section_title
;
Structure prediction by ZEFSAII (Michael W. Deem and Ramdas Pophale) SiO2 
 PCOD9036635
Probable space group: P -1
;
_chemical_formula_sum "Si O2"
_cell_formula_units_Z 16
_cell_length_a 18.376639
_cell_length_b 11.802563
_cell_length_c 15.577618
_cell_angle_alpha 25.468475
_cell_angle_beta 24.345601
_cell_angle_gamma 38.703074
_cell_volume 581.759616
_symmetry_space_group_name_H-M "P -1"
_symmetry_group_IT_number 2
_symmetry_cell_setting 'triclinic'
loop_
_space_group_symop_operation_xyz
x,y,z
-x,-y,-z
loop_
_atom_site_type_symbol
_atom_site_label
_atom_site_fract_x
_atom_site_fract_y
_atom_site_fract_z
Si Si1 0.713467 0.489959 0.935468
Si Si2 0.820325 0.300115 0.792904
Si Si3 0.511677 0.351482 0.801187
Si Si4 0.987923 0.484627 0.797423
Si Si5 0.320045 0.988516 0.497484
Si Si6 0.802289 0.776531 0.365171
Si Si7 0.237830 0.034239 0.189637
Si Si8 0.686230 0.794782 0.190524
O O1 0.706065 0.255073 0.034286
O O2 0.886498 0.514397 0.795248
O O3 0.713208 0.763315 0.694382
O O4 0.535530 0.448709 0.213486
O O5 0.755030 0.489501 0.664942
O O6 0.000000 0.500000 0.500000
O O7 0.834787 0.024918 0.922328
O O8 0.599806 0.119029 0.899571
O O9 0.631483 0.501745 0.491761
O O10 0.314271 0.206136 0.073101
O O11 0.157813 0.353684 0.680395
O O12 0.065024 0.779932 0.553200
O O13 0.844430 0.277683 0.150583
O O14 0.504968 0.909249 0.325225
O O15 0.308777 0.069648 0.555406
O O16 0.000000 0.000000 0.000000
O O17 0.246594 0.212484 0.973302
#
# Coordination Sequence:
#
# PCOD9036635 Si02
#       8
#     2   2   2   2   2   2   2   2
#     4  11  22  42  64  96 138 166 215 270 314 397
#     4  11  22  38  62  98 132 166 213 260 321 394
#     4  11  26  45  68  93 130 173 225 270 328 379
#     4  11  21  43  67  95 131 173 218 263 330 377
#     4  10  23  38  64  99 133 169 215 261 326 391
#     4   9  19  35  60  89 130 167 202 254 314 385
#     4  11  25  46  69  94 126 173 227 275 318 389
#     4  12  23  44  68  96 132 173 214 271 332 383
#
# _framework density 27.502769000000001
#
# number of rings (size 3 to 8) (size 9 to 14) (size 15 to 20)
#    0.000    1.250    5.000    0.375    0.000    8.000 
#    0.000    0.625    0.000    0.000    0.000    0.000 
#    0.000    0.000    0.000    0.000    0.000    0.000 
#
# Total GULP energy -89458.007638 kJ/mol
# GULP energy per Si atom -5591.125477 kJ/mol
# Density = 2.744017 g / cm^3
# Si number density = 27.502769 Si / 1000 Ang^3
#
#
#
# Elastic Constant Matrix: (Units=GPa)
#
#
# Indices 1 2 3 4 5 6 
#
# 1 60.6815 -8.7019 21.3376 -2.9324 10.5615 -14.6120
# 2 -8.7019 82.4797 -8.6954 1.4166 -1.0148 7.3861
# 3 21.3376 -8.6954 127.2292 0.2373 2.6883 -4.8173
# 4 -2.9324 1.4166 0.2373 45.0390 -2.2512 -5.5761
# 5 10.5615 -1.0148 2.6883 -2.2512 43.8669 2.1259
# 6 -14.6120 7.3861 -4.8173 -5.5761 2.1259 33.5700
#
#
#
# Elastic Compliance Matrix: (Units=1/GPa)
#
#
# Indices 1 2 3 4 5 6 
#
# 1 0.020871 0.000968 -0.002983 0.002218 -0.005149 0.009138
# 2 0.000968 0.012513 0.000603 -0.000620 0.000102 -0.002355
# 3 -0.002983 0.000603 0.008386 -0.000282 0.000218 -0.000288
# 4 0.002218 -0.000620 -0.000282 0.022990 0.000413 0.004854
# 5 -0.005149 0.000102 0.000218 0.000413 0.024225 -0.003698
# 6 0.009138 -0.002355 -0.000288 0.004854 -0.003698 0.035283
#
#
# Mechanical properties :
#
#
# Convention : Reuss Voigt Hill
#
# Bulk Modulus (GPa) = 25.67796 30.91898 28.29847
# Shear Modulus (GPa) = 35.69490 42.25851 38.97670
#
# Velocity S-wave (km/s) = 3.60650 3.92410 3.76865
# Velocity P-wave (km/s) = 5.16713 5.63896 5.40819
#
# Compressibility (1/GPa) = 0.03894390
#
# Stress axis : x y z
#
# Youngs Moduli (GPa) = 47.91321 79.91937 119.24085
#
# Poissons Ratio (x) = -0.07734 0.35575
# Poissons Ratio (y) = -0.04636 -0.07187
# Poissons Ratio (z) = 0.14295 -0.04817
#
# Static dielectric constant tensor:
#      x y z
#    x 2.245200 -0.073860 -0.109100 
#    y -0.073860 2.232670 0.052810 
#    z -0.109100 0.052810 2.178270 
# 
# From -- ./inp_files/398152.got.cif
#   From: 2010.05.17/outbox.cif.g08.bks.cpg/sg2_200_cif.got.tgz:398152.got - 2010.06.03 11:33:40.
