data_PCOD9036126
_publ_section_title
;
Structure prediction by ZEFSAII (Michael W. Deem and Ramdas Pophale) SiO2 
 PCOD9036126
Probable space group: P -1
;
_chemical_formula_sum "Si O2"
_cell_formula_units_Z 16
_cell_length_a 5.673502
_cell_length_b 11.917672
_cell_length_c 21.480544
_cell_angle_alpha 37.321681
_cell_angle_beta 121.367460
_cell_angle_gamma 127.921067
_cell_volume 693.115283
_symmetry_space_group_name_H-M "P -1"
_symmetry_group_IT_number 2
_symmetry_cell_setting 'triclinic'
loop_
_space_group_symop_operation_xyz
x,y,z
-x,-y,-z
loop_
_atom_site_type_symbol
_atom_site_label
_atom_site_fract_x
_atom_site_fract_y
_atom_site_fract_z
Si Si1 0.416897 0.275472 0.615992
Si Si2 0.889939 0.237096 0.785073
Si Si3 0.316448 0.501085 0.061660
Si Si4 0.319319 0.116491 0.458447
Si Si5 0.758905 0.193811 0.923930
Si Si6 0.784444 0.814099 0.915945
Si Si7 0.466487 0.470974 0.238600
Si Si8 0.202097 0.734128 0.436435
O O1 0.500000 0.500000 0.500000
O O2 0.601438 0.274167 0.704386
O O3 0.573452 0.179587 0.629273
O O4 0.058053 0.183232 0.618954
O O5 0.876984 0.160617 0.887994
O O6 0.180992 0.443905 0.733633
O O7 0.911375 0.054526 0.827331
O O8 0.333628 0.316256 0.104640
O O9 0.406046 0.472042 0.156477
O O10 0.517231 0.725579 0.967340
O O11 0.000000 0.500000 0.000000
O O12 0.282404 0.260649 0.337189
O O13 0.564824 0.244185 0.486247
O O14 0.500000 0.000000 0.500000
O O15 0.000000 0.000000 0.500000
O O16 0.643210 0.367238 0.818683
O O17 0.983370 0.257659 0.984475
O O18 0.500000 0.000000 0.000000
O O19 0.000000 0.500000 0.500000
#
# Coordination Sequence:
#
# PCOD9036126 Si02
#       8
#     2   2   2   2   2   2   2   2
#     4  10  23  41  71 108 146 186 246 315 375 437
#     4  12  26  42  77 110 145 193 258 318 388 449
#     4  11  24  46  69  99 155 195 240 298 382 464
#     4  12  30  53  79 113 161 205 264 326 391 470
#     4  12  24  42  75 111 148 181 251 320 380 454
#     4  11  24  44  67 111 150 191 243 317 374 463
#     4  12  26  46  80 106 143 209 254 313 395 462
#     4  10  22  47  75 104 146 193 251 322 378 439
#
# _framework density 23.084181999999998
#
# number of rings (size 3 to 8) (size 9 to 14) (size 15 to 20)
#    0.000    0.750    3.750    3.375    7.000    1.000 
#    4.500    0.000    0.000    0.000    0.000    0.000 
#    0.000    0.000    0.000    0.000    0.000    0.000 
#
# Total GULP energy -89284.337574 kJ/mol
# GULP energy per Si atom -5580.271098 kJ/mol
# Density = 2.303164 g / cm^3
# Si number density = 23.084182 Si / 1000 Ang^3
#
#
#
# Elastic Constant Matrix: (Units=GPa)
#
#
# Indices 1 2 3 4 5 6 
#
# 1 115.0166 18.7989 25.0476 0.4425 -9.3038 17.5020
# 2 18.7989 103.6455 18.1816 17.4924 -11.0928 2.0906
# 3 25.0476 18.1816 92.4774 5.4259 -1.8812 -1.5743
# 4 0.4425 17.4924 5.4259 41.1206 3.4973 1.0872
# 5 -9.3038 -11.0928 -1.8812 3.4973 34.1190 4.9668
# 6 17.5020 2.0906 -1.5743 1.0872 4.9668 48.8069
#
#
#
# Elastic Compliance Matrix: (Units=1/GPa)
#
#
# Indices 1 2 3 4 5 6 
#
# 1 0.010285 -0.001122 -0.002610 0.000577 0.002823 -0.004024
# 2 -0.001122 0.011385 -0.001573 -0.004942 0.003877 -0.000421
# 3 -0.002610 -0.001573 0.011891 -0.000852 -0.000695 0.001477
# 4 0.000577 -0.004942 -0.000852 0.026892 -0.004225 -0.000192
# 5 0.002823 0.003877 -0.000695 -0.004225 0.032375 -0.004401
# 6 -0.004024 -0.000421 0.001477 -0.000192 -0.004401 0.022450
#
#
# Mechanical properties :
#
#
# Convention : Reuss Voigt Hill
#
# Bulk Modulus (GPa) = 43.57093 48.35509 45.96301
# Shear Modulus (GPa) = 37.44310 41.41675 39.42992
#
# Velocity S-wave (km/s) = 4.03181 4.24035 4.13739
# Velocity P-wave (km/s) = 6.37101 6.70573 6.54051
#
# Compressibility (1/GPa) = 0.02295108
#
# Stress axis : x y z
#
# Youngs Moduli (GPa) = 97.23290 87.83383 84.10015
#
# Poissons Ratio (x) = 0.09852 0.21950
# Poissons Ratio (y) = 0.10907 0.13228
# Poissons Ratio (z) = 0.25378 0.13815
#
# Static dielectric constant tensor:
#      x y z
#    x 1.826170 -0.183740 -0.013900 
#    y -0.183740 1.726560 -0.003920 
#    z -0.013900 -0.003920 1.831730 
# 
# From -- ./inp_files/583274.got.cif
#   From: 2010.05.17/outbox.cif.g08.bks.cpg/sg2_292_cif.got.tgz:583274.got - 2010.06.03 11:33:40.
