data_PCOD9036618
_publ_section_title
;
Structure prediction by ZEFSAII (Michael W. Deem and Ramdas Pophale) SiO2 
 PCOD9036618
Probable space group: P -1
;
_chemical_formula_sum "Si O2"
_cell_formula_units_Z 16
_cell_length_a 12.140059
_cell_length_b 15.388557
_cell_length_c 8.822836
_cell_angle_alpha 102.825243
_cell_angle_beta 112.436403
_cell_angle_gamma 135.338928
_cell_volume 696.632163
_symmetry_space_group_name_H-M "P -1"
_symmetry_group_IT_number 2
_symmetry_cell_setting 'triclinic'
loop_
_space_group_symop_operation_xyz
x,y,z
-x,-y,-z
loop_
_atom_site_type_symbol
_atom_site_label
_atom_site_fract_x
_atom_site_fract_y
_atom_site_fract_z
Si Si1 0.972581 0.894484 0.231824
Si Si2 0.209086 0.219780 0.567411
Si Si3 0.253729 0.723479 0.192598
Si Si4 0.249529 0.977471 0.903679
Si Si5 0.959494 0.621484 0.553074
Si Si6 0.750307 0.347489 0.147639
Si Si7 0.501104 0.447090 0.323506
Si Si8 0.745288 0.066898 0.765962
O O1 0.829901 0.808329 0.284270
O O2 0.084097 0.871935 0.242639
O O3 0.763375 0.773591 0.944922
O O4 0.202492 0.117148 0.451882
O O5 0.435149 0.433869 0.720427
O O6 0.955595 0.095625 0.312967
O O7 0.204094 0.794374 0.156881
O O8 0.453505 0.856537 0.485206
O O9 0.369139 0.752626 0.115330
O O10 0.000000 0.500000 0.000000
O O11 0.196504 0.844476 0.755523
O O12 0.204252 0.938822 0.043606
O O13 0.529850 0.194051 0.096489
O O14 0.877635 0.527024 0.311732
O O15 0.728454 0.525845 0.463772
O O16 0.042870 0.592440 0.686209
O O17 0.500000 0.500000 0.500000
#
# Coordination Sequence:
#
# PCOD9036618 Si02
#       8
#     2   2   2   2   2   2   2   2
#     4  11  23  45  67  96 136 173 219 272 324 397
#     4  10  24  42  68  98 129 177 222 266 332 383
#     4  11  27  45  63  96 137 172 214 268 333 396
#     4  11  22  42  70  97 132 168 221 275 321 390
#     4  10  23  38  64 100 124 172 220 265 326 375
#     4  11  23  40  68  93 132 172 220 268 324 391
#     4  11  24  41  67  96 135 171 222 274 322 385
#     4  11  26  43  69  98 131 174 218 269 335 389
#
# _framework density 22.967642999999999
#
# number of rings (size 3 to 8) (size 9 to 14) (size 15 to 20)
#    0.000    1.250    1.250    3.750    3.500    8.000 
#    0.000    0.000    0.000    0.000    0.000    0.000 
#    0.000    0.000    0.000    0.000    0.000    0.000 
#
# Total GULP energy -89502.097881 kJ/mol
# GULP energy per Si atom -5593.881118 kJ/mol
# Density = 2.291537 g / cm^3
# Si number density = 22.967643 Si / 1000 Ang^3
#
#
#
# Elastic Constant Matrix: (Units=GPa)
#
#
# Indices 1 2 3 4 5 6 
#
# 1 73.6475 1.4829 29.3652 -1.1212 -18.5506 -5.7666
# 2 1.4829 39.3260 14.5923 7.1607 -11.3202 -0.8098
# 3 29.3652 14.5923 112.8139 3.9629 -21.4414 -8.5342
# 4 -1.1212 7.1607 3.9629 37.2164 -1.9677 1.9293
# 5 -18.5506 -11.3202 -21.4414 -1.9677 44.1676 3.4842
# 6 -5.7666 -0.8098 -8.5342 1.9293 3.4842 12.6679
#
#
#
# Elastic Compliance Matrix: (Units=1/GPa)
#
#
# Indices 1 2 3 4 5 6 
#
# 1 0.016565 0.002194 -0.003246 0.000522 0.005663 0.003857
# 2 0.002194 0.029270 -0.002908 -0.004885 0.006812 -0.000218
# 3 -0.003246 -0.002908 0.011036 -0.000831 0.002808 0.005125
# 4 0.000522 -0.004885 -0.000831 0.028184 0.000213 -0.004985
# 5 0.005663 0.006812 0.002808 0.000213 0.028369 -0.002930
# 6 0.003857 -0.000218 0.005125 -0.004985 -0.002930 0.085700
#
#
# Mechanical properties :
#
#
# Convention : Reuss Voigt Hill
#
# Bulk Modulus (GPa) = 20.42806 35.18536 27.80671
# Shear Modulus (GPa) = 22.38558 30.83351 26.60955
#
# Velocity S-wave (km/s) = 3.12534 3.66796 3.40747
# Velocity P-wave (km/s) = 4.68372 5.76986 5.25493
#
# Compressibility (1/GPa) = 0.04895228
#
# Stress axis : x y z
#
# Youngs Moduli (GPa) = 60.37004 34.16429 90.61561
#
# Poissons Ratio (x) = -0.07496 0.29412
# Poissons Ratio (y) = -0.13247 0.26347
# Poissons Ratio (z) = 0.19595 0.09933
#
# Static dielectric constant tensor:
#      x y z
#    x 1.865570 -0.015730 -0.006920 
#    y -0.015730 1.872430 -0.008510 
#    z -0.006920 -0.008510 1.860490 
# 
# From -- ./inp_files/273851.got.cif
#   From: 2010.05.17/outbox.cif.g08.bks.cpg/sg2_137_cif.got.tgz:273851.got - 2010.06.03 11:33:40.
