data_PCOD9036706
_publ_section_title
;
Structure prediction by ZEFSAII (Michael W. Deem and Ramdas Pophale) SiO2 
 PCOD9036706
Probable space group: P -1
;
_chemical_formula_sum "Si O2"
_cell_formula_units_Z 16
_cell_length_a 5.437201
_cell_length_b 28.294929
_cell_length_c 12.862433
_cell_angle_alpha 154.786026
_cell_angle_beta 129.852856
_cell_angle_gamma 56.262170
_cell_volume 645.349517
_symmetry_space_group_name_H-M "P -1"
_symmetry_group_IT_number 2
_symmetry_cell_setting 'triclinic'
loop_
_space_group_symop_operation_xyz
x,y,z
-x,-y,-z
loop_
_atom_site_type_symbol
_atom_site_label
_atom_site_fract_x
_atom_site_fract_y
_atom_site_fract_z
Si Si1 0.245166 0.576225 0.030144
Si Si2 0.387000 0.726403 0.185768
Si Si3 0.155804 0.638476 0.513171
Si Si4 0.532111 0.274825 0.447989
Si Si5 0.718008 0.239252 0.999283
Si Si6 0.913821 0.888384 0.437351
Si Si7 0.695137 0.900867 0.101187
Si Si8 0.164247 0.046449 0.240925
O O1 0.928768 0.494022 0.766297
O O2 0.500000 0.500000 0.000000
O O3 0.406313 0.624591 0.065165
O O4 0.212807 0.678824 0.304681
O O5 0.380769 0.697932 0.006246
O O6 0.620161 0.837858 0.493129
O O7 0.043343 0.772795 0.209444
O O8 0.337720 0.672627 0.522962
O O9 0.806567 0.689168 0.527464
O O10 0.314056 0.691940 0.766852
O O11 0.447885 0.146489 0.142228
O O12 0.465654 0.131770 0.716189
O O13 0.076026 0.195919 0.997480
O O14 0.038839 0.917855 0.645605
O O15 0.067513 0.989539 0.615086
O O16 0.371648 0.948972 0.153359
O O17 0.000000 0.000000 0.000000
#
# Coordination Sequence:
#
# PCOD9036706 Si02
#       8
#     2   2   2   2   2   2   2   2
#     4  10  23  46  72  97 135 181 239 295 361 420
#     4  10  24  44  65 101 141 183 226 298 346 415
#     4  10  23  44  69 103 133 182 233 300 347 412
#     4  10  23  41  70 106 136 174 238 293 348 419
#     4  10  23  43  67  99 145 179 241 275 350 420
#     4  10  23  40  62 100 137 188 223 288 342 415
#     4  10  23  38  69  96 137 188 225 280 340 422
#     4  10  24  39  63 101 143 185 230 282 350 417
#
# _framework density 24.792766
#
# number of rings (size 3 to 8) (size 9 to 14) (size 15 to 20)
#    0.000    2.000    0.000    0.750   10.500    7.000 
#   13.500    0.625    0.000    0.000    0.000    0.000 
#    0.000    0.000    0.000    0.000    0.000    0.000 
#
# Total GULP energy -89260.875469 kJ/mol
# GULP energy per Si atom -5578.804717 kJ/mol
# Density = 2.473634 g / cm^3
# Si number density = 24.792766 Si / 1000 Ang^3
#
#
#
# Elastic Constant Matrix: (Units=GPa)
#
#
# Indices 1 2 3 4 5 6 
#
# 1 77.2282 23.6645 10.4957 -6.1080 2.6457 14.6669
# 2 23.6645 96.5873 33.4352 -7.6534 2.0528 19.6663
# 3 10.4957 33.4352 125.6733 -26.2642 5.5649 11.8739
# 4 -6.1080 -7.6534 -26.2642 36.8788 9.9425 -13.7245
# 5 2.6457 2.0528 5.5649 9.9425 29.9761 3.7419
# 6 14.6669 19.6663 11.8739 -13.7245 3.7419 35.3073
#
#
#
# Elastic Compliance Matrix: (Units=1/GPa)
#
#
# Indices 1 2 3 4 5 6 
#
# 1 0.014649 -0.002659 0.000025 0.000468 -0.000727 -0.004354
# 2 -0.002659 0.013220 -0.003387 -0.002990 0.001757 -0.006468
# 3 0.000025 -0.003387 0.010795 0.009267 -0.005147 0.002393
# 4 0.000468 -0.002990 0.009267 0.044798 -0.018630 0.017742
# 5 -0.000727 0.001757 -0.005147 -0.018630 0.041763 -0.010614
# 6 -0.004354 -0.006468 0.002393 0.017742 -0.010614 0.040951
#
#
# Mechanical properties :
#
#
# Convention : Reuss Voigt Hill
#
# Bulk Modulus (GPa) = 37.56111 48.29772 42.92942
# Shear Modulus (GPa) = 26.72508 35.89200 31.30854
#
# Velocity S-wave (km/s) = 3.28676 3.80897 3.55746
# Velocity P-wave (km/s) = 5.43936 6.23435 5.85038
#
# Compressibility (1/GPa) = 0.02662328
#
# Stress axis : x y z
#
# Youngs Moduli (GPa) = 68.26550 75.64368 92.63957
#
# Poissons Ratio (x) = 0.20112 -0.00236
# Poissons Ratio (y) = 0.18150 0.31373
# Poissons Ratio (z) = -0.00174 0.25617
#
# Static dielectric constant tensor:
#      x y z
#    x 2.049820 -0.026580 -0.032960 
#    y -0.026580 2.040340 0.009620 
#    z -0.032960 0.009620 2.034330 
# 
# From -- ./inp_files/371505.got.cif
#   From: 2010.05.17/outbox.cif.g08.bks.cpg/sg2_186_cif.got.tgz:371505.got - 2010.06.03 11:33:40.
