data_PCOD9036948
_publ_section_title
;
Structure prediction by ZEFSAII (Michael W. Deem and Ramdas Pophale) SiO2 
 PCOD9036948
Probable space group: P -1
;
_chemical_formula_sum "Si O2"
_cell_formula_units_Z 16
_cell_length_a 15.382254
_cell_length_b 8.331418
_cell_length_c 8.376988
_cell_angle_alpha 136.251260
_cell_angle_beta 76.968739
_cell_angle_gamma 102.207700
_cell_volume 721.364283
_symmetry_space_group_name_H-M "P -1"
_symmetry_group_IT_number 2
_symmetry_cell_setting 'triclinic'
loop_
_space_group_symop_operation_xyz
x,y,z
-x,-y,-z
loop_
_atom_site_type_symbol
_atom_site_label
_atom_site_fract_x
_atom_site_fract_y
_atom_site_fract_z
Si Si1 0.710394 0.402864 0.432280
Si Si2 0.110366 0.614050 0.545656
Si Si3 0.956351 0.750024 0.897738
Si Si4 0.277080 0.118948 0.423401
Si Si5 0.443551 0.230036 0.662367
Si Si6 0.606844 0.050254 0.008398
Si Si7 0.600312 0.573608 0.837465
Si Si8 0.084878 0.023968 0.602246
O O1 0.802376 0.285194 0.324374
O O2 0.730172 0.646575 0.508665
O O3 0.677631 0.415237 0.638185
O O4 0.634215 0.262573 0.263362
O O5 0.119515 0.367136 0.273911
O O6 0.035533 0.588734 0.696885
O O7 0.090646 0.795410 0.545539
O O8 0.928876 0.777794 0.112784
O O9 0.000000 0.000000 0.000000
O O10 0.353495 0.171810 0.562251
O O11 0.327330 0.934013 0.160251
O O12 0.179104 0.055362 0.491030
O O13 0.510974 0.433169 0.705854
O O14 0.500000 0.000000 0.500000
O O15 0.416207 0.351710 0.923996
O O16 0.628129 0.813481 0.913986
O O17 0.500000 0.000000 0.000000
O O18 0.000000 0.000000 0.500000
#
# Coordination Sequence:
#
# PCOD9036948 Si02
#       8
#     2   2   2   2   2   2   2   2
#     4  11  25  42  69  98 134 176 229 269 328 408
#     4  10  24  44  72  96 127 183 223 264 344 402
#     4   9  22  44  71  92 130 173 226 273 335 396
#     4  11  27  41  66 101 136 171 228 275 338 391
#     4  11  23  42  66  96 136 175 219 278 339 395
#     4  11  23  44  67  93 137 183 223 272 333 398
#     4  10  23  39  66  95 132 171 223 272 332 393
#     4  11  27  44  68 102 140 168 221 287 335 393
#
# _framework density 22.180195000000001
#
# number of rings (size 3 to 8) (size 9 to 14) (size 15 to 20)
#    0.000    1.500    0.000    3.000   12.250    6.500 
#    0.000    0.000    0.000    0.000    0.000    0.000 
#    0.000    0.000    0.000    0.000    0.000    0.000 
#
# Total GULP energy -89131.507714 kJ/mol
# GULP energy per Si atom -5570.719232 kJ/mol
# Density = 2.212971 g / cm^3
# Si number density = 22.180195 Si / 1000 Ang^3
#
#
#
# Elastic Constant Matrix: (Units=GPa)
#
#
# Indices 1 2 3 4 5 6 
#
# 1 121.8327 33.3429 36.8907 -27.2728 0.1447 10.6358
# 2 33.3429 77.6206 35.8257 -13.2200 -8.7326 20.3102
# 3 36.8907 35.8257 138.6203 -34.5902 -1.5035 19.9684
# 4 -27.2728 -13.2200 -34.5902 36.5305 8.9597 -10.9835
# 5 0.1447 -8.7326 -1.5035 8.9597 24.8821 -8.4185
# 6 10.6358 20.3102 19.9684 -10.9835 -8.4185 37.5807
#
#
#
# Elastic Compliance Matrix: (Units=1/GPa)
#
#
# Indices 1 2 3 4 5 6 
#
# 1 0.011045 -0.003951 -0.000048 0.007917 -0.004164 0.000416
# 2 -0.003951 0.017873 -0.003254 -0.002717 0.004873 -0.006514
# 3 -0.000048 -0.003254 0.010670 0.009361 -0.004610 -0.002194
# 4 0.007917 -0.002717 0.009361 0.046291 -0.015656 0.004276
# 5 -0.004164 0.004873 -0.004610 -0.015656 0.049849 0.007585
# 6 0.000416 -0.006514 -0.002194 0.004276 0.007585 0.034127
#
#
# Mechanical properties :
#
#
# Convention : Reuss Voigt Hill
#
# Bulk Modulus (GPa) = 39.87245 61.13244 50.50245
# Shear Modulus (GPa) = 25.94434 35.26627 30.60531
#
# Velocity S-wave (km/s) = 3.42381 3.99179 3.71866
# Velocity P-wave (km/s) = 5.80048 6.99052 6.42312
#
# Compressibility (1/GPa) = 0.02507997
#
# Stress axis : x y z
#
# Youngs Moduli (GPa) = 90.54143 55.95186 93.72507
#
# Poissons Ratio (x) = 0.22108 0.00447
# Poissons Ratio (y) = 0.35776 0.30502
# Poissons Ratio (z) = 0.00431 0.18209
#
# Static dielectric constant tensor:
#      x y z
#    x 1.914930 -0.039770 0.055700 
#    y -0.039770 1.748080 0.093920 
#    z 0.055700 0.093920 1.866860 
# 
# From -- ./inp_files/120635.got.cif
#   From: 2010.05.17/outbox.cif.g08.bks.cpg/sg2_61_cif.got.tgz:120635.got - 2010.06.03 11:33:40.
