data_PCOD9036827
_publ_section_title
;
Structure prediction by ZEFSAII (Michael W. Deem and Ramdas Pophale) SiO2 
 PCOD9036827
Probable space group: P -1
;
_chemical_formula_sum "Si O2"
_cell_formula_units_Z 12
_cell_length_a 10.503347
_cell_length_b 5.196065
_cell_length_c 14.037142
_cell_angle_alpha 50.782986
_cell_angle_beta 134.772553
_cell_angle_gamma 121.326227
_cell_volume 417.460185
_symmetry_space_group_name_H-M "P -1"
_symmetry_group_IT_number 2
_symmetry_cell_setting 'triclinic'
loop_
_space_group_symop_operation_xyz
x,y,z
-x,-y,-z
loop_
_atom_site_type_symbol
_atom_site_label
_atom_site_fract_x
_atom_site_fract_y
_atom_site_fract_z
Si Si1 0.926654 0.617638 0.076560
Si Si2 0.240675 0.709201 0.579811
Si Si3 0.581847 0.169243 0.648088
Si Si4 0.247817 0.676594 0.107240
Si Si5 0.898992 0.581553 0.618485
Si Si6 0.375790 0.259094 0.919975
O O1 0.090010 0.472804 0.136218
O O2 0.926080 0.416300 0.221922
O O3 0.748019 0.549078 0.932133
O O4 0.000000 0.000000 0.000000
O O5 0.282344 0.458821 0.743670
O O6 0.881195 0.477330 0.523895
O O7 0.443802 0.854380 0.614744
O O8 0.167835 0.054513 0.492584
O O9 0.500000 0.500000 0.500000
O O10 0.598485 0.201084 0.763950
O O11 0.775444 0.260563 0.678468
O O12 0.228897 0.029091 0.962497
O O13 0.500000 0.500000 0.000000
O O14 0.500000 0.000000 0.000000
#
# Coordination Sequence:
#
# PCOD9036827 Si02
#       6
#     2   2   2   2   2   2
#     4  10  24  42  72  93 131 176 228 281 320 387
#     4  11  22  41  61  95 133 171 211 270 329 396
#     4   9  19  35  63  91 129 164 210 271 333 379
#     4  10  23  43  63 101 129 175 225 270 332 389
#     4  10  23  39  63  92 130 170 222 266 329 379
#     4  12  26  43  68  98 139 176 216 267 333 408
#
# _framework density 28.745256999999999
#
# number of rings (size 3 to 8) (size 9 to 14) (size 15 to 20)
#    0.000    1.667    1.667    1.500   14.000    0.000 
#    0.000    1.667    0.000    0.000    0.000    0.000 
#    0.000    0.000    0.000    0.000    0.000    0.000 
#
# Total GULP energy -67109.100922 kJ/mol
# GULP energy per Si atom -5592.425077 kJ/mol
# Density = 2.867983 g / cm^3
# Si number density = 28.745257 Si / 1000 Ang^3
#
#
#
# Elastic Constant Matrix: (Units=GPa)
#
#
# Indices 1 2 3 4 5 6 
#
# 1 87.3735 38.9767 60.9913 -8.7806 -24.9275 -0.8639
# 2 38.9767 180.4568 85.1643 5.0776 -15.7664 -23.6588
# 3 60.9913 85.1643 275.2062 2.9942 -38.0091 -42.5464
# 4 -8.7806 5.0776 2.9942 58.6698 -3.1467 -9.7562
# 5 -24.9275 -15.7664 -38.0091 -3.1467 54.6684 -3.8965
# 6 -0.8639 -23.6588 -42.5464 -9.7562 -3.8965 62.3393
#
#
#
# Elastic Compliance Matrix: (Units=1/GPa)
#
#
# Indices 1 2 3 4 5 6 
#
# 1 0.015729 -0.002098 -0.002416 0.002674 0.004934 -0.001500
# 2 -0.002098 0.006887 -0.001403 -0.000574 0.000131 0.001545
# 3 -0.002416 -0.001403 0.005472 0.000175 0.002547 0.003355
# 4 0.002674 -0.000574 0.000175 0.018102 0.002426 0.002923
# 5 0.004934 0.000131 0.002547 0.002426 0.022751 0.003658
# 6 -0.001500 0.001545 0.003355 0.002923 0.003658 0.019583
#
#
# Mechanical properties :
#
#
# Convention : Reuss Voigt Hill
#
# Bulk Modulus (GPa) = 61.52398 101.47790 81.50094
# Shear Modulus (GPa) = 47.26949 58.99577 53.13263
#
# Velocity S-wave (km/s) = 4.05955 4.53522 4.30396
# Velocity P-wave (km/s) = 6.58961 7.92486 7.28788
#
# Compressibility (1/GPa) = 0.01625382
#
# Stress axis : x y z
#
# Youngs Moduli (GPa) = 63.57569 145.20163 182.75101
#
# Poissons Ratio (x) = 0.30461 0.44159
# Poissons Ratio (y) = 0.13337 0.25640
# Poissons Ratio (z) = 0.15362 0.20372
#
# Static dielectric constant tensor:
#      x y z
#    x 3.101510 -0.428500 0.274480 
#    y -0.428500 2.744590 -0.029050 
#    z 0.274480 -0.029050 2.317640 
# 
# From -- ./inp_files/510698.got.cif
#   From: 2010.05.17/outbox.cif.g08.bks.cpg/sg2_256_cif.got.tgz:510698.got - 2010.06.03 11:33:40.
