data_PCOD9036144
_publ_section_title
;
Structure prediction by ZEFSAII (Michael W. Deem and Ramdas Pophale) SiO2 
 PCOD9036144
Probable space group: P -1
;
_chemical_formula_sum "Si O2"
_cell_formula_units_Z 16
_cell_length_a 9.689399
_cell_length_b 8.241484
_cell_length_c 7.848625
_cell_angle_alpha 100.178271
_cell_angle_beta 95.454961
_cell_angle_gamma 66.817793
_cell_volume 566.854456
_symmetry_space_group_name_H-M "P -1"
_symmetry_group_IT_number 2
_symmetry_cell_setting 'triclinic'
loop_
_space_group_symop_operation_xyz
x,y,z
-x,-y,-z
loop_
_atom_site_type_symbol
_atom_site_label
_atom_site_fract_x
_atom_site_fract_y
_atom_site_fract_z
Si Si1 0.243884 0.999893 0.074039
Si Si2 0.923460 0.854747 0.323650
Si Si3 0.574643 0.713471 0.693517
Si Si4 0.308352 0.232284 0.910485
Si Si5 0.653421 0.092827 0.572621
Si Si6 0.486448 0.436653 0.794788
Si Si7 0.086685 0.813454 0.843480
Si Si8 0.139320 0.560057 0.509048
O O1 0.329591 0.998101 0.255907
O O2 0.078523 0.157493 0.104669
O O3 0.338838 0.025137 0.929991
O O4 0.200500 0.829992 0.001787
O O5 0.852382 0.732514 0.189145
O O6 0.804332 0.963398 0.473410
O O7 0.075397 0.726396 0.403346
O O8 0.940410 0.009497 0.239521
O O9 0.472378 0.869039 0.581037
O O10 0.463374 0.612955 0.714193
O O11 0.711854 0.592450 0.567669
O O12 0.659309 0.712161 0.885317
O O13 0.392886 0.310855 0.803376
O O14 0.622560 0.292085 0.675422
O O15 0.500000 0.500000 0.000000
O O16 0.156400 0.640274 0.707589
O O17 0.000000 0.500000 0.500000
#
# Coordination Sequence:
#
# PCOD9036144 Si02
#       8
#     2   2   2   2   2   2   2   2
#     4  10  23  43  75 112 147 196 255 312 370 444
#     4  11  26  47  79 111 146 204 257 315 373 455
#     4  11  27  47  75 111 156 199 249 311 389 451
#     4  10  25  49  70 112 151 198 254 316 374 442
#     4  12  26  45  77 113 145 200 259 307 378 455
#     4  10  25  47  71 106 159 200 242 311 386 449
#     4  10  22  47  76 107 153 196 254 311 376 452
#     4  12  26  47  78 115 153 198 251 319 383 452
#
# _framework density 28.225943999999998
#
# number of rings (size 3 to 8) (size 9 to 14) (size 15 to 20)
#    0.000    1.250    1.250    2.250    3.500    8.500 
#    2.250    0.000    0.000    0.000    0.000    0.000 
#    0.000    0.000    0.000    0.000    0.000    0.000 
#
# Total GULP energy -89401.477033 kJ/mol
# GULP energy per Si atom -5587.592315 kJ/mol
# Density = 2.816170 g / cm^3
# Si number density = 28.225944 Si / 1000 Ang^3
#
#
#
# Elastic Constant Matrix: (Units=GPa)
#
#
# Indices 1 2 3 4 5 6 
#
# 1 176.9891 56.4239 76.6596 -1.4315 6.6607 9.7568
# 2 56.4239 95.9610 45.8188 -32.3274 -9.6999 6.4270
# 3 76.6596 45.8188 194.5162 -9.5876 22.3581 -3.5576
# 4 -1.4315 -32.3274 -9.5876 59.0500 4.4535 -1.6184
# 5 6.6607 -9.6999 22.3581 4.4535 38.6924 5.3213
# 6 9.7568 6.4270 -3.5576 -1.6184 5.3213 53.8144
#
#
#
# Elastic Compliance Matrix: (Units=1/GPa)
#
#
# Indices 1 2 3 4 5 6 
#
# 1 0.008146 -0.004679 -0.002159 -0.002677 -0.000874 -0.001055
# 2 -0.004679 0.018242 -0.002761 0.008906 0.006205 -0.001859
# 3 -0.002159 -0.002761 0.007216 0.000009 -0.004720 0.001665
# 4 -0.002677 0.008906 0.000009 0.021735 0.000179 0.000058
# 5 -0.000874 0.006205 -0.004720 0.000179 0.030799 -0.003935
# 6 -0.001055 -0.001859 0.001665 0.000058 -0.003935 0.019497
#
#
# Mechanical properties :
#
#
# Convention : Reuss Voigt Hill
#
# Bulk Modulus (GPa) = 69.41514 91.69680 80.55597
# Shear Modulus (GPa) = 38.56967 49.54896 44.05931
#
# Velocity S-wave (km/s) = 3.70058 4.19434 3.95517
# Velocity P-wave (km/s) = 6.55020 7.48424 7.03275
#
# Compressibility (1/GPa) = 0.01440608
#
# Stress axis : x y z
#
# Youngs Moduli (GPa) = 122.75652 54.81746 138.58470
#
# Poissons Ratio (x) = 0.25647 0.29923
# Poissons Ratio (y) = 0.57433 0.38268
# Poissons Ratio (z) = 0.26505 0.15137
#
# Static dielectric constant tensor:
#      x y z
#    x 2.304670 0.010960 0.057650 
#    y 0.010960 2.323570 0.018970 
#    z 0.057650 0.018970 2.162310 
# 
# From -- ./inp_files/245011.got.cif
#   From: 2010.05.17/outbox.cif.g08.bks.cpg/sg2_123_cif.got.tgz:245011.got - 2010.06.03 11:33:40.
