data_PCOD9036249
_publ_section_title
;
Structure prediction by ZEFSAII (Michael W. Deem and Ramdas Pophale) SiO2 
 PCOD9036249
Probable space group: P -1
;
_chemical_formula_sum "Si O2"
_cell_formula_units_Z 13
_cell_length_a 8.752192
_cell_length_b 10.133469
_cell_length_c 9.151665
_cell_angle_alpha 133.100180
_cell_angle_beta 72.280110
_cell_angle_gamma 81.604075
_cell_volume 485.944776
_symmetry_space_group_name_H-M "P -1"
_symmetry_group_IT_number 2
_symmetry_cell_setting 'triclinic'
loop_
_space_group_symop_operation_xyz
x,y,z
-x,-y,-z
loop_
_atom_site_type_symbol
_atom_site_label
_atom_site_fract_x
_atom_site_fract_y
_atom_site_fract_z
Si Si1 0.157854 0.001588 0.553499
Si Si2 0.000000 0.500000 0.000000
Si Si3 0.499569 0.927577 0.230583
Si Si4 0.317785 0.409210 0.730623
Si Si5 0.464946 0.704450 0.802286
Si Si6 0.183025 0.008527 0.875832
Si Si7 0.108533 0.561506 0.629874
O O1 0.096690 0.244340 0.760074
O O2 0.371906 0.877303 0.337230
O O3 0.154670 0.934864 0.670463
O O4 0.000000 0.000000 0.500000
O O5 0.214221 0.464834 0.954882
O O6 0.431892 0.168260 0.474598
O O7 0.714918 0.855326 0.088188
O O8 0.441809 0.880132 0.055552
O O9 0.409582 0.546073 0.771441
O O10 0.125402 0.498991 0.752313
O O11 0.676015 0.568720 0.580744
O O12 0.676411 0.170837 0.192009
O O13 0.995335 0.187351 0.142833
O O14 0.000000 0.500000 0.500000
#
# Coordination Sequence:
#
# PCOD9036249 Si02
#       7
#     2   1   2   2   2   2   2
#     4  11  25  49  76 111 148 205 265 310 381 460
#     4  10  22  48  74 102 152 194 250 322 366 448
#     4  11  24  47  77 105 157 202 251 319 382 453
#     4  11  24  47  74 109 152 198 250 313 378 451
#     4  12  26  50  76 114 160 194 254 325 378 459
#     4  12  25  47  77 114 153 203 253 317 389 455
#     4  12  24  45  76 114 154 200 251 308 390 453
#
# _framework density 26.752008
#
# number of rings (size 3 to 8) (size 9 to 14) (size 15 to 20)
#    0.000    0.615    4.615    3.231    0.000    0.615 
#    5.538    1.538    0.000    9.231    0.000    0.000 
#    0.000    0.000    0.000    0.000    0.000    0.000 
#
# Total GULP energy -72539.149757 kJ/mol
# GULP energy per Si atom -5579.934597 kJ/mol
# Density = 2.669112 g / cm^3
# Si number density = 26.752008 Si / 1000 Ang^3
#
#
#
# Elastic Constant Matrix: (Units=GPa)
#
#
# Indices 1 2 3 4 5 6 
#
# 1 191.5130 40.4712 51.1426 -18.1214 -0.9138 -0.2000
# 2 40.4712 108.5548 25.0333 -3.8718 1.0230 3.6431
# 3 51.1426 25.0333 103.2130 -13.9140 -11.8388 -21.6424
# 4 -18.1214 -3.8718 -13.9140 33.9784 -1.0183 -7.6082
# 5 -0.9138 1.0230 -11.8388 -1.0183 65.9898 -14.8914
# 6 -0.2000 3.6431 -21.6424 -7.6082 -14.8914 38.5735
#
#
#
# Elastic Compliance Matrix: (Units=1/GPa)
#
#
# Indices 1 2 3 4 5 6 
#
# 1 0.006521 -0.001627 -0.002983 0.001732 -0.000713 -0.001420
# 2 -0.001627 0.010563 -0.002910 -0.001701 -0.001540 -0.003569
# 3 -0.002983 -0.002910 0.016474 0.008018 0.006117 0.013446
# 4 0.001732 -0.001701 0.008018 0.036715 0.005196 0.013916
# 5 -0.000713 -0.001540 0.006117 0.005196 0.019042 0.011950
# 6 -0.001420 -0.003569 0.013446 0.013916 0.011950 0.041156
#
#
# Mechanical properties :
#
#
# Convention : Reuss Voigt Hill
#
# Bulk Modulus (GPa) = 53.99876 70.73056 62.36466
# Shear Modulus (GPa) = 32.96323 46.81725 39.89024
#
# Velocity S-wave (km/s) = 3.51405 4.18789 3.86568
# Velocity P-wave (km/s) = 6.05751 7.06267 6.57932
#
# Compressibility (1/GPa) = 0.01851894
#
# Stress axis : x y z
#
# Youngs Moduli (GPa) = 153.35346 94.66773 60.70077
#
# Poissons Ratio (x) = 0.15404 0.18104
# Poissons Ratio (y) = 0.24954 0.17664
# Poissons Ratio (z) = 0.45738 0.27549
#
# Static dielectric constant tensor:
#      x y z
#    x 2.159240 -0.074860 0.011990 
#    y -0.074860 1.970660 0.191310 
#    z 0.011990 0.191310 1.847520 
# 
# From -- ./inp_files/162504.got.cif
#   From: 2010.05.17/outbox.cif.g08.bks.cpg/sg2_82_cif.got.tgz:162504.got - 2010.06.03 11:33:40.
