data_PCOD9036982
_publ_section_title
;
Structure prediction by ZEFSAII (Michael W. Deem and Ramdas Pophale) SiO2 
 PCOD9036982
Probable space group: P -1
;
_chemical_formula_sum "Si O2"
_cell_formula_units_Z 16
_cell_length_a 11.185052
_cell_length_b 8.257444
_cell_length_c 10.829528
_cell_angle_alpha 106.768729
_cell_angle_beta 122.323366
_cell_angle_gamma 65.814865
_cell_volume 767.901109
_symmetry_space_group_name_H-M "P -1"
_symmetry_group_IT_number 2
_symmetry_cell_setting 'triclinic'
loop_
_space_group_symop_operation_xyz
x,y,z
-x,-y,-z
loop_
_atom_site_type_symbol
_atom_site_label
_atom_site_fract_x
_atom_site_fract_y
_atom_site_fract_z
Si Si1 0.469172 0.198177 0.201036
Si Si2 0.682111 0.381876 0.792723
Si Si3 0.103302 0.235794 0.404309
Si Si4 0.628942 0.093878 0.015950
Si Si5 0.710755 0.168634 0.508866
Si Si6 0.436806 0.389546 0.842275
Si Si7 0.092799 0.824766 0.938256
Si Si8 0.815901 0.426792 0.437036
O O1 0.383156 0.406666 0.203509
O O2 0.597563 0.137405 0.151910
O O3 0.554062 0.155695 0.368362
O O4 0.354479 0.099196 0.071099
O O5 0.705697 0.279728 0.655100
O O6 0.550088 0.332892 0.779059
O O7 0.825930 0.321085 0.946756
O O8 0.189046 0.382199 0.465209
O O9 0.016384 0.224709 0.228292
O O10 0.982143 0.320515 0.462388
O O11 0.191600 0.035480 0.453689
O O12 0.770393 0.144069 0.056872
O O13 0.466648 0.207027 0.891905
O O14 0.761242 0.292087 0.462474
O O15 0.283242 0.508428 0.727235
O O16 0.500000 0.500000 0.000000
O O17 0.000000 0.000000 0.000000
#
# Coordination Sequence:
#
# PCOD9036982 Si02
#       8
#     2   2   2   2   2   2   2   2
#     4  11  22  41  65 101 124 161 217 275 327 383
#     4  11  23  40  66  92 125 167 210 266 327 380
#     4  11  25  44  65  94 129 175 220 257 315 394
#     4  10  23  39  67  96 123 167 220 268 323 377
#     4  12  23  44  64  94 139 163 205 273 333 384
#     4  11  19  40  67  92 125 167 212 266 317 374
#     4  11  23  46  63  89 131 174 217 261 318 390
#     4  11  24  41  68  98 125 173 217 261 325 387
#
# _framework density 20.836016999999998
#
# number of rings (size 3 to 8) (size 9 to 14) (size 15 to 20)
#    0.000    1.000    3.750    3.750    0.000    1.000 
#    4.500    3.125    0.000    0.000    0.000    0.000 
#    0.000    0.000    0.000    0.000    0.000    0.000 
#
# Total GULP energy -89233.181706 kJ/mol
# GULP energy per Si atom -5577.073857 kJ/mol
# Density = 2.078859 g / cm^3
# Si number density = 20.836017 Si / 1000 Ang^3
#
#
#
# Elastic Constant Matrix: (Units=GPa)
#
#
# Indices 1 2 3 4 5 6 
#
# 1 26.1331 22.6138 22.9448 4.8879 -2.6134 -1.4137
# 2 22.6138 135.4319 79.0033 3.7714 -0.3050 -6.6639
# 3 22.9448 79.0033 154.7925 4.9561 3.5996 9.2904
# 4 4.8879 3.7714 4.9561 42.4762 -1.2640 4.5168
# 5 -2.6134 -0.3050 3.5996 -1.2640 21.1873 -1.8354
# 6 -1.4137 -6.6639 9.2904 4.5168 -1.8354 18.3323
#
#
#
# Elastic Compliance Matrix: (Units=1/GPa)
#
#
# Indices 1 2 3 4 5 6 
#
# 1 0.048941 -0.004568 -0.005334 -0.005113 0.007161 0.006793
# 2 -0.004568 0.011938 -0.005858 -0.000583 0.001194 0.007219
# 3 -0.005334 -0.005858 0.010806 0.000681 -0.003275 -0.008513
# 4 -0.005113 -0.000583 0.000681 0.024858 0.000116 -0.007064
# 5 0.007161 0.001194 -0.003275 0.000116 0.049316 0.007555
# 6 0.006793 0.007219 -0.008513 -0.007064 0.007555 0.064508
#
#
# Mechanical properties :
#
#
# Convention : Reuss Voigt Hill
#
# Bulk Modulus (GPa) = 24.89680 62.83127 43.86404
# Shear Modulus (GPa) = 19.58666 29.18553 24.38610
#
# Velocity S-wave (km/s) = 3.06933 3.74669 3.42480
# Velocity P-wave (km/s) = 4.95337 6.99553 6.06108
#
# Compressibility (1/GPa) = 0.04016581
#
# Stress axis : x y z
#
# Youngs Moduli (GPa) = 20.43262 83.76584 92.54007
#
# Poissons Ratio (x) = 0.38263 0.49359
# Poissons Ratio (y) = 0.09333 0.54213
# Poissons Ratio (z) = 0.10898 0.49072
#
# Static dielectric constant tensor:
#      x y z
#    x 1.766270 0.046360 0.008410 
#    y 0.046360 2.108780 0.013360 
#    z 0.008410 0.013360 1.766920 
# 
# From -- ./inp_files/418282.got.cif
#   From: 2010.05.17/outbox.cif.g08.bks.cpg/sg2_210_cif.got.tgz:418282.got - 2010.06.03 11:33:40.
