data_PCOD9036173
_publ_section_title
;
Structure prediction by ZEFSAII (Michael W. Deem and Ramdas Pophale) SiO2 
 PCOD9036173
Probable space group: P -1
;
_chemical_formula_sum "Si O2"
_cell_formula_units_Z 14
_cell_length_a 9.822947
_cell_length_b 7.672655
_cell_length_c 12.269607
_cell_angle_alpha 47.823357
_cell_angle_beta 130.610952
_cell_angle_gamma 121.769953
_cell_volume 513.624065
_symmetry_space_group_name_H-M "P -1"
_symmetry_group_IT_number 2
_symmetry_cell_setting 'triclinic'
loop_
_space_group_symop_operation_xyz
x,y,z
-x,-y,-z
loop_
_atom_site_type_symbol
_atom_site_label
_atom_site_fract_x
_atom_site_fract_y
_atom_site_fract_z
Si Si1 0.377411 0.761784 0.433042
Si Si2 0.911365 0.557904 0.042584
Si Si3 0.509959 0.719602 0.279894
Si Si4 0.441190 0.254147 0.179623
Si Si5 0.787961 0.032009 0.009586
Si Si6 0.036519 0.781778 0.388813
Si Si7 0.208217 0.825748 0.687373
O O1 0.393034 0.679005 0.349672
O O2 0.432295 0.530675 0.618487
O O3 0.191006 0.814454 0.363254
O O4 0.485385 0.030541 0.368958
O O5 0.911762 0.345293 0.217840
O O6 0.634757 0.178512 0.914119
O O7 0.705908 0.607739 0.901836
O O8 0.048272 0.800358 0.037498
O O9 0.326061 0.141205 0.062997
O O10 0.678225 0.929111 0.307913
O O11 0.641968 0.341635 0.202625
O O12 0.872654 0.894631 0.206412
O O13 0.000000 0.500000 0.000000
O O14 0.100581 0.879293 0.500434
O O15 0.000000 0.500000 0.500000
#
# Coordination Sequence:
#
# PCOD9036173 Si02
#       7
#     2   2   2   2   2   2   2
#     4   9  20  43  73 100 140 193 247 288 361 429
#     4  12  25  44  71 113 148 182 239 310 370 420
#     4   9  22  46  77 101 141 195 249 295 352 430
#     4  10  22  47  80  97 143 200 252 281 359 445
#     4  10  23  46  73 104 142 191 241 295 363 430
#     4  12  25  41  71 112 146 188 238 299 365 430
#     4  10  25  45  73 107 148 188 244 299 358 440
#
# _framework density 27.257290000000001
#
# number of rings (size 3 to 8) (size 9 to 14) (size 15 to 20)
#    0.000    2.000    1.429    1.714    6.000    5.714 
#   10.286    5.000    0.000    0.000    0.000    0.000 
#    0.000    0.000    0.000    0.000    0.000    0.000 
#
# Total GULP energy -78357.962268 kJ/mol
# GULP energy per Si atom -5596.997305 kJ/mol
# Density = 2.719525 g / cm^3
# Si number density = 27.257290 Si / 1000 Ang^3
#
#
#
# Elastic Constant Matrix: (Units=GPa)
#
#
# Indices 1 2 3 4 5 6 
#
# 1 124.9493 23.1002 59.4399 2.3806 -11.3754 -13.8147
# 2 23.1002 119.1679 87.2165 -5.3334 0.5647 -2.4994
# 3 59.4399 87.2165 236.9287 5.1434 20.8328 3.6819
# 4 2.3806 -5.3334 5.1434 54.9363 -0.3572 2.4428
# 5 -11.3754 0.5647 20.8328 -0.3572 51.0122 -16.5832
# 6 -13.8147 -2.4994 3.6819 2.4428 -16.5832 42.3966
#
#
#
# Elastic Compliance Matrix: (Units=1/GPa)
#
#
# Indices 1 2 3 4 5 6 
#
# 1 0.010790 0.000571 -0.003519 -0.000318 0.005836 0.006156
# 2 0.000571 0.011927 -0.004842 0.001502 0.002728 0.002290
# 3 -0.003519 -0.004842 0.007412 -0.000866 -0.005067 -0.004008
# 4 -0.000318 0.001502 -0.000866 0.018488 0.000079 -0.000974
# 5 0.005836 0.002728 -0.005067 0.000079 0.027217 0.013144
# 6 0.006156 0.002290 -0.004008 -0.000974 0.013144 0.031273
#
#
# Mechanical properties :
#
#
# Convention : Reuss Voigt Hill
#
# Bulk Modulus (GPa) = 68.72980 91.17323 79.95151
# Shear Modulus (GPa) = 39.20485 50.42164 44.81325
#
# Velocity S-wave (km/s) = 3.79664 4.30564 4.05913
# Velocity P-wave (km/s) = 6.67003 7.63150 7.16691
#
# Compressibility (1/GPa) = 0.01454973
#
# Stress axis : x y z
#
# Youngs Moduli (GPa) = 92.68121 83.84567 134.90812
#
# Poissons Ratio (x) = -0.04789 0.47474
# Poissons Ratio (y) = -0.05294 0.65318
# Poissons Ratio (z) = 0.32615 0.40595
#
# Static dielectric constant tensor:
#      x y z
#    x 2.242640 -0.051590 -0.077830 
#    y -0.051590 2.209030 -0.033460 
#    z -0.077830 -0.033460 2.240810 
# 
# From -- ./inp_files/512669.got.cif
#   From: 2010.05.17/outbox.cif.g08.bks.cpg/sg2_257_cif.got.tgz:512669.got - 2010.06.03 11:33:40.
