data_PCOD9036894
_publ_section_title
;
Structure prediction by ZEFSAII (Michael W. Deem and Ramdas Pophale) SiO2 
 PCOD9036894
Probable space group: P -1
;
_chemical_formula_sum "Si O2"
_cell_formula_units_Z 16
_cell_length_a 8.534037
_cell_length_b 5.069727
_cell_length_c 27.090646
_cell_angle_alpha 81.766396
_cell_angle_beta 33.182859
_cell_angle_gamma 86.652840
_cell_volume 630.782602
_symmetry_space_group_name_H-M "P -1"
_symmetry_group_IT_number 2
_symmetry_cell_setting 'triclinic'
loop_
_space_group_symop_operation_xyz
x,y,z
-x,-y,-z
loop_
_atom_site_type_symbol
_atom_site_label
_atom_site_fract_x
_atom_site_fract_y
_atom_site_fract_z
Si Si1 0.714274 0.059508 0.740284
Si Si2 0.456195 0.622394 0.641196
Si Si3 0.872206 0.940084 0.231665
Si Si4 0.745073 0.224607 0.411210
Si Si5 0.461957 0.796536 0.117876
Si Si6 0.179235 0.488160 0.369904
Si Si7 0.189115 0.644762 0.990936
Si Si8 0.735781 0.306330 0.174477
O O1 0.650202 0.266053 0.794639
O O2 0.771501 0.199286 0.667820
O O3 0.428648 0.850522 0.823276
O O4 0.995467 0.913491 0.679112
O O5 0.268178 0.363888 0.719977
O O6 0.404476 0.610801 0.596101
O O7 0.768466 0.602303 0.585099
O O8 0.323949 0.887709 0.687178
O O9 0.197590 0.930309 0.161701
O O10 0.870678 0.082617 0.175902
O O11 0.901103 0.373763 0.413854
O O12 0.500000 0.000000 0.500000
O O13 0.540774 0.531797 0.076917
O O14 0.722006 0.038137 0.040821
O O15 0.458827 0.384891 0.274015
O O16 0.000000 0.500000 0.000000
O O17 0.973676 0.551033 0.094876
#
# Coordination Sequence:
#
# PCOD9036894 Si02
#       8
#     2   2   2   2   2   2   2   2
#     4  11  21  43  68  94 127 183 229 271 341 420
#     4  11  23  45  72 103 137 185 229 279 343 418
#     4  11  23  43  68  98 133 184 231 277 342 406
#     4  11  26  45  70 107 139 174 226 290 347 415
#     4  12  25  38  66  93 134 179 230 282 341 400
#     4  10  23  43  73  97 137 185 232 274 348 418
#     4  12  25  39  60  98 133 176 231 287 338 391
#     4  10  23  39  65  92 135 175 228 282 330 399
#
# _framework density 25.365317000000001
#
# number of rings (size 3 to 8) (size 9 to 14) (size 15 to 20)
#    0.000    1.000    3.750    2.625    3.500    2.000 
#    0.000    0.625    0.000    0.000    0.000    0.000 
#    0.000    0.000    0.000    0.000    0.000    0.000 
#
# Total GULP energy -89435.426189 kJ/mol
# GULP energy per Si atom -5589.714137 kJ/mol
# Density = 2.530758 g / cm^3
# Si number density = 25.365317 Si / 1000 Ang^3
#
#
#
# Elastic Constant Matrix: (Units=GPa)
#
#
# Indices 1 2 3 4 5 6 
#
# 1 160.7816 28.8965 48.1337 -18.8614 -4.9241 -20.8472
# 2 28.8965 84.4639 24.0022 -9.4578 10.2130 10.8915
# 3 48.1337 24.0022 57.8815 11.9030 -62.6074 -34.5267
# 4 -18.8614 -9.4578 11.9030 47.0826 27.3403 17.7840
# 5 -4.9241 10.2130 -62.6074 27.3403 -126.0886 -107.8879
# 6 -20.8472 10.8915 -34.5267 17.7840 -107.8879 -30.9030
#
#
#
# Elastic Compliance Matrix: (Units=1/GPa)
#
#
# Indices 1 2 3 4 5 6 
#
# 1 0.009272 -0.001610 -0.005871 0.003580 -0.000836 0.004715
# 2 -0.001610 0.012741 -0.001722 0.001055 0.002394 -0.000252
# 3 -0.005871 -0.001722 0.016359 -0.002651 -0.002751 -0.006845
# 4 0.003580 0.001055 -0.002651 0.020656 0.002625 0.003641
# 5 -0.000836 0.002394 -0.002751 0.002625 0.005483 -0.013151
# 6 0.004715 -0.000252 -0.006845 0.003641 -0.013151 0.020025
#
#
# Mechanical properties :
#
#
# Convention : Reuss Voigt Hill
#
# Bulk Modulus (GPa) = 50.08316 56.13244 53.10780
# Shear Modulus (GPa) = 45.62190 -8.50884 18.55653
#
# Velocity S-wave (km/s) = 4.24558 -1.83352 2.70769
# Velocity P-wave (km/s) = 6.61974 4.20657 5.54600
#
# Compressibility (1/GPa) = 0.01996679
#
# Stress axis : x y z
#
# Youngs Moduli (GPa) = 107.84864 78.48921 61.12779
#
# Poissons Ratio (x) = 0.12637 0.35887
# Poissons Ratio (y) = 0.17364 0.10525
# Poissons Ratio (z) = 0.63315 0.13515
#
# Static dielectric constant tensor:
#      x y z
#    x 2.186860 0.044990 0.037210 
#    y 0.044990 1.997020 0.015680 
#    z 0.037210 0.015680 1.989120 
# 
# From -- ./inp_files/37607.got.cif
#   From: 2010.05.17/outbox.cif.g08.bks.cpg/sg2_19_cif.got.tgz:37607.got - 2010.06.03 11:33:40.
