data_PCOD9036548
_publ_section_title
;
Structure prediction by ZEFSAII (Michael W. Deem and Ramdas Pophale) SiO2 
 PCOD9036548
Probable space group: P -1
;
_chemical_formula_sum "Si O2"
_cell_formula_units_Z 16
_cell_length_a 11.459201
_cell_length_b 12.645764
_cell_length_c 11.980594
_cell_angle_alpha 60.714477
_cell_angle_beta 81.902589
_cell_angle_gamma 133.872259
_cell_volume 705.324512
_symmetry_space_group_name_H-M "P -1"
_symmetry_group_IT_number 2
_symmetry_cell_setting 'triclinic'
loop_
_space_group_symop_operation_xyz
x,y,z
-x,-y,-z
loop_
_atom_site_type_symbol
_atom_site_label
_atom_site_fract_x
_atom_site_fract_y
_atom_site_fract_z
Si Si1 0.238059 0.142414 0.276725
Si Si2 0.459909 0.196258 0.657615
Si Si3 0.709638 0.612628 0.663943
Si Si4 0.512093 0.234015 0.038098
Si Si5 0.003376 0.632465 0.371136
Si Si6 0.007489 0.970851 0.849928
Si Si7 0.660184 0.562329 0.295368
Si Si8 0.280757 0.814614 0.029603
O O1 0.289635 0.279909 0.298970
O O2 0.476679 0.286243 0.124173
O O3 0.000876 0.843319 0.495301
O O4 0.116824 0.109759 0.208879
O O5 0.238398 0.088432 0.765077
O O6 0.543864 0.324539 0.456843
O O7 0.741454 0.454394 0.535323
O O8 0.355938 0.976845 0.837885
O O9 0.570224 0.550314 0.611669
O O10 0.552275 0.358346 0.863325
O O11 0.243386 0.925888 0.224230
O O12 0.721550 0.320133 0.957441
O O13 0.048856 0.648204 0.223634
O O14 0.000000 0.500000 0.500000
O O15 0.118106 0.193586 0.776731
O O16 0.793853 0.712519 0.084428
O O17 0.500000 0.000000 0.000000
#
# Coordination Sequence:
#
# PCOD9036548 Si02
#       8
#     2   2   2   2   2   2   2   2
#     4  11  24  44  65  99 129 180 214 266 321 391
#     4  12  22  38  59  88 135 165 208 260 326 390
#     4  11  25  41  67  96 134 171 227 257 321 389
#     4  11  23  38  66  91 128 167 220 269 312 381
#     4  11  23  38  60  96 130 170 214 269 324 378
#     4  11  24  38  61  96 136 166 212 262 343 377
#     4  11  24  37  60  99 131 172 202 274 328 387
#     4  10  23  38  59  92 124 171 214 264 323 373
#
# _framework density 22.684593
#
# number of rings (size 3 to 8) (size 9 to 14) (size 15 to 20)
#    0.000    1.000    5.000    2.250    8.750    0.000 
#    0.000    0.000    0.000    1.500    0.000    0.000 
#    0.000    0.000    0.000    0.000    0.000    0.000 
#
# Total GULP energy -89185.483466 kJ/mol
# GULP energy per Si atom -5574.092717 kJ/mol
# Density = 2.263296 g / cm^3
# Si number density = 22.684593 Si / 1000 Ang^3
#
#
#
# Elastic Constant Matrix: (Units=GPa)
#
#
# Indices 1 2 3 4 5 6 
#
# 1 80.2150 9.7120 34.7214 -1.4584 5.6366 -11.9962
# 2 9.7120 49.4561 11.1818 1.7398 -0.6939 1.1129
# 3 34.7214 11.1818 147.6182 -3.6237 20.5819 -5.0759
# 4 -1.4584 1.7398 -3.6237 24.4288 -5.8014 -5.1690
# 5 5.6366 -0.6939 20.5819 -5.8014 62.9358 4.6699
# 6 -11.9962 1.1129 -5.0759 -5.1690 4.6699 22.7622
#
#
#
# Elastic Compliance Matrix: (Units=1/GPa)
#
#
# Indices 1 2 3 4 5 6 
#
# 1 0.015405 -0.002630 -0.002968 0.002214 -0.000847 0.008262
# 2 -0.002630 0.021202 -0.001293 -0.002366 0.000929 -0.003439
# 3 -0.002968 -0.001293 0.007947 0.000731 -0.002348 0.000919
# 4 0.002214 -0.002366 0.000731 0.044325 0.002811 0.010934
# 5 -0.000847 0.000929 -0.002348 0.002811 0.017294 -0.003925
# 6 0.008262 -0.003439 0.000919 0.010934 -0.003925 0.051948
#
#
# Mechanical properties :
#
#
# Convention : Reuss Voigt Hill
#
# Bulk Modulus (GPa) = 32.49629 43.16885 37.83257
# Shear Modulus (GPa) = 27.44821 36.80364 32.12592
#
# Velocity S-wave (km/s) = 3.48227 4.03228 3.76733
# Velocity P-wave (km/s) = 5.52491 6.38360 5.96972
#
# Compressibility (1/GPa) = 0.03077274
#
# Stress axis : x y z
#
# Youngs Moduli (GPa) = 64.91470 47.16431 125.83094
#
# Poissons Ratio (x) = 0.12404 0.37342
# Poissons Ratio (y) = 0.17072 0.16275
# Poissons Ratio (z) = 0.19264 0.06100
#
# Static dielectric constant tensor:
#      x y z
#    x 1.894000 -0.043130 -0.034770 
#    y -0.043130 1.883960 0.028260 
#    z -0.034770 0.028260 1.905510 
# 
# From -- ./inp_files/427803.got.cif
#   From: 2010.05.17/outbox.cif.g08.bks.cpg/sg2_214_cif.got.tgz:427803.got - 2010.06.03 11:33:40.
