data_PCOD9036496
_publ_section_title
;
Structure prediction by ZEFSAII (Michael W. Deem and Ramdas Pophale) SiO2 
 PCOD9036496
Probable space group: P -1
;
_chemical_formula_sum "Si O2"
_cell_formula_units_Z 15
_cell_length_a 8.213141
_cell_length_b 9.748667
_cell_length_c 11.191301
_cell_angle_alpha 114.186868
_cell_angle_beta 50.550421
_cell_angle_gamma 111.022156
_cell_volume 624.990668
_symmetry_space_group_name_H-M "P -1"
_symmetry_group_IT_number 2
_symmetry_cell_setting 'triclinic'
loop_
_space_group_symop_operation_xyz
x,y,z
-x,-y,-z
loop_
_atom_site_type_symbol
_atom_site_label
_atom_site_fract_x
_atom_site_fract_y
_atom_site_fract_z
Si Si1 0.294220 0.411464 0.717372
Si Si2 0.475000 0.362493 0.870616
Si Si3 0.919354 0.272844 0.680365
Si Si4 0.253148 0.940695 0.109712
Si Si5 0.571721 0.899931 0.537807
Si Si6 0.731724 0.256393 0.194014
Si Si7 0.107057 0.146735 0.076163
Si Si8 0.000000 0.000000 0.500000
O O1 0.337142 0.403204 0.836204
O O2 0.415148 0.272970 0.570380
O O3 0.362286 0.586253 0.712788
O O4 0.060388 0.372392 0.749399
O O5 0.719941 0.331458 0.732361
O O6 0.500000 0.500000 0.000000
O O7 0.335263 0.217405 0.944150
O O8 0.826723 0.114390 0.741228
O O9 0.069611 0.190723 0.497582
O O10 0.134173 0.075542 0.166205
O O11 0.214964 0.799748 0.983838
O O12 0.500000 0.000000 0.000000
O O13 0.420476 0.876586 0.715420
O O14 0.799687 0.982549 0.495260
O O15 0.500000 0.000000 0.500000
O O16 0.948456 0.269691 0.175244
O O17 0.000000 0.000000 0.000000
#
# Coordination Sequence:
#
# PCOD9036496 Si02
#       8
#     2   2   2   2   2   2   2   1
#     4  11  25  43  67  98 137 181 218 280 341 406
#     4  12  24  42  68  98 138 178 227 273 348 412
#     4  11  23  42  67  99 138 175 228 273 341 401
#     4  11  21  37  65  96 133 171 219 284 332 386
#     4  11  25  44  72  95 130 180 226 277 336 405
#     4  11  24  43  64  96 135 171 223 275 341 401
#     4  10  23  37  64  96 130 171 221 279 329 402
#     4  10  24  42  66  98 128 172 224 276 322 400
#
# _framework density 24.000359
#
# number of rings (size 3 to 8) (size 9 to 14) (size 15 to 20)
#    0.000    1.067    1.333    5.200    9.333    1.600 
#    0.000    0.000    0.000    5.600    0.000    0.000 
#    0.000    0.000    0.000    0.000    0.000    0.000 
#
# Total GULP energy -83577.762892 kJ/mol
# GULP energy per Si atom -5571.850859 kJ/mol
# Density = 2.394573 g / cm^3
# Si number density = 24.000359 Si / 1000 Ang^3
#
#
#
# Elastic Constant Matrix: (Units=GPa)
#
#
# Indices 1 2 3 4 5 6 
#
# 1 141.8097 45.4485 25.3003 5.6362 -3.4015 -0.6654
# 2 45.4485 130.2805 31.4107 9.2391 13.6898 -18.7450
# 3 25.3003 31.4107 58.4073 1.0473 13.3928 -4.1306
# 4 5.6362 9.2391 1.0473 43.3302 -2.5463 -4.4624
# 5 -3.4015 13.6898 13.3928 -2.5463 36.3270 4.7614
# 6 -0.6654 -18.7450 -4.1306 -4.4624 4.7614 47.8006
#
#
#
# Elastic Compliance Matrix: (Units=1/GPa)
#
#
# Indices 1 2 3 4 5 6 
#
# 1 0.008573 -0.002787 -0.003043 -0.000426 0.003153 -0.001590
# 2 -0.002787 0.010518 -0.003301 -0.001601 -0.003646 0.004014
# 3 -0.003043 -0.003301 0.021975 0.000275 -0.007296 0.001315
# 4 -0.000426 -0.001601 0.000275 0.023728 0.001940 0.001412
# 5 0.003153 -0.003646 -0.007296 0.001940 0.032690 -0.005092
# 6 -0.001590 0.004014 0.001315 0.001412 -0.005092 0.023225
#
#
# Mechanical properties :
#
#
# Convention : Reuss Voigt Hill
#
# Bulk Modulus (GPa) = 43.84872 59.42408 51.63640
# Shear Modulus (GPa) = 34.11305 40.71409 37.41357
#
# Velocity S-wave (km/s) = 3.77418 4.12320 3.95254
# Velocity P-wave (km/s) = 6.10756 6.89065 6.51089
#
# Compressibility (1/GPa) = 0.02280568
#
# Stress axis : x y z
#
# Youngs Moduli (GPa) = 116.64722 95.07435 45.50622
#
# Poissons Ratio (x) = 0.26498 0.13846
# Poissons Ratio (y) = 0.32510 0.15019
# Poissons Ratio (z) = 0.35491 0.31379
#
# Static dielectric constant tensor:
#      x y z
#    x 1.975210 -0.051810 -0.076280 
#    y -0.051810 1.875350 -0.211070 
#    z -0.076280 -0.211070 1.145100 
# 
# From -- ./inp_files/379816.got.cif
#   From: 2010.05.17/outbox.cif.g08.bks.cpg/sg2_190_cif.got.tgz:379816.got - 2010.06.03 11:33:40.
