data_PCOD9036600
_publ_section_title
;
Structure prediction by ZEFSAII (Michael W. Deem and Ramdas Pophale) SiO2 
 PCOD9036600
Probable space group: P -1
;
_chemical_formula_sum "Si O2"
_cell_formula_units_Z 16
_cell_length_a 8.629697
_cell_length_b 14.603537
_cell_length_c 9.677511
_cell_angle_alpha 62.901937
_cell_angle_beta 94.889107
_cell_angle_gamma 139.142582
_cell_volume 635.969899
_symmetry_space_group_name_H-M "P -1"
_symmetry_group_IT_number 2
_symmetry_cell_setting 'triclinic'
loop_
_space_group_symop_operation_xyz
x,y,z
-x,-y,-z
loop_
_atom_site_type_symbol
_atom_site_label
_atom_site_fract_x
_atom_site_fract_y
_atom_site_fract_z
Si Si1 0.921301 0.072934 0.738202
Si Si2 0.199938 0.321689 0.149695
Si Si3 0.949366 0.742298 0.122759
Si Si4 0.611530 0.633122 0.596700
Si Si5 0.451842 0.095157 0.423682
Si Si6 0.971194 0.552700 0.824911
Si Si7 0.813163 0.347977 0.707144
Si Si8 0.314354 0.113911 0.675521
O O1 0.896816 0.099133 0.872824
O O2 0.141148 0.266738 0.549304
O O3 0.053633 0.031219 0.770729
O O4 0.673354 0.943833 0.706548
O O5 0.256905 0.271169 0.310878
O O6 0.100761 0.371135 0.186031
O O7 0.500000 0.500000 0.000000
O O8 0.036919 0.224560 0.061637
O O9 0.637244 0.573504 0.258663
O O10 0.056395 0.685470 0.198665
O O11 0.525056 0.693865 0.481796
O O12 0.739306 0.297407 0.323404
O O13 0.277472 0.036594 0.580524
O O14 0.500000 0.000000 0.500000
O O15 0.777319 0.405280 0.795350
O O16 0.000000 0.500000 0.000000
O O17 0.526564 0.167946 0.745869
O O18 0.000000 0.500000 0.500000
#
# Coordination Sequence:
#
# PCOD9036600 Si02
#       8
#     2   2   2   2   2   2   2   2
#     4  10  23  38  65  93 132 170 222 268 328 390
#     4  10  23  38  62  95 134 170 214 273 332 394
#     4  11  20  38  59 100 130 173 223 273 330 387
#     4   9  20  36  64  96 130 171 218 277 324 387
#     4  12  24  43  68  99 136 178 222 274 336 402
#     4  12  26  45  68 101 135 178 222 276 341 391
#     4  12  21  37  67  98 133 167 228 281 323 391
#     4  10  23  38  66 100 129 173 223 280 325 388
#
# _framework density 25.158422999999999
#
# number of rings (size 3 to 8) (size 9 to 14) (size 15 to 20)
#    0.750    0.500    3.750    2.250    7.000    0.000 
#    0.000    0.625    2.750    1.500    0.000    0.000 
#    0.000    0.000    0.000    0.000    0.000    0.000 
#
# Total GULP energy -89475.794104 kJ/mol
# GULP energy per Si atom -5592.237131 kJ/mol
# Density = 2.510116 g / cm^3
# Si number density = 25.158423 Si / 1000 Ang^3
#
#
#
# Elastic Constant Matrix: (Units=GPa)
#
#
# Indices 1 2 3 4 5 6 
#
# 1 88.1885 15.6134 8.9605 15.0399 2.8016 -0.8227
# 2 15.6134 95.5975 1.4196 44.0078 -7.1880 13.0240
# 3 8.9605 1.4196 92.3246 26.9883 3.5343 -2.2973
# 4 15.0399 44.0078 26.9883 53.7784 -0.8164 -4.0739
# 5 2.8016 -7.1880 3.5343 -0.8164 39.0432 8.5661
# 6 -0.8227 13.0240 -2.2973 -4.0739 8.5661 47.3127
#
#
#
# Elastic Compliance Matrix: (Units=1/GPa)
#
#
# Indices 1 2 3 4 5 6 
#
# 1 0.011998 -0.001087 -0.000440 -0.002225 -0.001179 0.000508
# 2 -0.001087 0.021554 0.005398 -0.020601 0.004961 -0.008362
# 3 -0.000440 0.005398 0.014117 -0.011515 -0.000103 -0.001781
# 4 -0.002225 -0.020601 -0.011515 0.042510 -0.003768 0.009416
# 5 -0.001179 0.004961 -0.000103 -0.003768 0.028031 -0.006791
# 6 0.000508 -0.008362 -0.001781 0.009416 -0.006791 0.025400
#
#
# Mechanical properties :
#
#
# Convention : Reuss Voigt Hill
#
# Bulk Modulus (GPa) = 18.04660 36.45531 27.25095
# Shear Modulus (GPa) = 32.39659 44.70133 38.54896
#
# Velocity S-wave (km/s) = 3.59235 4.21978 3.91864
# Velocity P-wave (km/s) = 4.93917 6.18577 5.59728
#
# Compressibility (1/GPa) = 0.05541211
#
# Stress axis : x y z
#
# Youngs Moduli (GPa) = 83.34675 46.39580 70.83781
#
# Poissons Ratio (x) = 0.05042 0.03114
# Poissons Ratio (y) = 0.09058 -0.38239
# Poissons Ratio (z) = 0.03664 -0.25045
#
# Static dielectric constant tensor:
#      x y z
#    x 1.930340 0.102800 -0.075800 
#    y 0.102800 2.643010 -0.381870 
#    z -0.075800 -0.381870 2.278480 
# 
# From -- ./inp_files/206959.got.cif
#   From: 2010.05.17/outbox.cif.g08.bks.cpg/sg2_104_cif.got.tgz:206959.got - 2010.06.03 11:33:40.
