data_PCOD9036457
_publ_section_title
;
Structure prediction by ZEFSAII (Michael W. Deem and Ramdas Pophale) SiO2 
 PCOD9036457
Probable space group: P -1
;
_chemical_formula_sum "Si O2"
_cell_formula_units_Z 16
_cell_length_a 12.308487
_cell_length_b 15.347306
_cell_length_c 8.881926
_cell_angle_alpha 79.772665
_cell_angle_beta 89.786706
_cell_angle_gamma 31.300387
_cell_volume 821.094908
_symmetry_space_group_name_H-M "P -1"
_symmetry_group_IT_number 2
_symmetry_cell_setting 'triclinic'
loop_
_space_group_symop_operation_xyz
x,y,z
-x,-y,-z
loop_
_atom_site_type_symbol
_atom_site_label
_atom_site_fract_x
_atom_site_fract_y
_atom_site_fract_z
Si Si1 0.168683 0.057627 0.736337
Si Si2 0.741318 0.827729 0.483230
Si Si3 0.294995 0.079927 0.004324
Si Si4 0.895102 0.482398 0.946299
Si Si5 0.810536 0.481985 0.266215
Si Si6 0.510784 0.728436 0.651477
Si Si7 0.313734 0.560851 0.450353
Si Si8 0.541227 0.818895 0.327748
O O1 0.221145 0.107352 0.621309
O O2 0.906441 0.238432 0.675695
O O3 0.296366 0.886367 0.709421
O O4 0.265593 0.018941 0.908611
O O5 0.727957 0.757334 0.387220
O O6 0.939141 0.673166 0.643139
O O7 0.500000 0.000000 0.500000
O O8 0.339661 0.009773 0.191276
O O9 0.083342 0.290327 0.930506
O O10 0.500000 0.000000 0.000000
O O11 0.703981 0.632792 0.781484
O O12 0.804096 0.487869 0.084451
O O13 0.000000 0.500000 0.000000
O O14 0.746086 0.446456 0.388616
O O15 0.649483 0.673786 0.258511
O O16 0.595788 0.575958 0.627605
O O17 0.474089 0.815364 0.479204
O O18 0.500000 0.500000 0.500000
#
# Coordination Sequence:
#
# PCOD9036457 Si02
#       8
#     2   2   2   2   2   2   2   2
#     4  11  22  38  62  91 129 165 210 259 319 381
#     4  11  19  32  54  88 126 167 202 244 308 389
#     4  12  23  36  56  93 135 177 207 250 306 386
#     4  12  24  38  59  96 139 176 207 248 313 396
#     4  10  23  37  60  88 126 168 214 263 315 377
#     4  11  23  41  65  94 125 168 213 265 320 388
#     4  10  24  47  69  92 121 164 226 285 327 361
#     4  11  21  35  56  87 130 168 209 244 311 386
#
# _framework density 19.486174999999999
#
# number of rings (size 3 to 8) (size 9 to 14) (size 15 to 20)
#    0.000    1.000    3.750    4.125    1.750    0.500 
#    0.000    0.625    0.000    3.750    0.000    0.000 
#    0.000    0.000    0.000    0.000    0.000    0.000 
#
# Total GULP energy -89348.007206 kJ/mol
# GULP energy per Si atom -5584.250450 kJ/mol
# Density = 1.944182 g / cm^3
# Si number density = 19.486175 Si / 1000 Ang^3
#
#
#
# Elastic Constant Matrix: (Units=GPa)
#
#
# Indices 1 2 3 4 5 6 
#
# 1 72.2245 30.4595 20.2861 1.4657 19.1991 -14.5373
# 2 30.4595 109.3804 27.4834 3.4845 9.3455 -4.3648
# 3 20.2861 27.4834 96.6500 -3.1341 10.5568 -5.6365
# 4 1.4657 3.4845 -3.1341 34.2855 0.6874 4.2373
# 5 19.1991 9.3455 10.5568 0.6874 20.0691 -3.6212
# 6 -14.5373 -4.3648 -5.6365 4.2373 -3.6212 19.2087
#
#
#
# Elastic Compliance Matrix: (Units=1/GPa)
#
#
# Indices 1 2 3 4 5 6 
#
# 1 0.023230 -0.004118 -0.001101 -0.002001 -0.017219 0.013517
# 2 -0.004118 0.010864 -0.002315 -0.001000 -0.000069 -0.001120
# 3 -0.001101 -0.002315 0.011768 0.001304 -0.003911 0.001069
# 4 -0.002001 -0.001000 0.001304 0.030509 -0.000840 -0.008247
# 5 -0.017219 -0.000069 -0.003911 -0.000840 0.068211 -0.001150
# 6 0.013517 -0.001120 0.001069 -0.008247 -0.001150 0.063951
#
#
# Mechanical properties :
#
#
# Convention : Reuss Voigt Hill
#
# Bulk Modulus (GPa) = 32.47348 48.30144 40.38746
# Shear Modulus (GPa) = 21.37977 28.04772 24.71374
#
# Velocity S-wave (km/s) = 3.31596 3.79801 3.56514
# Velocity P-wave (km/s) = 5.60016 6.63887 6.14151
#
# Compressibility (1/GPa) = 0.03079436
#
# Stress axis : x y z
#
# Youngs Moduli (GPa) = 43.04750 92.04730 84.97797
#
# Poissons Ratio (x) = 0.37906 0.09353
# Poissons Ratio (y) = 0.17727 0.19673
# Poissons Ratio (z) = 0.04738 0.21310
#
# Static dielectric constant tensor:
#      x y z
#    x 1.653860 0.021620 0.004600 
#    y 0.021620 1.735310 0.036160 
#    z 0.004600 0.036160 1.724330 
# 
# From -- ./inp_files/179494.got.cif
#   From: 2010.05.17/outbox.cif.g08.bks.cpg/sg2_90_cif.got.tgz:179494.got - 2010.06.03 11:33:40.
