data_PCOD9036348
_publ_section_title
;
Structure prediction by ZEFSAII (Michael W. Deem and Ramdas Pophale) SiO2 
 PCOD9036348
Probable space group: P -1
;
_chemical_formula_sum "Si O2"
_cell_formula_units_Z 16
_cell_length_a 7.417492
_cell_length_b 25.187061
_cell_length_c 7.473075
_cell_angle_alpha 32.010921
_cell_angle_beta 126.060803
_cell_angle_gamma 126.526954
_cell_volume 583.044969
_symmetry_space_group_name_H-M "P -1"
_symmetry_group_IT_number 2
_symmetry_cell_setting 'triclinic'
loop_
_space_group_symop_operation_xyz
x,y,z
-x,-y,-z
loop_
_atom_site_type_symbol
_atom_site_label
_atom_site_fract_x
_atom_site_fract_y
_atom_site_fract_z
Si Si1 0.721967 0.566830 0.245051
Si Si2 0.737584 0.975509 0.765093
Si Si3 0.225093 0.663006 0.144554
Si Si4 0.538860 0.808784 0.649444
Si Si5 0.196110 0.988065 0.882836
Si Si6 0.591765 0.305632 0.454322
Si Si7 0.124475 0.209653 0.791077
Si Si8 0.908667 0.602712 0.627035
O O1 0.740168 0.450377 0.556135
O O2 0.727089 0.582319 0.418474
O O3 0.957685 0.642614 0.097472
O O4 0.508687 0.594809 0.939999
O O5 0.500000 0.000000 0.500000
O O6 0.773612 0.009539 0.892816
O O7 0.758217 0.856914 0.089100
O O8 0.954499 0.027522 0.618700
O O9 0.381431 0.702296 0.295477
O O10 0.318536 0.743462 0.812179
O O11 0.606221 0.932319 0.329533
O O12 0.539184 0.773213 0.546087
O O13 0.744386 0.787805 0.951830
O O14 0.122399 0.870864 0.109254
O O15 0.857438 0.321257 0.514525
O O16 0.149732 0.331682 0.427151
O O17 0.000000 0.500000 0.000000
#
# Coordination Sequence:
#
# PCOD9036348 Si02
#       8
#     2   2   2   2   2   2   2   2
#     4  10  22  51  68 105 149 205 263 329 386 466
#     4   9  21  48  79 110 153 206 259 321 391 465
#     4  10  25  44  74 105 150 202 264 320 399 449
#     4  12  24  46  74 115 149 205 255 319 387 472
#     4   9  23  47  75 110 162 199 256 322 385 473
#     4  11  25  45  73 106 149 200 259 323 392 454
#     4  10  23  46  73 112 156 204 257 319 388 460
#     4  11  24  44  76 114 152 201 264 326 382 467
#
# _framework density 27.442136000000001
#
# number of rings (size 3 to 8) (size 9 to 14) (size 15 to 20)
#    0.750    1.000    1.250    1.500    3.500    2.000 
#    6.750    1.250    0.000    0.000    0.000    0.000 
#    0.000    0.000    0.000    0.000    0.000    0.000 
#
# Total GULP energy -89478.344314 kJ/mol
# GULP energy per Si atom -5592.396520 kJ/mol
# Density = 2.737968 g / cm^3
# Si number density = 27.442136 Si / 1000 Ang^3
#
#
#
# Elastic Constant Matrix: (Units=GPa)
#
#
# Indices 1 2 3 4 5 6 
#
# 1 135.0085 48.9884 39.6121 -9.1666 -9.7376 9.0155
# 2 48.9884 200.0047 45.6874 -1.8454 -16.7275 -7.6758
# 3 39.6121 45.6874 112.4891 -2.9702 -5.3906 -9.9646
# 4 -9.1666 -1.8454 -2.9702 62.2550 -2.9393 3.0022
# 5 -9.7376 -16.7275 -5.3906 -2.9393 43.2563 -1.3890
# 6 9.0155 -7.6758 -9.9646 3.0022 -1.3890 48.7981
#
#
#
# Elastic Compliance Matrix: (Units=1/GPa)
#
#
# Indices 1 2 3 4 5 6 
#
# 1 0.009123 -0.001612 -0.002695 0.001342 0.001104 -0.002540
# 2 -0.001612 0.005963 -0.001689 -0.000104 0.001756 0.000947
# 3 -0.002695 -0.001689 0.010746 -0.000044 0.000155 0.002434
# 4 0.001342 -0.000104 -0.000044 0.016378 0.001329 -0.001243
# 5 0.001104 0.001756 0.000155 0.001329 0.024178 0.000710
# 6 -0.002540 0.000947 0.002434 -0.001243 0.000710 0.021705
#
#
# Mechanical properties :
#
#
# Convention : Reuss Voigt Hill
#
# Bulk Modulus (GPa) = 72.24689 79.56425 75.90557
# Shear Modulus (GPa) = 47.75706 51.74286 49.74996
#
# Velocity S-wave (km/s) = 4.17619 4.34697 4.26244
# Velocity P-wave (km/s) = 7.04544 7.36555 7.20727
#
# Compressibility (1/GPa) = 0.01384143
#
# Stress axis : x y z
#
# Youngs Moduli (GPa) = 109.61644 167.70947 93.05451
#
# Poissons Ratio (x) = 0.27030 0.25074
# Poissons Ratio (y) = 0.17667 0.15716
# Poissons Ratio (z) = 0.29537 0.28324
#
# Static dielectric constant tensor:
#      x y z
#    x 2.380730 0.067240 0.212240 
#    y 0.067240 2.098260 -0.014600 
#    z 0.212240 -0.014600 2.421750 
# 
# From -- ./inp_files/225251.got.cif
#   From: 2010.05.17/outbox.cif.g08.bks.cpg/sg2_113_cif.got.tgz:225251.got - 2010.06.03 11:33:40.
