data_PCOD9036981
_publ_section_title
;
Structure prediction by ZEFSAII (Michael W. Deem and Ramdas Pophale) SiO2 
 PCOD9036981
Probable space group: P -1
;
_chemical_formula_sum "Si O2"
_cell_formula_units_Z 10
_cell_length_a 5.357966
_cell_length_b 11.484095
_cell_length_c 10.060372
_cell_angle_alpha 131.563978
_cell_angle_beta 100.297264
_cell_angle_gamma 102.447584
_cell_volume 406.059491
_symmetry_space_group_name_H-M "P -1"
_symmetry_group_IT_number 2
_symmetry_cell_setting 'triclinic'
loop_
_space_group_symop_operation_xyz
x,y,z
-x,-y,-z
loop_
_atom_site_type_symbol
_atom_site_label
_atom_site_fract_x
_atom_site_fract_y
_atom_site_fract_z
Si Si1 0.077834 0.790546 0.048506
Si Si2 0.575261 0.683199 0.566169
Si Si3 0.632897 0.885582 0.496409
Si Si4 0.562183 0.685986 0.094274
Si Si5 0.871562 0.290504 0.310135
O O1 0.104718 0.770957 0.880449
O O2 0.749303 0.711257 0.000195
O O3 0.199522 0.981331 0.269118
O O4 0.273970 0.704688 0.060227
O O5 0.500000 0.500000 0.500000
O O6 0.449871 0.706108 0.428835
O O7 0.450167 0.779834 0.725539
O O8 0.908848 0.752610 0.619130
O O9 0.744219 0.821207 0.330775
O O10 0.500000 0.000000 0.500000
O O11 0.500000 0.500000 0.000000
O O12 0.000000 0.500000 0.500000
#
# Coordination Sequence:
#
# PCOD9036981 Si02
#       5
#     2   2   2   2   2
#     4  11  24  44  65 102 137 175 227 282 342 393
#     4  10  23  42  68  97 135 178 227 274 334 401
#     4  10  25  46  70 102 141 176 224 287 344 398
#     4  11  25  41  71  99 134 182 228 276 337 411
#     4  10  23  39  67  95 136 175 226 277 331 401
#
# _framework density 24.626933000000001
#
# number of rings (size 3 to 8) (size 9 to 14) (size 15 to 20)
#    0.000    1.600    0.000    2.400   11.200    8.000 
#    0.000    0.000    0.000    0.000    0.000    0.000 
#    0.000    0.000    0.000    0.000    0.000    0.000 
#
# Total GULP energy -55670.143372 kJ/mol
# GULP energy per Si atom -5567.014337 kJ/mol
# Density = 2.457088 g / cm^3
# Si number density = 24.626933 Si / 1000 Ang^3
#
#
#
# Elastic Constant Matrix: (Units=GPa)
#
#
# Indices 1 2 3 4 5 6 
#
# 1 125.5217 30.7624 18.1807 4.2424 -45.2047 -31.6355
# 2 30.7624 133.8068 10.4595 -3.6043 -5.1527 -34.9027
# 3 18.1807 10.4595 109.3402 3.7907 -30.4801 -3.1587
# 4 4.2424 -3.6043 3.7907 37.4268 7.5364 -12.6277
# 5 -45.2047 -5.1527 -30.4801 7.5364 47.4719 -4.0615
# 6 -31.6355 -34.9027 -3.1587 -12.6277 -4.0615 36.1898
#
#
#
# Elastic Compliance Matrix: (Units=1/GPa)
#
#
# Indices 1 2 3 4 5 6 
#
# 1 0.023035 0.002141 0.004226 0.000413 0.027018 0.025746
# 2 0.002141 0.011122 -0.000170 0.005105 0.003590 0.014768
# 3 0.004226 -0.000170 0.012240 -0.002563 0.012710 0.005131
# 4 0.000413 0.005105 -0.002563 0.033885 -0.004678 0.016360
# 5 0.027018 0.003590 0.012710 -0.004678 0.058923 0.033170
# 6 0.025746 0.014768 0.005131 0.016360 0.033170 0.074260
#
#
# Mechanical properties :
#
#
# Convention : Reuss Voigt Hill
#
# Bulk Modulus (GPa) = 17.00907 54.16376 35.58642
# Shear Modulus (GPa) = 22.65855 44.83544 33.74700
#
# Velocity S-wave (km/s) = 3.03656 4.27146 3.70581
# Velocity P-wave (km/s) = 4.38360 6.80945 5.72646
#
# Compressibility (1/GPa) = 0.05879215
#
# Stress axis : x y z
#
# Youngs Moduli (GPa) = 43.41256 89.90877 81.70231
#
# Poissons Ratio (x) = -0.19252 -0.34527
# Poissons Ratio (y) = -0.09296 0.01385
# Poissons Ratio (z) = -0.18346 0.01524
#
# Static dielectric constant tensor:
#      x y z
#    x 2.192320 0.157400 0.187340 
#    y 0.157400 2.157460 0.043280 
#    z 0.187340 0.043280 2.069150 
# 
# From -- ./inp_files/17505.got.cif
#   From: 2010.05.17/outbox.cif.g08.bks.cpg/sg2_9_cif.got.tgz:17505.got - 2010.06.03 11:33:40.
