data_PCOD9036484
_publ_section_title
;
Structure prediction by ZEFSAII (Michael W. Deem and Ramdas Pophale) SiO2 
 PCOD9036484
Probable space group: P -1
;
_chemical_formula_sum "Si O2"
_cell_formula_units_Z 16
_cell_length_a 18.277290
_cell_length_b 9.228591
_cell_length_c 12.288479
_cell_angle_alpha 75.292421
_cell_angle_beta 38.577796
_cell_angle_gamma 106.079147
_cell_volume 769.255929
_symmetry_space_group_name_H-M "P -1"
_symmetry_group_IT_number 2
_symmetry_cell_setting 'triclinic'
loop_
_space_group_symop_operation_xyz
x,y,z
-x,-y,-z
loop_
_atom_site_type_symbol
_atom_site_label
_atom_site_fract_x
_atom_site_fract_y
_atom_site_fract_z
Si Si1 0.786909 0.668870 0.315498
Si Si2 0.816866 0.013811 0.646659
Si Si3 0.684223 0.596800 0.224775
Si Si4 0.815183 0.027607 0.235200
Si Si5 0.248738 0.377242 0.108068
Si Si6 0.547503 0.902646 0.397396
Si Si7 0.394621 0.077213 0.304426
Si Si8 0.552509 0.907804 0.146456
O O1 0.827046 0.768496 0.124563
O O2 0.605662 0.383893 0.605809
O O3 0.768416 0.809898 0.369146
O O4 0.972283 0.755584 0.099042
O O5 0.780465 0.800412 0.751668
O O6 0.715032 0.955034 0.662545
O O7 0.711836 0.009694 0.859844
O O8 0.046797 0.260451 0.347080
O O9 0.500000 0.500000 0.500000
O O10 0.648912 0.385633 0.323948
O O11 0.710806 0.644434 0.057581
O O12 0.681564 0.937566 0.308597
O O13 0.758800 0.079662 0.389144
O O14 0.420100 0.648664 0.910238
O O15 0.625909 0.001438 0.167040
O O16 0.500000 0.000000 0.500000
O O17 0.461636 0.977942 0.211307
#
# Coordination Sequence:
#
# PCOD9036484 Si02
#       8
#     2   2   2   2   2   2   2   2
#     4  10  23  37  63  96 126 160 205 261 320 380
#     4  11  26  43  65  93 125 173 221 256 307 375
#     4  11  18  36  64  89 125 161 198 259 314 369
#     4  11  21  40  62  96 126 161 207 258 325 378
#     4  11  23  43  67  95 123 171 218 259 314 372
#     4  11  20  38  62  92 124 158 199 254 323 379
#     4  12  23  45  65  90 132 167 209 268 314 373
#     4  11  24  43  62  91 129 168 208 259 317 377
#
# _framework density 20.799319000000001
#
# number of rings (size 3 to 8) (size 9 to 14) (size 15 to 20)
#    0.000    1.000    3.750    3.750    0.000    1.000 
#    9.000    0.000    0.000    0.000    0.000    0.000 
#    0.000    0.000    0.000    0.000    0.000    0.000 
#
# Total GULP energy -89149.357516 kJ/mol
# GULP energy per Si atom -5571.834845 kJ/mol
# Density = 2.075198 g / cm^3
# Si number density = 20.799319 Si / 1000 Ang^3
#
#
#
# Elastic Constant Matrix: (Units=GPa)
#
#
# Indices 1 2 3 4 5 6 
#
# 1 113.9626 19.5205 39.5524 11.0648 -7.2068 7.9817
# 2 19.5205 83.3981 35.8066 20.1070 -15.8076 -6.6203
# 3 39.5524 35.8066 95.5842 24.5578 -22.2436 4.8397
# 4 11.0648 20.1070 24.5578 25.6809 -3.5506 2.6203
# 5 -7.2068 -15.8076 -22.2436 -3.5506 27.3341 7.8504
# 6 7.9817 -6.6203 4.8397 2.6203 7.8504 33.4958
#
#
#
# Elastic Compliance Matrix: (Units=1/GPa)
#
#
# Indices 1 2 3 4 5 6 
#
# 1 0.010428 -0.001045 -0.004017 0.000302 -0.000505 -0.002016
# 2 -0.001045 0.016970 -0.002174 -0.010359 0.005431 0.003455
# 3 -0.004017 -0.002174 0.019568 -0.013013 0.013172 -0.004369
# 4 0.000302 -0.010359 -0.013013 0.058549 -0.008053 -0.002932
# 5 -0.000505 0.005431 0.013172 -0.008053 0.052845 -0.012465
# 6 -0.002016 0.003455 -0.004369 -0.002932 -0.012465 0.034800
#
#
# Mechanical properties :
#
#
# Convention : Reuss Voigt Hill
#
# Bulk Modulus (GPa) = 30.77445 53.63377 42.20411
# Shear Modulus (GPa) = 22.88718 30.50654 26.69686
#
# Velocity S-wave (km/s) = 3.32080 3.83392 3.58655
# Velocity P-wave (km/s) = 5.43430 6.74098 6.12260
#
# Compressibility (1/GPa) = 0.03249449
#
# Stress axis : x y z
#
# Youngs Moduli (GPa) = 95.89798 58.92772 51.10294
#
# Poissons Ratio (x) = 0.06157 0.20526
# Poissons Ratio (y) = 0.10020 0.11111
# Poissons Ratio (z) = 0.38519 0.12812
#
# Static dielectric constant tensor:
#      x y z
#    x 1.841040 -0.030710 -0.049710 
#    y -0.030710 2.005960 0.079800 
#    z -0.049710 0.079800 1.833070 
# 
# From -- ./inp_files/378880.got.cif
#   From: 2010.05.17/outbox.cif.g08.bks.cpg/sg2_190_cif.got.tgz:378880.got - 2010.06.03 11:33:40.
