data_PCOD9036760
_publ_section_title
;
Structure prediction by ZEFSAII (Michael W. Deem and Ramdas Pophale) SiO2 
 PCOD9036760
Probable space group: P -1
;
_chemical_formula_sum "Si O2"
_cell_formula_units_Z 16
_cell_length_a 8.575413
_cell_length_b 14.834807
_cell_length_c 9.950500
_cell_angle_alpha 137.222463
_cell_angle_beta 112.065381
_cell_angle_gamma 61.054315
_cell_volume 751.865996
_symmetry_space_group_name_H-M "P -1"
_symmetry_group_IT_number 2
_symmetry_cell_setting 'triclinic'
loop_
_space_group_symop_operation_xyz
x,y,z
-x,-y,-z
loop_
_atom_site_type_symbol
_atom_site_label
_atom_site_fract_x
_atom_site_fract_y
_atom_site_fract_z
Si Si1 0.211096 0.882689 0.295188
Si Si2 0.593047 0.756325 0.368989
Si Si3 0.425671 0.377979 0.289469
Si Si4 0.946517 0.742499 0.558607
Si Si5 0.994223 0.198022 0.641209
Si Si6 0.255074 0.428728 0.561219
Si Si7 0.193983 0.387617 0.970059
Si Si8 0.784554 0.245979 0.133984
O O1 0.412890 0.865329 0.378607
O O2 0.158277 0.784058 0.279729
O O3 0.075442 0.037077 0.445912
O O4 0.197478 0.835745 0.087989
O O5 0.741822 0.824890 0.539727
O O6 0.582968 0.659905 0.386602
O O7 0.682697 0.646208 0.158958
O O8 0.500000 0.500000 0.500000
O O9 0.306755 0.360242 0.356403
O O10 0.300425 0.416545 0.161176
O O11 0.604164 0.255164 0.166031
O O12 0.050118 0.720737 0.427011
O O13 0.913319 0.605163 0.463749
O O14 0.046876 0.804682 0.767177
O O15 0.145761 0.244822 0.815306
O O16 0.233897 0.591785 0.730209
O O17 0.000000 0.500000 0.000000
#
# Coordination Sequence:
#
# PCOD9036760 Si02
#       8
#     2   2   2   2   2   2   2   2
#     4  11  24  45  65  94 125 174 222 267 312 379
#     4   9  22  41  62  94 123 165 216 261 322 371
#     4  10  23  39  60  96 133 167 201 262 322 382
#     4   9  22  39  62  92 125 168 206 267 319 379
#     4  10  26  42  69  91 130 168 221 268 318 376
#     4   9  22  38  61  96 130 166 209 257 330 376
#     4  11  24  41  67  99 126 168 213 268 329 381
#     4  11  22  39  65  91 135 168 209 264 322 388
#
# _framework density 21.280387999999999
#
# number of rings (size 3 to 8) (size 9 to 14) (size 15 to 20)
#    0.750    1.250    1.250    0.375   12.250    4.000 
#    0.000    0.000    0.000    3.000    0.000    0.000 
#    0.000    0.000    0.000    0.000    0.000    0.000 
#
# Total GULP energy -89164.765132 kJ/mol
# GULP energy per Si atom -5572.797821 kJ/mol
# Density = 2.123195 g / cm^3
# Si number density = 21.280388 Si / 1000 Ang^3
#
#
#
# Elastic Constant Matrix: (Units=GPa)
#
#
# Indices 1 2 3 4 5 6 
#
# 1 80.8060 32.9330 56.8844 -24.8661 -9.7564 -0.1397
# 2 32.9330 42.2115 41.8884 -28.0597 -3.6071 1.4107
# 3 56.8844 41.8884 140.2274 -37.0134 -2.8922 -17.4048
# 4 -24.8661 -28.0597 -37.0134 37.7317 -5.7389 5.4076
# 5 -9.7564 -3.6071 -2.8922 -5.7389 37.0740 -8.2814
# 6 -0.1397 1.4107 -17.4048 5.4076 -8.2814 32.7391
#
#
#
# Elastic Compliance Matrix: (Units=1/GPa)
#
#
# Indices 1 2 3 4 5 6 
#
# 1 0.021142 -0.008698 -0.005249 0.003238 0.004420 -0.001742
# 2 -0.008698 0.062291 -0.006588 0.036648 0.006559 -0.010618
# 3 -0.005249 -0.006588 0.013066 0.003639 0.001098 0.006884
# 4 0.003238 0.036648 0.003639 0.062374 0.012865 -0.006679
# 5 0.004420 0.006559 0.001098 0.012865 0.032272 0.006358
# 6 -0.001742 -0.010618 0.006884 -0.006679 0.006358 0.037366
#
#
# Mechanical properties :
#
#
# Convention : Reuss Voigt Hill
#
# Bulk Modulus (GPa) = 18.04104 58.51739 38.27922
# Shear Modulus (GPa) = 17.35764 30.27824 23.81794
#
# Velocity S-wave (km/s) = 2.85908 3.77613 3.34914
# Velocity P-wave (km/s) = 4.40401 6.82423 5.74306
#
# Compressibility (1/GPa) = 0.05542917
#
# Stress axis : x y z
#
# Youngs Moduli (GPa) = 47.29873 16.05379 76.53339
#
# Poissons Ratio (x) = 0.13964 0.40169
# Poissons Ratio (y) = 0.41141 0.50421
# Poissons Ratio (z) = 0.24825 0.10577
#
# Static dielectric constant tensor:
#      x y z
#    x 1.835430 0.028630 0.007160 
#    y 0.028630 1.861330 0.014020 
#    z 0.007160 0.014020 1.765470 
# 
# From -- ./inp_files/209090.got.cif
#   From: 2010.05.17/outbox.cif.g08.bks.cpg/sg2_105_cif.got.tgz:209090.got - 2010.06.03 11:33:40.
