data_PCOD9036693
_publ_section_title
;
Structure prediction by ZEFSAII (Michael W. Deem and Ramdas Pophale) SiO2 
 PCOD9036693
Probable space group: P -1
;
_chemical_formula_sum "Si O2"
_cell_formula_units_Z 14
_cell_length_a 23.614397
_cell_length_b 15.744298
_cell_length_c 12.405191
_cell_angle_alpha 27.264896
_cell_angle_beta 149.602086
_cell_angle_gamma 162.195548
_cell_volume 641.705620
_symmetry_space_group_name_H-M "P -1"
_symmetry_group_IT_number 2
_symmetry_cell_setting 'triclinic'
loop_
_space_group_symop_operation_xyz
x,y,z
-x,-y,-z
loop_
_atom_site_type_symbol
_atom_site_label
_atom_site_fract_x
_atom_site_fract_y
_atom_site_fract_z
Si Si1 0.712598 0.093028 0.886711
Si Si2 0.635882 0.934031 0.354249
Si Si3 0.540260 0.194240 0.005188
Si Si4 0.244960 0.263657 0.551990
Si Si5 0.108200 0.308366 0.481111
Si Si6 0.801227 0.818122 0.847638
Si Si7 0.412082 0.547824 0.870076
O O1 0.885338 0.461542 0.753120
O O2 0.576518 0.996107 0.863997
O O3 0.584457 0.909014 0.777926
O O4 0.759662 0.944378 0.164137
O O5 0.447837 0.582015 0.483287
O O6 0.801948 0.024396 0.565598
O O7 0.631959 0.131399 0.178310
O O8 0.604412 0.918614 0.193167
O O9 0.696614 0.548550 0.894515
O O10 0.184867 0.337313 0.458186
O O11 0.096800 0.051201 0.451591
O O12 0.248275 0.420390 0.675201
O O13 0.676363 0.645233 0.946323
O O14 0.000000 0.000000 0.000000
O O15 0.500000 0.500000 0.000000
#
# Coordination Sequence:
#
# PCOD9036693 Si02
#       7
#     2   2   2   2   2   2   2
#     4  11  21  40  62  94 124 164 214 259 317 380
#     4  11  21  43  65  89 128 166 213 262 322 379
#     4  10  23  38  68  91 120 172 213 261 324 373
#     4  11  22  38  64  90 127 161 210 274 304 378
#     4  11  23  38  60  95 127 161 215 259 316 373
#     4  11  25  42  67  95 128 167 216 268 313 387
#     4  11  22  42  65  91 127 175 205 254 326 373
#
# _framework density 21.816856000000001
#
# number of rings (size 3 to 8) (size 9 to 14) (size 15 to 20)
#    0.000    1.143    5.714    1.286    2.000    0.571 
#    0.000    0.000    0.000    0.000    0.000    0.000 
#    0.000    0.000    0.000    0.000    0.000    0.000 
#
# Total GULP energy -78287.432085 kJ/mol
# GULP energy per Si atom -5591.959435 kJ/mol
# Density = 2.176720 g / cm^3
# Si number density = 21.816856 Si / 1000 Ang^3
#
#
#
# Elastic Constant Matrix: (Units=GPa)
#
#
# Indices 1 2 3 4 5 6 
#
# 1 80.8478 43.0136 21.8897 -1.0327 7.6707 -26.9723
# 2 43.0136 57.9720 28.8381 16.5638 0.1155 -25.0551
# 3 21.8897 28.8381 96.1655 11.6930 17.0485 -20.8795
# 4 -1.0327 16.5638 11.6930 34.2363 0.4412 3.9122
# 5 7.6707 0.1155 17.0485 0.4412 23.1560 1.5195
# 6 -26.9723 -25.0551 -20.8795 3.9122 1.5195 33.1303
#
#
#
# Elastic Compliance Matrix: (Units=1/GPa)
#
#
# Indices 1 2 3 4 5 6 
#
# 1 0.025691 -0.019786 0.002433 0.008863 -0.010827 0.006936
# 2 -0.019786 0.051691 -0.004181 -0.026930 0.008369 0.023145
# 3 0.002433 -0.004181 0.016200 -0.004426 -0.013295 0.010161
# 4 0.008863 -0.026930 -0.004426 0.046458 0.000981 -0.021470
# 5 -0.010827 0.008369 -0.013295 0.000981 0.057393 -0.013612
# 6 0.006936 0.023145 0.010161 -0.021470 -0.013612 0.062897
#
#
# Mechanical properties :
#
#
# Convention : Reuss Voigt Hill
#
# Bulk Modulus (GPa) = 19.79637 46.94089 33.36863
# Shear Modulus (GPa) = 15.61349 27.52078 21.56713
#
# Velocity S-wave (km/s) = 2.67809 3.55554 3.14754
# Velocity P-wave (km/s) = 4.31931 6.19826 5.34204
#
# Compressibility (1/GPa) = 0.05051430
#
# Stress axis : x y z
#
# Youngs Moduli (GPa) = 38.92376 19.34582 61.72817
#
# Poissons Ratio (x) = 0.38277 -0.15019
# Poissons Ratio (y) = 0.77013 0.25811
# Poissons Ratio (z) = -0.09471 0.08089
#
# Static dielectric constant tensor:
#      x y z
#    x 1.780900 0.022300 -0.000960 
#    y 0.022300 1.812580 0.008060 
#    z -0.000960 0.008060 1.838570 
# 
# From -- ./inp_files/302846.got.cif
#   From: 2010.05.17/outbox.cif.g08.bks.cpg/sg2_152_cif.got.tgz:302846.got - 2010.06.03 11:33:40.
