data_PCOD9036259
_publ_section_title
;
Structure prediction by ZEFSAII (Michael W. Deem and Ramdas Pophale) SiO2 
 PCOD9036259
Probable space group: P -1
;
_chemical_formula_sum "Si O2"
_cell_formula_units_Z 12
_cell_length_a 5.074649
_cell_length_b 11.092057
_cell_length_c 8.484205
_cell_angle_alpha 81.887852
_cell_angle_beta 90.801671
_cell_angle_gamma 112.116169
_cell_volume 437.597712
_symmetry_space_group_name_H-M "P -1"
_symmetry_group_IT_number 2
_symmetry_cell_setting 'triclinic'
loop_
_space_group_symop_operation_xyz
x,y,z
-x,-y,-z
loop_
_atom_site_type_symbol
_atom_site_label
_atom_site_fract_x
_atom_site_fract_y
_atom_site_fract_z
Si Si1 0.146683 0.719910 0.126866
Si Si2 0.508627 0.570958 0.208359
Si Si3 0.765095 0.344972 0.523462
Si Si4 0.874156 0.066402 0.115005
Si Si5 0.683669 0.925929 0.444558
Si Si6 0.225364 0.278858 0.325777
O O1 0.185124 0.742056 0.311411
O O2 0.809078 0.654544 0.120651
O O3 0.277675 0.612079 0.108289
O O4 0.270963 0.847634 0.994816
O O5 0.475776 0.613050 0.378697
O O6 0.443704 0.417415 0.242694
O O7 0.000000 0.500000 0.500000
O O8 0.953109 0.296868 0.397633
O O9 0.110143 0.172319 0.207563
O O10 0.703464 0.952010 0.255660
O O11 0.000000 0.000000 0.000000
O O12 0.582020 0.777443 0.544490
O O13 0.500000 0.000000 0.500000
O O14 0.000000 0.000000 0.500000
#
# Coordination Sequence:
#
# PCOD9036259 Si02
#       6
#     2   2   2   2   2   2
#     4  10  25  43  76 109 153 198 239 321 379 457
#     4  10  22  48  74 113 149 191 265 301 394 438
#     4   8  22  43  71 111 146 196 248 314 373 447
#     4  12  27  46  75 109 159 202 253 309 390 455
#     4  10  24  45  72 109 148 198 260 307 371 451
#     4  10  24  44  74 108 145 205 246 323 361 462
#
# _framework density 27.422446000000001
#
# number of rings (size 3 to 8) (size 9 to 14) (size 15 to 20)
#    2.000    0.000    0.000    2.000    2.333    6.667 
#    0.000    0.000    0.000    0.000    0.000    0.000 
#    0.000    0.000    0.000    0.000    0.000    0.000 
#
# Total GULP energy -67072.064191 kJ/mol
# GULP energy per Si atom -5589.338683 kJ/mol
# Density = 2.736003 g / cm^3
# Si number density = 27.422446 Si / 1000 Ang^3
#
#
#
# Elastic Constant Matrix: (Units=GPa)
#
#
# Indices 1 2 3 4 5 6 
#
# 1 171.0396 52.0702 54.5822 -2.7724 -24.4794 -5.1783
# 2 52.0702 201.1266 86.3472 -10.7972 -2.2775 -10.5356
# 3 54.5822 86.3472 170.3181 -9.6850 2.7194 -9.9465
# 4 -2.7724 -10.7972 -9.6850 74.6305 -1.9670 4.5515
# 5 -24.4794 -2.2775 2.7194 -1.9670 51.7485 -5.9181
# 6 -5.1783 -10.5356 -9.9465 4.5515 -5.9181 49.2887
#
#
#
# Elastic Compliance Matrix: (Units=1/GPa)
#
#
# Indices 1 2 3 4 5 6 
#
# 1 0.007271 -0.001026 -0.001835 -0.000060 0.003558 0.000607
# 2 -0.001026 0.006557 -0.002930 0.000491 0.000052 0.000663
# 3 -0.001835 -0.002930 0.008028 0.000478 -0.001332 0.000597
# 4 -0.000060 0.000491 0.000478 0.013602 0.000369 -0.001016
# 5 0.003558 0.000052 -0.001332 0.000369 0.021397 0.002651
# 6 0.000607 0.000663 0.000597 -0.001016 0.002651 0.021027
#
#
# Mechanical properties :
#
#
# Convention : Reuss Voigt Hill
#
# Bulk Modulus (GPa) = 97.31958 103.16484 100.24221
# Shear Modulus (GPa) = 53.82851 58.43251 56.13051
#
# Velocity S-wave (km/s) = 4.43531 4.62110 4.52916
# Velocity P-wave (km/s) = 7.86100 8.13480 7.99907
#
# Compressibility (1/GPa) = 0.01027542
#
# Stress axis : x y z
#
# Youngs Moduli (GPa) = 137.53142 152.50801 124.56417
#
# Poissons Ratio (x) = 0.15644 0.22856
# Poissons Ratio (y) = 0.14108 0.36493
# Poissons Ratio (z) = 0.25235 0.44680
#
# Static dielectric constant tensor:
#      x y z
#    x 2.232260 0.066190 0.180960 
#    y 0.066190 2.212590 0.010300 
#    z 0.180960 0.010300 2.160980 
# 
# From -- ./inp_files/130726.got.cif
#   From: 2010.05.17/outbox.cif.g08.bks.cpg/sg2_66_cif.got.tgz:130726.got - 2010.06.03 11:33:40.
