data_PCOD9036274
_publ_section_title
;
Structure prediction by ZEFSAII (Michael W. Deem and Ramdas Pophale) SiO2 
 PCOD9036274
Probable space group: P -1
;
_chemical_formula_sum "Si O2"
_cell_formula_units_Z 15
_cell_length_a 13.617666
_cell_length_b 12.095179
_cell_length_c 5.555030
_cell_angle_alpha 105.494757
_cell_angle_beta 113.008317
_cell_angle_gamma 47.849047
_cell_volume 624.353040
_symmetry_space_group_name_H-M "P -1"
_symmetry_group_IT_number 2
_symmetry_cell_setting 'triclinic'
loop_
_space_group_symop_operation_xyz
x,y,z
-x,-y,-z
loop_
_atom_site_type_symbol
_atom_site_label
_atom_site_fract_x
_atom_site_fract_y
_atom_site_fract_z
Si Si1 0.525827 0.661094 0.009692
Si Si2 0.468426 0.903469 0.784850
Si Si3 0.058230 0.056720 0.907489
Si Si4 0.500000 0.500000 0.500000
Si Si5 0.920370 0.311437 0.563263
Si Si6 0.729122 0.269552 0.210106
Si Si7 0.726414 0.647660 0.564212
Si Si8 0.813721 0.835855 0.579264
O O1 0.443133 0.823318 0.909345
O O2 0.406271 0.672619 0.052239
O O3 0.574894 0.548852 0.770816
O O4 0.642983 0.635913 0.270029
O O5 0.605771 0.769198 0.699645
O O6 0.335824 0.015324 0.558948
O O7 0.500000 0.000000 0.000000
O O8 0.131701 0.111380 0.143433
O O9 0.171084 0.907498 0.777848
O O10 0.945001 0.195509 0.714814
O O11 0.000000 0.000000 0.000000
O O12 0.644692 0.366751 0.421315
O O13 0.827229 0.309867 0.270213
O O14 0.840966 0.479580 0.668663
O O15 0.070944 0.239940 0.563423
O O16 0.795608 0.717647 0.579635
#
# Coordination Sequence:
#
# PCOD9036274 Si02
#       8
#     2   2   2   1   2   2   2   2
#     4  10  23  47  76 112 154 197 258 327 391 460
#     4  12  26  47  79 113 155 202 264 326 387 465
#     4  12  27  48  79 112 157 207 258 321 390 472
#     4   8  22  40  78 108 152 192 248 322 392 446
#     4  12  28  50  74 115 160 204 262 320 394 467
#     4  10  22  48  76 112 149 198 256 322 391 457
#     4  12  28  49  79 115 156 211 264 321 389 469
#     4  12  28  49  79 114 154 213 261 315 395 467
#
# _framework density 24.024865999999999
#
# number of rings (size 3 to 8) (size 9 to 14) (size 15 to 20)
#    0.800    0.000    2.667    3.600    5.600    3.200 
#    2.400    0.000    0.000    0.000    0.000    0.000 
#    0.000    0.000    0.000    0.000    0.000    0.000 
#
# Total GULP energy -83650.718955 kJ/mol
# GULP energy per Si atom -5576.714597 kJ/mol
# Density = 2.397018 g / cm^3
# Si number density = 24.024866 Si / 1000 Ang^3
#
#
#
# Elastic Constant Matrix: (Units=GPa)
#
#
# Indices 1 2 3 4 5 6 
#
# 1 144.3282 67.4631 19.3186 -7.1046 2.8589 10.1669
# 2 67.4631 198.3107 41.9819 33.5848 -5.6699 15.4747
# 3 19.3186 41.9819 83.9624 20.4404 28.2212 2.3958
# 4 -7.1046 33.5848 20.4404 29.4115 -7.2530 -4.4165
# 5 2.8589 -5.6699 28.2212 -7.2530 39.4323 9.6809
# 6 10.1669 15.4747 2.3958 -4.4165 9.6809 44.8504
#
#
#
# Elastic Compliance Matrix: (Units=1/GPa)
#
#
# Indices 1 2 3 4 5 6 
#
# 1 0.009939 -0.004250 -0.004027 0.010904 0.003625 -0.000280
# 2 -0.004250 0.008814 -0.001291 -0.010346 0.001415 -0.003333
# 3 -0.004027 -0.001291 0.027768 -0.024528 -0.024978 0.002851
# 4 0.010904 -0.010346 -0.024528 0.072889 0.027803 0.003584
# 5 0.003625 0.001415 -0.024978 0.027803 0.050278 -0.008090
# 6 -0.000280 -0.003333 0.002851 0.003584 -0.008090 0.025457
#
#
# Mechanical properties :
#
#
# Convention : Reuss Voigt Hill
#
# Bulk Modulus (GPa) = 36.51564 76.01428 56.26496
# Shear Modulus (GPa) = 22.38062 42.59470 32.48766
#
# Velocity S-wave (km/s) = 3.05546 4.21520 3.68129
# Velocity P-wave (km/s) = 5.26117 7.44306 6.44511
#
# Compressibility (1/GPa) = 0.02738553
#
# Stress axis : x y z
#
# Youngs Moduli (GPa) = 100.61635 113.45218 36.01295
#
# Poissons Ratio (x) = 0.48214 0.14501
# Poissons Ratio (y) = 0.42759 0.04650
# Poissons Ratio (z) = 0.40515 0.14650
#
# Static dielectric constant tensor:
#      x y z
#    x 2.020530 0.084200 -0.143800 
#    y 0.084200 2.709490 -0.899490 
#    z -0.143800 -0.899490 2.812430 
# 
# From -- ./inp_files/98608.got.cif
#   From: 2010.05.17/outbox.cif.g08.bks.cpg/sg2_50_cif.got.tgz:98608.got - 2010.06.03 11:33:40.
