data_PCOD9036612
_publ_section_title
;
Structure prediction by ZEFSAII (Michael W. Deem and Ramdas Pophale) SiO2 
 PCOD9036612
Probable space group: P -1
;
_chemical_formula_sum "Si O2"
_cell_formula_units_Z 16
_cell_length_a 23.248419
_cell_length_b 11.875064
_cell_length_c 5.649812
_cell_angle_alpha 124.535383
_cell_angle_beta 129.899511
_cell_angle_gamma 34.265691
_cell_volume 671.282984
_symmetry_space_group_name_H-M "P -1"
_symmetry_group_IT_number 2
_symmetry_cell_setting 'triclinic'
loop_
_space_group_symop_operation_xyz
x,y,z
-x,-y,-z
loop_
_atom_site_type_symbol
_atom_site_label
_atom_site_fract_x
_atom_site_fract_y
_atom_site_fract_z
Si Si1 0.215340 0.935092 0.866850
Si Si2 0.501828 0.126114 0.328019
Si Si3 0.287899 0.126413 0.146246
Si Si4 0.589215 0.204917 0.277916
Si Si5 0.902270 0.240027 0.046335
Si Si6 0.161073 0.564258 0.399048
Si Si7 0.785771 0.137177 0.714654
Si Si8 0.634989 0.529593 0.288341
O O1 0.258885 0.030598 0.107360
O O2 0.161654 0.966674 0.013262
O O3 0.159696 0.005498 0.543639
O O4 0.309727 0.692862 0.793336
O O5 0.539629 0.210848 0.389935
O O6 0.393610 0.322465 0.405853
O O7 0.597690 0.963282 0.570551
O O8 0.500000 0.000000 0.000000
O O9 0.195750 0.361599 0.213812
O O10 0.319723 0.024815 0.852609
O O11 0.660544 0.247307 0.538587
O O12 0.484586 0.343819 0.991541
O O13 0.891667 0.321215 0.855999
O O14 0.797881 0.279006 0.856558
O O15 0.905148 0.323381 0.396551
O O16 0.000000 0.000000 0.000000
O O17 0.271660 0.509637 0.650158
#
# Coordination Sequence:
#
# PCOD9036612 Si02
#       8
#     2   2   2   2   2   2   2   2
#     4  11  23  41  65  97 140 183 229 278 324 404
#     4  11  22  36  60  95 149 191 233 276 319 399
#     4  10  24  41  59 100 140 193 223 274 339 404
#     4  10  23  38  63  94 151 187 232 274 323 399
#     4  12  27  50  77 105 130 167 234 306 356 413
#     4  12  26  45  76 102 139 181 228 279 359 421
#     4  11  22  44  66  99 130 183 220 284 344 398
#     4  11  24  39  63 104 136 195 237 273 325 403
#
# _framework density 23.834955000000001
#
# number of rings (size 3 to 8) (size 9 to 14) (size 15 to 20)
#    0.000    1.000    3.750    1.875    7.000    7.000 
#    0.000    0.000    0.000   10.500    0.000    0.000 
#    0.000    0.000    0.000    0.000    0.000    0.000 
#
# Total GULP energy -89273.948481 kJ/mol
# GULP energy per Si atom -5579.621780 kJ/mol
# Density = 2.378071 g / cm^3
# Si number density = 23.834955 Si / 1000 Ang^3
#
#
#
# Elastic Constant Matrix: (Units=GPa)
#
#
# Indices 1 2 3 4 5 6 
#
# 1 79.1610 46.7738 35.6215 0.0027 -21.2715 0.5853
# 2 46.7738 135.0341 63.1793 39.7664 -8.6590 1.6381
# 3 35.6215 63.1793 116.5371 16.2082 -45.8842 3.2709
# 4 0.0027 39.7664 16.2082 26.8888 3.4723 -2.8333
# 5 -21.2715 -8.6590 -45.8842 3.4723 42.2937 12.0090
# 6 0.5853 1.6381 3.2709 -2.8333 12.0090 30.1069
#
#
#
# Elastic Compliance Matrix: (Units=1/GPa)
#
#
# Indices 1 2 3 4 5 6 
#
# 1 0.021733 -0.012289 0.001689 0.015670 0.009612 -0.002297
# 2 -0.012289 0.023336 -0.007965 -0.028685 -0.007754 0.000228
# 3 0.001689 -0.007965 0.029648 -0.013004 0.037891 -0.019158
# 4 0.015670 -0.028685 -0.013004 0.093091 -0.025924 0.021770
# 5 0.009612 -0.007754 0.037891 -0.025924 0.081109 -0.038674
# 6 -0.002297 0.000228 -0.019158 0.021770 -0.038674 0.052804
#
#
# Mechanical properties :
#
#
# Convention : Reuss Voigt Hill
#
# Bulk Modulus (GPa) = 26.60429 69.09795 47.85112
# Shear Modulus (GPa) = 14.22960 32.20172 23.21566
#
# Velocity S-wave (km/s) = 2.44602 3.67962 3.12431
# Velocity P-wave (km/s) = 4.37761 6.86338 5.75627
#
# Compressibility (1/GPa) = 0.03758792
#
# Stress axis : x y z
#
# Youngs Moduli (GPa) = 46.01310 42.85187 33.72883
#
# Poissons Ratio (x) = 0.52659 -0.05696
# Poissons Ratio (y) = 0.56544 0.26865
# Poissons Ratio (z) = -0.07771 0.34131
#
# Static dielectric constant tensor:
#      x y z
#    x 1.943290 0.005070 -0.011900 
#    y 0.005070 1.895410 -0.073070 
#    z -0.011900 -0.073070 2.048880 
# 
# From -- ./inp_files/126957.got.cif
#   From: 2010.05.17/outbox.cif.g08.bks.cpg/sg2_64_cif.got.tgz:126957.got - 2010.06.03 11:33:40.
