data_PCOD9036621
_publ_section_title
;
Structure prediction by ZEFSAII (Michael W. Deem and Ramdas Pophale) SiO2 
 PCOD9036621
Probable space group: P -1
;
_chemical_formula_sum "Si O2"
_cell_formula_units_Z 16
_cell_length_a 10.010306
_cell_length_b 12.187101
_cell_length_c 15.558073
_cell_angle_alpha 130.313200
_cell_angle_beta 134.723838
_cell_angle_gamma 36.770131
_cell_volume 791.632687
_symmetry_space_group_name_H-M "P -1"
_symmetry_group_IT_number 2
_symmetry_cell_setting 'triclinic'
loop_
_space_group_symop_operation_xyz
x,y,z
-x,-y,-z
loop_
_atom_site_type_symbol
_atom_site_label
_atom_site_fract_x
_atom_site_fract_y
_atom_site_fract_z
Si Si1 0.295061 0.912380 0.684508
Si Si2 0.967214 0.384350 0.104672
Si Si3 0.253213 0.820481 0.428438
Si Si4 0.517942 0.599167 0.899428
Si Si5 0.099799 0.566459 0.700128
Si Si6 0.428156 0.980108 0.052558
Si Si7 0.718847 0.515722 0.760412
Si Si8 0.351908 0.217077 0.523437
O O1 0.297375 0.881127 0.568356
O O2 0.488737 0.715391 0.719479
O O3 0.380118 0.032177 0.804947
O O4 0.021377 0.014613 0.644061
O O5 0.979991 0.400604 0.220507
O O6 0.052382 0.491481 0.153043
O O7 0.698752 0.476898 0.997795
O O8 0.163110 0.170294 0.054561
O O9 0.259844 0.646563 0.359268
O O10 0.458092 0.766660 0.426976
O O11 0.290148 0.603886 0.795736
O O12 0.672307 0.508699 0.835705
O O13 0.438685 0.804163 0.972981
O O14 0.233180 0.355222 0.621535
O O15 0.868254 0.702276 0.602120
O O16 0.500000 0.000000 0.000000
O O17 0.500000 0.000000 0.500000
#
# Coordination Sequence:
#
# PCOD9036621 Si02
#       8
#     2   2   2   2   2   2   2   2
#     4  10  23  38  64 102 129 162 215 279 322 387
#     4  11  25  43  67  99 137 174 215 276 329 390
#     4  11  23  41  66  97 128 168 219 271 331 385
#     4  12  24  42  70  98 130 180 220 266 327 396
#     4  11  27  47  64 100 135 173 226 269 328 395
#     4  11  23  40  66  98 135 169 219 271 325 387
#     4  11  22  40  69  97 129 169 217 269 328 386
#     4  11  26  44  71  91 134 181 219 271 330 393
#
# _framework density 20.211395
#
# number of rings (size 3 to 8) (size 9 to 14) (size 15 to 20)
#    0.000    1.000    3.750    3.375    3.500    5.500 
#    0.000    0.000    0.000    0.000    0.000    0.000 
#    0.000    0.000    0.000    0.000    0.000    0.000 
#
# Total GULP energy -89495.997596 kJ/mol
# GULP energy per Si atom -5593.499850 kJ/mol
# Density = 2.016539 g / cm^3
# Si number density = 20.211395 Si / 1000 Ang^3
#
#
#
# Elastic Constant Matrix: (Units=GPa)
#
#
# Indices 1 2 3 4 5 6 
#
# 1 62.9412 13.7867 46.9707 2.5558 -9.4692 -22.9940
# 2 13.7867 114.1535 49.6557 3.9340 -0.3710 -12.4405
# 3 46.9707 49.6557 271.3483 -14.9395 -31.5398 -35.9461
# 4 2.5558 3.9340 -14.9395 37.7102 -0.3994 7.5659
# 5 -9.4692 -0.3710 -31.5398 -0.3994 44.6058 11.7283
# 6 -22.9940 -12.4405 -35.9461 7.5659 11.7283 28.7752
#
#
#
# Elastic Compliance Matrix: (Units=1/GPa)
#
#
# Indices 1 2 3 4 5 6 
#
# 1 0.024603 0.000350 -0.002307 -0.006498 -0.001528 0.019261
# 2 0.000350 0.009996 -0.001757 -0.002580 -0.002149 0.003961
# 3 -0.002307 -0.001757 0.005103 0.001941 0.002535 0.002228
# 4 -0.006498 -0.002580 0.001941 0.030749 0.003801 -0.013518
# 5 -0.001528 -0.002149 0.002535 0.003801 0.026767 -0.010892
# 6 0.019261 0.003961 0.002228 -0.013518 -0.010892 0.062633
#
#
# Mechanical properties :
#
#
# Convention : Reuss Voigt Hill
#
# Bulk Modulus (GPa) = 30.98406 74.36324 52.67365
# Shear Modulus (GPa) = 28.08420 44.75356 36.41888
#
# Velocity S-wave (km/s) = 3.73167 4.71071 4.24948
# Velocity P-wave (km/s) = 5.82499 8.15232 7.08487
#
# Compressibility (1/GPa) = 0.03227466
#
# Stress axis : x y z
#
# Youngs Moduli (GPa) = 40.64500 100.04309 195.97103
#
# Poissons Ratio (x) = -0.03502 0.45204
# Poissons Ratio (y) = -0.01423 0.34431
# Poissons Ratio (z) = 0.09375 0.17577
#
# Static dielectric constant tensor:
#      x y z
#    x 1.695600 -0.012660 -0.008050 
#    y -0.012660 1.711820 0.003520 
#    z -0.008050 0.003520 1.710190 
# 
# From -- ./inp_files/452580.got.cif
#   From: 2010.05.17/outbox.cif.g08.bks.cpg/sg2_227_cif.got.tgz:452580.got - 2010.06.03 11:33:40.
