data_PCOD9036822
_publ_section_title
;
Structure prediction by ZEFSAII (Michael W. Deem and Ramdas Pophale) SiO2 
 PCOD9036822
Probable space group: P -1
;
_chemical_formula_sum "Si O2"
_cell_formula_units_Z 14
_cell_length_a 14.301673
_cell_length_b 6.514011
_cell_length_c 8.189277
_cell_angle_alpha 96.416029
_cell_angle_beta 55.342703
_cell_angle_gamma 86.818285
_cell_volume 616.976371
_symmetry_space_group_name_H-M "P -1"
_symmetry_group_IT_number 2
_symmetry_cell_setting 'triclinic'
loop_
_space_group_symop_operation_xyz
x,y,z
-x,-y,-z
loop_
_atom_site_type_symbol
_atom_site_label
_atom_site_fract_x
_atom_site_fract_y
_atom_site_fract_z
Si Si1 0.862840 0.014769 0.953289
Si Si2 0.048612 0.670255 0.851841
Si Si3 0.270124 0.630019 0.052998
Si Si4 0.592720 0.007232 0.650573
Si Si5 0.648075 0.797866 0.232573
Si Si6 0.270551 0.626266 0.427697
Si Si7 0.479115 0.351439 0.159983
O O1 0.905477 0.158111 0.063960
O O2 0.741880 0.944785 0.109741
O O3 0.833969 0.183522 0.853345
O O4 0.953778 0.803316 0.840598
O O5 0.159525 0.581425 0.628819
O O6 0.000000 0.500000 0.000000
O O7 0.261967 0.557995 0.241742
O O8 0.287077 0.433764 0.895439
O O9 0.391966 0.713343 0.914249
O O10 0.470322 0.151675 0.748873
O O11 0.697602 0.138810 0.581279
O O12 0.614365 0.860019 0.457068
O O13 0.578661 0.858070 0.805136
O O14 0.387707 0.500422 0.371866
O O15 0.500000 0.500000 0.000000
#
# Coordination Sequence:
#
# PCOD9036822 Si02
#       7
#     2   2   2   2   2   2   2
#     4  11  24  45  70 100 137 185 231 295 346 406
#     4  11  26  48  74  98 136 185 245 293 342 414
#     4  11  24  42  68 105 150 174 229 287 352 416
#     4  11  23  40  71 101 144 184 234 273 352 420
#     4  11  23  40  68 108 136 185 227 294 338 418
#     4  11  25  45  69 105 140 190 228 284 352 417
#     4  10  23  39  63 103 146 178 215 278 346 415
#
# _framework density 22.691306000000001
#
# number of rings (size 3 to 8) (size 9 to 14) (size 15 to 20)
#    0.000    1.143    4.286    0.857    4.000    5.714 
#    0.000    2.857    0.000    0.000    0.000    0.000 
#    0.000    0.000    0.000    0.000    0.000    0.000 
#
# Total GULP energy -78051.654228 kJ/mol
# GULP energy per Si atom -5575.118159 kJ/mol
# Density = 2.263966 g / cm^3
# Si number density = 22.691306 Si / 1000 Ang^3
#
#
#
# Elastic Constant Matrix: (Units=GPa)
#
#
# Indices 1 2 3 4 5 6 
#
# 1 67.1497 25.8687 31.7036 -2.2950 -17.6013 -10.4583
# 2 25.8687 111.9811 51.8930 -11.6612 -6.9928 -6.1522
# 3 31.7036 51.8930 130.2132 2.0828 -24.8974 0.9414
# 4 -2.2950 -11.6612 2.0828 25.5474 8.0428 -0.7008
# 5 -17.6013 -6.9928 -24.8974 8.0428 30.9619 3.7522
# 6 -10.4583 -6.1522 0.9414 -0.7008 3.7522 32.6825
#
#
#
# Elastic Compliance Matrix: (Units=1/GPa)
#
#
# Indices 1 2 3 4 5 6 
#
# 1 0.020072 -0.003173 -0.001861 -0.002261 0.009207 0.004774
# 2 -0.003173 0.012850 -0.005590 0.007909 -0.005741 0.002393
# 3 -0.001861 -0.005590 0.012373 -0.006909 0.009821 -0.003280
# 4 -0.002261 0.007909 -0.006909 0.048980 -0.018277 0.004113
# 5 0.009207 -0.005741 0.009821 -0.018277 0.049423 -0.004484
# 6 0.004774 0.002393 -0.003280 0.004113 -0.004484 0.033273
#
#
# Mechanical properties :
#
#
# Convention : Reuss Voigt Hill
#
# Bulk Modulus (GPa) = 41.58376 58.69716 50.14046
# Shear Modulus (GPa) = 24.24416 31.16360 27.70388
#
# Velocity S-wave (km/s) = 3.27224 3.70992 3.49793
# Velocity P-wave (km/s) = 5.71335 6.65396 6.20151
#
# Compressibility (1/GPa) = 0.02404785
#
# Stress axis : x y z
#
# Youngs Moduli (GPa) = 49.81957 77.81974 80.82355
#
# Poissons Ratio (x) = 0.24692 0.15038
# Poissons Ratio (y) = 0.15807 0.45182
# Poissons Ratio (z) = 0.09269 0.43503
#
# Static dielectric constant tensor:
#      x y z
#    x 1.899260 -0.048900 0.021660 
#    y -0.048900 1.908730 0.016540 
#    z 0.021660 0.016540 1.843690 
# 
# From -- ./inp_files/288744.got.cif
#   From: 2010.05.17/outbox.cif.g08.bks.cpg/sg2_145_cif.got.tgz:288744.got - 2010.06.03 11:33:40.
