data_PCOD9036010
_publ_section_title
;
Structure prediction by ZEFSAII (Michael W. Deem and Ramdas Pophale) SiO2 
 PCOD9036010
Probable space group: P -1
;
_chemical_formula_sum "Si O2"
_cell_formula_units_Z 14
_cell_length_a 11.079834
_cell_length_b 4.948971
_cell_length_c 18.328246
_cell_angle_alpha 101.034350
_cell_angle_beta 146.983545
_cell_angle_gamma 88.183733
_cell_volume 521.665239
_symmetry_space_group_name_H-M "P -1"
_symmetry_group_IT_number 2
_symmetry_cell_setting 'triclinic'
loop_
_space_group_symop_operation_xyz
x,y,z
-x,-y,-z
loop_
_atom_site_type_symbol
_atom_site_label
_atom_site_fract_x
_atom_site_fract_y
_atom_site_fract_z
Si Si1 0.866453 0.602842 0.623337
Si Si2 0.731402 0.698461 0.157251
Si Si3 0.136709 0.905216 0.632117
Si Si4 0.987842 0.945752 0.165658
Si Si5 0.775033 0.604188 0.906616
Si Si6 0.486613 0.032485 0.273214
Si Si7 0.548648 0.198034 0.604777
O O1 0.599629 0.570514 0.468108
O O2 0.034734 0.401926 0.715566
O O3 0.874172 0.755039 0.716004
O O4 0.983309 0.736877 0.611323
O O5 0.704972 0.843829 0.227139
O O6 0.807283 0.902264 0.138267
O O7 0.500000 0.500000 0.000000
O O8 0.321351 0.785142 0.673925
O O9 0.000000 0.000000 0.500000
O O10 0.179686 0.762154 0.245841
O O11 0.828149 0.836185 0.010213
O O12 0.600128 0.297632 0.812890
O O13 0.706566 0.790703 0.816484
O O14 0.000000 0.500000 0.000000
O O15 0.563002 0.983774 0.390725
O O16 0.500000 0.000000 0.500000
#
# Coordination Sequence:
#
# PCOD9036010 Si02
#       7
#     2   2   2   2   2   2   2
#     4  10  24  45  70 100 142 193 247 302 369 443
#     4  11  26  44  70 103 145 196 251 304 372 449
#     4  11  25  45  69 105 146 188 249 305 378 437
#     4  10  24  43  69 103 141 188 245 303 372 438
#     4  12  27  46  73 109 148 192 243 304 374 439
#     4  12  27  47  74 109 149 191 244 308 371 440
#     4  10  22  47  69 103 140 191 245 303 367 441
#
# _framework density 26.837136999999998
#
# number of rings (size 3 to 8) (size 9 to 14) (size 15 to 20)
#    0.000    1.143    2.857    1.286    8.000    4.571 
#    0.000    0.000    0.000    0.000    0.000    0.000 
#    0.000    0.000    0.000    0.000    0.000    0.000 
#
# Total GULP energy -77968.138225 kJ/mol
# GULP energy per Si atom -5569.152730 kJ/mol
# Density = 2.677605 g / cm^3
# Si number density = 26.837137 Si / 1000 Ang^3
#
#
#
# Elastic Constant Matrix: (Units=GPa)
#
#
# Indices 1 2 3 4 5 6 
#
# 1 136.4085 9.1883 16.0312 12.6429 -20.2266 -10.5761
# 2 9.1883 67.5876 22.0256 -8.4250 -10.9605 -8.4556
# 3 16.0312 22.0256 132.9363 17.4847 -37.0389 -9.6884
# 4 12.6429 -8.4250 17.4847 27.0412 -12.2457 -1.8265
# 5 -20.2266 -10.9605 -37.0389 -12.2457 57.4097 6.2309
# 6 -10.5761 -8.4556 -9.6884 -1.8265 6.2309 29.8855
#
#
#
# Elastic Compliance Matrix: (Units=1/GPa)
#
#
# Indices 1 2 3 4 5 6 
#
# 1 0.008119 -0.001048 0.000321 -0.003313 0.001935 0.002075
# 2 -0.001048 0.018055 -0.003096 0.009603 0.002721 0.003753
# 3 0.000321 -0.003096 0.010125 -0.005422 0.004768 0.001194
# 4 -0.003313 0.009603 -0.005422 0.048447 0.007371 0.001211
# 5 0.001935 0.002721 0.004768 0.007371 0.023424 -0.001433
# 6 0.002075 0.003753 0.001194 0.001211 -0.001433 0.036017
#
#
# Mechanical properties :
#
#
# Convention : Reuss Voigt Hill
#
# Bulk Modulus (GPa) = 34.90136 47.93587 41.41861
# Shear Modulus (GPa) = 30.98182 42.17976 36.58079
#
# Velocity S-wave (km/s) = 3.40139 3.96876 3.69598
# Velocity P-wave (km/s) = 5.33470 6.23714 5.80349
#
# Compressibility (1/GPa) = 0.02865218
#
# Stress axis : x y z
#
# Youngs Moduli (GPa) = 123.17228 55.38629 98.76078
#
# Poissons Ratio (x) = 0.05803 -0.03168
# Poissons Ratio (y) = 0.12906 0.30581
# Poissons Ratio (z) = -0.03951 0.17150
#
# Static dielectric constant tensor:
#      x y z
#    x 2.154710 0.771690 0.856620 
#    y 0.771690 -3.364950 -4.918940 
#    z 0.856620 -4.918940 -1.972480 
# 
# From -- ./inp_files/71210.got.cif
#   From: 2010.05.17/outbox.cif.g08.bks.cpg/sg2_36_cif.got.tgz:71210.got - 2010.06.03 11:33:40.
