data_PCOD9036240
_publ_section_title
;
Structure prediction by ZEFSAII (Michael W. Deem and Ramdas Pophale) SiO2 
 PCOD9036240
Probable space group: P -1
;
_chemical_formula_sum "Si O2"
_cell_formula_units_Z 12
_cell_length_a 6.122532
_cell_length_b 17.715752
_cell_length_c 5.390447
_cell_angle_alpha 115.148765
_cell_angle_beta 101.163062
_cell_angle_gamma 67.903970
_cell_volume 489.985031
_symmetry_space_group_name_H-M "P -1"
_symmetry_group_IT_number 2
_symmetry_cell_setting 'triclinic'
loop_
_space_group_symop_operation_xyz
x,y,z
-x,-y,-z
loop_
_atom_site_type_symbol
_atom_site_label
_atom_site_fract_x
_atom_site_fract_y
_atom_site_fract_z
Si Si1 0.655622 0.987549 0.765457
Si Si2 0.097992 0.579868 0.557046
Si Si3 0.063392 0.804226 0.506351
Si Si4 0.209404 0.300495 0.943392
Si Si5 0.704511 0.167103 0.924747
Si Si6 0.400616 0.456377 0.127922
O O1 0.848027 0.891156 0.656249
O O2 0.500000 0.000000 0.500000
O O3 0.769282 0.065217 0.876388
O O4 0.500000 0.000000 0.000000
O O5 0.167475 0.540840 0.246775
O O6 0.363722 0.575373 0.690707
O O7 0.000000 0.500000 0.500000
O O8 0.915942 0.662353 0.770915
O O9 0.969991 0.724334 0.310257
O O10 0.181750 0.823035 0.302115
O O11 0.225454 0.784446 0.757802
O O12 0.423695 0.209965 0.901443
O O13 0.322993 0.370823 0.958092
O O14 0.500000 0.500000 0.000000
#
# Coordination Sequence:
#
# PCOD9036240 Si02
#       6
#     2   2   2   2   2   2
#     4  12  24  48  81 109 153 206 252 303 375 448
#     4   9  21  46  68 100 137 184 240 300 376 445
#     4  12  27  50  75 111 154 206 248 315 373 442
#     4  11  25  48  71 111 150 193 251 318 372 446
#     4  12  27  50  75 112 156 200 256 305 378 449
#     4  10  22  48  73 105 137 192 250 302 384 452
#
# _framework density 24.490544
#
# number of rings (size 3 to 8) (size 9 to 14) (size 15 to 20)
#    0.000    1.000    1.667    4.000    0.000    2.667 
#   39.000    0.000    0.000    0.000    0.000    0.000 
#    0.000    0.000    0.000    0.000    0.000    0.000 
#
# Total GULP energy -66997.181152 kJ/mol
# GULP energy per Si atom -5583.098429 kJ/mol
# Density = 2.443480 g / cm^3
# Si number density = 24.490544 Si / 1000 Ang^3
#
#
#
# Elastic Constant Matrix: (Units=GPa)
#
#
# Indices 1 2 3 4 5 6 
#
# 1 114.9771 22.3078 60.6545 11.8551 -21.7001 22.0651
# 2 22.3078 82.4842 21.2536 25.3361 -10.3344 12.2722
# 3 60.6545 21.2536 136.9435 0.9286 -15.8376 20.7490
# 4 11.8551 25.3361 0.9286 51.5179 -0.6460 -1.1731
# 5 -21.7001 -10.3344 -15.8376 -0.6460 77.6168 -0.2778
# 6 22.0651 12.2722 20.7490 -1.1731 -0.2778 46.5051
#
#
#
# Elastic Compliance Matrix: (Units=1/GPa)
#
#
# Indices 1 2 3 4 5 6 
#
# 1 0.012756 -0.000545 -0.004670 -0.002640 0.002505 -0.003876
# 2 -0.000545 0.015689 -0.001442 -0.007623 0.001567 -0.003421
# 3 -0.004670 -0.001442 0.009916 0.001571 0.000532 -0.001785
# 4 -0.002640 -0.007623 0.001571 0.023795 -0.001223 0.003156
# 5 0.002505 0.001567 0.000532 -0.001223 0.013885 -0.001787
# 6 -0.003876 -0.003421 -0.001785 0.003156 -0.001787 0.025110
#
#
# Mechanical properties :
#
#
# Convention : Reuss Voigt Hill
#
# Bulk Modulus (GPa) = 39.92683 60.31517 50.12100
# Shear Modulus (GPa) = 40.71170 50.47387 45.59278
#
# Velocity S-wave (km/s) = 4.08161 4.54470 4.31936
# Velocity P-wave (km/s) = 6.20895 7.22637 6.73689
#
# Compressibility (1/GPa) = 0.02504582
#
# Stress axis : x y z
#
# Youngs Moduli (GPa) = 78.39662 63.73786 100.84724
#
# Poissons Ratio (x) = 0.03473 0.47098
# Poissons Ratio (y) = 0.04272 0.14546
# Poissons Ratio (z) = 0.36613 0.09194
#
# Static dielectric constant tensor:
#      x y z
#    x 1.857940 0.070430 -0.050900 
#    y 0.070430 1.991060 -0.120290 
#    z -0.050900 -0.120290 2.265250 
# 
# From -- ./inp_files/3735.got.cif
#   From: 2010.05.17/outbox.cif.g08.bks.cpg/sg2_2_cif.got.tgz:3735.got - 2010.06.03 11:33:40.
