data_PCOD9036480
_publ_section_title
;
Structure prediction by ZEFSAII (Michael W. Deem and Ramdas Pophale) SiO2 
 PCOD9036480
Probable space group: P -1
;
_chemical_formula_sum "Si O2"
_cell_formula_units_Z 14
_cell_length_a 7.199726
_cell_length_b 7.708815
_cell_length_c 16.245836
_cell_angle_alpha 48.289209
_cell_angle_beta 62.676401
_cell_angle_gamma 80.294977
_cell_volume 585.138663
_symmetry_space_group_name_H-M "P -1"
_symmetry_group_IT_number 2
_symmetry_cell_setting 'triclinic'
loop_
_space_group_symop_operation_xyz
x,y,z
-x,-y,-z
loop_
_atom_site_type_symbol
_atom_site_label
_atom_site_fract_x
_atom_site_fract_y
_atom_site_fract_z
Si Si1 0.355396 0.809280 0.439342
Si Si2 0.180853 0.307888 0.131156
Si Si3 0.388818 0.815476 0.978477
Si Si4 0.900957 0.088559 0.391589
Si Si5 0.471797 0.326086 0.837358
Si Si6 0.283376 0.755001 0.776113
Si Si7 0.319062 0.416570 0.445685
O O1 0.175228 0.885409 0.508758
O O2 0.262848 0.625769 0.445502
O O3 0.493111 0.671990 0.514322
O O4 0.526502 0.036359 0.298537
O O5 0.369721 0.189939 0.097852
O O6 0.122253 0.226750 0.263747
O O7 0.955949 0.229458 0.154161
O O8 0.248458 0.594193 0.028601
O O9 0.346976 0.080065 0.899570
O O10 0.381478 0.748092 0.097775
O O11 0.734211 0.197746 0.333596
O O12 0.858761 0.818159 0.456700
O O13 0.332219 0.494943 0.855681
O O14 0.604449 0.479853 0.690947
#
# Coordination Sequence:
#
# PCOD9036480 Si02
#       7
#     2   2   2   2   2   2   2
#     4  10  17  32  64  99 126 149 185 269 327 347
#     4   9  21  43  62  83 119 168 208 253 301 365
#     4  10  24  42  58  79 132 173 200 246 311 349
#     4   9  17  38  63  94 122 146 199 269 299 366
#     4  11  21  40  62  87 124 166 205 257 296 367
#     4   9  18  36  68  88 119 150 210 256 298 360
#     4  10  18  33  61  97 124 153 194 250 323 362
#
# _framework density 23.925953
#
# number of rings (size 3 to 8) (size 9 to 14) (size 15 to 20)
#    0.857    1.429    2.857    0.857    0.000    3.429 
#    5.143    4.286    0.000    0.000    0.000    0.000 
#    0.000    0.000    0.000    0.000    0.000    0.000 
#
# Total GULP energy -78221.733832 kJ/mol
# GULP energy per Si atom -5587.266702 kJ/mol
# Density = 2.387150 g / cm^3
# Si number density = 23.925953 Si / 1000 Ang^3
#
#
#
# Elastic Constant Matrix: (Units=GPa)
#
#
# Indices 1 2 3 4 5 6 
#
# 1 49.9457 26.3081 11.4550 -6.9379 5.7501 -9.7213
# 2 26.3081 137.5199 48.0746 -15.8969 -22.5153 3.1507
# 3 11.4550 48.0746 104.9088 -24.0193 -6.6297 -13.1140
# 4 -6.9379 -15.8969 -24.0193 34.1957 5.4471 0.6501
# 5 5.7501 -22.5153 -6.6297 5.4471 20.5339 -2.2604
# 6 -9.7213 3.1507 -13.1140 0.6501 -2.2604 26.1323
#
#
#
# Elastic Compliance Matrix: (Units=1/GPa)
#
#
# Indices 1 2 3 4 5 6 
#
# 1 0.029270 -0.008951 0.002680 0.006229 -0.017517 0.011643
# 2 -0.008951 0.013260 -0.005307 -0.001664 0.015087 -0.006246
# 3 0.002680 -0.005307 0.014490 0.008612 -0.003250 0.008413
# 4 0.006229 -0.001664 0.008612 0.037300 -0.010129 0.005035
# 5 -0.017517 0.015087 -0.003250 -0.010129 0.071395 -0.003539
# 6 0.011643 -0.006246 0.008413 0.005035 -0.003539 0.047141
#
#
# Mechanical properties :
#
#
# Convention : Reuss Voigt Hill
#
# Bulk Modulus (GPa) = 29.53041 51.56109 40.54575
# Shear Modulus (GPa) = 20.21830 29.94150 25.07990
#
# Velocity S-wave (km/s) = 2.91010 3.54138 3.24115
# Velocity P-wave (km/s) = 4.86424 6.19023 5.56686
#
# Compressibility (1/GPa) = 0.03386340
#
# Stress axis : x y z
#
# Youngs Moduli (GPa) = 34.16488 75.41355 69.01530
#
# Poissons Ratio (x) = 0.67503 -0.18499
# Poissons Ratio (y) = 0.30581 0.36630
# Poissons Ratio (z) = -0.09158 0.40026
#
# Static dielectric constant tensor:
#      x y z
#    x 1.948550 0.000870 0.041500 
#    y 0.000870 1.901410 0.004780 
#    z 0.041500 0.004780 1.918020 
# 
# From -- ./inp_files/586483.got.cif
#   From: 2010.05.17/outbox.cif.g08.bks.cpg/sg2_294_cif.got.tgz:586483.got - 2010.06.03 11:33:40.
