data_PCOD9036376
_publ_section_title
;
Structure prediction by ZEFSAII (Michael W. Deem and Ramdas Pophale) SiO2 
 PCOD9036376
Probable space group: P -1
;
_chemical_formula_sum "Si O2"
_cell_formula_units_Z 16
_cell_length_a 11.823211
_cell_length_b 11.464533
_cell_length_c 6.744682
_cell_angle_alpha 135.458089
_cell_angle_beta 109.910934
_cell_angle_gamma 88.381159
_cell_volume 570.157937
_symmetry_space_group_name_H-M "P -1"
_symmetry_group_IT_number 2
_symmetry_cell_setting 'triclinic'
loop_
_space_group_symop_operation_xyz
x,y,z
-x,-y,-z
loop_
_atom_site_type_symbol
_atom_site_label
_atom_site_fract_x
_atom_site_fract_y
_atom_site_fract_z
Si Si1 0.632647 0.984300 0.495072
Si Si2 0.210553 0.651663 0.617286
Si Si3 0.550106 0.349978 0.442757
Si Si4 0.700739 0.852012 0.761090
Si Si5 0.702539 0.663649 0.160625
Si Si6 0.083581 0.241417 0.084372
Si Si7 0.967018 0.695373 0.409830
Si Si8 0.158661 0.714807 0.121879
O O1 0.710502 0.988588 0.755341
O O2 0.628916 0.791737 0.188352
O O3 0.500000 0.000000 0.500000
O O4 0.709010 0.134831 0.572536
O O5 0.356121 0.712880 0.714971
O O6 0.163280 0.439186 0.307013
O O7 0.184790 0.672254 0.856470
O O8 0.117664 0.725853 0.517632
O O9 0.500000 0.500000 0.500000
O O10 0.431592 0.193585 0.262884
O O11 0.639842 0.466009 0.812113
O O12 0.687749 0.676550 0.405426
O O13 0.824048 0.874899 0.994641
O O14 0.853632 0.753043 0.314029
O O15 0.042282 0.249214 0.299207
O O16 0.953176 0.197343 0.832899
O O17 0.903076 0.484961 0.087264
#
# Coordination Sequence:
#
# PCOD9036376 Si02
#       8
#     2   2   2   2   2   2   2   2
#     4  10  23  35  56  82 114 147 189 224 276 331
#     4   9  18  31  56  90 112 138 182 233 283 318
#     4  12  22  33  59  85 115 147 180 233 284 322
#     4   9  20  36  54  84 109 146 189 224 267 332
#     4   9  22  37  57  82 110 143 194 233 265 331
#     4   8  14  33  55  84 110 133 189 232 265 318
#     4   8  16  34  59  83 107 139 194 234 263 320
#     4   9  18  33  60  84 109 146 179 234 276 323
#
# _framework density 28.062398000000002
#
# number of rings (size 3 to 8) (size 9 to 14) (size 15 to 20)
#    0.750    2.000    1.250    1.875    3.500    1.000 
#    0.000    0.625    0.000    3.000    0.000    0.000 
#    0.000    0.000    0.000    0.000    0.000    0.000 
#
# Total GULP energy -89452.891646 kJ/mol
# GULP energy per Si atom -5590.805728 kJ/mol
# Density = 2.799853 g / cm^3
# Si number density = 28.062398 Si / 1000 Ang^3
#
#
#
# Elastic Constant Matrix: (Units=GPa)
#
#
# Indices 1 2 3 4 5 6 
#
# 1 214.8535 24.1402 5.5023 8.6313 21.3100 -14.7716
# 2 24.1402 91.4574 9.2152 10.9328 2.7144 -21.6878
# 3 5.5023 9.2152 50.8890 6.6612 -8.7203 -11.3461
# 4 8.6313 10.9328 6.6612 47.3899 2.6150 1.8647
# 5 21.3100 2.7144 -8.7203 2.6150 28.3982 -5.0419
# 6 -14.7716 -21.6878 -11.3461 1.8647 -5.0419 49.1015
#
#
#
# Elastic Compliance Matrix: (Units=1/GPa)
#
#
# Indices 1 2 3 4 5 6 
#
# 1 0.005237 -0.001000 -0.000896 -0.000399 -0.003978 0.000534
# 2 -0.001000 0.012877 -0.000520 -0.002963 0.000598 0.005441
# 3 -0.000896 -0.000520 0.023247 -0.003730 0.009263 0.005965
# 4 -0.000399 -0.002963 -0.003730 0.022700 -0.003273 -0.003489
# 5 -0.003978 0.000598 0.009263 -0.003273 0.042295 0.005675
# 6 0.000534 0.005441 0.005965 -0.003489 0.005675 0.025023
#
#
# Mechanical properties :
#
#
# Convention : Reuss Voigt Hill
#
# Bulk Modulus (GPa) = 27.37512 48.32392 37.84952
# Shear Modulus (GPa) = 33.69570 46.20073 39.94821
#
# Velocity S-wave (km/s) = 3.46893 4.06193 3.77709
# Velocity P-wave (km/s) = 5.08143 6.26551 5.70428
#
# Compressibility (1/GPa) = 0.03652952
#
# Stress axis : x y z
#
# Youngs Moduli (GPa) = 190.95512 77.65838 43.01567
#
# Poissons Ratio (x) = 0.07764 0.03853
# Poissons Ratio (y) = 0.19091 0.02238
# Poissons Ratio (z) = 0.17103 0.04041
#
# Static dielectric constant tensor:
#      x y z
#    x 2.178280 -0.006050 -0.036660 
#    y -0.006050 2.253090 -0.118720 
#    z -0.036660 -0.118720 2.281600 
# 
# From -- ./inp_files/274720.got.cif
#   From: 2010.05.17/outbox.cif.g08.bks.cpg/sg2_138_cif.got.tgz:274720.got - 2010.06.03 11:33:40.
