data_PCOD9036001
_publ_section_title
;
Structure prediction by ZEFSAII (Michael W. Deem and Ramdas Pophale) SiO2 
 PCOD9036001
Probable space group: P -1
;
_chemical_formula_sum "Si O2"
_cell_formula_units_Z 16
_cell_length_a 18.802963
_cell_length_b 8.897821
_cell_length_c 22.174124
_cell_angle_alpha 148.499402
_cell_angle_beta 157.355698
_cell_angle_gamma 30.693518
_cell_volume 695.436608
_symmetry_space_group_name_H-M "P -1"
_symmetry_group_IT_number 2
_symmetry_cell_setting 'triclinic'
loop_
_space_group_symop_operation_xyz
x,y,z
-x,-y,-z
loop_
_atom_site_type_symbol
_atom_site_label
_atom_site_fract_x
_atom_site_fract_y
_atom_site_fract_z
Si Si1 0.302324 0.976584 0.635797
Si Si2 0.718533 0.252360 0.579260
Si Si3 0.384815 0.801902 0.872844
Si Si4 0.400773 0.585089 0.264181
Si Si5 0.082127 0.701517 0.504285
Si Si6 0.870143 0.796310 0.077219
Si Si7 0.602425 0.272520 0.946845
Si Si8 0.628737 0.897331 0.486274
O O1 0.225173 0.803377 0.465732
O O2 0.416793 0.743833 0.698463
O O3 0.470280 0.063383 0.764309
O O4 0.122021 0.279677 0.617563
O O5 0.500000 0.500000 0.500000
O O6 0.895049 0.325398 0.773455
O O7 0.700648 0.956069 0.497363
O O8 0.239678 0.729322 0.686197
O O9 0.556698 0.499903 0.932158
O O10 0.244631 0.993357 0.883461
O O11 0.500000 0.000000 0.000000
O O12 0.445313 0.780384 0.311107
O O13 0.405784 0.796758 0.397564
O O14 0.212991 0.482484 0.084011
O O15 0.185651 0.389686 0.441904
O O16 0.000000 0.000000 0.500000
O O17 0.806059 0.025371 0.047417
O O18 0.500000 0.500000 0.000000
#
# Coordination Sequence:
#
# PCOD9036001 Si02
#       8
#     2   2   2   2   2   2   2   2
#     4  11  22  44  67  93 140 177 232 289 344 415
#     4  12  25  44  68 101 139 183 237 292 347 416
#     4  11  23  40  66 101 144 176 228 289 347 415
#     4  10  22  47  68  96 138 186 234 286 343 426
#     4  12  25  39  70 106 133 179 229 284 353 412
#     4  10  23  44  70  97 139 187 232 290 349 414
#     4   9  22  40  63  96 133 179 222 278 350 410
#     4  11  24  40  72  97 139 182 235 284 350 411
#
# _framework density 23.007128999999999
#
# number of rings (size 3 to 8) (size 9 to 14) (size 15 to 20)
#    0.000    1.250    3.750    1.500    7.000    1.500 
#    0.000    0.625    2.750    0.000    0.000    0.000 
#    0.000    0.000    0.000    0.000    0.000    0.000 
#
# Total GULP energy -89316.944741 kJ/mol
# GULP energy per Si atom -5582.309046 kJ/mol
# Density = 2.295476 g / cm^3
# Si number density = 23.007129 Si / 1000 Ang^3
#
#
#
# Elastic Constant Matrix: (Units=GPa)
#
#
# Indices 1 2 3 4 5 6 
#
# 1 56.2238 16.0112 21.3470 -5.4725 6.6291 15.0975
# 2 16.0112 102.3071 57.1629 -7.0656 16.4173 6.3638
# 3 21.3470 57.1629 134.3036 -13.0435 17.5315 19.3972
# 4 -5.4725 -7.0656 -13.0435 36.6039 -2.9379 5.6633
# 5 6.6291 16.4173 17.5315 -2.9379 35.4322 3.5417
# 6 15.0975 6.3638 19.3972 5.6633 3.5417 45.4990
#
#
#
# Elastic Compliance Matrix: (Units=1/GPa)
#
#
# Indices 1 2 3 4 5 6 
#
# 1 0.020973 -0.001770 -0.001107 0.003277 -0.001633 -0.006520
# 2 -0.001770 0.013407 -0.005140 0.000034 -0.003452 0.001168
# 3 -0.001107 -0.005140 0.010951 0.003158 -0.002188 -0.003805
# 4 0.003277 0.000034 0.003158 0.029981 0.000918 -0.006242
# 5 -0.001633 -0.003452 -0.002188 0.000918 0.031346 -0.000597
# 6 -0.006520 0.001168 -0.003805 -0.006242 -0.000597 0.026424
#
#
# Mechanical properties :
#
#
# Convention : Reuss Voigt Hill
#
# Bulk Modulus (GPa) = 34.13257 53.54189 43.83723
# Shear Modulus (GPa) = 31.47004 36.72792 34.09898
#
# Velocity S-wave (km/s) = 3.70244 3.99980 3.85399
# Velocity P-wave (km/s) = 5.75720 6.68233 6.23694
#
# Compressibility (1/GPa) = 0.02929753
#
# Stress axis : x y z
#
# Youngs Moduli (GPa) = 47.68080 74.58868 91.31370
#
# Poissons Ratio (x) = 0.13200 0.10110
# Poissons Ratio (y) = 0.08438 0.46933
# Poissons Ratio (z) = 0.05279 0.38337
#
# Static dielectric constant tensor:
#      x y z
#    x 2.004850 0.008150 -0.016620 
#    y 0.008150 1.926700 0.023450 
#    z -0.016620 0.023450 1.903390 
# 
# From -- ./inp_files/215806.got.cif
#   From: 2010.05.17/outbox.cif.g08.bks.cpg/sg2_108_cif.got.tgz:215806.got - 2010.06.03 11:33:40.
