data_PCOD9036895
_publ_section_title
;
Structure prediction by ZEFSAII (Michael W. Deem and Ramdas Pophale) SiO2 
 PCOD9036895
Probable space group: P -1
;
_chemical_formula_sum "Si O2"
_cell_formula_units_Z 14
_cell_length_a 5.117797
_cell_length_b 12.992320
_cell_length_c 17.606638
_cell_angle_alpha 152.045688
_cell_angle_beta 94.809825
_cell_angle_gamma 85.646281
_cell_volume 546.849830
_symmetry_space_group_name_H-M "P -1"
_symmetry_group_IT_number 2
_symmetry_cell_setting 'triclinic'
loop_
_space_group_symop_operation_xyz
x,y,z
-x,-y,-z
loop_
_atom_site_type_symbol
_atom_site_label
_atom_site_fract_x
_atom_site_fract_y
_atom_site_fract_z
Si Si1 0.895952 0.116571 0.220065
Si Si2 0.551503 0.983304 0.373250
Si Si3 0.775912 0.344229 0.515223
Si Si4 0.809871 0.188945 0.646282
Si Si5 0.720559 0.404536 0.268006
Si Si6 0.850108 0.520687 0.088293
Si Si7 0.401896 0.824618 0.043365
O O1 0.838057 0.307793 0.404705
O O2 0.839334 0.211346 0.197319
O O3 0.689453 0.924168 0.107380
O O4 0.188938 0.022120 0.171969
O O5 0.263821 0.895902 0.326606
O O6 0.699515 0.752208 0.234626
O O7 0.657835 0.112451 0.389262
O O8 0.587024 0.162665 0.559965
O O9 0.545778 0.512214 0.642919
O O10 0.050733 0.410712 0.604681
O O11 0.926043 0.429333 0.810689
O O12 0.000000 0.000000 0.500000
O O13 0.659575 0.315529 0.125125
O O14 0.658456 0.330683 0.987080
O O15 0.000000 0.500000 0.000000
#
# Coordination Sequence:
#
# PCOD9036895 Si02
#       7
#     2   2   2   2   2   2   2
#     4  12  26  49  70 102 142 177 229 294 345 401
#     4  10  23  39  65  93 133 171 219 274 327 404
#     4  12  26  43  76 103 136 179 230 283 352 401
#     4   9  21  39  62  87 132 168 222 269 326 378
#     4  12  26  47  74 104 133 179 238 288 339 410
#     4  11  25  40  63  95 137 175 220 268 329 409
#     4  12  27  45  73 101 140 188 226 274 355 409
#
# _framework density 25.601178000000001
#
# number of rings (size 3 to 8) (size 9 to 14) (size 15 to 20)
#    0.000    0.857    0.000    6.000   14.000    0.571 
#    0.000    0.000    0.000    0.000    0.000    0.000 
#    0.000    0.000    0.000    0.000    0.000    0.000 
#
# Total GULP energy -78366.422649 kJ/mol
# GULP energy per Si atom -5597.601618 kJ/mol
# Density = 2.554291 g / cm^3
# Si number density = 25.601178 Si / 1000 Ang^3
#
#
#
# Elastic Constant Matrix: (Units=GPa)
#
#
# Indices 1 2 3 4 5 6 
#
# 1 85.1720 -14.0273 26.2264 -8.1206 -4.7157 18.3913
# 2 -14.0273 99.3982 34.2368 1.5082 -1.4336 18.8516
# 3 26.2264 34.2368 77.9750 -10.6271 -14.5495 13.2308
# 4 -8.1206 1.5082 -10.6271 51.8376 2.7752 5.7837
# 5 -4.7157 -1.4336 -14.5495 2.7752 48.7445 1.7508
# 6 18.3913 18.8516 13.2308 5.7837 1.7508 30.9108
#
#
#
# Elastic Compliance Matrix: (Units=1/GPa)
#
#
# Indices 1 2 3 4 5 6 
#
# 1 0.018004 0.007216 -0.006640 0.002661 0.000280 -0.012784
# 2 0.007216 0.015701 -0.007610 0.000340 -0.000749 -0.010632
# 3 -0.006640 -0.007610 0.019866 0.003076 0.004916 -0.000765
# 4 0.002661 0.000340 0.003076 0.021105 0.000238 -0.007069
# 5 0.000280 -0.000749 0.004916 0.000238 0.022086 -0.003109
# 6 -0.012784 -0.010632 -0.000765 -0.007069 -0.003109 0.048268
#
#
# Mechanical properties :
#
#
# Convention : Reuss Voigt Hill
#
# Bulk Modulus (GPa) = 25.31509 39.49078 32.40294
# Shear Modulus (GPa) = 29.02530 40.70585 34.86557
#
# Velocity S-wave (km/s) = 3.37077 3.99181 3.69436
# Velocity P-wave (km/s) = 5.00591 6.05846 5.55716
#
# Compressibility (1/GPa) = 0.03950213
#
# Stress axis : x y z
#
# Youngs Moduli (GPa) = 55.54461 63.69151 50.33824
#
# Poissons Ratio (x) = -0.45959 0.33423
# Poissons Ratio (y) = -0.40081 0.38308
# Poissons Ratio (z) = 0.36880 0.48470
#
# Static dielectric constant tensor:
#      x y z
#    x 2.194550 -0.028870 0.022170 
#    y -0.028870 2.087900 -0.012850 
#    z 0.022170 -0.012850 1.994220 
# 
# From -- ./inp_files/107673.got.cif
#   From: 2010.05.17/outbox.cif.g08.bks.cpg/sg2_54_cif.got.tgz:107673.got - 2010.06.03 11:33:40.
