data_PCOD9036701
_publ_section_title
;
Structure prediction by ZEFSAII (Michael W. Deem and Ramdas Pophale) SiO2 
 PCOD9036701
Probable space group: P -1
;
_chemical_formula_sum "Si O2"
_cell_formula_units_Z 16
_cell_length_a 17.209906
_cell_length_b 7.954497
_cell_length_c 11.916368
_cell_angle_alpha 36.821715
_cell_angle_beta 134.880124
_cell_angle_gamma 141.106605
_cell_volume 598.898178
_symmetry_space_group_name_H-M "P -1"
_symmetry_group_IT_number 2
_symmetry_cell_setting 'triclinic'
loop_
_space_group_symop_operation_xyz
x,y,z
-x,-y,-z
loop_
_atom_site_type_symbol
_atom_site_label
_atom_site_fract_x
_atom_site_fract_y
_atom_site_fract_z
Si Si1 0.283302 0.765639 0.988803
Si Si2 0.011171 0.252185 0.060499
Si Si3 0.272678 0.139894 0.093683
Si Si4 0.236770 0.952868 0.623209
Si Si5 0.295577 0.421063 0.737784
Si Si6 0.982690 0.801122 0.472960
Si Si7 0.626125 0.341559 0.537419
Si Si8 0.628031 0.683446 0.648426
O O1 0.142513 0.456507 0.021900
O O2 0.313723 0.863555 0.837394
O O3 0.279065 0.069420 0.876703
O O4 0.373058 0.651837 0.198036
O O5 0.880451 0.069698 0.956712
O O6 0.000000 0.500000 0.000000
O O7 0.017756 0.006678 0.284543
O O8 0.331298 0.910157 0.248539
O O9 0.315395 0.245205 0.207160
O O10 0.316339 0.418473 0.893396
O O11 0.258504 0.298103 0.507930
O O12 0.287927 0.040902 0.503232
O O13 0.088369 0.694890 0.631365
O O14 0.167216 0.425141 0.574546
O O15 0.392798 0.666359 0.614046
O O16 0.000000 0.000000 0.500000
O O17 0.507111 0.343726 0.469153
#
# Coordination Sequence:
#
# PCOD9036701 Si02
#       8
#     2   2   2   2   2   2   2   2
#     4  11  22  39  65  94 128 158 208 265 320 364
#     4  11  19  37  68  93 122 159 210 268 308 367
#     4  11  25  42  65  93 128 169 213 259 317 377
#     4  11  23  40  67  98 125 165 213 268 312 369
#     4  10  23  38  69 101 114 164 221 268 305 367
#     4  11  17  34  65  98 124 146 213 266 306 363
#     4  11  24  43  69  88 123 175 225 255 299 373
#     4  12  27  43  58  94 138 172 202 257 325 383
#
# _framework density 26.715726
#
# number of rings (size 3 to 8) (size 9 to 14) (size 15 to 20)
#    0.000    1.000    6.250    2.250    1.750    5.000 
#    0.000    0.625    0.000    0.000    0.000    0.000 
#    0.000    0.000    0.000    0.000    0.000    0.000 
#
# Total GULP energy -89610.440043 kJ/mol
# GULP energy per Si atom -5600.652503 kJ/mol
# Density = 2.665492 g / cm^3
# Si number density = 26.715726 Si / 1000 Ang^3
#
#
#
# Elastic Constant Matrix: (Units=GPa)
#
#
# Indices 1 2 3 4 5 6 
#
# 1 133.9638 24.7725 40.0113 11.6281 -18.0173 32.4195
# 2 24.7725 46.5776 29.9877 14.2845 5.8043 -4.3255
# 3 40.0113 29.9877 149.6499 22.8641 -20.4749 17.8338
# 4 11.6281 14.2845 22.8641 38.5071 -6.6076 -3.9570
# 5 -18.0173 5.8043 -20.4749 -6.6076 53.7080 7.9976
# 6 32.4195 -4.3255 17.8338 -3.9570 7.9976 39.4349
#
#
#
# Elastic Compliance Matrix: (Units=1/GPa)
#
#
# Indices 1 2 3 4 5 6 
#
# 1 0.013802 -0.010356 0.001527 -0.001334 0.008403 -0.015012
# 2 -0.010356 0.037535 -0.007849 -0.006664 -0.014078 0.018367
# 3 0.001527 -0.007849 0.010185 -0.003410 0.006059 -0.008294
# 4 -0.001334 -0.006664 -0.003410 0.031721 0.002184 0.004648
# 5 0.008403 -0.014078 0.006059 0.002184 0.028018 -0.016656
# 6 -0.015012 0.018367 -0.008294 0.004648 -0.016656 0.047309
#
#
# Mechanical properties :
#
#
# Convention : Reuss Voigt Hill
#
# Bulk Modulus (GPa) = 35.50401 57.74825 46.62613
# Shear Modulus (GPa) = 23.66126 42.02465 32.84296
#
# Velocity S-wave (km/s) = 2.97925 3.97045 3.51001
# Velocity P-wave (km/s) = 5.01527 6.53315 5.82387
#
# Compressibility (1/GPa) = 0.02816583
#
# Stress axis : x y z
#
# Youngs Moduli (GPa) = 72.45116 26.64170 98.18331
#
# Poissons Ratio (x) = 0.27591 -0.14997
# Poissons Ratio (y) = 0.75034 0.77067
# Poissons Ratio (z) = -0.11066 0.20912
#
# Static dielectric constant tensor:
#      x y z
#    x 2.138700 -0.044560 -0.021300 
#    y -0.044560 2.195170 0.024190 
#    z -0.021300 0.024190 1.912450 
# 
# From -- ./inp_files/461823.got.cif
#   From: 2010.05.17/outbox.cif.g08.bks.cpg/sg2_231_cif.got.tgz:461823.got - 2010.06.03 11:33:40.
