data_PCOD9036171
_publ_section_title
;
Structure prediction by ZEFSAII (Michael W. Deem and Ramdas Pophale) SiO2 
 PCOD9036171
Probable space group: P -1
;
_chemical_formula_sum "Si O2"
_cell_formula_units_Z 14
_cell_length_a 5.147479
_cell_length_b 21.454931
_cell_length_c 5.836824
_cell_angle_alpha 80.016475
_cell_angle_beta 100.955281
_cell_angle_gamma 60.390110
_cell_volume 522.550874
_symmetry_space_group_name_H-M "P -1"
_symmetry_group_IT_number 2
_symmetry_cell_setting 'triclinic'
loop_
_space_group_symop_operation_xyz
x,y,z
-x,-y,-z
loop_
_atom_site_type_symbol
_atom_site_label
_atom_site_fract_x
_atom_site_fract_y
_atom_site_fract_z
Si Si1 0.310126 0.219604 0.649580
Si Si2 0.056463 0.921233 0.256595
Si Si3 0.877342 0.447242 0.550041
Si Si4 0.608113 0.289379 0.406887
Si Si5 0.146256 0.052189 0.300731
Si Si6 0.375804 0.585925 0.850697
Si Si7 0.894582 0.687620 0.026480
O O1 0.573639 0.133335 0.708393
O O2 0.515763 0.258160 0.628407
O O3 0.157258 0.248831 0.852996
O O4 0.981618 0.248209 0.444986
O O5 0.017466 0.897363 0.526224
O O6 0.992098 0.003363 0.249947
O O7 0.877702 0.919647 0.991706
O O8 0.500000 0.500000 0.500000
O O9 0.910632 0.398498 0.367321
O O10 0.000000 0.500000 0.500000
O O11 0.072072 0.387046 0.813551
O O12 0.475900 0.379273 0.307561
O O13 0.409125 0.275106 0.202971
O O14 0.500000 0.000000 0.500000
O O15 0.500000 0.500000 0.000000
O O16 0.242399 0.642267 0.003694
#
# Coordination Sequence:
#
# PCOD9036171 Si02
#       7
#     2   2   2   2   2   2   2
#     4  12  30  48  75 107 156 201 247 309 382 465
#     4  10  25  45  74 119 154 204 258 309 381 451
#     4  12  27  43  71 101 135 181 242 312 390 454
#     4  12  28  50  70 108 146 196 254 309 381 469
#     4  10  22  47  80 116 157 200 257 316 367 454
#     4  12  26  47  74 103 139 188 255 319 389 455
#     4  12  27  46  74 100 146 189 247 313 384 457
#
# _framework density 26.791651000000002
#
# number of rings (size 3 to 8) (size 9 to 14) (size 15 to 20)
#    0.000    0.571    4.286    1.286   10.000    1.143 
#    0.000    0.000    0.000    0.000    0.000    0.000 
#    0.000    0.000    0.000    0.000    0.000    0.000 
#
# Total GULP energy -77935.926739 kJ/mol
# GULP energy per Si atom -5566.851910 kJ/mol
# Density = 2.673067 g / cm^3
# Si number density = 26.791651 Si / 1000 Ang^3
#
#
#
# Elastic Constant Matrix: (Units=GPa)
#
#
# Indices 1 2 3 4 5 6 
#
# 1 147.0552 30.4347 24.8363 -1.1932 13.2787 -7.6884
# 2 30.4347 97.2785 30.2039 4.9774 -10.5804 -22.2621
# 3 24.8363 30.2039 130.2723 19.5441 12.4961 -23.8126
# 4 -1.1932 4.9774 19.5441 21.0804 -16.5418 5.0375
# 5 13.2787 -10.5804 12.4961 -16.5418 32.0581 -4.0177
# 6 -7.6884 -22.2621 -23.8126 5.0375 -4.0177 53.8953
#
#
#
# Elastic Compliance Matrix: (Units=1/GPa)
#
#
# Indices 1 2 3 4 5 6 
#
# 1 0.007972 -0.003241 0.000744 -0.005279 -0.007377 0.000071
# 2 -0.003241 0.014801 -0.005739 0.013200 0.015658 0.003049
# 3 0.000744 -0.005739 0.020038 -0.044045 -0.031694 0.008343
# 4 -0.005279 0.013200 -0.044045 0.179311 0.113344 -0.023071
# 5 -0.007377 0.015658 -0.031694 0.113344 0.108869 -0.011066
# 6 0.000071 0.003049 0.008343 -0.023071 -0.011066 0.024842
#
#
# Mechanical properties :
#
#
# Convention : Reuss Voigt Hill
#
# Bulk Modulus (GPa) = 37.96562 60.61731 49.29147
# Shear Modulus (GPa) = 13.12045 40.68216 26.90131
#
# Velocity S-wave (km/s) = 2.21537 3.90098 3.17218
# Velocity P-wave (km/s) = 4.55470 6.55475 5.64402
#
# Compressibility (1/GPa) = 0.02633962
#
# Stress axis : x y z
#
# Youngs Moduli (GPa) = 125.43383 67.56246 49.90542
#
# Poissons Ratio (x) = 0.21900 -0.03714
# Poissons Ratio (y) = 0.40658 0.28639
# Poissons Ratio (z) = -0.09335 0.38772
#
# Static dielectric constant tensor:
#      x y z
#    x 2.172870 -0.037200 -0.291130 
#    y -0.037200 2.134120 -0.083020 
#    z -0.291130 -0.083020 2.389550 
# 
# From -- ./inp_files/12027.got.cif
#   From: 2010.05.17/outbox.cif.g08.bks.cpg/sg2_7_cif.got.tgz:12027.got - 2010.06.03 11:33:40.
