data_PCOD9036222
_publ_section_title
;
Structure prediction by ZEFSAII (Michael W. Deem and Ramdas Pophale) SiO2 
 PCOD9036222
Probable space group: P -1
;
_chemical_formula_sum "Si O2"
_cell_formula_units_Z 12
_cell_length_a 10.066057
_cell_length_b 11.853677
_cell_length_c 5.329755
_cell_angle_alpha 101.262552
_cell_angle_beta 87.333543
_cell_angle_gamma 51.289428
_cell_volume 474.714585
_symmetry_space_group_name_H-M "P -1"
_symmetry_group_IT_number 2
_symmetry_cell_setting 'triclinic'
loop_
_space_group_symop_operation_xyz
x,y,z
-x,-y,-z
loop_
_atom_site_type_symbol
_atom_site_label
_atom_site_fract_x
_atom_site_fract_y
_atom_site_fract_z
Si Si1 0.296435 0.135905 0.514325
Si Si2 0.724583 0.493142 0.992083
Si Si3 0.845270 0.025086 0.375199
Si Si4 0.930650 0.773565 0.952850
Si Si5 0.387871 0.640055 0.384402
Si Si6 0.807774 0.638070 0.657505
O O1 0.158819 0.236677 0.803884
O O2 0.327488 0.265501 0.502263
O O3 0.500000 0.000000 0.500000
O O4 0.237189 0.027979 0.466057
O O5 0.744456 0.372093 0.750885
O O6 0.759947 0.585227 0.864189
O O7 0.872352 0.383722 0.141031
O O8 0.528752 0.602991 0.153670
O O9 0.710172 0.201781 0.404664
O O10 0.910794 0.917825 0.076670
O O11 0.000000 0.000000 0.500000
O O12 0.816225 0.778619 0.740057
O O13 0.500000 0.500000 0.500000
O O14 0.000000 0.500000 0.500000
#
# Coordination Sequence:
#
# PCOD9036222 Si02
#       6
#     2   2   2   2   2   2
#     4  10  25  43  68 107 143 181 234 294 351 410
#     4  11  25  44  70 108 138 181 245 281 355 422
#     4  10  22  48  71  97 146 182 231 292 347 425
#     4  10  24  43  69 104 138 184 237 281 353 418
#     4  11  26  45  73 102 139 185 233 297 348 422
#     4  12  25  43  76 100 140 190 232 290 350 420
#
# _framework density 25.278347
#
# number of rings (size 3 to 8) (size 9 to 14) (size 15 to 20)
#    1.000    0.333    3.333    0.500    7.000    0.667 
#    6.000    1.667    0.000    0.000    0.000    0.000 
#    0.000    0.000    0.000    0.000    0.000    0.000 
#
# Total GULP energy -66839.829603 kJ/mol
# GULP energy per Si atom -5569.985800 kJ/mol
# Density = 2.522081 g / cm^3
# Si number density = 25.278347 Si / 1000 Ang^3
#
#
#
# Elastic Constant Matrix: (Units=GPa)
#
#
# Indices 1 2 3 4 5 6 
#
# 1 159.8338 41.0090 31.4392 -0.8145 8.8405 13.8026
# 2 41.0090 187.4348 25.0018 5.5817 -20.8525 14.1056
# 3 31.4392 25.0018 51.0386 -8.7705 3.1733 9.0070
# 4 -0.8145 5.5817 -8.7705 35.9436 4.7089 3.6432
# 5 8.8405 -20.8525 3.1733 4.7089 31.4654 7.6777
# 6 13.8026 14.1056 9.0070 3.6432 7.6777 43.8285
#
#
#
# Elastic Compliance Matrix: (Units=1/GPa)
#
#
# Indices 1 2 3 4 5 6 
#
# 1 0.007536 -0.001368 -0.003713 -0.000128 -0.002452 -0.000730
# 2 -0.001368 0.006948 -0.002999 -0.002439 0.006160 -0.002065
# 3 -0.003713 -0.002999 0.025393 0.007391 -0.003874 -0.003020
# 4 -0.000128 -0.002439 0.007391 0.031063 -0.006451 -0.002146
# 5 -0.002452 0.006160 -0.003874 -0.006451 0.039570 -0.006810
# 6 -0.000730 -0.002065 -0.003020 -0.002146 -0.006810 0.025703
#
#
# Mechanical properties :
#
#
# Convention : Reuss Voigt Hill
#
# Bulk Modulus (GPa) = 42.16128 65.91191 54.03660
# Shear Modulus (GPa) = 31.19616 42.30467 36.75042
#
# Velocity S-wave (km/s) = 3.51680 4.09535 3.81705
# Velocity P-wave (km/s) = 5.76242 6.96373 6.39136
#
# Compressibility (1/GPa) = 0.02371844
#
# Stress axis : x y z
#
# Youngs Moduli (GPa) = 132.70274 143.93052 39.38125
#
# Poissons Ratio (x) = 0.19683 0.14621
# Poissons Ratio (y) = 0.18148 0.11809
# Poissons Ratio (z) = 0.49267 0.43161
#
# Static dielectric constant tensor:
#      x y z
#    x 2.200230 -0.025920 0.104350 
#    y -0.025920 2.158740 0.106530 
#    z 0.104350 0.106530 2.154460 
# 
# From -- ./inp_files/28078.got.cif
#   From: 2010.05.17/outbox.cif.g08.bks.cpg/sg2_15_cif.got.tgz:28078.got - 2010.06.03 11:33:40.
