data_PCOD9036226
_publ_section_title
;
Structure prediction by ZEFSAII (Michael W. Deem and Ramdas Pophale) SiO2 
 PCOD9036226
Probable space group: P -1
;
_chemical_formula_sum "Si O2"
_cell_formula_units_Z 14
_cell_length_a 5.450928
_cell_length_b 5.596218
_cell_length_c 20.718776
_cell_angle_alpha 75.416080
_cell_angle_beta 70.094381
_cell_angle_gamma 77.142598
_cell_volume 568.574750
_symmetry_space_group_name_H-M "P -1"
_symmetry_group_IT_number 2
_symmetry_cell_setting 'triclinic'
loop_
_space_group_symop_operation_xyz
x,y,z
-x,-y,-z
loop_
_atom_site_type_symbol
_atom_site_label
_atom_site_fract_x
_atom_site_fract_y
_atom_site_fract_z
Si Si1 0.466930 0.196798 0.797117
Si Si2 0.702228 0.687994 0.466382
Si Si3 0.239157 0.095176 0.433790
Si Si4 0.778910 0.635122 0.916718
Si Si5 0.675661 0.685457 0.060516
Si Si6 0.054245 0.917466 0.331029
Si Si7 0.192147 0.775498 0.777117
O O1 0.453854 0.156114 0.878273
O O2 0.740258 0.187852 0.735325
O O3 0.332971 0.488429 0.782537
O O4 0.327421 0.979916 0.790926
O O5 0.500000 0.500000 0.500000
O O6 0.775499 0.663710 0.537293
O O7 0.926909 0.699064 0.392230
O O8 0.514739 0.939005 0.441114
O O9 0.188011 0.061164 0.365982
O O10 0.000000 0.000000 0.500000
O O11 0.525086 0.516385 0.922787
O O12 0.028889 0.428626 0.932820
O O13 0.912002 0.763263 0.837862
O O14 0.714480 0.789480 0.978330
O O15 0.849138 0.119268 0.298046
#
# Coordination Sequence:
#
# PCOD9036226 Si02
#       7
#     2   2   2   2   2   2   2
#     4  11  27  49  72 108 155 200 253 315 382 458
#     4  10  22  48  72 104 134 179 246 304 367 458
#     4   9  21  46  67 100 134 176 234 297 367 450
#     4   9  20  42  74 107 152 205 261 323 375 454
#     4   9  20  42  73 110 150 205 264 318 382 444
#     4  11  25  47  72 108 145 195 239 310 386 455
#     4  11  27  49  72 110 154 199 256 311 382 457
#
# _framework density 24.622971
#
# number of rings (size 3 to 8) (size 9 to 14) (size 15 to 20)
#    0.000    2.000    0.000    0.857    8.000    2.857 
#   33.429    0.714    0.000    0.000    0.000    0.000 
#    0.000    0.000    0.000    0.000    0.000    0.000 
#
# Total GULP energy -78022.777049 kJ/mol
# GULP energy per Si atom -5573.055504 kJ/mol
# Density = 2.456693 g / cm^3
# Si number density = 24.622971 Si / 1000 Ang^3
#
#
#
# Elastic Constant Matrix: (Units=GPa)
#
#
# Indices 1 2 3 4 5 6 
#
# 1 74.9699 23.9325 36.9224 -3.8483 6.5073 5.0193
# 2 23.9325 85.2094 37.6463 1.5026 4.9434 0.8874
# 3 36.9224 37.6463 187.6966 2.0639 12.8334 -7.8717
# 4 -3.8483 1.5026 2.0639 45.6126 1.2368 0.8577
# 5 6.5073 4.9434 12.8334 1.2368 58.2249 7.6876
# 6 5.0193 0.8874 -7.8717 0.8577 7.6876 50.1819
#
#
#
# Elastic Compliance Matrix: (Units=1/GPa)
#
#
# Indices 1 2 3 4 5 6 
#
# 1 0.015905 -0.003327 -0.002506 0.001619 -0.000734 -0.001840
# 2 -0.003327 0.013608 -0.002055 -0.000625 -0.000294 -0.000175
# 3 -0.002506 -0.002055 0.006377 -0.000429 -0.001136 0.001469
# 4 0.001619 -0.000625 -0.000429 0.022122 -0.000433 -0.000530
# 5 -0.000734 -0.000294 -0.001136 -0.000433 0.017916 -0.002837
# 6 -0.001840 -0.000175 0.001469 -0.000530 -0.002837 0.020789
#
#
# Mechanical properties :
#
#
# Convention : Reuss Voigt Hill
#
# Bulk Modulus (GPa) = 49.71778 60.54205 55.12992
# Shear Modulus (GPa) = 41.94702 47.42885 44.68793
#
# Velocity S-wave (km/s) = 4.13191 4.39361 4.26477
# Velocity P-wave (km/s) = 6.55737 7.09785 6.83295
#
# Compressibility (1/GPa) = 0.02011353
#
# Stress axis : x y z
#
# Youngs Moduli (GPa) = 62.87305 73.48559 156.81432
#
# Poissons Ratio (x) = 0.24447 0.39302
# Poissons Ratio (y) = 0.20916 0.32230
# Poissons Ratio (z) = 0.15758 0.15104
#
# Static dielectric constant tensor:
#      x y z
#    x 1.948440 -0.107110 -0.015980 
#    y -0.107110 2.045820 0.037790 
#    z -0.015980 0.037790 1.959830 
# 
# From -- ./inp_files/121865.got.cif
#   From: 2010.05.17/outbox.cif.g08.bks.cpg/sg2_61_cif.got.tgz:121865.got - 2010.06.03 11:33:40.
