data_PCOD9037314
_publ_section_title
;
Structure prediction by ZEFSAII (Michael W. Deem and Ramdas Pophale) SiO2 
 PCOD9037314
Probable space group: P -1
;
_chemical_formula_sum "Si O2"
_cell_formula_units_Z 14
_cell_length_a 10.349333
_cell_length_b 9.286148
_cell_length_c 9.286992
_cell_angle_alpha 56.407060
_cell_angle_beta 68.965874
_cell_angle_gamma 83.104705
_cell_volume 690.379618
_symmetry_space_group_name_H-M "P -1"
_symmetry_group_IT_number 2
_symmetry_cell_setting 'triclinic'
loop_
_space_group_symop_operation_xyz
x,y,z
-x,-y,-z
loop_
_atom_site_type_symbol
_atom_site_label
_atom_site_fract_x
_atom_site_fract_y
_atom_site_fract_z
Si Si1 0.454204 0.481054 0.363169
Si Si2 0.916934 0.063568 0.362973
Si Si3 0.728866 0.327983 0.245594
Si Si4 0.148362 0.282138 0.966260
Si Si5 0.778964 0.792302 0.339396
Si Si6 0.426579 0.935290 0.714511
Si Si7 0.439330 0.161372 0.010679
O O1 0.500000 0.500000 0.500000
O O2 0.301036 0.384028 0.469583
O O3 0.572731 0.369431 0.318047
O O4 0.471409 0.663888 0.175348
O O5 0.794982 0.181608 0.394406
O O6 0.860376 0.903983 0.370144
O O7 0.000000 0.000000 0.500000
O O8 0.016070 0.194787 0.151576
O O9 0.818662 0.513118 0.122443
O O10 0.698329 0.220312 0.170041
O O11 0.652167 0.905293 0.283158
O O12 0.140535 0.249771 0.814985
O O13 0.281934 0.190161 0.018670
O O14 0.500000 0.000000 0.500000
O O15 0.538750 0.869696 0.812416
O O16 0.500000 0.000000 0.000000
#
# Coordination Sequence:
#
# PCOD9037314 Si02
#       7
#     2   2   2   2   2   2   2
#     4  11  20  39  67  99 129 161 205 269 329 374
#     4  11  27  42  64  91 127 174 219 262 307 378
#     4  10  23  40  65  90 128 165 208 264 325 362
#     4  11  23  43  66  87 130 172 214 252 319 386
#     4  11  22  43  64  93 128 171 206 262 324 380
#     4  11  22  37  62  98 133 161 202 269 327 373
#     4  11  23  37  66 100 127 164 213 261 324 386
#
# _framework density 20.278697000000001
#
# number of rings (size 3 to 8) (size 9 to 14) (size 15 to 20)
#    0.000    1.143    5.714    0.857    4.000    3.429 
#    0.000    0.714    0.000    0.000    0.000    0.000 
#    0.000    0.000    0.000    0.000    0.000    0.000 
#
# Total GULP energy -78105.918082 kJ/mol
# GULP energy per Si atom -5578.994149 kJ/mol
# Density = 2.023254 g / cm^3
# Si number density = 20.278697 Si / 1000 Ang^3
#
#
#
# Elastic Constant Matrix: (Units=GPa)
#
#
# Indices 1 2 3 4 5 6 
#
# 1 65.9422 28.4440 38.5974 -10.1424 16.8625 16.2024
# 2 28.4440 99.0861 51.3048 -23.6680 -1.0724 9.6825
# 3 38.5974 51.3048 122.4026 -4.0548 2.4589 12.7843
# 4 -10.1424 -23.6680 -4.0548 25.8458 2.6585 -0.1284
# 5 16.8625 -1.0724 2.4589 2.6585 40.9754 -5.4123
# 6 16.2024 9.6825 12.7843 -0.1284 -5.4123 38.5449
#
#
#
# Elastic Compliance Matrix: (Units=1/GPa)
#
#
# Indices 1 2 3 4 5 6 
#
# 1 0.026636 -0.001252 -0.006199 0.009581 -0.012640 -0.010569
# 2 -0.001252 0.017233 -0.006184 0.014292 0.000188 -0.001678
# 3 -0.006199 -0.006184 0.012431 -0.006359 0.002097 0.000309
# 4 0.009581 0.014292 -0.006359 0.055293 -0.007619 -0.006394
# 5 -0.012640 0.000188 0.002097 -0.007619 0.031158 0.008920
# 6 -0.010569 -0.001678 0.000309 -0.006394 0.008920 0.031937
#
#
# Mechanical properties :
#
#
# Convention : Reuss Voigt Hill
#
# Bulk Modulus (GPa) = 34.44579 58.23591 46.34085
# Shear Modulus (GPa) = 23.62563 32.34554 27.98558
#
# Velocity S-wave (km/s) = 3.41698 3.99814 3.71893
# Velocity P-wave (km/s) = 5.70883 7.07769 6.42979
#
# Compressibility (1/GPa) = 0.02903112
#
# Stress axis : x y z
#
# Youngs Moduli (GPa) = 37.54308 58.02780 80.44165
#
# Poissons Ratio (x) = 0.07264 0.49868
# Poissons Ratio (y) = 0.04700 0.49742
# Poissons Ratio (z) = 0.23274 0.35882
#
# Static dielectric constant tensor:
#      x y z
#    x 1.759390 -0.022680 -0.023840 
#    y -0.022680 1.796380 0.004580 
#    z -0.023840 0.004580 1.718000 
# 
# From -- ./inp_files/179548.got.cif
#   From: 2010.05.17/outbox.cif.g08.bks.cpg/sg2_90_cif.got.tgz:179548.got - 2010.06.03 11:33:40.
