data_PCOD9037820
_publ_section_title
;
Structure prediction by ZEFSAII (Michael W. Deem and Ramdas Pophale) SiO2 
 PCOD9037820
Probable space group: P -1
;
_chemical_formula_sum "Si O2"
_cell_formula_units_Z 16
_cell_length_a 23.123492
_cell_length_b 5.227840
_cell_length_c 17.018266
_cell_angle_alpha 101.083572
_cell_angle_beta 157.199974
_cell_angle_gamma 93.955134
_cell_volume 596.278232
_symmetry_space_group_name_H-M "P -1"
_symmetry_group_IT_number 2
_symmetry_cell_setting 'triclinic'
loop_
_space_group_symop_operation_xyz
x,y,z
-x,-y,-z
loop_
_atom_site_type_symbol
_atom_site_label
_atom_site_fract_x
_atom_site_fract_y
_atom_site_fract_z
Si Si1 0.441048 0.659152 0.668859
Si Si2 0.511483 0.318994 0.625743
Si Si3 0.366027 0.576052 0.871473
Si Si4 0.234832 0.103274 0.138809
Si Si5 0.173209 0.561283 0.769364
Si Si6 0.255956 0.668970 0.583729
Si Si7 0.083399 0.479918 0.827361
Si Si8 0.883066 0.631154 0.873391
O O1 0.470118 0.392325 0.663216
O O2 0.290070 0.523346 0.542941
O O3 0.322753 0.642417 0.445150
O O4 0.648792 0.035189 0.963669
O O5 0.320975 0.042676 0.318502
O O6 0.597712 0.653618 0.700505
O O7 0.699156 0.348786 0.863571
O O8 0.256706 0.425852 0.809742
O O9 0.221170 0.507936 0.617335
O O10 0.500000 0.500000 0.000000
O O11 0.518168 0.978774 0.103421
O O12 0.156894 0.287598 0.086873
O O13 0.075384 0.770183 0.868664
O O14 0.087712 0.397384 0.738017
O O15 0.000000 0.500000 0.500000
O O16 0.134568 0.806398 0.429988
O O17 0.000000 0.500000 0.000000
O O18 0.000000 0.000000 0.000000
#
# Coordination Sequence:
#
# PCOD9037820 Si02
#       8
#     2   2   2   2   2   2   2   2
#     4  10  23  45  66 103 143 182 238 294 366 440
#     4  10  23  41  67 100 131 180 230 288 357 430
#     4  10  23  44  64  87 129 179 226 288 358 414
#     4  10  23  43  67  97 141 177 231 290 353 433
#     4  11  23  44  65  98 140 181 234 302 351 434
#     4  10  23  41  63  94 131 170 230 291 349 431
#     4  12  23  40  71  99 133 181 235 291 359 426
#     4  11  26  47  74 111 151 192 241 305 373 444
#
# _framework density 26.833110999999999
#
# number of rings (size 3 to 8) (size 9 to 14) (size 15 to 20)
#    0.000    1.500    2.500    1.125    5.250    4.000 
#    4.500    1.250    0.000    0.000    0.000    0.000 
#    0.000    0.000    0.000    0.000    0.000    0.000 
#
# Total GULP energy -89308.407908 kJ/mol
# GULP energy per Si atom -5581.775494 kJ/mol
# Density = 2.677204 g / cm^3
# Si number density = 26.833111 Si / 1000 Ang^3
#
#
#
# Elastic Constant Matrix: (Units=GPa)
#
#
# Indices 1 2 3 4 5 6 
#
# 1 200.8129 36.4887 20.6780 -15.9959 18.9792 -57.4132
# 2 36.4887 73.2484 23.2958 -11.4784 0.2948 -33.2091
# 3 20.6780 23.2958 104.1885 -21.5730 3.9312 -27.2655
# 4 -15.9959 -11.4784 -21.5730 35.9382 -12.5842 11.7713
# 5 18.9792 0.2948 3.9312 -12.5842 46.5047 -2.5109
# 6 -57.4132 -33.2091 -27.2655 11.7713 -2.5109 42.5179
#
#
#
# Elastic Compliance Matrix: (Units=1/GPa)
#
#
# Indices 1 2 3 4 5 6 
#
# 1 0.008807 0.001364 0.001643 -0.000289 -0.003069 0.013909
# 2 0.001364 0.021491 0.000029 0.001800 0.000774 0.018193
# 3 0.001643 0.000029 0.012731 0.005557 0.000236 0.008881
# 4 -0.000289 0.001800 0.005557 0.036471 0.009237 -0.004972
# 5 -0.003069 0.000774 0.000236 0.009237 0.024989 -0.004469
# 6 0.013909 0.018193 0.008881 -0.004972 -0.004469 0.063319
#
#
# Mechanical properties :
#
#
# Convention : Reuss Voigt Hill
#
# Bulk Modulus (GPa) = 20.36665 59.90833 40.13749
# Shear Modulus (GPa) = 28.07362 44.84464 36.45913
#
# Velocity S-wave (km/s) = 3.23806 4.09252 3.69010
# Velocity P-wave (km/s) = 4.64614 6.68628 5.75730
#
# Compressibility (1/GPa) = 0.04909987
#
# Stress axis : x y z
#
# Youngs Moduli (GPa) = 113.55206 46.53116 78.54728
#
# Poissons Ratio (x) = -0.06345 -0.12907
# Poissons Ratio (y) = -0.15485 -0.00225
# Poissons Ratio (z) = -0.18660 -0.00133
#
# Static dielectric constant tensor:
#      x y z
#    x 2.199830 0.110680 0.309460 
#    y 0.110680 2.232950 0.111540 
#    z 0.309460 0.111540 4.686200 
# 
# From -- ./inp_files/273036.got.cif
#   From: 2010.05.17/outbox.cif.g08.bks.cpg/sg2_137_cif.got.tgz:273036.got - 2010.06.03 11:33:40.
