data_PCOD9037027
_publ_section_title
;
Structure prediction by ZEFSAII (Michael W. Deem and Ramdas Pophale) SiO2 
 PCOD9037027
Probable space group: P -1
;
_chemical_formula_sum "Si O2"
_cell_formula_units_Z 14
_cell_length_a 24.342467
_cell_length_b 14.762328
_cell_length_c 5.453419
_cell_angle_alpha 112.980775
_cell_angle_beta 66.118760
_cell_angle_gamma 160.564759
_cell_volume 596.004051
_symmetry_space_group_name_H-M "P -1"
_symmetry_group_IT_number 2
_symmetry_cell_setting 'triclinic'
loop_
_space_group_symop_operation_xyz
x,y,z
-x,-y,-z
loop_
_atom_site_type_symbol
_atom_site_label
_atom_site_fract_x
_atom_site_fract_y
_atom_site_fract_z
Si Si1 0.269012 0.214111 0.608638
Si Si2 0.321626 0.941703 0.145413
Si Si3 0.190333 0.921127 0.114522
Si Si4 0.328540 0.468796 0.104931
Si Si5 0.878608 0.554514 0.054955
Si Si6 0.920595 0.738615 0.660838
Si Si7 0.551544 0.736972 0.360794
O O1 0.211582 0.017814 0.427296
O O2 0.447611 0.507708 0.479780
O O3 0.282338 0.285910 0.924644
O O4 0.118265 0.047934 0.587198
O O5 0.200455 0.822217 0.066537
O O6 0.316105 0.988525 0.464264
O O7 0.268362 0.748508 0.036584
O O8 0.513583 0.252319 0.046239
O O9 0.355555 0.182792 0.928872
O O10 0.039488 0.734830 0.034510
O O11 0.173627 0.303012 0.183713
O O12 0.410168 0.591046 0.351066
O O13 0.850290 0.578103 0.373173
O O14 0.902076 0.648979 0.855874
#
# Coordination Sequence:
#
# PCOD9037027 Si02
#       7
#     2   2   2   2   2   2   2
#     4  10  23  42  66  99 132 171 224 273 338 393
#     4  10  24  44  66  99 132 175 222 275 332 394
#     4  10  23  42  67 100 132 172 221 275 338 395
#     4  10  24  43  67  98 132 176 221 276 332 394
#     4  11  27  45  70  99 134 177 226 274 330 393
#     4  11  27  45  70  99 134 177 226 274 330 393
#     4  10  23  39  69  94 138 172 221 270 339 390
#
# _framework density 23.489771000000001
#
# number of rings (size 3 to 8) (size 9 to 14) (size 15 to 20)
#    0.000    1.714    0.000    1.286   16.000    7.429 
#    0.000    0.000    0.000    0.000    0.000    0.000 
#    0.000    0.000    0.000    0.000    0.000    0.000 
#
# Total GULP energy -78160.096495 kJ/mol
# GULP energy per Si atom -5582.864035 kJ/mol
# Density = 2.343631 g / cm^3
# Si number density = 23.489771 Si / 1000 Ang^3
#
#
#
# Elastic Constant Matrix: (Units=GPa)
#
#
# Indices 1 2 3 4 5 6 
#
# 1 82.3601 12.2143 38.1238 -7.7256 5.7220 7.0672
# 2 12.2143 62.5519 21.3973 10.6245 -4.1047 -2.7072
# 3 38.1238 21.3973 118.4252 10.7905 5.7306 -12.3964
# 4 -7.7256 10.6245 10.7905 28.1865 7.2426 -3.9455
# 5 5.7220 -4.1047 5.7306 7.2426 30.4467 -2.1334
# 6 7.0672 -2.7072 -12.3964 -3.9455 -2.1334 32.0879
#
#
#
# Elastic Compliance Matrix: (Units=1/GPa)
#
#
# Indices 1 2 3 4 5 6 
#
# 1 0.017083 -0.003325 -0.006044 0.008745 -0.004996 -0.005635
# 2 -0.003325 0.019146 -0.001763 -0.008781 0.005695 0.000965
# 3 -0.006044 -0.001763 0.011671 -0.004795 0.000200 0.005115
# 4 0.008745 -0.008781 -0.004795 0.046390 -0.012937 0.000325
# 5 -0.004996 0.005695 0.000200 -0.012937 0.037771 0.002579
# 6 -0.005635 0.000965 0.005115 0.000325 0.002579 0.034674
#
#
# Mechanical properties :
#
#
# Convention : Reuss Voigt Hill
#
# Bulk Modulus (GPa) = 39.00748 45.20089 42.10418
# Shear Modulus (GPa) = 25.31054 30.91767 28.11411
#
# Velocity S-wave (km/s) = 3.28611 3.63191 3.46333
# Velocity P-wave (km/s) = 5.57138 6.07225 5.82720
#
# Compressibility (1/GPa) = 0.02563611
#
# Stress axis : x y z
#
# Youngs Moduli (GPa) = 58.53647 52.22959 85.68320
#
# Poissons Ratio (x) = 0.17369 0.51783
# Poissons Ratio (y) = 0.19466 0.15108
# Poissons Ratio (z) = 0.35377 0.09209
#
# Static dielectric constant tensor:
#      x y z
#    x 1.914590 0.005840 0.057550 
#    y 0.005840 1.872170 -0.013060 
#    z 0.057550 -0.013060 1.942480 
# 
# From -- ./inp_files/67533.got.cif
#   From: 2010.05.17/outbox.cif.g08.bks.cpg/sg2_34_cif.got.tgz:67533.got - 2010.06.03 11:33:40.
