data_PCOD9037734
_publ_section_title
;
Structure prediction by ZEFSAII (Michael W. Deem and Ramdas Pophale) SiO2 
 PCOD9037734
Probable space group: P -1
;
_chemical_formula_sum "Si O2"
_cell_formula_units_Z 16
_cell_length_a 15.336128
_cell_length_b 6.848331
_cell_length_c 15.369817
_cell_angle_alpha 54.100886
_cell_angle_beta 32.052954
_cell_angle_gamma 52.984272
_cell_volume 672.915311
_symmetry_space_group_name_H-M "P -1"
_symmetry_group_IT_number 2
_symmetry_cell_setting 'triclinic'
loop_
_space_group_symop_operation_xyz
x,y,z
-x,-y,-z
loop_
_atom_site_type_symbol
_atom_site_label
_atom_site_fract_x
_atom_site_fract_y
_atom_site_fract_z
Si Si1 0.864876 0.947455 0.409094
Si Si2 0.042193 0.807425 0.886150
Si Si3 0.377085 0.391433 0.692396
Si Si4 0.015447 0.590710 0.612058
Si Si5 0.023397 0.637238 0.126358
Si Si6 0.424858 0.412263 0.839773
Si Si7 0.519894 0.930503 0.603176
Si Si8 0.247748 0.943815 0.323468
O O1 0.968861 0.660013 0.390209
O O2 0.978043 0.112460 0.220296
O O3 0.695906 0.955083 0.491454
O O4 0.801566 0.025777 0.539261
O O5 0.228181 0.630383 0.773721
O O6 0.026671 0.347478 0.937515
O O7 0.014936 0.079509 0.880815
O O8 0.500000 0.500000 0.500000
O O9 0.443259 0.313432 0.751809
O O10 0.368407 0.134348 0.722731
O O11 0.067135 0.500010 0.691047
O O12 0.139344 0.754314 0.430721
O O13 0.831390 0.781304 0.717607
O O14 0.224154 0.508714 0.001083
O O15 0.559577 0.188332 0.830015
O O16 0.497280 0.658122 0.713147
O O17 0.500000 0.000000 0.500000
#
# Coordination Sequence:
#
# PCOD9037734 Si02
#       8
#     2   2   2   2   2   2   2   2
#     4  11  20  37  61  90 120 150 197 253 297 344
#     4   9  18  35  58  81 122 160 185 233 297 365
#     4  11  18  33  53  87 121 154 196 243 289 345
#     4  10  23  41  62  86 117 157 201 252 300 348
#     4   9  20  39  58  85 125 161 192 239 303 356
#     4  11  21  36  57  86 119 155 201 245 290 357
#     4  12  21  31  57  91 122 154 190 242 300 348
#     4  11  22  39  65  89 111 154 211 252 293 345
#
# _framework density 23.777138999999998
#
# number of rings (size 3 to 8) (size 9 to 14) (size 15 to 20)
#    0.000    1.500    5.000    1.125    0.000    0.500 
#    0.000    6.250    0.000    0.750    0.000    0.000 
#    0.000    0.000    0.000    0.000    0.000    0.000 
#
# Total GULP energy -89187.655499 kJ/mol
# GULP energy per Si atom -5574.228469 kJ/mol
# Density = 2.372302 g / cm^3
# Si number density = 23.777139 Si / 1000 Ang^3
#
#
#
# Elastic Constant Matrix: (Units=GPa)
#
#
# Indices 1 2 3 4 5 6 
#
# 1 60.4990 30.0613 19.2000 3.0381 1.2170 -9.8693
# 2 30.0613 141.2423 38.1827 20.9517 -9.0014 -33.8835
# 3 19.2000 38.1827 69.8717 14.8512 1.8855 -9.4618
# 4 3.0381 20.9517 14.8512 46.4305 -12.5923 -3.5661
# 5 1.2170 -9.0014 1.8855 -12.5923 41.7003 10.2844
# 6 -9.8693 -33.8835 -9.4618 -3.5661 10.2844 41.8692
#
#
#
# Elastic Compliance Matrix: (Units=1/GPa)
#
#
# Indices 1 2 3 4 5 6 
#
# 1 0.019417 -0.002953 -0.003683 0.001063 -0.001142 0.001726
# 2 -0.002953 0.010774 -0.003481 -0.003038 -0.000073 0.006995
# 3 -0.003683 -0.003481 0.018465 -0.004887 -0.003164 0.000849
# 4 0.001063 -0.003038 -0.004887 0.026408 0.008272 -0.003095
# 5 -0.001142 -0.000073 -0.003164 0.008272 0.028446 -0.007326
# 6 0.001726 0.006995 0.000849 -0.003095 -0.007326 0.031679
#
#
# Mechanical properties :
#
#
# Convention : Reuss Voigt Hill
#
# Bulk Modulus (GPa) = 35.18549 49.61123 42.39836
# Shear Modulus (GPa) = 30.32190 38.27795 34.29992
#
# Velocity S-wave (km/s) = 3.57494 4.01666 3.80222
# Velocity P-wave (km/s) = 5.64539 6.51320 6.09476
#
# Compressibility (1/GPa) = 0.02842081
#
# Stress axis : x y z
#
# Youngs Moduli (GPa) = 51.50224 92.81829 54.15546
#
# Poissons Ratio (x) = 0.27413 0.19945
# Poissons Ratio (y) = 0.15211 0.18852
# Poissons Ratio (z) = 0.18968 0.32311
#
# Static dielectric constant tensor:
#      x y z
#    x 1.953350 -0.037130 -0.009650 
#    y -0.037130 1.972220 -0.010150 
#    z -0.009650 -0.010150 1.965350 
# 
# From -- ./inp_files/78056.got.cif
#   From: 2010.05.17/outbox.cif.g08.bks.cpg/sg2_40_cif.got.tgz:78056.got - 2010.06.03 11:33:40.
