data_PCOD9037427
_publ_section_title
;
Structure prediction by ZEFSAII (Michael W. Deem and Ramdas Pophale) SiO2 
 PCOD9037427
Probable space group: P -1
;
_chemical_formula_sum "Si O2"
_cell_formula_units_Z 11
_cell_length_a 14.403903
_cell_length_b 8.376852
_cell_length_c 11.649386
_cell_angle_alpha 125.248244
_cell_angle_beta 31.395678
_cell_angle_gamma 141.903601
_cell_volume 431.759412
_symmetry_space_group_name_H-M "P -1"
_symmetry_group_IT_number 2
_symmetry_cell_setting 'triclinic'
loop_
_space_group_symop_operation_xyz
x,y,z
-x,-y,-z
loop_
_atom_site_type_symbol
_atom_site_label
_atom_site_fract_x
_atom_site_fract_y
_atom_site_fract_z
Si Si1 0.363606 0.872467 0.710217
Si Si2 0.500000 0.500000 0.000000
Si Si3 0.638511 0.829562 0.586138
Si Si4 0.333885 0.672932 0.047310
Si Si5 0.974328 0.748907 0.211899
Si Si6 0.964405 0.698252 0.461307
O O1 0.545614 0.907201 0.621709
O O2 0.144227 0.553883 0.783500
O O3 0.500000 0.000000 0.500000
O O4 0.223943 0.942240 0.954329
O O5 0.401641 0.589080 0.046705
O O6 0.311070 0.455430 0.278883
O O7 0.765259 0.726756 0.369307
O O8 0.410867 0.624764 0.828649
O O9 0.862617 0.087701 0.531744
O O10 0.055292 0.542082 0.292490
O O11 0.500000 0.000000 0.000000
O O12 0.025593 0.833465 0.326583
#
# Coordination Sequence:
#
# PCOD9037427 Si02
#       6
#     2   1   2   2   2   2
#     4  11  27  47  70  99 140 194 240 291 350 436
#     4  12  24  40  66 110 142 188 234 284 364 446
#     4  11  23  46  72 100 140 184 230 297 366 417
#     4  10  23  40  66  99 145 179 227 288 356 418
#     4  11  24  46  73  99 143 185 236 294 363 421
#     4  11  24  42  73 107 140 181 233 300 363 425
#
# _framework density 25.477152
#
# number of rings (size 3 to 8) (size 9 to 14) (size 15 to 20)
#    0.000    1.091    3.636    1.636    2.545    6.545 
#    0.000    0.000    0.000    0.000    0.000    0.000 
#    0.000    0.000    0.000    0.000    0.000    0.000 
#
# Total GULP energy -61337.780696 kJ/mol
# GULP energy per Si atom -5576.161881 kJ/mol
# Density = 2.541916 g / cm^3
# Si number density = 25.477152 Si / 1000 Ang^3
#
#
#
# Elastic Constant Matrix: (Units=GPa)
#
#
# Indices 1 2 3 4 5 6 
#
# 1 218.8791 8.0038 98.9081 14.8327 -1.0561 -35.7609
# 2 8.0038 33.3318 19.4624 -15.7468 7.8516 9.1597
# 3 98.9081 19.4624 274.8943 4.6642 -5.4229 -37.1171
# 4 14.8327 -15.7468 4.6642 23.7659 -5.6362 -3.4700
# 5 -1.0561 7.8516 -5.4229 -5.6362 54.9000 12.1067
# 6 -35.7609 9.1597 -37.1171 -3.4700 12.1067 41.2414
#
#
#
# Elastic Compliance Matrix: (Units=1/GPa)
#
#
# Indices 1 2 3 4 5 6 
#
# 1 0.006713 -0.005632 -0.001136 -0.007134 -0.001189 0.005798
# 2 -0.005632 0.059410 -0.005506 0.040970 -0.000666 -0.019392
# 3 -0.001136 -0.005506 0.005109 -0.003292 -0.000078 0.004582
# 4 -0.007134 0.040970 -0.003292 0.073363 0.004141 -0.013291
# 5 -0.001189 -0.000666 -0.000078 0.004141 0.020142 -0.006517
# 6 0.005798 -0.019392 0.004582 -0.013291 -0.006517 0.038501
#
#
# Mechanical properties :
#
#
# Convention : Reuss Voigt Hill
#
# Bulk Modulus (GPa) = 21.42085 86.65042 54.03564
# Shear Modulus (GPa) = 20.54661 50.69687 35.62174
#
# Velocity S-wave (km/s) = 2.84293 4.46566 3.74329
# Velocity P-wave (km/s) = 4.38206 7.78938 6.31968
#
# Compressibility (1/GPa) = 0.04668348
#
# Stress axis : x y z
#
# Youngs Moduli (GPa) = 148.96246 16.83210 195.71654
#
# Poissons Ratio (x) = 0.09480 0.22237
# Poissons Ratio (y) = 0.83897 1.07769
# Poissons Ratio (z) = 0.16925 0.09268
#
# Static dielectric constant tensor:
#      x y z
#    x 1.935260 0.037040 -0.025110 
#    y 0.037040 2.236950 0.117010 
#    z -0.025110 0.117010 2.189230 
# 
# From -- ./inp_files/240110.got.cif
#   From: 2010.05.17/outbox.cif.g08.bks.cpg/sg2_121_cif.got.tgz:240110.got - 2010.06.03 11:33:40.
