data_PCOD9037806
_publ_section_title
;
Structure prediction by ZEFSAII (Michael W. Deem and Ramdas Pophale) SiO2 
 PCOD9037806
Probable space group: P -1
;
_chemical_formula_sum "Si O2"
_cell_formula_units_Z 12
_cell_length_a 7.369286
_cell_length_b 19.542813
_cell_length_c 12.518708
_cell_angle_alpha 151.997858
_cell_angle_beta 40.875162
_cell_angle_gamma 141.817500
_cell_volume 511.137630
_symmetry_space_group_name_H-M "P -1"
_symmetry_group_IT_number 2
_symmetry_cell_setting 'triclinic'
loop_
_space_group_symop_operation_xyz
x,y,z
-x,-y,-z
loop_
_atom_site_type_symbol
_atom_site_label
_atom_site_fract_x
_atom_site_fract_y
_atom_site_fract_z
Si Si1 0.962775 0.665259 0.231967
Si Si2 0.008061 0.213755 0.399306
Si Si3 0.422879 0.544209 0.440169
Si Si4 0.063465 0.850849 0.227099
Si Si5 0.697805 0.041631 0.105512
Si Si6 0.984305 0.714065 0.864402
O O1 0.132230 0.776162 0.409313
O O2 0.614801 0.633098 0.371526
O O3 0.045641 0.740677 0.183798
O O4 0.000000 0.500000 0.000000
O O5 0.303987 0.378351 0.490927
O O6 0.806371 0.178526 0.336748
O O7 0.110127 0.066209 0.148331
O O8 0.273945 0.365110 0.218349
O O9 0.148849 0.596050 0.658402
O O10 0.391065 0.921131 0.125372
O O11 0.000000 0.000000 0.500000
O O12 0.863853 0.760450 0.090422
O O13 0.753890 0.140138 0.107772
#
# Coordination Sequence:
#
# PCOD9037806 Si02
#       6
#     2   2   2   2   2   2
#     4  10  23  41  63  91 132 165 204 264 315 382
#     4   9  22  43  60  91 121 166 215 259 305 375
#     4   9  22  43  60  91 121 166 215 259 305 375
#     4  12  24  39  65  97 132 165 207 264 321 380
#     4  11  22  40  68  91 123 168 214 262 310 378
#     4  11  22  40  68  91 123 168 214 262 310 378
#
# _framework density 23.477042000000001
#
# number of rings (size 3 to 8) (size 9 to 14) (size 15 to 20)
#    1.000    0.667    1.667    2.500    0.000    8.667 
#    0.000    0.000    0.000    0.000    0.000    0.000 
#    0.000    0.000    0.000    0.000    0.000    0.000 
#
# Total GULP energy -66892.276222 kJ/mol
# GULP energy per Si atom -5574.356352 kJ/mol
# Density = 2.342361 g / cm^3
# Si number density = 23.477042 Si / 1000 Ang^3
#
#
#
# Elastic Constant Matrix: (Units=GPa)
#
#
# Indices 1 2 3 4 5 6 
#
# 1 34.5398 25.4693 37.0376 4.3539 15.3046 -1.7390
# 2 25.4693 106.9935 24.2865 0.4592 23.7531 -20.8988
# 3 37.0376 24.2865 154.8199 2.7708 30.2397 -19.8525
# 4 4.3539 0.4592 2.7708 31.8807 2.9418 5.3555
# 5 15.3046 23.7531 30.2397 2.9418 42.5603 8.5648
# 6 -1.7390 -20.8988 -19.8525 5.3555 8.5648 32.6615
#
#
#
# Elastic Compliance Matrix: (Units=1/GPa)
#
#
# Indices 1 2 3 4 5 6 
#
# 1 0.049467 -0.010832 -0.011018 -0.003821 -0.001651 -0.009935
# 2 -0.010832 0.016603 0.004278 -0.000720 -0.011539 0.015791
# 3 -0.011018 0.004278 0.011717 -0.000715 -0.009070 0.011769
# 4 -0.003821 -0.000720 -0.000715 0.032988 0.001387 -0.006871
# 5 -0.001651 -0.011539 -0.009070 0.001387 0.041740 -0.024157
# 6 -0.009935 0.015791 0.011769 -0.006871 -0.024157 0.054807
#
#
# Mechanical properties :
#
#
# Convention : Reuss Voigt Hill
#
# Bulk Modulus (GPa) = 23.44961 52.21556 37.83258
# Shear Modulus (GPa) = 19.47954 35.39113 27.43533
#
# Velocity S-wave (km/s) = 2.88362 3.88684 3.42219
# Velocity P-wave (km/s) = 4.59315 6.51404 5.63604
#
# Compressibility (1/GPa) = 0.04264464
#
# Stress axis : x y z
#
# Youngs Moduli (GPa) = 20.21540 60.23007 85.34438
#
# Poissons Ratio (x) = 0.65241 0.94031
# Poissons Ratio (y) = 0.21897 -0.36514
# Poissons Ratio (z) = 0.22273 -0.25769
#
# Static dielectric constant tensor:
#      x y z
#    x 1.969570 0.055740 0.046750 
#    y 0.055740 1.902980 0.028750 
#    z 0.046750 0.028750 1.928340 
# 
# From -- ./inp_files/374932.got.cif
#   From: 2010.05.17/outbox.cif.g08.bks.cpg/sg2_188_cif.got.tgz:374932.got - 2010.06.03 11:33:40.
