data_PCOD9037813
_publ_section_title
;
Structure prediction by ZEFSAII (Michael W. Deem and Ramdas Pophale) SiO2 
 PCOD9037813
Probable space group: P -1
;
_chemical_formula_sum "Si O2"
_cell_formula_units_Z 14
_cell_length_a 10.176218
_cell_length_b 9.184183
_cell_length_c 6.696363
_cell_angle_alpha 104.931680
_cell_angle_beta 72.357475
_cell_angle_gamma 97.913620
_cell_volume 575.061446
_symmetry_space_group_name_H-M "P -1"
_symmetry_group_IT_number 2
_symmetry_cell_setting 'triclinic'
loop_
_space_group_symop_operation_xyz
x,y,z
-x,-y,-z
loop_
_atom_site_type_symbol
_atom_site_label
_atom_site_fract_x
_atom_site_fract_y
_atom_site_fract_z
Si Si1 0.354138 0.784618 0.468093
Si Si2 0.151195 0.791337 0.226801
Si Si3 0.542922 0.711733 0.990780
Si Si4 0.669999 0.011459 0.109871
Si Si5 0.807092 0.563030 0.951228
Si Si6 0.361449 0.548614 0.681738
Si Si7 0.078359 0.137303 0.895279
O O1 0.232705 0.841799 0.406701
O O2 0.470397 0.730035 0.245920
O O3 0.410125 0.898253 0.655096
O O4 0.291926 0.646011 0.581116
O O5 0.997915 0.841705 0.271998
O O6 0.239449 0.873816 0.033547
O O7 0.150988 0.607575 0.160218
O O8 0.675049 0.610872 0.900107
O O9 0.589408 0.882687 0.971676
O O10 0.427220 0.640898 0.873076
O O11 0.766256 0.909896 0.168125
O O12 0.748658 0.567956 0.207720
O O13 0.923541 0.699747 0.935070
O O14 0.500000 0.500000 0.500000
O O15 0.000000 0.000000 0.000000
#
# Coordination Sequence:
#
# PCOD9037813 Si02
#       7
#     2   2   2   2   2   2   2
#     4  12  22  37  64  92 133 168 212 252 317 375
#     4  11  22  41  65  90 126 168 214 264 314 372
#     4  11  23  40  63  96 131 169 208 257 322 378
#     4  10  23  41  63  93 129 167 212 263 315 373
#     4  11  20  41  67  92 125 168 210 260 322 372
#     4  12  23  39  64  97 136 165 209 258 316 387
#     4   9  22  43  68  90 121 168 217 269 316 367
#
# _framework density 24.345224000000002
#
# number of rings (size 3 to 8) (size 9 to 14) (size 15 to 20)
#    0.000    1.143    4.286    2.143    0.000    4.000 
#    0.000    0.714    6.286    0.000    0.000    0.000 
#    0.000    0.000    0.000    0.000    0.000    0.000 
#
# Total GULP energy -78153.178348 kJ/mol
# GULP energy per Si atom -5582.369882 kJ/mol
# Density = 2.428981 g / cm^3
# Si number density = 24.345224 Si / 1000 Ang^3
#
#
#
# Elastic Constant Matrix: (Units=GPa)
#
#
# Indices 1 2 3 4 5 6 
#
# 1 67.5088 23.1751 9.6203 -15.5692 32.6851 -6.5017
# 2 23.1751 151.9373 29.7549 -7.5972 9.2351 6.7410
# 3 9.6203 29.7549 78.8825 4.3643 20.0014 -0.9632
# 4 -15.5692 -7.5972 4.3643 34.9041 -7.0466 11.5863
# 5 32.6851 9.2351 20.0014 -7.0466 32.4400 -11.6287
# 6 -6.5017 6.7410 -0.9632 11.5863 -11.6287 43.5963
#
#
#
# Elastic Compliance Matrix: (Units=1/GPa)
#
#
# Indices 1 2 3 4 5 6 
#
# 1 0.035405 -0.003545 0.006395 0.008555 -0.039168 -0.006752
# 2 -0.003545 0.007735 -0.003450 0.001661 0.003376 -0.001342
# 3 0.006395 -0.003450 0.017879 -0.003057 -0.017894 -0.002078
# 4 0.008555 0.001661 -0.003057 0.035732 -0.002775 -0.009285
# 5 -0.039168 0.003376 -0.017894 -0.002775 0.085805 0.016866
# 6 -0.006752 -0.001342 -0.002078 -0.009285 0.016866 0.029059
#
#
# Mechanical properties :
#
#
# Convention : Reuss Voigt Hill
#
# Bulk Modulus (GPa) = 16.71677 47.04767 31.88222
# Shear Modulus (GPa) = 21.48193 37.90664 29.69428
#
# Velocity S-wave (km/s) = 2.97372 3.95022 3.49623
# Velocity P-wave (km/s) = 4.32113 6.33821 5.42425
#
# Compressibility (1/GPa) = 0.05982016
#
# Stress axis : x y z
#
# Youngs Moduli (GPa) = 28.24476 129.27751 55.93042
#
# Poissons Ratio (x) = 0.45824 -0.35766
# Poissons Ratio (y) = 0.10012 0.19295
# Poissons Ratio (z) = -0.18062 0.44599
#
# Static dielectric constant tensor:
#      x y z
#    x 2.005530 0.006530 -0.003070 
#    y 0.006530 2.068890 0.012730 
#    z -0.003070 0.012730 1.921540 
# 
# From -- ./inp_files/60653.got.cif
#   From: 2010.05.17/outbox.cif.g08.bks.cpg/sg2_31_cif.got.tgz:60653.got - 2010.06.03 11:33:40.
