data_PCOD9037380
_publ_section_title
;
Structure prediction by ZEFSAII (Michael W. Deem and Ramdas Pophale) SiO2 
 PCOD9037380
Probable space group: P -1
;
_chemical_formula_sum "Si O2"
_cell_formula_units_Z 16
_cell_length_a 17.381719
_cell_length_b 10.698034
_cell_length_c 7.753430
_cell_angle_alpha 119.559327
_cell_angle_beta 146.333676
_cell_angle_gamma 50.046297
_cell_volume 609.792720
_symmetry_space_group_name_H-M "P -1"
_symmetry_group_IT_number 2
_symmetry_cell_setting 'triclinic'
loop_
_space_group_symop_operation_xyz
x,y,z
-x,-y,-z
loop_
_atom_site_type_symbol
_atom_site_label
_atom_site_fract_x
_atom_site_fract_y
_atom_site_fract_z
Si Si1 0.163778 0.998646 0.863068
Si Si2 0.401307 0.183525 0.675998
Si Si3 0.370371 0.152531 0.198771
Si Si4 0.357189 0.647619 0.138551
Si Si5 0.121786 0.473675 0.857829
Si Si6 0.144354 0.529141 0.485288
Si Si7 0.611801 0.294634 0.363355
Si Si8 0.916997 0.247466 0.798122
O O1 0.287022 0.813066 0.011344
O O2 0.000000 0.000000 0.500000
O O3 0.090870 0.113426 0.975076
O O4 0.252469 0.074028 0.962391
O O5 0.407235 0.196854 0.487433
O O6 0.231668 0.333182 0.508221
O O7 0.471149 0.988636 0.688824
O O8 0.512418 0.223859 0.032425
O O9 0.290872 0.316811 0.049888
O O10 0.519276 0.489872 0.273072
O O11 0.379998 0.692831 0.406180
O O12 0.225512 0.585287 0.824967
O O13 0.000000 0.500000 0.500000
O O14 0.040037 0.416233 0.814582
O O15 0.102361 0.644470 0.997397
O O16 0.158659 0.618929 0.404552
O O17 0.790281 0.186619 0.554338
#
# Coordination Sequence:
#
# PCOD9037380 Si02
#       8
#     2   2   2   2   2   2   2   2
#     4  12  23  38  65  96 126 163 208 264 308 368
#     4  10  23  40  66  88 129 165 206 267 295 375
#     4  11  23  42  61  97 123 165 214 255 314 369
#     4  10  23  42  64  93 132 163 203 263 312 370
#     4  12  25  43  65  91 130 165 203 261 320 372
#     4  11  21  42  65  95 122 163 212 251 310 377
#     4  10  24  42  63  96 127 165 210 254 318 366
#     4  12  23  38  67  95 121 168 210 256 306 377
#
# _framework density 26.238423999999998
#
# number of rings (size 3 to 8) (size 9 to 14) (size 15 to 20)
#    0.000    1.000    3.750    2.625    1.750    2.500 
#    0.000    1.250    0.000    0.000    0.000    0.000 
#    0.000    0.000    0.000    0.000    0.000    0.000 
#
# Total GULP energy -89472.057854 kJ/mol
# GULP energy per Si atom -5592.003616 kJ/mol
# Density = 2.617870 g / cm^3
# Si number density = 26.238424 Si / 1000 Ang^3
#
#
#
# Elastic Constant Matrix: (Units=GPa)
#
#
# Indices 1 2 3 4 5 6 
#
# 1 41.5805 2.8040 12.3209 9.3294 6.1747 -17.2365
# 2 2.8040 150.0808 27.2059 -3.4530 -6.5392 -24.0279
# 3 12.3209 27.2059 123.8237 24.1810 -11.9632 0.5048
# 4 9.3294 -3.4530 24.1810 47.5680 -8.2109 4.4514
# 5 6.1747 -6.5392 -11.9632 -8.2109 51.1311 3.5486
# 6 -17.2365 -24.0279 0.5048 4.4514 3.5486 27.9065
#
#
#
# Elastic Compliance Matrix: (Units=1/GPa)
#
#
# Indices 1 2 3 4 5 6 
#
# 1 0.042602 0.004643 -0.004243 -0.010628 -0.009561 0.033299
# 2 0.004643 0.008664 -0.002454 -0.000151 -0.000780 0.010495
# 3 -0.004243 -0.002454 0.009978 -0.003592 0.002278 -0.004631
# 4 -0.010628 -0.000151 -0.003592 0.026971 0.005563 -0.011639
# 5 -0.009561 -0.000780 0.002278 0.005563 0.022760 -0.010400
# 6 0.033299 0.010495 -0.004631 -0.011639 -0.010400 0.068700
#
#
# Mechanical properties :
#
#
# Convention : Reuss Voigt Hill
#
# Bulk Modulus (GPa) = 17.50234 44.46073 30.98153
# Shear Modulus (GPa) = 24.65124 43.53142 34.09133
#
# Velocity S-wave (km/s) = 3.06847 4.07759 3.60848
# Velocity P-wave (km/s) = 4.38622 6.25705 5.40322
#
# Compressibility (1/GPa) = 0.05713523
#
# Stress axis : x y z
#
# Youngs Moduli (GPa) = 23.47312 115.41868 100.22262
#
# Poissons Ratio (x) = -0.53592 0.42527
# Poissons Ratio (y) = -0.10899 0.24598
# Poissons Ratio (z) = 0.09960 0.28327
#
# Static dielectric constant tensor:
#      x y z
#    x 2.252570 -0.008490 0.022730 
#    y -0.008490 2.034120 0.041920 
#    z 0.022730 0.041920 2.074580 
# 
# From -- ./inp_files/346419.got.cif
#   From: 2010.05.17/outbox.cif.g08.bks.cpg/sg2_174_cif.got.tgz:346419.got - 2010.06.03 11:33:40.
