data_PCOD9037227
_publ_section_title
;
Structure prediction by ZEFSAII (Michael W. Deem and Ramdas Pophale) SiO2 
 PCOD9037227
Probable space group: P -1
;
_chemical_formula_sum "Si O2"
_cell_formula_units_Z 15
_cell_length_a 24.264460
_cell_length_b 15.750794
_cell_length_c 22.213264
_cell_angle_alpha 159.024213
_cell_angle_beta 168.288242
_cell_angle_gamma 20.256056
_cell_volume 582.678089
_symmetry_space_group_name_H-M "P -1"
_symmetry_group_IT_number 2
_symmetry_cell_setting 'triclinic'
loop_
_space_group_symop_operation_xyz
x,y,z
-x,-y,-z
loop_
_atom_site_type_symbol
_atom_site_label
_atom_site_fract_x
_atom_site_fract_y
_atom_site_fract_z
Si Si1 0.632673 0.397770 0.921597
Si Si2 0.289358 0.139985 0.458942
Si Si3 0.718039 0.081243 0.372714
Si Si4 0.018182 0.960815 0.252442
Si Si5 0.500000 0.500000 0.500000
Si Si6 0.153165 0.262023 0.829052
Si Si7 0.490874 0.452269 0.674887
Si Si8 0.367078 0.204172 0.713792
O O1 0.464086 0.218192 0.645822
O O2 0.500627 0.532698 0.808180
O O3 0.627874 0.588224 0.095683
O O4 0.958990 0.232243 0.149160
O O5 0.322778 0.286722 0.652404
O O6 0.404082 0.848815 0.407831
O O7 0.884261 0.931378 0.509615
O O8 0.692870 0.359715 0.553124
O O9 0.846285 0.948318 0.360016
O O10 0.375890 0.123324 0.028124
O O11 0.239995 0.680523 0.300472
O O12 0.107954 0.104349 0.388942
O O13 0.684569 0.996465 0.921844
O O14 0.836035 0.429692 0.617738
O O15 0.305572 0.436592 0.072541
#
# Coordination Sequence:
#
# PCOD9037227 Si02
#       8
#     2   2   2   2   1   2   2   2
#     4  12  24  46  63  94 125 166 204 269 322 372
#     4  12  26  41  68  92 127 161 212 265 320 365
#     4   9  22  42  66  92 136 165 207 256 309 368
#     4  10  23  40  63  97 125 171 198 258 308 372
#     4   8  22  42  66  94 134 162 208 256 312 366
#     4  11  24  43  63  97 125 172 210 253 307 368
#     4  12  26  41  69  90 129 165 215 257 307 386
#     4  12  24  41  69  92 127 161 219 251 316 380
#
# _framework density 25.743202
#
# number of rings (size 3 to 8) (size 9 to 14) (size 15 to 20)
#    0.800    0.267    0.000    6.400    3.733    3.733 
#    0.000    0.000    0.000    0.000    0.000    0.000 
#    0.000    0.000    0.000    0.000    0.000    0.000 
#
# Total GULP energy -83714.026357 kJ/mol
# GULP energy per Si atom -5580.935090 kJ/mol
# Density = 2.568461 g / cm^3
# Si number density = 25.743202 Si / 1000 Ang^3
#
#
#
# Elastic Constant Matrix: (Units=GPa)
#
#
# Indices 1 2 3 4 5 6 
#
# 1 113.7414 4.5158 33.1664 0.0540 2.7848 4.6419
# 2 4.5158 107.2443 23.9623 -15.5033 32.1468 -3.6225
# 3 33.1664 23.9623 97.6718 -18.6511 15.7509 10.4023
# 4 0.0540 -15.5033 -18.6511 45.4123 -5.7109 -6.9535
# 5 2.7848 32.1468 15.7509 -5.7109 54.5884 -4.3243
# 6 4.6419 -3.6225 10.4023 -6.9535 -4.3243 32.8331
#
#
#
# Elastic Compliance Matrix: (Units=1/GPa)
#
#
# Indices 1 2 3 4 5 6 
#
# 1 0.009869 0.000070 -0.003656 -0.001529 0.000310 -0.000512
# 2 0.000070 0.012006 -0.001588 0.002917 -0.006182 0.001621
# 3 -0.003656 -0.001588 0.013437 0.004138 -0.002590 -0.003380
# 4 -0.001529 0.002917 0.004138 0.025453 0.000197 0.004644
# 5 0.000310 -0.006182 -0.002590 0.000197 0.022962 0.003161
# 6 -0.000512 0.001621 -0.003380 0.004644 0.003161 0.033179
#
#
# Mechanical properties :
#
#
# Convention : Reuss Voigt Hill
#
# Bulk Modulus (GPa) = 40.05589 49.10518 44.58053
# Shear Modulus (GPa) = 36.87981 43.70099 40.29040
#
# Velocity S-wave (km/s) = 3.78908 4.12463 3.96041
# Velocity P-wave (km/s) = 5.89376 6.46528 6.18613
#
# Compressibility (1/GPa) = 0.02496512
#
# Stress axis : x y z
#
# Youngs Moduli (GPa) = 101.32597 83.29236 74.42018
#
# Poissons Ratio (x) = -0.00585 0.27206
# Poissons Ratio (y) = -0.00711 0.11818
# Poissons Ratio (z) = 0.37042 0.13227
#
# Static dielectric constant tensor:
#      x y z
#    x 2.013160 -0.021140 -0.036020 
#    y -0.021140 2.071500 0.101300 
#    z -0.036020 0.101300 2.028800 
# 
# From -- ./inp_files/614425.got.cif
#   From: 2010.05.17/outbox.cif.g08.bks.cpg/sg2_308_cif.got.tgz:614425.got - 2010.06.03 11:33:40.
