data_PCOD9037002
_publ_section_title
;
Structure prediction by ZEFSAII (Michael W. Deem and Ramdas Pophale) SiO2 
 PCOD9037002
Probable space group: P -1
;
_chemical_formula_sum "Si O2"
_cell_formula_units_Z 12
_cell_length_a 15.675176
_cell_length_b 16.243723
_cell_length_c 5.447885
_cell_angle_alpha 89.505740
_cell_angle_beta 92.608152
_cell_angle_gamma 20.577106
_cell_volume 481.823978
_symmetry_space_group_name_H-M "P -1"
_symmetry_group_IT_number 2
_symmetry_cell_setting 'triclinic'
loop_
_space_group_symop_operation_xyz
x,y,z
-x,-y,-z
loop_
_atom_site_type_symbol
_atom_site_label
_atom_site_fract_x
_atom_site_fract_y
_atom_site_fract_z
Si Si1 0.369756 0.646258 0.728264
Si Si2 0.861632 0.691526 0.717818
Si Si3 0.977985 0.180247 0.239057
Si Si4 0.877446 0.717926 0.219330
Si Si5 0.249030 0.459561 0.978475
Si Si6 0.738863 0.066463 0.231796
O O1 0.500000 0.500000 0.500000
O O2 0.115574 0.825503 0.701698
O O3 0.362402 0.750751 0.727040
O O4 0.500000 0.500000 0.000000
O O5 0.932123 0.532258 0.729380
O O6 0.741751 0.835232 0.454240
O O7 0.729849 0.835318 0.947941
O O8 0.123608 0.503892 0.789658
O O9 0.765086 0.440611 0.164524
O O10 0.136918 0.069221 0.490649
O O11 0.106736 0.060028 0.994336
O O12 0.054723 0.633441 0.176771
O O13 0.518920 0.204307 0.123398
#
# Coordination Sequence:
#
# PCOD9037002 Si02
#       6
#     2   2   2   2   2   2
#     4  12  24  46  72  87 125 174 210 255 324 372
#     4   8  16  31  59  88 117 165 207 247 309 367
#     4  12  27  42  65  97 129 165 211 265 316 375
#     4   8  16  31  59  88 117 165 207 247 309 367
#     4  10  23  39  68  86 136 158 218 249 329 358
#     4  12  27  42  65  97 129 165 211 265 316 375
#
# _framework density 24.905360999999999
#
# number of rings (size 3 to 8) (size 9 to 14) (size 15 to 20)
#    1.000    0.667    1.667    3.000    4.667    0.000 
#    0.000    0.000    0.000    8.000    0.000    0.000 
#    0.000    0.000    0.000    0.000    0.000    0.000 
#
# Total GULP energy -66999.109353 kJ/mol
# GULP energy per Si atom -5583.259113 kJ/mol
# Density = 2.484868 g / cm^3
# Si number density = 24.905361 Si / 1000 Ang^3
#
#
#
# Elastic Constant Matrix: (Units=GPa)
#
#
# Indices 1 2 3 4 5 6 
#
# 1 100.1470 5.7597 9.7448 4.6951 1.4837 6.2824
# 2 5.7597 27.2117 28.7745 -1.4314 6.4424 -3.4227
# 3 9.7448 28.7745 212.9673 3.4301 -16.4011 3.6388
# 4 4.6951 -1.4314 3.4301 38.8489 -2.6849 -2.4867
# 5 1.4837 6.4424 -16.4011 -2.6849 43.6123 -2.0100
# 6 6.2824 -3.4227 3.6388 -2.4867 -2.0100 38.1593
#
#
#
# Elastic Compliance Matrix: (Units=1/GPa)
#
#
# Indices 1 2 3 4 5 6 
#
# 1 0.010329 -0.002337 -0.000117 -0.001469 -0.000233 -0.002007
# 2 -0.002337 0.047811 -0.007194 0.002357 -0.009312 0.005022
# 3 -0.000117 -0.007194 0.005949 -0.000622 0.003216 -0.001064
# 4 -0.001469 0.002357 -0.000622 0.026289 0.001192 0.002289
# 5 -0.000233 -0.009312 0.003216 0.001192 0.025611 0.000323
# 6 -0.002007 0.005022 -0.001064 0.002289 0.000323 0.027254
#
#
# Mechanical properties :
#
#
# Convention : Reuss Voigt Hill
#
# Bulk Modulus (GPa) = 22.32492 47.65376 34.98934
# Shear Modulus (GPa) = 28.17381 43.86057 36.01719
#
# Velocity S-wave (km/s) = 3.36703 4.20109 3.80697
# Velocity P-wave (km/s) = 4.90910 6.53511 5.77957
#
# Compressibility (1/GPa) = 0.04479300
#
# Stress axis : x y z
#
# Youngs Moduli (GPa) = 96.81160 20.91578 168.10178
#
# Poissons Ratio (x) = 0.04889 0.01964
# Poissons Ratio (y) = 0.22628 1.20929
# Poissons Ratio (z) = 0.01131 0.15046
#
# Static dielectric constant tensor:
#      x y z
#    x 1.983090 0.016560 0.024570 
#    y 0.016560 1.991210 0.006130 
#    z 0.024570 0.006130 2.008200 
# 
# From -- ./inp_files/111146.got.cif
#   From: 2010.05.17/outbox.cif.g08.bks.cpg/sg2_56_cif.got.tgz:111146.got - 2010.06.03 11:33:40.
