data_PCOD9037083
_publ_section_title
;
Structure prediction by ZEFSAII (Michael W. Deem and Ramdas Pophale) SiO2 
 PCOD9037083
Probable space group: P -1
;
_chemical_formula_sum "Si O2"
_cell_formula_units_Z 16
_cell_length_a 8.453607
_cell_length_b 21.620693
_cell_length_c 15.968308
_cell_angle_alpha 161.283082
_cell_angle_beta 125.849107
_cell_angle_gamma 53.740063
_cell_volume 751.507683
_symmetry_space_group_name_H-M "P -1"
_symmetry_group_IT_number 2
_symmetry_cell_setting 'triclinic'
loop_
_space_group_symop_operation_xyz
x,y,z
-x,-y,-z
loop_
_atom_site_type_symbol
_atom_site_label
_atom_site_fract_x
_atom_site_fract_y
_atom_site_fract_z
Si Si1 0.373135 0.253189 0.409054
Si Si2 0.245687 0.293843 0.007313
Si Si3 0.489770 0.802387 0.888894
Si Si4 0.864690 0.829503 0.918787
Si Si5 0.255459 0.716391 0.558696
Si Si6 0.083098 0.844838 0.161176
Si Si7 0.550557 0.448166 0.044114
Si Si8 0.688390 0.842221 0.332495
O O1 0.179654 0.270905 0.311451
O O2 0.557180 0.288176 0.451523
O O3 0.386764 0.384446 0.662475
O O4 0.407188 0.029505 0.161674
O O5 0.160398 0.522057 0.262292
O O6 0.443419 0.284109 0.111890
O O7 0.287912 0.186591 0.795812
O O8 0.104141 0.180862 0.873951
O O9 0.677350 0.798773 0.879796
O O10 0.331761 0.701554 0.659367
O O11 0.050340 0.770224 0.961086
O O12 0.854735 0.062980 0.200793
O O13 0.126688 0.066442 0.456987
O O14 0.264028 0.719527 0.103248
O O15 0.500000 0.500000 0.000000
O O16 0.360634 0.361528 0.909586
O O17 0.500000 0.000000 0.500000
#
# Coordination Sequence:
#
# PCOD9037083 Si02
#       8
#     2   2   2   2   2   2   2   2
#     4   9  17  35  59  86 115 160 191 232 294 339
#     4  11  19  35  62  90 118 151 194 242 290 340
#     4   8  17  29  57  89 120 149 186 242 285 351
#     4   8  17  35  58  84 122 148 187 244 293 343
#     4   9  16  32  57  91 116 148 197 233 288 345
#     4  10  23  40  58  87 121 153 191 245 296 338
#     4  11  24  41  61  84 116 155 204 241 281 356
#     4  10  23  41  57  82 118 159 196 234 290 349
#
# _framework density 21.290533
#
# number of rings (size 3 to 8) (size 9 to 14) (size 15 to 20)
#    0.000    2.500    1.250    2.250    3.500    1.500 
#    2.250    1.250    0.000    2.250    0.000    0.000 
#    0.000    0.000    0.000    0.000    0.000    0.000 
#
# Total GULP energy -89186.744211 kJ/mol
# GULP energy per Si atom -5574.171513 kJ/mol
# Density = 2.124208 g / cm^3
# Si number density = 21.290533 Si / 1000 Ang^3
#
#
#
# Elastic Constant Matrix: (Units=GPa)
#
#
# Indices 1 2 3 4 5 6 
#
# 1 29.9970 16.0346 24.6219 -12.5238 6.3223 8.7601
# 2 16.0346 126.3819 39.4842 -36.5669 -1.6467 7.7075
# 3 24.6219 39.4842 135.0525 -34.0500 2.1810 14.6067
# 4 -12.5238 -36.5669 -34.0500 25.7145 6.9240 -6.2449
# 5 6.3223 -1.6467 2.1810 6.9240 19.9004 -3.4840
# 6 8.7601 7.7075 14.6067 -6.2449 -3.4840 13.1497
#
#
#
# Elastic Compliance Matrix: (Units=1/GPa)
#
#
# Indices 1 2 3 4 5 6 
#
# 1 0.070901 0.006663 0.003391 0.050774 -0.047610 -0.043406
# 2 0.006663 0.015294 0.002928 0.031052 -0.012909 -0.005328
# 3 0.003391 0.002928 0.013455 0.024457 -0.012687 -0.010667
# 4 0.050774 0.031052 0.024457 0.153903 -0.074304 -0.025789
# 5 -0.047610 -0.012909 -0.012687 -0.074304 0.099325 0.044404
# 6 -0.043406 -0.005328 -0.010667 -0.025789 0.044404 0.119454
#
#
# Mechanical properties :
#
#
# Convention : Reuss Voigt Hill
#
# Bulk Modulus (GPa) = 7.96102 50.19030 29.07566
# Shear Modulus (GPa) = 10.24086 25.83897 18.03991
#
# Velocity S-wave (km/s) = 2.19556 3.48751 2.91404
# Velocity P-wave (km/s) = 3.18978 6.31206 5.00084
#
# Compressibility (1/GPa) = 0.12561197
#
# Stress axis : x y z
#
# Youngs Moduli (GPa) = 14.10422 65.38652 74.32074
#
# Poissons Ratio (x) = -0.43565 -0.25200
# Poissons Ratio (y) = -0.09397 -0.21758
# Poissons Ratio (z) = -0.04782 -0.19143
#
# Static dielectric constant tensor:
#      x y z
#    x 1.782790 -0.041040 0.031870 
#    y -0.041040 1.798110 0.003240 
#    z 0.031870 0.003240 1.824610 
# 
# From -- ./inp_files/217345.got.cif
#   From: 2010.05.17/outbox.cif.g08.bks.cpg/sg2_109_cif.got.tgz:217345.got - 2010.06.03 11:33:40.
