data_PCOD9037669
_publ_section_title
;
Structure prediction by ZEFSAII (Michael W. Deem and Ramdas Pophale) SiO2 
 PCOD9037669
Probable space group: P -1
;
_chemical_formula_sum "Si O2"
_cell_formula_units_Z 14
_cell_length_a 5.050924
_cell_length_b 12.016320
_cell_length_c 13.700373
_cell_angle_alpha 58.006140
_cell_angle_beta 131.773686
_cell_angle_gamma 120.080835
_cell_volume 511.288102
_symmetry_space_group_name_H-M "P -1"
_symmetry_group_IT_number 2
_symmetry_cell_setting 'triclinic'
loop_
_space_group_symop_operation_xyz
x,y,z
-x,-y,-z
loop_
_atom_site_type_symbol
_atom_site_label
_atom_site_fract_x
_atom_site_fract_y
_atom_site_fract_z
Si Si1 0.413662 0.141443 0.448490
Si Si2 0.472104 0.794492 0.329292
Si Si3 0.780141 0.851456 0.053176
Si Si4 0.113946 0.941019 0.790623
Si Si5 0.378182 0.564899 0.263472
Si Si6 0.900780 0.728627 0.951225
Si Si7 0.711578 0.396011 0.287173
O O1 0.410064 0.169173 0.548684
O O2 0.695302 0.261385 0.408332
O O3 0.015752 0.131350 0.308488
O O4 0.500000 0.000000 0.500000
O O5 0.492717 0.657052 0.344960
O O6 0.053099 0.811545 0.215158
O O7 0.697672 0.909014 0.257616
O O8 0.373238 0.872352 0.955715
O O9 0.732416 0.739540 0.011178
O O10 0.000000 0.000000 0.000000
O O11 0.791657 0.875407 0.814269
O O12 0.681656 0.507086 0.309710
O O13 0.057648 0.442830 0.281044
O O14 0.213442 0.651973 0.103127
O O15 0.653320 0.630593 0.857341
#
# Coordination Sequence:
#
# PCOD9037669 Si02
#       7
#     2   2   2   2   2   2   2
#     4  11  27  47  74 109 141 195 248 309 372 444
#     4  10  24  45  70 109 152 192 244 302 370 440
#     4   9  21  38  66 104 145 176 236 303 368 422
#     4  10  23  42  74 105 144 189 243 306 369 430
#     4  11  26  46  72 110 147 201 244 303 366 443
#     4  10  23  40  72 106 146 190 246 304 370 431
#     4  11  27  46  75 103 149 197 252 299 364 451
#
# _framework density 27.381822
#
# number of rings (size 3 to 8) (size 9 to 14) (size 15 to 20)
#    0.000    1.714    0.000    1.286   16.000    8.571 
#    0.000    0.000    0.000    0.000    0.000    0.000 
#    0.000    0.000    0.000    0.000    0.000    0.000 
#
# Total GULP energy -78149.710815 kJ/mol
# GULP energy per Si atom -5582.122201 kJ/mol
# Density = 2.731950 g / cm^3
# Si number density = 27.381822 Si / 1000 Ang^3
#
#
#
# Elastic Constant Matrix: (Units=GPa)
#
#
# Indices 1 2 3 4 5 6 
#
# 1 131.1249 41.2249 -28.4852 20.4242 -8.2527 33.8793
# 2 41.2249 143.4641 32.2415 0.0371 -19.9337 3.4041
# 3 -28.4852 32.2415 204.7259 -27.4454 -31.5806 -73.1490
# 4 20.4242 0.0371 -27.4454 70.2970 12.5833 -3.1489
# 5 -8.2527 -19.9337 -31.5806 12.5833 37.7783 10.2712
# 6 33.8793 3.4041 -73.1490 -3.1489 10.2712 83.9670
#
#
#
# Elastic Compliance Matrix: (Units=1/GPa)
#
#
# Indices 1 2 3 4 5 6 
#
# 1 0.010429 -0.002448 0.000325 -0.003765 0.003714 -0.004421
# 2 -0.002448 0.008518 -0.001745 -0.000575 0.003039 -0.001271
# 3 0.000325 -0.001745 0.008729 0.003016 0.003477 0.007232
# 4 -0.003765 -0.000575 0.003016 0.017832 -0.006061 0.005580
# 5 0.003714 0.003039 0.003477 -0.006061 0.034642 -0.003058
# 6 -0.004421 -0.001271 0.007232 0.005580 -0.003058 0.020628
#
#
# Mechanical properties :
#
#
# Convention : Reuss Voigt Hill
#
# Bulk Modulus (GPa) = 50.14476 63.25304 56.69890
# Shear Modulus (GPa) = 43.41785 67.36406 55.39095
#
# Velocity S-wave (km/s) = 3.98634 4.96540 4.50256
# Velocity P-wave (km/s) = 6.28814 7.48492 6.91248
#
# Compressibility (1/GPa) = 0.01994226
#
# Stress axis : x y z
#
# Youngs Moduli (GPa) = 95.88651 117.39320 114.55814
#
# Poissons Ratio (x) = 0.28737 -0.03727
# Poissons Ratio (y) = 0.23472 0.19985
# Poissons Ratio (z) = -0.03119 0.20479
#
# Static dielectric constant tensor:
#      x y z
#    x 2.104730 -0.039040 0.103160 
#    y -0.039040 2.104260 -0.044140 
#    z 0.103160 -0.044140 2.315670 
# 
# From -- ./inp_files/482117.got.cif
#   From: 2010.05.17/outbox.cif.g08.bks.cpg/sg2_242_cif.got.tgz:482117.got - 2010.06.03 11:33:40.
