data_PCOD9037836
_publ_section_title
;
Structure prediction by ZEFSAII (Michael W. Deem and Ramdas Pophale) SiO2 
 PCOD9037836
Probable space group: P -1
;
_chemical_formula_sum "Si O2"
_cell_formula_units_Z 12
_cell_length_a 13.108537
_cell_length_b 5.585946
_cell_length_c 7.807705
_cell_angle_alpha 89.008540
_cell_angle_beta 116.892124
_cell_angle_gamma 92.834687
_cell_volume 509.251294
_symmetry_space_group_name_H-M "P -1"
_symmetry_group_IT_number 2
_symmetry_cell_setting 'triclinic'
loop_
_space_group_symop_operation_xyz
x,y,z
-x,-y,-z
loop_
_atom_site_type_symbol
_atom_site_label
_atom_site_fract_x
_atom_site_fract_y
_atom_site_fract_z
Si Si1 0.197016 0.735754 0.548666
Si Si2 0.911110 0.282652 0.889800
Si Si3 0.766457 0.447413 0.083004
Si Si4 0.682865 0.749397 0.458922
Si Si5 0.448125 0.837920 0.115612
Si Si6 0.760335 0.884492 0.890893
O O1 0.105395 0.721306 0.326653
O O2 0.162292 0.689269 0.719646
O O3 0.261587 0.996964 0.576372
O O4 0.270590 0.499697 0.572576
O O5 0.884400 0.006349 0.931590
O O6 0.785887 0.728568 0.079546
O O7 0.000000 0.500000 0.000000
O O8 0.632495 0.383301 0.011675
O O9 0.803556 0.366696 0.922997
O O10 0.715730 0.761775 0.682918
O O11 0.549119 0.757511 0.314331
O O12 0.353445 0.983702 0.140993
O O13 0.500000 0.000000 0.000000
#
# Coordination Sequence:
#
# PCOD9037836 Si02
#       6
#     2   2   2   2   2   2
#     4  11  24  43  68  98 134 172 219 271 325 392
#     4  10  24  47  67  93 128 170 220 280 337 387
#     4  11  23  41  67  95 133 171 221 269 321 393
#     4  11  23  42  64  97 139 178 215 263 323 390
#     4  11  22  37  62  96 134 180 215 257 320 392
#     4  10  23  41  63  96 130 174 222 270 321 390
#
# _framework density 23.564005000000002
#
# number of rings (size 3 to 8) (size 9 to 14) (size 15 to 20)
#    0.000    1.333    3.333    1.500    4.667    3.333 
#    0.000    0.833    0.000    0.000    0.000    0.000 
#    0.000    0.000    0.000    0.000    0.000    0.000 
#
# Total GULP energy -66817.982061 kJ/mol
# GULP energy per Si atom -5568.165172 kJ/mol
# Density = 2.351037 g / cm^3
# Si number density = 23.564005 Si / 1000 Ang^3
#
#
#
# Elastic Constant Matrix: (Units=GPa)
#
#
# Indices 1 2 3 4 5 6 
#
# 1 36.3522 -17.6235 -5.7122 14.7924 -17.0736 37.8407
# 2 -17.6235 41.1728 24.5193 5.4830 -37.6926 53.4485
# 3 -5.7122 24.5193 95.9340 4.0744 -14.0674 59.8325
# 4 14.7924 5.4830 4.0744 35.0176 18.2604 -13.4391
# 5 -17.0736 -37.6926 -14.0674 18.2604 10.8842 22.6619
# 6 37.8407 53.4485 59.8325 -13.4391 22.6619 31.2033
#
#
#
# Elastic Compliance Matrix: (Units=1/GPa)
#
#
# Indices 1 2 3 4 5 6 
#
# 1 0.015187 -0.006839 -0.000973 0.001421 -0.010340 0.003284
# 2 -0.006839 0.013528 -0.009381 0.006264 -0.002715 0.007780
# 3 -0.000973 -0.009381 0.014864 0.001916 -0.007208 -0.005192
# 4 0.001421 0.006264 0.001916 0.023527 0.001156 -0.006834
# 5 -0.010340 -0.002715 -0.007208 0.001156 0.020705 0.016471
# 6 0.003284 0.007780 -0.005192 -0.006834 0.016471 0.009788
#
#
# Mechanical properties :
#
#
# Convention : Reuss Voigt Hill
#
# Bulk Modulus (GPa) = 108.78905 19.53626 64.16265
# Shear Modulus (GPa) = 37.02378 26.90605 31.96491
#
# Velocity S-wave (km/s) = 3.96814 3.38276 3.68708
# Velocity P-wave (km/s) = 8.20137 4.85450 6.73902
#
# Compressibility (1/GPa) = 0.00919210
#
# Stress axis : x y z
#
# Youngs Moduli (GPa) = 65.84642 73.92292 67.27841
#
# Poissons Ratio (x) = 0.50556 0.06544
# Poissons Ratio (y) = 0.45032 0.63116
# Poissons Ratio (z) = 0.06405 0.69349
#
# Static dielectric constant tensor:
#      x y z
#    x 1.904990 -0.190080 -0.028710 
#    y -0.190080 4.170370 -0.601230 
#    z -0.028710 -0.601230 2.255270 
# 
# From -- ./inp_files/53287.got.cif
#   From: 2010.05.17/outbox.cif.g08.bks.cpg/sg2_27_cif.got.tgz:53287.got - 2010.06.03 11:33:40.
