data_PCOD9037636
_publ_section_title
;
Structure prediction by ZEFSAII (Michael W. Deem and Ramdas Pophale) SiO2 
 PCOD9037636
Probable space group: P -1
;
_chemical_formula_sum "Si O2"
_cell_formula_units_Z 14
_cell_length_a 9.182140
_cell_length_b 12.172417
_cell_length_c 12.076389
_cell_angle_alpha 122.634588
_cell_angle_beta 130.916440
_cell_angle_gamma 39.854767
_cell_volume 651.783549
_symmetry_space_group_name_H-M "P -1"
_symmetry_group_IT_number 2
_symmetry_cell_setting 'triclinic'
loop_
_space_group_symop_operation_xyz
x,y,z
-x,-y,-z
loop_
_atom_site_type_symbol
_atom_site_label
_atom_site_fract_x
_atom_site_fract_y
_atom_site_fract_z
Si Si1 0.113338 0.087922 0.567065
Si Si2 0.819950 0.625014 0.575728
Si Si3 0.334460 0.275387 0.055958
Si Si4 0.938245 0.430260 0.756588
Si Si5 0.847921 0.922707 0.058000
Si Si6 0.690625 0.122939 0.656502
Si Si7 0.649659 0.965878 0.752388
O O1 0.945479 0.277122 0.637981
O O2 0.155527 0.050132 0.435927
O O3 0.400955 0.002858 0.699168
O O4 0.000000 0.000000 0.500000
O O5 0.899071 0.526845 0.677181
O O6 0.531536 0.723286 0.447431
O O7 0.816251 0.781543 0.677180
O O8 0.000000 0.500000 0.500000
O O9 0.272573 0.426773 0.183536
O O10 0.627398 0.108063 0.103417
O O11 0.199843 0.206694 0.004526
O O12 0.200274 0.347274 0.908036
O O13 0.116662 0.852801 0.194913
O O14 0.806366 0.956591 0.925268
O O15 0.575781 0.101239 0.694767
#
# Coordination Sequence:
#
# PCOD9037636 Si02
#       7
#     2   2   2   2   2   2   2
#     4  11  23  42  71  99 130 178 231 280 340 408
#     4  11  23  42  68  96 138 180 222 285 347 396
#     4  10  23  40  71 100 136 180 226 286 334 396
#     4  11  21  42  66 101 136 175 223 290 346 387
#     4  11  22  44  70  98 137 185 235 265 339 410
#     4  11  25  41  70 103 133 184 231 275 337 416
#     4  11  22  45  67  95 140 189 225 274 337 407
#
# _framework density 21.479523
#
# number of rings (size 3 to 8) (size 9 to 14) (size 15 to 20)
#    0.000    1.143    2.857    4.714    2.000    0.000 
#    0.000   19.286    0.000    0.000    0.000    0.000 
#    0.000    0.000    0.000    0.000    0.000    0.000 
#
# Total GULP energy -78233.926585 kJ/mol
# GULP energy per Si atom -5588.137613 kJ/mol
# Density = 2.143063 g / cm^3
# Si number density = 21.479523 Si / 1000 Ang^3
#
#
#
# Elastic Constant Matrix: (Units=GPa)
#
#
# Indices 1 2 3 4 5 6 
#
# 1 81.3053 37.2547 49.6679 -11.1653 -7.1045 2.4439
# 2 37.2547 105.8370 28.7600 16.4582 -6.7515 -3.6207
# 3 49.6679 28.7600 113.5088 -2.3879 -15.9772 -1.6232
# 4 -11.1653 16.4582 -2.3879 37.8110 6.6704 -19.4116
# 5 -7.1045 -6.7515 -15.9772 6.6704 33.6965 -3.9839
# 6 2.4439 -3.6207 -1.6232 -19.4116 -3.9839 27.7189
#
#
#
# Elastic Compliance Matrix: (Units=1/GPa)
#
#
# Indices 1 2 3 4 5 6 
#
# 1 0.021626 -0.007395 -0.007599 0.011962 -0.002334 0.004724
# 2 -0.007395 0.013871 -0.000200 -0.011334 0.002767 -0.005087
# 3 -0.007599 -0.000200 0.012851 -0.001766 0.004903 0.000864
# 4 0.011962 -0.011334 -0.001766 0.053370 -0.007166 0.033707
# 5 -0.002334 0.002767 0.004903 -0.007166 0.033560 0.000659
# 6 0.004724 -0.005087 0.000864 0.033707 0.000659 0.058746
#
#
# Mechanical properties :
#
#
# Convention : Reuss Voigt Hill
#
# Bulk Modulus (GPa) = 55.67934 59.11294 57.39614
# Shear Modulus (GPa) = 21.70143 32.17651 26.93897
#
# Velocity S-wave (km/s) = 3.18202 3.87461 3.54527
# Velocity P-wave (km/s) = 6.28320 6.89907 6.59833
#
# Compressibility (1/GPa) = 0.01795998
#
# Stress axis : x y z
#
# Youngs Moduli (GPa) = 46.23962 72.09276 77.81552
#
# Poissons Ratio (x) = 0.53314 0.59130
# Poissons Ratio (y) = 0.34195 0.01559
# Poissons Ratio (z) = 0.35136 0.01444
#
# Static dielectric constant tensor:
#      x y z
#    x 1.790540 -0.010390 -0.019940 
#    y -0.010390 1.800560 -0.006270 
#    z -0.019940 -0.006270 1.781050 
# 
# From -- ./inp_files/392872.got.cif
#   From: 2010.05.17/outbox.cif.g08.bks.cpg/sg2_197_cif.got.tgz:392872.got - 2010.06.03 11:33:40.
