data_PCOD9037510
_publ_section_title
;
Structure prediction by ZEFSAII (Michael W. Deem and Ramdas Pophale) SiO2 
 PCOD9037510
Probable space group: P -1
;
_chemical_formula_sum "Si O2"
_cell_formula_units_Z 14
_cell_length_a 10.149293
_cell_length_b 5.542153
_cell_length_c 15.006552
_cell_angle_alpha 76.591190
_cell_angle_beta 132.873626
_cell_angle_gamma 97.291196
_cell_volume 601.178375
_symmetry_space_group_name_H-M "P -1"
_symmetry_group_IT_number 2
_symmetry_cell_setting 'triclinic'
loop_
_space_group_symop_operation_xyz
x,y,z
-x,-y,-z
loop_
_atom_site_type_symbol
_atom_site_label
_atom_site_fract_x
_atom_site_fract_y
_atom_site_fract_z
Si Si1 0.990292 0.791047 0.717103
Si Si2 0.840949 0.590706 0.486174
Si Si3 0.561074 0.980403 0.282590
Si Si4 0.097093 0.529629 0.947470
Si Si5 0.337389 0.863733 0.486496
Si Si6 0.580192 0.217849 0.080826
Si Si7 0.197611 0.989731 0.049941
O O1 0.202735 0.809896 0.821766
O O2 0.948245 0.721772 0.602661
O O3 0.958125 0.597621 0.798770
O O4 0.850767 0.020820 0.648605
O O5 0.700466 0.752329 0.348079
O O6 0.707039 0.424321 0.498881
O O7 0.000000 0.500000 0.500000
O O8 0.631629 0.078761 0.399652
O O9 0.556361 0.155015 0.179895
O O10 0.350827 0.926831 0.198375
O O11 0.200567 0.272684 0.991813
O O12 0.213261 0.767519 0.005191
O O13 0.000000 0.500000 0.000000
O O14 0.500000 0.000000 0.500000
O O15 0.500000 0.500000 0.000000
O O16 0.500000 0.000000 0.000000
O O17 0.000000 0.000000 0.000000
#
# Coordination Sequence:
#
# PCOD9037510 Si02
#       7
#     2   2   2   2   2   2   2
#     4  11  26  46  72 108 148 194 261 315 386 463
#     4  11  26  49  80 101 148 212 260 328 384 457
#     4  11  26  46  72 108 148 194 261 315 386 463
#     4  10  23  40  68 102 139 190 234 296 377 448
#     4  11  28  45  76 112 151 206 257 331 386 461
#     4  12  28  47  78 117 152 202 260 328 394 468
#     4  10  23  40  68 102 139 190 234 296 377 448
#
# _framework density 23.287595
#
# number of rings (size 3 to 8) (size 9 to 14) (size 15 to 20)
#    0.000    1.143    0.000    3.429   14.000    6.857 
#    0.000    0.000    0.000    0.000    0.000    0.000 
#    0.000    0.000    0.000    0.000    0.000    0.000 
#
# Total GULP energy -77950.148375 kJ/mol
# GULP energy per Si atom -5567.867741 kJ/mol
# Density = 2.323459 g / cm^3
# Si number density = 23.287595 Si / 1000 Ang^3
#
#
#
# Elastic Constant Matrix: (Units=GPa)
#
#
# Indices 1 2 3 4 5 6 
#
# 1 91.4042 8.9818 43.6126 -7.8691 5.6953 31.5013
# 2 8.9818 127.1139 49.9128 -15.5308 11.8639 -3.1965
# 3 43.6126 49.9128 184.4929 -27.9249 20.8174 1.8428
# 4 -7.8691 -15.5308 -27.9249 44.3413 3.8387 -1.7713
# 5 5.6953 11.8639 20.8174 3.8387 55.0023 -0.8903
# 6 31.5013 -3.1965 1.8428 -1.7713 -0.8903 22.0786
#
#
#
# Elastic Compliance Matrix: (Units=1/GPa)
#
#
# Indices 1 2 3 4 5 6 
#
# 1 0.026888 -0.000547 -0.005783 -0.000490 -0.001059 -0.038041
# 2 -0.000547 0.009084 -0.001887 0.002103 -0.001297 0.002369
# 3 -0.005783 -0.001887 0.008057 0.003877 -0.002192 0.007528
# 4 -0.000490 0.002103 0.003877 0.026064 -0.003647 0.002623
# 5 -0.001059 -0.001297 -0.002192 -0.003647 0.019687 0.002008
# 6 -0.038041 0.002369 0.007528 0.002623 0.002008 0.099575
#
#
# Mechanical properties :
#
#
# Convention : Reuss Voigt Hill
#
# Bulk Modulus (GPa) = 36.23854 67.55836 51.89845
# Shear Modulus (GPa) = 23.25716 44.31802 33.78759
#
# Velocity S-wave (km/s) = 3.16364 4.36716 3.81318
# Velocity P-wave (km/s) = 5.37958 7.38260 6.45921
#
# Compressibility (1/GPa) = 0.02759493
#
# Stress axis : x y z
#
# Youngs Moduli (GPa) = 37.19199 110.08013 124.11752
#
# Poissons Ratio (x) = 0.06019 0.71773
# Poissons Ratio (y) = 0.02034 0.23426
# Poissons Ratio (z) = 0.21507 0.20777
#
# Static dielectric constant tensor:
#      x y z
#    x 1.985040 0.091590 -0.008510 
#    y 0.091590 2.067080 -0.020800 
#    z -0.008510 -0.020800 1.805990 
# 
# From -- ./inp_files/510846.got.cif
#   From: 2010.05.17/outbox.cif.g08.bks.cpg/sg2_256_cif.got.tgz:510846.got - 2010.06.03 11:33:40.
