data_PCOD9037461
_publ_section_title
;
Structure prediction by ZEFSAII (Michael W. Deem and Ramdas Pophale) SiO2 
 PCOD9037461
Probable space group: P -1
;
_chemical_formula_sum "Si O2"
_cell_formula_units_Z 14
_cell_length_a 9.474678
_cell_length_b 9.194656
_cell_length_c 11.033259
_cell_angle_alpha 131.039000
_cell_angle_beta 128.308624
_cell_angle_gamma 67.773370
_cell_volume 568.209186
_symmetry_space_group_name_H-M "P -1"
_symmetry_group_IT_number 2
_symmetry_cell_setting 'triclinic'
loop_
_space_group_symop_operation_xyz
x,y,z
-x,-y,-z
loop_
_atom_site_type_symbol
_atom_site_label
_atom_site_fract_x
_atom_site_fract_y
_atom_site_fract_z
Si Si1 0.475394 0.932482 0.698346
Si Si2 0.037155 0.494447 0.372776
Si Si3 0.045926 0.258776 0.965456
Si Si4 0.858737 0.821108 0.305492
Si Si5 0.701081 0.399300 0.748063
Si Si6 0.399334 0.674186 0.743175
Si Si7 0.181427 0.882334 0.951949
O O1 0.392033 0.773016 0.474413
O O2 0.486401 0.827078 0.777561
O O3 0.335903 0.101280 0.727901
O O4 0.673960 0.021686 0.825482
O O5 0.919831 0.652316 0.332205
O O6 0.961373 0.285371 0.174153
O O7 0.000000 0.500000 0.500000
O O8 0.247713 0.555278 0.519314
O O9 0.117931 0.235939 0.852426
O O10 0.839422 0.311775 0.867877
O O11 0.078727 0.054063 0.929723
O O12 0.169243 0.446828 0.174993
O O13 0.000000 0.000000 0.500000
O O14 0.542844 0.525856 0.783649
O O15 0.303422 0.782883 0.859877
#
# Coordination Sequence:
#
# PCOD9037461 Si02
#       7
#     2   2   2   2   2   2   2
#     4  12  22  37  69  98 127 164 219 264 311 376
#     4  10  23  40  67  95 130 163 213 266 319 374
#     4  11  22  41  66  98 127 167 215 264 311 376
#     4  12  20  39  70  97 120 166 222 259 306 376
#     4  11  24  36  64  98 132 161 216 267 313 366
#     4  11  20  40  64  95 125 168 211 263 309 377
#     4  11  23  42  68  95 128 168 215 262 319 372
#
# _framework density 24.638814
#
# number of rings (size 3 to 8) (size 9 to 14) (size 15 to 20)
#    0.000    0.857    5.714    2.571    0.000    0.571 
#    0.000    1.429    0.000    0.000    0.000    0.000 
#    0.000    0.000    0.000    0.000    0.000    0.000 
#
# Total GULP energy -78471.947275 kJ/mol
# GULP energy per Si atom -5605.139091 kJ/mol
# Density = 2.458274 g / cm^3
# Si number density = 24.638814 Si / 1000 Ang^3
#
#
#
# Elastic Constant Matrix: (Units=GPa)
#
#
# Indices 1 2 3 4 5 6 
#
# 1 72.4044 63.8897 31.3680 6.9970 15.4697 -24.6231
# 2 63.8897 234.7251 62.1198 0.2554 25.4195 -30.8062
# 3 31.3680 62.1198 176.9525 23.2571 25.3305 -6.0580
# 4 6.9970 0.2554 23.2571 37.2119 2.6522 12.0725
# 5 15.4697 25.4195 25.3305 2.6522 52.5027 7.6345
# 6 -24.6231 -30.8062 -6.0580 12.0725 7.6345 59.6491
#
#
#
# Elastic Compliance Matrix: (Units=1/GPa)
#
#
# Indices 1 2 3 4 5 6 
#
# 1 0.022657 -0.004227 -0.000615 -0.006415 -0.005330 0.009088
# 2 -0.004227 0.006048 -0.001323 0.001300 -0.001277 0.001144
# 3 -0.000615 -0.001323 0.007229 -0.004549 -0.002589 0.001049
# 4 -0.006415 0.001300 -0.004549 0.033833 0.003156 -0.009690
# 5 -0.005330 -0.001277 -0.002589 0.003156 0.023305 -0.006744
# 6 0.009088 0.001144 0.001049 -0.009690 -0.006744 0.024038
#
#
# Mechanical properties :
#
#
# Convention : Reuss Voigt Hill
#
# Bulk Modulus (GPa) = 42.36593 88.75966 65.56280
# Shear Modulus (GPa) = 36.41424 51.65305 44.03365
#
# Velocity S-wave (km/s) = 3.84855 4.58362 4.23207
# Velocity P-wave (km/s) = 6.08116 8.00721 7.10971
#
# Compressibility (1/GPa) = 0.02360387
#
# Stress axis : x y z
#
# Youngs Moduli (GPa) = 44.13588 165.34254 138.33089
#
# Poissons Ratio (x) = 0.69897 0.08509
# Poissons Ratio (y) = 0.18658 0.18297
# Poissons Ratio (z) = 0.02715 0.21870
#
# Static dielectric constant tensor:
#      x y z
#    x 2.030860 0.032090 -0.050210 
#    y 0.032090 1.907110 0.023380 
#    z -0.050210 0.023380 2.019990 
# 
# From -- ./inp_files/157395.got.cif
#   From: 2010.05.17/outbox.cif.g08.bks.cpg/sg2_79_cif.got.tgz:157395.got - 2010.06.03 11:33:40.
