data_PCOD9037432
_publ_section_title
;
Structure prediction by ZEFSAII (Michael W. Deem and Ramdas Pophale) SiO2 
 PCOD9037432
Probable space group: P -1
;
_chemical_formula_sum "Si O2"
_cell_formula_units_Z 12
_cell_length_a 12.766022
_cell_length_b 5.439300
_cell_length_c 9.326386
_cell_angle_alpha 71.071012
_cell_angle_beta 75.342668
_cell_angle_gamma 65.471671
_cell_volume 552.006794
_symmetry_space_group_name_H-M "P -1"
_symmetry_group_IT_number 2
_symmetry_cell_setting 'triclinic'
loop_
_space_group_symop_operation_xyz
x,y,z
-x,-y,-z
loop_
_atom_site_type_symbol
_atom_site_label
_atom_site_fract_x
_atom_site_fract_y
_atom_site_fract_z
Si Si1 0.955007 0.519689 0.224348
Si Si2 0.787226 0.493175 0.795489
Si Si3 0.433215 0.331924 0.966712
Si Si4 0.928732 0.915310 0.917232
Si Si5 0.746750 0.772515 0.449736
Si Si6 0.383329 0.558903 0.620364
O O1 0.875737 0.654785 0.359612
O O2 0.087057 0.496479 0.211822
O O3 0.981353 0.205669 0.221467
O O4 0.898366 0.690324 0.066434
O O5 0.747562 0.643673 0.630510
O O6 0.817843 0.160041 0.849611
O O7 0.688986 0.617417 0.923170
O O8 0.413320 0.457765 0.791087
O O9 0.500000 0.500000 0.000000
O O10 0.500000 0.000000 0.000000
O O11 0.000000 0.000000 0.000000
O O12 0.679503 0.632236 0.395041
O O13 0.692035 0.108353 0.413716
O O14 0.500000 0.500000 0.500000
#
# Coordination Sequence:
#
# PCOD9037432 Si02
#       6
#     2   2   2   2   2   2
#     4  10  23  40  67 100 139 179 226 276 343 400
#     4  11  25  42  68  98 140 176 227 280 335 405
#     4  12  27  47  74 100 130 179 233 280 335 401
#     4   9  21  39  65  96 139 175 228 273 337 395
#     4  12  27  43  72 103 140 180 222 279 343 405
#     4  12  27  49  71 100 139 179 227 282 340 398
#
# _framework density 21.738862999999998
#
# number of rings (size 3 to 8) (size 9 to 14) (size 15 to 20)
#    0.000    1.000    0.000    5.000   16.333    0.667 
#    0.000    0.000    0.000    0.000    0.000    0.000 
#    0.000    0.000    0.000    0.000    0.000    0.000 
#
# Total GULP energy -67008.162047 kJ/mol
# GULP energy per Si atom -5584.013504 kJ/mol
# Density = 2.168938 g / cm^3
# Si number density = 21.738863 Si / 1000 Ang^3
#
#
#
# Elastic Constant Matrix: (Units=GPa)
#
#
# Indices 1 2 3 4 5 6 
#
# 1 112.1107 29.5106 37.2511 18.5483 -7.7965 -1.8979
# 2 29.5106 181.3716 64.3433 6.0815 -11.0378 -25.9035
# 3 37.2511 64.3433 191.1369 5.0885 5.6690 -25.4134
# 4 18.5483 6.0815 5.0885 45.3510 -17.1232 -4.4573
# 5 -7.7965 -11.0378 5.6690 -17.1232 40.1506 16.8226
# 6 -1.8979 -25.9035 -25.4134 -4.4573 16.8226 39.8865
#
#
#
# Elastic Compliance Matrix: (Units=1/GPa)
#
#
# Indices 1 2 3 4 5 6 
#
# 1 0.010535 -0.001174 -0.001946 -0.003607 0.001527 -0.002548
# 2 -0.001174 0.006762 -0.001684 0.000345 0.000768 0.002977
# 3 -0.001946 -0.001684 0.006991 -0.000895 -0.004297 0.004981
# 4 -0.003607 0.000345 -0.000895 0.028083 0.012632 -0.002708
# 5 0.001527 0.000768 -0.004297 0.012632 0.038533 -0.017006
# 6 -0.002548 0.002977 0.004981 -0.002708 -0.017006 0.036927
#
#
# Mechanical properties :
#
#
# Convention : Reuss Voigt Hill
#
# Bulk Modulus (GPa) = 68.11296 82.98102 75.54699
# Shear Modulus (GPa) = 35.12887 48.64523 41.88705
#
# Velocity S-wave (km/s) = 4.02425 4.73557 4.39433
# Velocity P-wave (km/s) = 7.27964 8.25563 7.78295
#
# Compressibility (1/GPa) = 0.01468149
#
# Stress axis : x y z
#
# Youngs Moduli (GPa) = 94.91991 147.87888 143.03209
#
# Poissons Ratio (x) = 0.17358 0.27837
# Poissons Ratio (y) = 0.11142 0.24083
# Poissons Ratio (z) = 0.18473 0.24899
#
# Static dielectric constant tensor:
#      x y z
#    x 1.886630 0.141630 -0.051880 
#    y 0.141630 2.038880 -0.043030 
#    z -0.051880 -0.043030 1.779580 
# 
# From -- ./inp_files/22987.got.cif
#   From: 2010.05.17/outbox.cif.g08.bks.cpg/sg2_12_cif.got.tgz:22987.got - 2010.06.03 11:33:40.
