data_PCOD9037753
_publ_section_title
;
Structure prediction by ZEFSAII (Michael W. Deem and Ramdas Pophale) SiO2 
 PCOD9037753
Probable space group: P -1
;
_chemical_formula_sum "Si O2"
_cell_formula_units_Z 14
_cell_length_a 13.953707
_cell_length_b 9.571298
_cell_length_c 16.221669
_cell_angle_alpha 45.586468
_cell_angle_beta 153.477980
_cell_angle_gamma 128.662366
_cell_volume 691.032803
_symmetry_space_group_name_H-M "P -1"
_symmetry_group_IT_number 2
_symmetry_cell_setting 'triclinic'
loop_
_space_group_symop_operation_xyz
x,y,z
-x,-y,-z
loop_
_atom_site_type_symbol
_atom_site_label
_atom_site_fract_x
_atom_site_fract_y
_atom_site_fract_z
Si Si1 0.327584 0.532667 0.089692
Si Si2 0.848538 0.552044 0.753231
Si Si3 0.502931 0.896143 0.634884
Si Si4 0.658074 0.759330 0.367062
Si Si5 0.746606 0.058026 0.186298
Si Si6 0.934914 0.951808 0.721800
Si Si7 0.696967 0.123018 0.839448
O O1 0.407880 0.323754 0.208196
O O2 0.503704 0.625384 0.247940
O O3 0.275251 0.708506 0.912071
O O4 0.100609 0.505421 0.971635
O O5 0.788665 0.625742 0.585574
O O6 0.816545 0.741674 0.707385
O O7 0.719299 0.357253 0.751890
O O8 0.500000 0.000000 0.500000
O O9 0.258524 0.897463 0.479780
O O10 0.647981 0.021016 0.757906
O O11 0.504353 0.900383 0.244777
O O12 0.800801 0.901426 0.362815
O O13 0.909458 0.033224 0.244566
O O14 0.500000 0.000000 0.000000
O O15 0.089971 0.951498 0.920069
#
# Coordination Sequence:
#
# PCOD9037753 Si02
#       7
#     2   2   2   2   2   2   2
#     4  10  23  41  62  93 127 165 208 264 312 369
#     4  11  22  37  67  98 118 168 218 258 312 373
#     4  12  27  42  59  97 139 167 204 262 327 378
#     4  11  21  40  71  93 122 164 217 266 308 371
#     4   9  19  43  70  92 123 164 219 265 303 371
#     4  11  23  40  68  94 129 168 211 258 323 370
#     4  12  23  39  67  95 130 163 213 264 314 381
#
# _framework density 20.259530999999999
#
# number of rings (size 3 to 8) (size 9 to 14) (size 15 to 20)
#    0.000    1.143    5.714    2.571    2.000    5.714 
#    0.000    3.571    0.000    0.000    0.000    0.000 
#    0.000    0.000    0.000    0.000    0.000    0.000 
#
# Total GULP energy -78184.148147 kJ/mol
# GULP energy per Si atom -5584.582010 kJ/mol
# Density = 2.021342 g / cm^3
# Si number density = 20.259531 Si / 1000 Ang^3
#
#
#
# Elastic Constant Matrix: (Units=GPa)
#
#
# Indices 1 2 3 4 5 6 
#
# 1 68.5838 43.3318 19.4752 -3.6451 -16.5245 2.9341
# 2 43.3318 92.7240 24.8363 1.8694 -3.7795 -11.3299
# 3 19.4752 24.8363 76.8665 -0.3142 -1.6178 -2.3802
# 4 -3.6451 1.8694 -0.3142 41.5131 -10.2322 -4.3095
# 5 -16.5245 -3.7795 -1.6178 -10.2322 41.0826 -5.0219
# 6 2.9341 -11.3299 -2.3802 -4.3095 -5.0219 34.0657
#
#
#
# Elastic Compliance Matrix: (Units=1/GPa)
#
#
# Indices 1 2 3 4 5 6 
#
# 1 0.025200 -0.011267 -0.002649 0.004655 0.009655 -0.004091
# 2 -0.011267 0.017410 -0.002653 -0.001861 -0.002773 0.005931
# 3 -0.002649 -0.002653 0.014528 -0.000164 -0.000750 0.000230
# 4 0.004655 -0.001861 -0.000164 0.027163 0.008915 0.003719
# 5 0.009655 -0.002773 -0.000750 0.008915 0.030629 0.003837
# 6 -0.004091 0.005931 0.000230 0.003719 0.003837 0.032732
#
#
# Mechanical properties :
#
#
# Convention : Reuss Voigt Hill
#
# Bulk Modulus (GPa) = 41.66523 45.94010 43.80266
# Shear Modulus (GPa) = 26.48282 33.36767 29.92525
#
# Velocity S-wave (km/s) = 3.61941 4.06274 3.84747
# Velocity P-wave (km/s) = 6.17068 6.68826 6.43468
#
# Compressibility (1/GPa) = 0.02400083
#
# Stress axis : x y z
#
# Youngs Moduli (GPa) = 39.68218 57.43850 68.83026
#
# Poissons Ratio (x) = 0.64718 0.18231
# Poissons Ratio (y) = 0.44711 0.18260
# Poissons Ratio (z) = 0.10511 0.15238
#
# Static dielectric constant tensor:
#      x y z
#    x 1.754240 0.020210 -0.033500 
#    y 0.020210 1.714920 0.031250 
#    z -0.033500 0.031250 1.768770 
# 
# From -- ./inp_files/188897.got.cif
#   From: 2010.05.17/outbox.cif.g08.bks.cpg/sg2_95_cif.got.tgz:188897.got - 2010.06.03 11:33:40.
