data_PCOD9037148
_publ_section_title
;
Structure prediction by ZEFSAII (Michael W. Deem and Ramdas Pophale) SiO2 
 PCOD9037148
Probable space group: P -1
;
_chemical_formula_sum "Si O2"
_cell_formula_units_Z 15
_cell_length_a 5.360297
_cell_length_b 11.965825
_cell_length_c 15.157647
_cell_angle_alpha 73.414126
_cell_angle_beta 99.868445
_cell_angle_gamma 51.085301
_cell_volume 639.813923
_symmetry_space_group_name_H-M "P -1"
_symmetry_group_IT_number 2
_symmetry_cell_setting 'triclinic'
loop_
_space_group_symop_operation_xyz
x,y,z
-x,-y,-z
loop_
_atom_site_type_symbol
_atom_site_label
_atom_site_fract_x
_atom_site_fract_y
_atom_site_fract_z
Si Si1 0.203345 0.471231 0.107179
Si Si2 0.568757 0.338925 0.617715
Si Si3 0.500000 0.000000 0.500000
Si Si4 0.909127 0.451338 0.624996
Si Si5 0.151050 0.970944 0.362688
Si Si6 0.612256 0.743442 0.670410
Si Si7 0.109667 0.825199 0.873079
Si Si8 0.354439 0.155676 0.015255
O O1 0.232878 0.357097 0.205535
O O2 0.608799 0.354230 0.120155
O O3 0.000000 0.500000 0.000000
O O4 0.973603 0.656501 0.087620
O O5 0.783933 0.368733 0.672423
O O6 0.271012 0.486323 0.497565
O O7 0.843178 0.169381 0.617137
O O8 0.334359 0.334371 0.668324
O O9 0.490583 0.107185 0.548129
O O10 0.310119 0.151431 0.379618
O O11 0.738697 0.608594 0.637377
O O12 0.825846 0.112167 0.377522
O O13 0.091717 0.043616 0.247764
O O14 0.336998 0.851299 0.934445
O O15 0.837126 0.843217 0.913097
O O16 0.500000 0.000000 0.000000
#
# Coordination Sequence:
#
# PCOD9037148 Si02
#       8
#     2   2   1   2   2   2   2   2
#     4   9  22  45  69  99 137 180 227 285 348 416
#     4  10  23  40  62  89 132 175 222 274 346 406
#     4  12  26  40  72 100 146 174 252 286 354 396
#     4  10  23  41  61  91 130 175 223 280 341 402
#     4  11  26  41  69  98 139 187 234 292 346 423
#     4  11  25  43  67 104 136 184 236 295 345 416
#     4  10  24  43  70 101 139 181 230 281 357 415
#     4  11  23  45  73 105 139 177 232 294 349 414
#
# _framework density 23.444313999999999
#
# number of rings (size 3 to 8) (size 9 to 14) (size 15 to 20)
#    0.000    1.600    1.333    1.200    9.333    2.133 
#    2.400    0.000    0.000    0.000    0.000    0.000 
#    0.000    0.000    0.000    0.000    0.000    0.000 
#
# Total GULP energy -83526.434515 kJ/mol
# GULP energy per Si atom -5568.428968 kJ/mol
# Density = 2.339095 g / cm^3
# Si number density = 23.444314 Si / 1000 Ang^3
#
#
#
# Elastic Constant Matrix: (Units=GPa)
#
#
# Indices 1 2 3 4 5 6 
#
# 1 104.7007 22.2703 18.6869 16.4165 -21.4296 2.8257
# 2 22.2703 153.7232 -2.2075 -7.1199 38.2683 5.1521
# 3 18.6869 -2.2075 112.3634 1.3552 -48.7591 4.5508
# 4 16.4165 -7.1199 1.3552 27.1256 -20.1048 0.1381
# 5 -21.4296 38.2683 -48.7591 -20.1048 113.5443 5.7299
# 6 2.8257 5.1521 4.5508 0.1381 5.7299 35.5986
#
#
#
# Elastic Compliance Matrix: (Units=1/GPa)
#
#
# Indices 1 2 3 4 5 6 
#
# 1 0.011585 -0.002295 -0.001326 -0.006619 0.001248 -0.000593
# 2 -0.002295 0.007677 -0.000845 0.001096 -0.003174 -0.000314
# 3 -0.001326 -0.000845 0.011732 0.004432 0.005971 -0.002251
# 4 -0.006619 0.001096 0.004432 0.047452 0.008777 -0.001797
# 5 0.001248 -0.003174 0.005971 0.008777 0.014369 -0.002750
# 6 -0.000593 -0.000314 -0.002251 -0.001797 -0.002750 0.028921
#
#
# Mechanical properties :
#
#
# Convention : Reuss Voigt Hill
#
# Bulk Modulus (GPa) = 45.32688 49.80964 47.56826
# Shear Modulus (GPa) = 36.22561 57.38952 46.80757
#
# Velocity S-wave (km/s) = 3.93514 4.95300 4.47312
# Velocity P-wave (km/s) = 6.32637 7.34858 6.85655
#
# Compressibility (1/GPa) = 0.02206197
#
# Stress axis : x y z
#
# Youngs Moduli (GPa) = 86.31669 130.26188 85.23384
#
# Poissons Ratio (x) = 0.29894 0.11304
# Poissons Ratio (y) = 0.19809 0.07204
# Poissons Ratio (z) = 0.11448 0.11009
#
# Static dielectric constant tensor:
#      x y z
#    x 2.028340 -0.018960 0.006490 
#    y -0.018960 1.892890 -0.019380 
#    z 0.006490 -0.019380 1.909360 
# 
# From -- ./inp_files/339912.got.cif
#   From: 2010.05.17/outbox.cif.g08.bks.cpg/sg2_170_cif.got.tgz:339912.got - 2010.06.03 11:33:40.
