data_PCOD9037702
_publ_section_title
;
Structure prediction by ZEFSAII (Michael W. Deem and Ramdas Pophale) SiO2 
 PCOD9037702
Probable space group: P -1
;
_chemical_formula_sum "Si O2"
_cell_formula_units_Z 16
_cell_length_a 12.071259
_cell_length_b 20.787996
_cell_length_c 11.499988
_cell_angle_alpha 152.104364
_cell_angle_beta 51.537451
_cell_angle_gamma 144.781057
_cell_volume 723.156067
_symmetry_space_group_name_H-M "P -1"
_symmetry_group_IT_number 2
_symmetry_cell_setting 'triclinic'
loop_
_space_group_symop_operation_xyz
x,y,z
-x,-y,-z
loop_
_atom_site_type_symbol
_atom_site_label
_atom_site_fract_x
_atom_site_fract_y
_atom_site_fract_z
Si Si1 0.402597 0.766414 0.251209
Si Si2 0.783865 0.602389 0.801013
Si Si3 0.189834 0.802777 0.725219
Si Si4 0.746728 0.044885 0.669604
Si Si5 0.970110 0.013484 0.304512
Si Si6 0.227371 0.931739 0.653993
Si Si7 0.139658 0.463859 0.119375
Si Si8 0.385530 0.144731 0.293269
O O1 0.253741 0.792012 0.370799
O O2 0.267146 0.551580 0.055904
O O3 0.569170 0.928385 0.501972
O O4 0.547235 0.845097 0.171031
O O5 0.793866 0.601138 0.932682
O O6 0.590299 0.379357 0.527696
O O7 0.992402 0.680732 0.741626
O O8 0.801342 0.771408 0.018695
O O9 0.175073 0.881174 0.742129
O O10 0.196189 0.649598 0.438525
O O11 0.379620 0.003978 0.992818
O O12 0.909968 0.051439 0.521010
O O13 0.659071 0.930098 0.664652
O O14 0.893998 0.280547 0.967187
O O15 0.937978 0.097336 0.355085
O O16 0.191236 0.099260 0.306188
#
# Coordination Sequence:
#
# PCOD9037702 Si02
#       8
#     2   2   2   2   2   2   2   2
#     4   9  20  40  64  90 120 155 204 254 294 357
#     4  11  23  38  60  93 123 160 200 244 308 360
#     4  10  23  41  60  88 126 162 198 251 292 363
#     4  11  21  38  63  95 124 151 197 255 313 354
#     4  10  23  41  60  88 126 162 198 251 292 363
#     4   9  20  43  62  82 124 169 197 241 301 346
#     4  11  21  38  63  95 124 151 197 255 313 354
#     4  11  23  38  60  93 123 160 200 244 308 360
#
# _framework density 22.125236999999998
#
# number of rings (size 3 to 8) (size 9 to 14) (size 15 to 20)
#    0.000    1.750    3.750    0.750    0.000    7.000 
#    0.000   23.125    0.000    0.000    0.000    0.000 
#    0.000    0.000    0.000    0.000    0.000    0.000 
#
# Total GULP energy -89382.679168 kJ/mol
# GULP energy per Si atom -5586.417448 kJ/mol
# Density = 2.207488 g / cm^3
# Si number density = 22.125237 Si / 1000 Ang^3
#
#
#
# Elastic Constant Matrix: (Units=GPa)
#
#
# Indices 1 2 3 4 5 6 
#
# 1 108.7243 12.3420 16.6916 15.3588 1.7311 -9.7703
# 2 12.3420 66.6869 8.6962 28.6608 4.6362 -10.9279
# 3 16.6916 8.6962 95.9243 23.3381 17.3055 6.7055
# 4 15.3588 28.6608 23.3381 37.6555 8.3614 1.9817
# 5 1.7311 4.6362 17.3055 8.3614 16.2660 -3.8406
# 6 -9.7703 -10.9279 6.7055 1.9817 -3.8406 30.0847
#
#
#
# Elastic Compliance Matrix: (Units=1/GPa)
#
#
# Indices 1 2 3 4 5 6 
#
# 1 0.010476 0.001064 -0.001797 -0.005208 0.004373 0.005091
# 2 0.001064 0.025986 0.001149 -0.022825 0.005770 0.011769
# 3 -0.001797 0.001149 0.014999 -0.006036 -0.014152 -0.004919
# 4 -0.005208 -0.022825 -0.006036 0.054554 -0.017991 -0.014527
# 5 0.004373 0.005770 -0.014152 -0.017991 0.088186 0.019113
# 6 0.005091 0.011769 -0.004919 -0.014527 0.019113 0.043661
#
#
# Mechanical properties :
#
#
# Convention : Reuss Voigt Hill
#
# Bulk Modulus (GPa) = 19.12324 38.53277 28.82801
# Shear Modulus (GPa) = 19.64934 32.37496 26.01215
#
# Velocity S-wave (km/s) = 2.98333 3.82941 3.43254
# Velocity P-wave (km/s) = 4.53089 6.08326 5.36353
#
# Compressibility (1/GPa) = 0.05229239
#
# Stress axis : x y z
#
# Youngs Moduli (GPa) = 95.45450 38.48226 66.67102
#
# Poissons Ratio (x) = -0.04094 0.11981
# Poissons Ratio (y) = -0.10155 -0.07659
# Poissons Ratio (z) = 0.17154 -0.04421
#
# Static dielectric constant tensor:
#      x y z
#    x 1.819870 0.005110 -0.014480 
#    y 0.005110 1.825440 -0.005000 
#    z -0.014480 -0.005000 1.860830 
# 
# From -- ./inp_files/432329.got.cif
#   From: 2010.05.17/outbox.cif.g08.bks.cpg/sg2_217_cif.got.tgz:432329.got - 2010.06.03 11:33:40.
