data_PCOD9037950
_publ_section_title
;
Structure prediction by ZEFSAII (Michael W. Deem and Ramdas Pophale) SiO2 
 PCOD9037950
Probable space group: P -1
;
_chemical_formula_sum "Si O2"
_cell_formula_units_Z 16
_cell_length_a 6.874166
_cell_length_b 24.445044
_cell_length_c 8.009916
_cell_angle_alpha 149.304092
_cell_angle_beta 94.600220
_cell_angle_gamma 83.869927
_cell_volume 682.990304
_symmetry_space_group_name_H-M "P -1"
_symmetry_group_IT_number 2
_symmetry_cell_setting 'triclinic'
loop_
_space_group_symop_operation_xyz
x,y,z
-x,-y,-z
loop_
_atom_site_type_symbol
_atom_site_label
_atom_site_fract_x
_atom_site_fract_y
_atom_site_fract_z
Si Si1 0.362008 0.180449 0.761312
Si Si2 0.642705 0.505249 0.280278
Si Si3 0.653169 0.356014 0.204448
Si Si4 0.643914 0.792487 0.777482
Si Si5 0.755183 0.292887 0.539385
Si Si6 0.925007 0.612569 0.369997
Si Si7 0.651205 0.010852 0.189059
Si Si8 0.062596 0.808242 0.376645
O O1 0.517114 0.077756 0.490485
O O2 0.165740 0.170223 0.617217
O O3 0.476841 0.278944 0.954111
O O4 0.314787 0.197487 0.997046
O O5 0.674523 0.446982 0.306323
O O6 0.438115 0.578308 0.469522
O O7 0.821527 0.577855 0.441201
O O8 0.654821 0.408259 0.894968
O O9 0.842680 0.274233 0.974777
O O10 0.413603 0.784645 0.715057
O O11 0.752761 0.679661 0.434210
O O12 0.716789 0.893606 0.952521
O O13 0.879784 0.246668 0.585952
O O14 0.896982 0.312216 0.444798
O O15 0.000000 0.500000 0.000000
O O16 0.826515 0.082823 0.342657
O O17 0.500000 0.000000 0.000000
#
# Coordination Sequence:
#
# PCOD9037950 Si02
#       8
#     2   2   2   2   2   2   2   2
#     4  11  25  44  70 103 144 177 234 288 353 418
#     4   9  18  41  66  99 133 189 230 288 336 412
#     4   9  19  41  68  96 142 180 232 285 353 404
#     4  12  25  46  68 105 144 187 226 294 354 407
#     4  10  23  41  69  99 141 187 236 281 348 414
#     4  10  23  41  65 104 140 181 236 283 338 411
#     4  11  25  46  76 103 138 183 234 291 355 418
#     4  10  23  44  71 104 133 183 235 289 350 417
#
# _framework density 23.426393999999998
#
# number of rings (size 3 to 8) (size 9 to 14) (size 15 to 20)
#    0.000    1.750    2.500    0.375    1.750    6.000 
#    2.250    8.125    0.000    0.000    0.000    0.000 
#    0.000    0.000    0.000    0.000    0.000    0.000 
#
# Total GULP energy -89405.458271 kJ/mol
# GULP energy per Si atom -5587.841142 kJ/mol
# Density = 2.337307 g / cm^3
# Si number density = 23.426394 Si / 1000 Ang^3
#
#
#
# Elastic Constant Matrix: (Units=GPa)
#
#
# Indices 1 2 3 4 5 6 
#
# 1 100.2697 53.3265 19.0297 11.1492 1.6497 5.1384
# 2 53.3265 119.0618 50.1208 14.9137 6.1940 17.5051
# 3 19.0297 50.1208 67.4398 15.2309 -0.3525 5.4235
# 4 11.1492 14.9137 15.2309 35.2884 2.0730 3.3552
# 5 1.6497 6.1940 -0.3525 2.0730 32.6001 -3.7393
# 6 5.1384 17.5051 5.4235 3.3552 -3.7393 41.3794
#
#
#
# Elastic Compliance Matrix: (Units=1/GPa)
#
#
# Indices 1 2 3 4 5 6 
#
# 1 0.013347 -0.006555 0.001528 -0.002269 0.000866 0.001178
# 2 -0.006555 0.016486 -0.010035 0.000133 -0.003511 -0.005173
# 3 0.001528 -0.010035 0.023213 -0.006590 0.002705 0.001792
# 4 -0.002269 0.000133 -0.006590 0.032137 -0.002222 -0.001717
# 5 0.000866 -0.003511 0.002705 -0.002222 0.031938 0.004089
# 6 0.001178 -0.005173 0.001792 -0.001717 0.004089 0.026483
#
#
# Mechanical properties :
#
#
# Convention : Reuss Voigt Hill
#
# Bulk Modulus (GPa) = 43.62694 59.08059 51.35376
# Shear Modulus (GPa) = 27.56824 32.80653 30.18739
#
# Velocity S-wave (km/s) = 3.43418 3.74626 3.59361
# Velocity P-wave (km/s) = 5.86414 6.63228 6.26000
#
# Compressibility (1/GPa) = 0.02292162
#
# Stress axis : x y z
#
# Youngs Moduli (GPa) = 74.92288 60.65808 43.07896
#
# Poissons Ratio (x) = 0.39762 -0.06582
# Poissons Ratio (y) = 0.49113 0.43229
# Poissons Ratio (z) = -0.11447 0.60870
#
# Static dielectric constant tensor:
#      x y z
#    x 1.898030 -0.000160 -0.047190 
#    y -0.000160 1.870030 -0.035940 
#    z -0.047190 -0.035940 1.946920 
# 
# From -- ./inp_files/143186.got.cif
#   From: 2010.05.17/outbox.cif.g08.bks.cpg/sg2_72_cif.got.tgz:143186.got - 2010.06.03 11:33:40.
