data_PCOD9037590
_publ_section_title
;
Structure prediction by ZEFSAII (Michael W. Deem and Ramdas Pophale) SiO2 
 PCOD9037590
Probable space group: P -1
;
_chemical_formula_sum "Si O2"
_cell_formula_units_Z 16
_cell_length_a 11.901321
_cell_length_b 5.160952
_cell_length_c 24.473576
_cell_angle_alpha 107.368671
_cell_angle_beta 146.233805
_cell_angle_gamma 57.911975
_cell_volume 674.388208
_symmetry_space_group_name_H-M "P -1"
_symmetry_group_IT_number 2
_symmetry_cell_setting 'triclinic'
loop_
_space_group_symop_operation_xyz
x,y,z
-x,-y,-z
loop_
_atom_site_type_symbol
_atom_site_label
_atom_site_fract_x
_atom_site_fract_y
_atom_site_fract_z
Si Si1 0.564661 0.432387 0.929270
Si Si2 0.976383 0.033083 0.427485
Si Si3 0.491010 0.651273 0.288347
Si Si4 0.991087 0.511198 0.773734
Si Si5 0.269190 0.204339 0.758211
Si Si6 0.780500 0.061393 0.096428
Si Si7 0.759183 0.509989 0.909670
Si Si8 0.500089 0.245485 0.369257
O O1 0.352424 0.456481 0.808358
O O2 0.441582 0.735952 0.938948
O O3 0.757549 0.385500 0.961418
O O4 0.674702 0.140096 0.998146
O O5 0.750444 0.392468 0.351293
O O6 0.901808 0.801226 0.356281
O O7 0.000000 0.000000 0.500000
O O8 0.239067 0.933314 0.508847
O O9 0.288364 0.675899 0.168640
O O10 0.477415 0.508972 0.333053
O O11 0.477971 0.981867 0.309790
O O12 0.135875 0.279104 0.767217
O O13 0.056792 0.782826 0.821022
O O14 0.714355 0.629200 0.666585
O O15 0.079473 0.302219 0.851532
O O16 0.520408 0.867135 0.833415
O O17 0.000000 0.500000 0.000000
#
# Coordination Sequence:
#
# PCOD9037590 Si02
#       8
#     2   2   2   2   2   2   2   2
#     4  10  23  40  69  94 136 181 227 270 340 400
#     4   9  21  43  70  96 132 177 226 276 341 403
#     4  10  24  43  67  95 138 175 223 275 336 400
#     4  11  23  42  68  99 137 175 226 281 333 397
#     4  10  23  43  65 100 134 176 225 281 339 398
#     4  10  23  41  68  97 137 182 221 272 333 411
#     4  11  25  41  66  99 136 179 223 280 334 404
#     4  11  23  43  67  98 129 179 224 279 334 396
#
# _framework density 23.725209
#
# number of rings (size 3 to 8) (size 9 to 14) (size 15 to 20)
#    0.000    1.750    1.250    1.125    8.750    3.500 
#    2.250    0.000    0.000    6.000    0.000    0.000 
#    0.000    0.000    0.000    0.000    0.000    0.000 
#
# Total GULP energy -89545.119029 kJ/mol
# GULP energy per Si atom -5596.569939 kJ/mol
# Density = 2.367121 g / cm^3
# Si number density = 23.725209 Si / 1000 Ang^3
#
#
#
# Elastic Constant Matrix: (Units=GPa)
#
#
# Indices 1 2 3 4 5 6 
#
# 1 124.9484 13.5451 58.8263 0.2939 25.8919 -0.1578
# 2 13.5451 59.2266 27.4359 10.9422 7.6317 6.7725
# 3 58.8263 27.4359 155.7750 19.8660 25.9847 -15.0497
# 4 0.2939 10.9422 19.8660 37.2911 -10.4349 2.1727
# 5 25.8919 7.6317 25.9847 -10.4349 48.8674 -7.1942
# 6 -0.1578 6.7725 -15.0497 2.1727 -7.1942 24.0391
#
#
#
# Elastic Compliance Matrix: (Units=1/GPa)
#
#
# Indices 1 2 3 4 5 6 
#
# 1 0.010610 0.000079 -0.003860 0.001073 -0.003887 -0.003629
# 2 0.000079 0.020764 -0.003237 -0.004956 -0.003887 -0.008591
# 3 -0.003860 -0.003237 0.010404 -0.005866 -0.003208 0.006970
# 4 0.001073 -0.004956 -0.005866 0.034412 0.010336 -0.002286
# 5 -0.003887 -0.003887 -0.003208 0.010336 0.028001 0.006507
# 6 -0.003629 -0.008591 0.006970 -0.002286 0.006507 0.050513
#
#
# Mechanical properties :
#
#
# Convention : Reuss Voigt Hill
#
# Bulk Modulus (GPa) = 36.04433 59.95164 47.99798
# Shear Modulus (GPa) = 28.09192 38.04903 33.07048
#
# Velocity S-wave (km/s) = 3.44474 4.00902 3.73754
# Velocity P-wave (km/s) = 5.57199 6.83766 6.23701
#
# Compressibility (1/GPa) = 0.02774361
#
# Stress axis : x y z
#
# Youngs Moduli (GPa) = 94.24792 48.15941 96.11867
#
# Poissons Ratio (x) = -0.00381 0.37101
# Poissons Ratio (y) = -0.00745 0.31109
# Poissons Ratio (z) = 0.36379 0.15587
#
# Static dielectric constant tensor:
#      x y z
#    x 1.919670 -0.000560 0.026020 
#    y -0.000560 1.951620 -0.023550 
#    z 0.026020 -0.023550 1.922280 
# 
# From -- ./inp_files/609224.got.cif
#   From: 2010.05.17/outbox.cif.g08.bks.cpg/sg2_305_cif.got.tgz:609224.got - 2010.06.03 11:33:40.
