data_PCOD9037708
_publ_section_title
;
Structure prediction by ZEFSAII (Michael W. Deem and Ramdas Pophale) SiO2 
 PCOD9037708
Probable space group: P -1
;
_chemical_formula_sum "Si O2"
_cell_formula_units_Z 16
_cell_length_a 9.843948
_cell_length_b 14.025422
_cell_length_c 8.229544
_cell_angle_alpha 97.268561
_cell_angle_beta 45.301408
_cell_angle_gamma 117.812195
_cell_volume 676.600686
_symmetry_space_group_name_H-M "P -1"
_symmetry_group_IT_number 2
_symmetry_cell_setting 'triclinic'
loop_
_space_group_symop_operation_xyz
x,y,z
-x,-y,-z
loop_
_atom_site_type_symbol
_atom_site_label
_atom_site_fract_x
_atom_site_fract_y
_atom_site_fract_z
Si Si1 0.810362 0.339129 0.700750
Si Si2 0.634801 0.675318 0.419518
Si Si3 0.863200 0.636326 0.808195
Si Si4 0.968355 0.079020 0.862187
Si Si5 0.265263 0.903933 0.248541
Si Si6 0.145299 0.474508 0.741994
Si Si7 0.909626 0.105381 0.252343
Si Si8 0.494051 0.391362 0.133772
O O1 0.746092 0.213529 0.768804
O O2 0.922623 0.365597 0.434849
O O3 0.983727 0.419603 0.711275
O O4 0.596911 0.350474 0.901603
O O5 0.392191 0.587966 0.522527
O O6 0.786578 0.617789 0.283826
O O7 0.555901 0.672934 0.670999
O O8 0.787614 0.807854 0.274112
O O9 0.733822 0.626594 0.747975
O O10 0.941909 0.757356 0.841472
O O11 0.679842 0.524368 0.032094
O O12 0.911694 0.101285 0.734827
O O13 0.811515 0.072111 0.143987
O O14 0.965835 0.963309 0.844123
O O15 0.232432 0.925078 0.468181
O O16 0.500000 0.000000 0.000000
O O17 0.000000 0.500000 0.000000
#
# Coordination Sequence:
#
# PCOD9037708 Si02
#       8
#     2   2   2   2   2   2   2   2
#     4  11  22  41  59 101 129 177 229 278 344 413
#     4  11  23  38  66  95 131 179 220 283 341 401
#     4  10  23  41  60  93 137 178 219 283 339 407
#     4  11  24  46  70 100 139 175 237 284 338 420
#     4  11  25  43  73  98 139 181 228 289 348 406
#     4  11  22  37  60  94 129 166 222 271 338 403
#     4  10  25  44  70  99 134 184 230 281 347 406
#     4  11  22  37  67  92 134 176 228 275 342 411
#
# _framework density 23.647625000000001
#
# number of rings (size 3 to 8) (size 9 to 14) (size 15 to 20)
#    0.000    1.250    3.750    1.500    7.000    0.500 
#    0.000    0.000    2.750    0.000    0.000    0.000 
#    0.000    0.000    0.000    0.000    0.000    0.000 
#
# Total GULP energy -89406.718241 kJ/mol
# GULP energy per Si atom -5587.919890 kJ/mol
# Density = 2.359380 g / cm^3
# Si number density = 23.647625 Si / 1000 Ang^3
#
#
#
# Elastic Constant Matrix: (Units=GPa)
#
#
# Indices 1 2 3 4 5 6 
#
# 1 29.9349 15.3257 14.6170 -4.8791 0.0849 -6.8669
# 2 15.3257 141.2822 69.9556 11.5055 -3.8002 -12.6772
# 3 14.6170 69.9556 120.2882 11.4265 7.1541 4.9038
# 4 -4.8791 11.5055 11.4265 37.1398 -3.2653 2.3871
# 5 0.0849 -3.8002 7.1541 -3.2653 34.2860 3.3938
# 6 -6.8669 -12.6772 4.9038 2.3871 3.3938 26.6593
#
#
#
# Elastic Compliance Matrix: (Units=1/GPa)
#
#
# Indices 1 2 3 4 5 6 
#
# 1 0.039986 -0.001475 -0.005064 0.006673 0.000452 0.009875
# 2 -0.001475 0.011217 -0.006521 -0.001893 0.001824 0.006091
# 3 -0.005064 -0.006521 0.013414 -0.002648 -0.003144 -0.006235
# 4 0.006673 -0.001893 -0.002648 0.029609 0.003321 -0.001768
# 5 0.000452 0.001824 -0.003144 0.003321 0.030600 -0.002631
# 6 0.009875 0.006091 -0.006235 -0.001768 -0.002631 0.044590
#
#
# Mechanical properties :
#
#
# Convention : Reuss Voigt Hill
#
# Bulk Modulus (GPa) = 25.97727 54.58911 40.28319
# Shear Modulus (GPa) = 23.99602 32.39080 28.19341
#
# Velocity S-wave (km/s) = 3.18894 3.70500 3.45661
# Velocity P-wave (km/s) = 4.95663 6.43717 5.74479
#
# Compressibility (1/GPa) = 0.03849519
#
# Stress axis : x y z
#
# Youngs Moduli (GPa) = 25.00906 89.15323 74.54980
#
# Poissons Ratio (x) = 0.13151 0.37755
# Poissons Ratio (y) = 0.03689 0.48613
# Poissons Ratio (z) = 0.12666 0.58136
#
# Static dielectric constant tensor:
#      x y z
#    x 1.981110 0.004400 0.044010 
#    y 0.004400 1.874440 0.015470 
#    z 0.044010 0.015470 1.936480 
# 
# From -- ./inp_files/270398.got.cif
#   From: 2010.05.17/outbox.cif.g08.bks.cpg/sg2_136_cif.got.tgz:270398.got - 2010.06.03 11:33:40.
