data_PCOD9037154
_publ_section_title
;
Structure prediction by ZEFSAII (Michael W. Deem and Ramdas Pophale) SiO2 
 PCOD9037154
Probable space group: P -1
;
_chemical_formula_sum "Si O2"
_cell_formula_units_Z 16
_cell_length_a 10.418719
_cell_length_b 9.483809
_cell_length_c 17.810868
_cell_angle_alpha 45.950441
_cell_angle_beta 43.877447
_cell_angle_gamma 77.734483
_cell_volume 714.448673
_symmetry_space_group_name_H-M "P -1"
_symmetry_group_IT_number 2
_symmetry_cell_setting 'triclinic'
loop_
_space_group_symop_operation_xyz
x,y,z
-x,-y,-z
loop_
_atom_site_type_symbol
_atom_site_label
_atom_site_fract_x
_atom_site_fract_y
_atom_site_fract_z
Si Si1 0.800773 0.673417 0.399587
Si Si2 0.383037 0.175387 0.366250
Si Si3 0.799193 0.249480 0.505871
Si Si4 0.371288 0.559190 0.694516
Si Si5 0.381537 0.434616 0.993538
Si Si6 0.153032 0.020173 0.996948
Si Si7 0.052985 0.898377 0.355881
Si Si8 0.907269 0.423627 0.865492
O O1 0.715744 0.416604 0.496564
O O2 0.588010 0.681538 0.503298
O O3 0.925835 0.707963 0.413164
O O4 0.984431 0.879114 0.189857
O O5 0.558220 0.272048 0.325175
O O6 0.135008 0.066762 0.544749
O O7 0.366945 0.981281 0.389913
O O8 0.450942 0.403552 0.202865
O O9 0.025790 0.418905 0.296720
O O10 0.855916 0.172592 0.587236
O O11 0.147655 0.500206 0.770101
O O12 0.325809 0.304155 0.832884
O O13 0.209443 0.511018 0.048555
O O14 0.500000 0.500000 0.000000
O O15 0.250692 0.151909 0.143070
O O16 0.236338 0.856083 0.995706
O O17 0.000000 0.000000 0.000000
#
# Coordination Sequence:
#
# PCOD9037154 Si02
#       8
#     2   2   2   2   2   2   2   2
#     4  10  23  40  66  94 122 164 204 253 316 363
#     4  11  23  39  64  92 123 167 203 254 310 364
#     4  11  21  40  63  92 125 161 208 252 305 367
#     4  10  23  43  62  91 129 160 205 257 309 364
#     4  12  23  39  64  90 121 165 207 249 309 365
#     4   9  20  40  62  90 126 161 206 255 299 366
#     4  11  22  43  62  92 128 159 207 262 299 366
#     4  10  23  40  62  92 124 160 210 256 304 366
#
# _framework density 22.394891999999999
#
# number of rings (size 3 to 8) (size 9 to 14) (size 15 to 20)
#    0.000    1.500    2.500    2.250    1.750    5.500 
#    2.250    0.000    0.000    8.250    0.000    0.000 
#    0.000    0.000    0.000    0.000    0.000    0.000 
#
# Total GULP energy -89468.134451 kJ/mol
# GULP energy per Si atom -5591.758403 kJ/mol
# Density = 2.234392 g / cm^3
# Si number density = 22.394892 Si / 1000 Ang^3
#
#
#
# Elastic Constant Matrix: (Units=GPa)
#
#
# Indices 1 2 3 4 5 6 
#
# 1 74.5903 39.5857 8.3386 -2.0577 1.9328 19.8647
# 2 39.5857 76.2204 8.5313 -10.1031 4.0031 29.3070
# 3 8.3386 8.5313 60.8412 -15.2779 15.5978 5.2623
# 4 -2.0577 -10.1031 -15.2779 27.7540 -1.1574 0.1367
# 5 1.9328 4.0031 15.5978 -1.1574 28.3426 -0.9971
# 6 19.8647 29.3070 5.2623 0.1367 -0.9971 29.3478
#
#
#
# Elastic Compliance Matrix: (Units=1/GPa)
#
#
# Indices 1 2 3 4 5 6 
#
# 1 0.019155 -0.008593 -0.001946 -0.002729 0.000726 -0.003998
# 2 -0.008593 0.027721 0.003527 0.011273 -0.005610 -0.022741
# 3 -0.001946 0.003527 0.023562 0.013601 -0.013021 -0.006935
# 4 -0.002729 0.011273 0.013601 0.047171 -0.007398 -0.012320
# 5 0.000726 -0.005610 -0.013021 -0.007398 0.043204 0.008947
# 6 -0.003998 -0.022741 -0.006935 -0.012320 0.008947 0.061095
#
#
# Mechanical properties :
#
#
# Convention : Reuss Voigt Hill
#
# Bulk Modulus (GPa) = 17.72655 36.06256 26.89456
# Shear Modulus (GPa) = 19.62804 27.43532 23.53168
#
# Velocity S-wave (km/s) = 2.96370 3.50390 3.24506
# Velocity P-wave (km/s) = 4.43216 5.70155 5.10645
#
# Compressibility (1/GPa) = 0.05641256
#
# Stress axis : x y z
#
# Youngs Moduli (GPa) = 52.20496 36.07347 42.44184
#
# Poissons Ratio (x) = 0.30999 0.08260
# Poissons Ratio (y) = 0.44861 -0.14968
# Poissons Ratio (z) = 0.10160 -0.12722
#
# Static dielectric constant tensor:
#      x y z
#    x 1.803940 -0.019430 0.002310 
#    y -0.019430 1.857990 -0.014220 
#    z 0.002310 -0.014220 1.841440 
# 
# From -- ./inp_files/273936.got.cif
#   From: 2010.05.17/outbox.cif.g08.bks.cpg/sg2_137_cif.got.tgz:273936.got - 2010.06.03 11:33:40.
