data_PCOD9037657
_publ_section_title
;
Structure prediction by ZEFSAII (Michael W. Deem and Ramdas Pophale) SiO2 
 PCOD9037657
Probable space group: P -1
;
_chemical_formula_sum "Si O2"
_cell_formula_units_Z 15
_cell_length_a 11.597230
_cell_length_b 12.569255
_cell_length_c 9.578420
_cell_angle_alpha 47.237486
_cell_angle_beta 97.364691
_cell_angle_gamma 132.457246
_cell_volume 599.571187
_symmetry_space_group_name_H-M "P -1"
_symmetry_group_IT_number 2
_symmetry_cell_setting 'triclinic'
loop_
_space_group_symop_operation_xyz
x,y,z
-x,-y,-z
loop_
_atom_site_type_symbol
_atom_site_label
_atom_site_fract_x
_atom_site_fract_y
_atom_site_fract_z
Si Si1 0.798987 0.913872 0.717341
Si Si2 0.427369 0.229670 0.440736
Si Si3 0.050476 0.624746 0.749397
Si Si4 0.085937 0.986505 0.805767
Si Si5 0.341380 0.498312 0.507155
Si Si6 0.289424 0.069253 0.001601
Si Si7 0.500000 0.000000 0.500000
Si Si8 0.194810 0.671317 0.287398
O O1 0.625432 0.733888 0.737687
O O2 0.934903 0.184247 0.435817
O O3 0.733011 0.904836 0.866920
O O4 0.900758 0.860254 0.803651
O O5 0.235122 0.053150 0.667318
O O6 0.601904 0.464572 0.355406
O O7 0.466737 0.107352 0.503644
O O8 0.268168 0.786147 0.601010
O O9 0.879138 0.401529 0.817804
O O10 0.000000 0.500000 0.000000
O O11 0.177576 0.230603 0.656338
O O12 0.092626 0.902582 0.025988
O O13 0.534232 0.675723 0.280810
O O14 0.280565 0.602573 0.392944
O O15 0.332673 0.942925 0.108364
O O16 0.000000 0.500000 0.500000
#
# Coordination Sequence:
#
# PCOD9037657 Si02
#       8
#     2   2   2   2   2   2   1   2
#     4  11  23  45  67 103 143 184 242 297 362 435
#     4  10  23  40  71  97 139 186 232 295 362 417
#     4  11  25  43  71 103 147 189 240 297 366 425
#     4  11  23  48  72 102 142 195 240 295 362 445
#     4  11  24  45  73 100 147 188 245 298 363 437
#     4  11  24  40  72 106 141 189 245 298 365 428
#     4  10  24  44  68 102 146 182 236 298 354 420
#     4  12  23  43  67 106 138 188 247 294 358 432
#
# _framework density 25.017880999999999
#
# number of rings (size 3 to 8) (size 9 to 14) (size 15 to 20)
#    0.000    1.067    2.667    3.600    9.333    2.133 
#    0.000    4.000    0.000    0.000    0.000    0.000 
#    0.000    0.000    0.000    0.000    0.000    0.000 
#
# Total GULP energy -83700.577131 kJ/mol
# GULP energy per Si atom -5580.038475 kJ/mol
# Density = 2.496094 g / cm^3
# Si number density = 25.017881 Si / 1000 Ang^3
#
#
#
# Elastic Constant Matrix: (Units=GPa)
#
#
# Indices 1 2 3 4 5 6 
#
# 1 154.1340 34.3984 13.2677 19.6394 13.5852 -3.0622
# 2 34.3984 126.0556 27.7203 41.7053 7.3796 -0.4032
# 3 13.2677 27.7203 109.8631 23.7377 14.8728 -7.3618
# 4 19.6394 41.7053 23.7377 50.6766 3.1135 10.4096
# 5 13.5852 7.3796 14.8728 3.1135 27.2461 2.9138
# 6 -3.0622 -0.4032 -7.3618 10.4096 2.9138 48.7866
#
#
#
# Elastic Compliance Matrix: (Units=1/GPa)
#
#
# Indices 1 2 3 4 5 6 
#
# 1 0.007308 -0.001196 0.000407 -0.002065 -0.003430 0.001156
# 2 -0.001196 0.011447 -0.000462 -0.009058 -0.001427 0.001968
# 3 0.000407 -0.000462 0.011368 -0.005401 -0.006014 0.003249
# 4 -0.002065 -0.009058 -0.005401 0.031948 0.003642 -0.008054
# 5 -0.003430 -0.001427 -0.006014 0.003642 0.042140 -0.004428
# 6 0.001156 0.001968 0.003249 -0.008054 -0.004428 0.023059
#
#
# Mechanical properties :
#
#
# Convention : Reuss Voigt Hill
#
# Bulk Modulus (GPa) = 36.20194 60.09171 48.14682
# Shear Modulus (GPa) = 35.97651 46.31960 41.14805
#
# Velocity S-wave (km/s) = 3.79625 4.30753 4.05995
# Velocity P-wave (km/s) = 5.80665 6.98651 6.42373
#
# Compressibility (1/GPa) = 0.02762283
#
# Stress axis : x y z
#
# Youngs Moduli (GPa) = 136.83334 87.35545 87.96373
#
# Poissons Ratio (x) = 0.10448 -0.03582
# Poissons Ratio (y) = 0.16365 0.04062
# Poissons Ratio (z) = -0.05572 0.04034
#
# Static dielectric constant tensor:
#      x y z
#    x 1.989060 0.040820 0.020800 
#    y 0.040820 1.997980 -0.039680 
#    z 0.020800 -0.039680 2.033230 
# 
# From -- ./inp_files/256445.got.cif
#   From: 2010.05.17/outbox.cif.g08.bks.cpg/sg2_129_cif.got.tgz:256445.got - 2010.06.03 11:33:40.
