data_PCOD9037829
_publ_section_title
;
Structure prediction by ZEFSAII (Michael W. Deem and Ramdas Pophale) SiO2 
 PCOD9037829
Probable space group: P -1
;
_chemical_formula_sum "Si O2"
_cell_formula_units_Z 16
_cell_length_a 14.730671
_cell_length_b 9.766698
_cell_length_c 7.764214
_cell_angle_alpha 51.926415
_cell_angle_beta 133.500065
_cell_angle_gamma 108.964042
_cell_volume 628.098856
_symmetry_space_group_name_H-M "P -1"
_symmetry_group_IT_number 2
_symmetry_cell_setting 'triclinic'
loop_
_space_group_symop_operation_xyz
x,y,z
-x,-y,-z
loop_
_atom_site_type_symbol
_atom_site_label
_atom_site_fract_x
_atom_site_fract_y
_atom_site_fract_z
Si Si1 0.898902 0.270897 0.092293
Si Si2 0.510433 0.832852 0.275338
Si Si3 0.156435 0.119247 0.688648
Si Si4 0.400878 0.103336 0.159866
Si Si5 0.812859 0.432048 0.193397
Si Si6 0.998226 0.709146 0.157634
Si Si7 0.239444 0.069373 0.443720
Si Si8 0.582195 0.310133 0.041501
O O1 0.798920 0.363252 0.030800
O O2 0.025532 0.251594 0.390297
O O3 0.877090 0.073422 0.176135
O O4 0.927560 0.344527 0.885264
O O5 0.649339 0.820257 0.549630
O O6 0.399110 0.921617 0.184829
O O7 0.483476 0.678108 0.240589
O O8 0.500000 0.000000 0.000000
O O9 0.215479 0.119344 0.573864
O O10 0.251205 0.171488 0.915548
O O11 0.472141 0.257396 0.059923
O O12 0.500000 0.000000 0.500000
O O13 0.894079 0.585813 0.154679
O O14 0.668967 0.458511 0.061765
O O15 0.902291 0.307753 0.544442
O O16 0.898485 0.890689 0.853919
O O17 0.309409 0.868107 0.672070
#
# Coordination Sequence:
#
# PCOD9037829 Si02
#       8
#     2   2   2   2   2   2   2   2
#     4  10  21  35  59  76 108 146 176 225 268 314
#     4   8  14  29  50  71 101 135 160 209 264 308
#     4  10  17  33  52  86 108 130 181 225 263 318
#     4  10  18  27  48  82 111 132 164 219 274 316
#     4  11  22  40  52  79 112 143 183 223 268 317
#     4  10  24  36  55  78 108 148 183 221 266 321
#     4   9  15  34  54  77 105 135 175 219 263 315
#     4  10  18  33  57  74 105 143 168 221 271 311
#
# _framework density 25.473697999999999
#
# number of rings (size 3 to 8) (size 9 to 14) (size 15 to 20)
#    0.000    2.500    5.000    0.375    1.750    2.500 
#    0.000    0.625    0.000    0.000    0.000    5.250 
#    0.000    0.000    0.000    0.000    0.000    0.000 
#
# Total GULP energy -89086.041691 kJ/mol
# GULP energy per Si atom -5567.877606 kJ/mol
# Density = 2.541572 g / cm^3
# Si number density = 25.473698 Si / 1000 Ang^3
#
#
#
# Elastic Constant Matrix: (Units=GPa)
#
#
# Indices 1 2 3 4 5 6 
#
# 1 93.0645 34.9655 32.4408 14.7598 2.4320 14.6426
# 2 34.9655 75.9024 18.5044 4.6587 -7.3864 32.6651
# 3 32.4408 18.5044 79.7762 17.5959 -9.7084 12.8648
# 4 14.7598 4.6587 17.5959 23.7101 7.2830 6.8818
# 5 2.4320 -7.3864 -9.7084 7.2830 27.1056 8.7247
# 6 14.6426 32.6651 12.8648 6.8818 8.7247 42.1933
#
#
#
# Elastic Compliance Matrix: (Units=1/GPa)
#
#
# Indices 1 2 3 4 5 6 
#
# 1 0.015637 -0.008100 -0.004984 -0.003909 -0.005690 0.004178
# 2 -0.008100 0.027790 0.002854 -0.001107 0.016993 -0.022907
# 3 -0.004984 0.002854 0.020136 -0.014829 0.014755 -0.007252
# 4 -0.003909 -0.001107 -0.014829 0.062367 -0.022404 0.001195
# 5 -0.005690 0.016993 0.014755 -0.022404 0.061288 -0.024698
# 6 0.004178 -0.022907 -0.007252 0.001195 -0.024698 0.047107
#
#
# Mechanical properties :
#
#
# Convention : Reuss Voigt Hill
#
# Bulk Modulus (GPa) = 23.20072 46.72942 34.96507
# Shear Modulus (GPa) = 18.57673 29.45730 24.01702
#
# Velocity S-wave (km/s) = 2.70340 3.40425 3.07386
# Velocity P-wave (km/s) = 4.34419 5.81686 5.13361
#
# Compressibility (1/GPa) = 0.04310211
#
# Stress axis : x y z
#
# Youngs Moduli (GPa) = 63.94987 35.98391 49.66320
#
# Poissons Ratio (x) = 0.29148 0.24752
# Poissons Ratio (y) = 0.51802 -0.14174
# Poissons Ratio (z) = 0.31873 -0.10270
#
# Static dielectric constant tensor:
#      x y z
#    x 2.198920 -0.084210 -0.028870 
#    y -0.084210 2.165090 0.037600 
#    z -0.028870 0.037600 2.120980 
# 
# From -- ./inp_files/331645.got.cif
#   From: 2010.05.17/outbox.cif.g08.bks.cpg/sg2_166_cif.got.tgz:331645.got - 2010.06.03 11:33:40.
