data_PCOD9037109
_publ_section_title
;
Structure prediction by ZEFSAII (Michael W. Deem and Ramdas Pophale) SiO2 
 PCOD9037109
Probable space group: P -1
;
_chemical_formula_sum "Si O2"
_cell_formula_units_Z 14
_cell_length_a 11.439567
_cell_length_b 8.815558
_cell_length_c 17.916353
_cell_angle_alpha 53.705718
_cell_angle_beta 29.491346
_cell_angle_gamma 41.401203
_cell_volume 577.823195
_symmetry_space_group_name_H-M "P -1"
_symmetry_group_IT_number 2
_symmetry_cell_setting 'triclinic'
loop_
_space_group_symop_operation_xyz
x,y,z
-x,-y,-z
loop_
_atom_site_type_symbol
_atom_site_label
_atom_site_fract_x
_atom_site_fract_y
_atom_site_fract_z
Si Si1 0.153086 0.673782 0.283150
Si Si2 0.198698 0.258770 0.307719
Si Si3 0.746496 0.761203 0.037882
Si Si4 0.668848 0.336773 0.643635
Si Si5 0.182115 0.874052 0.748483
Si Si6 0.782089 0.945612 0.171274
Si Si7 0.264267 0.402801 0.068650
O O1 0.071971 0.509027 0.344888
O O2 0.227679 0.643354 0.337496
O O3 0.455142 0.590451 0.096251
O O4 0.911517 0.943728 0.318564
O O5 0.260765 0.289377 0.179653
O O6 0.938940 0.231445 0.468962
O O7 0.487960 0.075490 0.248445
O O8 0.467032 0.805546 0.223317
O O9 0.711276 0.741096 0.975294
O O10 0.000000 0.500000 0.000000
O O11 0.885714 0.900455 0.930641
O O12 0.414800 0.601358 0.681636
O O13 0.286346 0.951109 0.737428
O O14 0.968763 0.666229 0.150490
O O15 0.000000 0.000000 0.000000
#
# Coordination Sequence:
#
# PCOD9037109 Si02
#       7
#     2   2   2   2   2   2   2
#     4  11  21  38  65  95 126 162 211 258 316 375
#     4  12  23  38  64 100 131 156 210 269 324 360
#     4   9  21  45  67  89 124 173 214 252 308 385
#     4  10  23  40  60  96 132 164 203 268 313 373
#     4  11  22  39  68  92 123 169 215 253 312 380
#     4  12  21  37  66  96 124 163 208 269 314 362
#     4  11  23  40  64  98 125 163 216 262 309 371
#
# _framework density 24.228866
#
# number of rings (size 3 to 8) (size 9 to 14) (size 15 to 20)
#    0.000    1.143    4.286    3.429    0.000    4.000 
#    0.000    4.286    0.000   18.000    0.000    0.000 
#    0.000    0.000    0.000    0.000    0.000    0.000 
#
# Total GULP energy -78472.330959 kJ/mol
# GULP energy per Si atom -5605.166497 kJ/mol
# Density = 2.417372 g / cm^3
# Si number density = 24.228866 Si / 1000 Ang^3
#
#
#
# Elastic Constant Matrix: (Units=GPa)
#
#
# Indices 1 2 3 4 5 6 
#
# 1 82.8070 32.3736 37.9816 -12.1904 -12.4507 -2.0534
# 2 32.3736 162.9628 32.2631 -3.2794 -8.9850 -34.0505
# 3 37.9816 32.2631 149.0049 3.1969 -0.7962 -17.1936
# 4 -12.1904 -3.2794 3.1969 28.2820 -3.2937 -2.8241
# 5 -12.4507 -8.9850 -0.7962 -3.2937 15.6888 2.4622
# 6 -2.0534 -34.0505 -17.1936 -2.8241 2.4622 43.1347
#
#
#
# Elastic Compliance Matrix: (Units=1/GPa)
#
#
# Indices 1 2 3 4 5 6 
#
# 1 0.019052 -0.002402 -0.004832 0.010038 0.016105 -0.003178
# 2 -0.002402 0.008084 -0.000449 0.000778 0.001917 0.006029
# 3 -0.004832 -0.000449 0.008412 -0.003365 -0.004814 0.002823
# 4 0.010038 0.000778 -0.003365 0.042276 0.016872 0.001556
# 5 0.016105 0.001917 -0.004814 0.016872 0.081416 -0.003181
# 6 -0.003178 0.006029 0.002823 0.001556 -0.003181 0.029200
#
#
# Mechanical properties :
#
#
# Convention : Reuss Voigt Hill
#
# Bulk Modulus (GPa) = 49.54905 66.66791 58.10848
# Shear Modulus (GPa) = 23.74914 36.89822 30.32368
#
# Velocity S-wave (km/s) = 3.13421 3.90667 3.54157
# Velocity P-wave (km/s) = 5.79591 6.92280 6.38426
#
# Compressibility (1/GPa) = 0.02018202
#
# Stress axis : x y z
#
# Youngs Moduli (GPa) = 52.48697 123.70704 118.87260
#
# Poissons Ratio (x) = 0.29716 0.57443
# Poissons Ratio (y) = 0.12608 0.05334
# Poissons Ratio (z) = 0.25363 0.05551
#
# Static dielectric constant tensor:
#      x y z
#    x 1.896480 0.009280 -0.004980 
#    y 0.009280 1.967180 0.056240 
#    z -0.004980 0.056240 1.945600 
# 
# From -- ./inp_files/566467.got.cif
#   From: 2010.05.17/outbox.cif.g08.bks.cpg/sg2_284_cif.got.tgz:566467.got - 2010.06.03 11:33:40.
