data_PCOD9037253
_publ_section_title
;
Structure prediction by ZEFSAII (Michael W. Deem and Ramdas Pophale) SiO2 
 PCOD9037253
Probable space group: P -1
;
_chemical_formula_sum "Si O2"
_cell_formula_units_Z 12
_cell_length_a 11.210395
_cell_length_b 14.122239
_cell_length_c 19.624365
_cell_angle_alpha 155.134235
_cell_angle_beta 149.663898
_cell_angle_gamma 29.401880
_cell_volume 600.336665
_symmetry_space_group_name_H-M "P -1"
_symmetry_group_IT_number 2
_symmetry_cell_setting 'triclinic'
loop_
_space_group_symop_operation_xyz
x,y,z
-x,-y,-z
loop_
_atom_site_type_symbol
_atom_site_label
_atom_site_fract_x
_atom_site_fract_y
_atom_site_fract_z
Si Si1 0.116906 0.639428 0.852273
Si Si2 0.525702 0.865774 0.241157
Si Si3 0.753323 0.729473 0.001747
Si Si4 0.469761 0.061792 0.196798
Si Si5 0.646570 0.257774 0.295672
Si Si6 0.871020 0.623307 0.586702
O O1 0.372664 0.113187 0.370633
O O2 0.836153 0.792221 0.846968
O O3 0.069557 0.660191 0.761459
O O4 0.315379 0.755876 0.047203
O O5 0.760008 0.645567 0.249219
O O6 0.594437 0.954700 0.261030
O O7 0.548130 0.841295 0.035786
O O8 0.812208 0.967965 0.168049
O O9 0.614208 0.668726 0.829812
O O10 0.000000 0.500000 0.000000
O O11 0.581702 0.238651 0.330047
O O12 0.774584 0.439776 0.459135
O O13 0.000000 0.500000 0.500000
#
# Coordination Sequence:
#
# PCOD9037253 Si02
#       6
#     2   2   2   2   2   2
#     4  10  23  41  62  89 119 161 205 240 297 357
#     4  10  23  40  64  89 116 165 203 240 298 359
#     4   9  20  36  59  90 121 156 197 239 300 357
#     4   9  19  37  62  83 118 153 197 248 287 350
#     4   9  22  36  57  92 118 155 196 247 299 346
#     4  11  24  41  61  87 127 156 195 254 302 352
#
# _framework density 19.988783999999999
#
# number of rings (size 3 to 8) (size 9 to 14) (size 15 to 20)
#    1.000    1.333    0.000    2.000    7.000    4.667 
#    3.000    1.667    0.000    0.000    0.000    0.000 
#    0.000    0.000    0.000    0.000    0.000    0.000 
#
# Total GULP energy -66904.459373 kJ/mol
# GULP energy per Si atom -5575.371614 kJ/mol
# Density = 1.994329 g / cm^3
# Si number density = 19.988784 Si / 1000 Ang^3
#
#
#
# Elastic Constant Matrix: (Units=GPa)
#
#
# Indices 1 2 3 4 5 6 
#
# 1 107.6406 37.8108 11.8778 13.0731 -17.9595 2.1950
# 2 37.8108 166.1361 21.8157 3.2963 -10.0341 11.2848
# 3 11.8778 21.8157 32.9469 16.3545 2.4431 -3.6504
# 4 13.0731 3.2963 16.3545 17.3988 2.5098 -0.3114
# 5 -17.9595 -10.0341 2.4431 2.5098 30.1254 6.7449
# 6 2.1950 11.2848 -3.6504 -0.3114 6.7449 20.0103
#
#
#
# Elastic Compliance Matrix: (Units=1/GPa)
#
#
# Indices 1 2 3 4 5 6 
#
# 1 0.012814 -0.002256 0.002135 -0.012465 0.008370 -0.002759
# 2 -0.002256 0.008403 -0.010415 0.009306 0.003160 -0.007312
# 3 0.002135 -0.010415 0.071919 -0.065858 -0.007044 0.020108
# 4 -0.012465 0.009306 -0.065858 0.127795 -0.007056 -0.011528
# 5 0.008370 0.003160 -0.007044 -0.007056 0.044686 -0.019157
# 6 -0.002759 -0.007312 0.020108 -0.011528 -0.019157 0.064347
#
#
# Mechanical properties :
#
#
# Convention : Reuss Voigt Hill
#
# Bulk Modulus (GPa) = 13.87627 49.97026 31.92326
# Shear Modulus (GPa) = 13.33134 29.18818 21.25976
#
# Velocity S-wave (km/s) = 2.58532 3.82544 3.26480
# Velocity P-wave (km/s) = 3.98359 6.67573 5.49701
#
# Compressibility (1/GPa) = 0.07206549
#
# Stress axis : x y z
#
# Youngs Moduli (GPa) = 78.04060 119.00356 13.90444
#
# Poissons Ratio (x) = 0.26852 -0.02969
# Poissons Ratio (y) = 0.17609 0.14481
# Poissons Ratio (z) = -0.16666 1.23936
#
# Static dielectric constant tensor:
#      x y z
#    x 1.710080 0.018640 0.005370 
#    y 0.018640 1.704120 0.030700 
#    z 0.005370 0.030700 1.748130 
# 
# From -- ./inp_files/569819.got.cif
#   From: 2010.05.17/outbox.cif.g08.bks.cpg/sg2_285_cif.got.tgz:569819.got - 2010.06.03 11:33:40.
