data_PCOD9037767
_publ_section_title
;
Structure prediction by ZEFSAII (Michael W. Deem and Ramdas Pophale) SiO2 
 PCOD9037767
Probable space group: P -1
;
_chemical_formula_sum "Si O2"
_cell_formula_units_Z 16
_cell_length_a 19.426158
_cell_length_b 9.157285
_cell_length_c 9.239481
_cell_angle_alpha 135.462425
_cell_angle_beta 126.836690
_cell_angle_gamma 48.347119
_cell_volume 836.165208
_symmetry_space_group_name_H-M "P -1"
_symmetry_group_IT_number 2
_symmetry_cell_setting 'triclinic'
loop_
_space_group_symop_operation_xyz
x,y,z
-x,-y,-z
loop_
_atom_site_type_symbol
_atom_site_label
_atom_site_fract_x
_atom_site_fract_y
_atom_site_fract_z
Si Si1 0.258315 0.868349 0.345499
Si Si2 0.228870 0.217945 0.975702
Si Si3 0.258188 0.598601 0.450211
Si Si4 0.094192 0.983465 0.686676
Si Si5 0.394029 0.715354 0.871614
Si Si6 0.227279 0.368724 0.755065
Si Si7 0.390535 0.537031 0.059213
Si Si8 0.093454 0.863701 0.928773
O O1 0.250048 0.752691 0.405199
O O2 0.355471 0.706416 0.272412
O O3 0.242476 0.127856 0.535323
O O4 0.178066 0.875065 0.137572
O O5 0.227802 0.334041 0.903397
O O6 0.134447 0.173154 0.837904
O O7 0.319275 0.972208 0.921894
O O8 0.241564 0.379833 0.227532
O O9 0.178059 0.749427 0.569126
O O10 0.357125 0.552769 0.620094
O O11 0.082589 0.976560 0.838353
O O12 0.000000 0.000000 0.500000
O O13 0.502126 0.651692 0.922314
O O14 0.387847 0.673879 0.005239
O O15 0.129379 0.589965 0.753590
O O16 0.315285 0.427666 0.868770
O O17 0.000000 0.000000 0.000000
#
# Coordination Sequence:
#
# PCOD9037767 Si02
#       8
#     2   2   2   2   2   2   2   2
#     4  11  21  41  64  92 127 164 206 261 313 366
#     4  11  22  41  66  92 126 166 210 259 311 372
#     4  11  21  41  64  92 127 164 206 261 313 366
#     4  11  25  43  64  93 126 160 207 258 313 376
#     4  10  23  41  62  94 132 166 209 259 309 372
#     4  11  22  41  66  92 126 166 210 259 311 372
#     4  10  23  41  62  94 132 166 209 259 309 372
#     4  11  25  43  64  93 126 160 207 258 313 376
#
# _framework density 19.134974
#
# number of rings (size 3 to 8) (size 9 to 14) (size 15 to 20)
#    0.000    1.250    5.000    3.750    0.000    7.000 
#    0.000    2.500    0.000    0.000    0.000    0.000 
#    0.000    0.000    0.000    0.000    0.000    0.000 
#
# Total GULP energy -89324.452941 kJ/mol
# GULP energy per Si atom -5582.778309 kJ/mol
# Density = 1.909142 g / cm^3
# Si number density = 19.134974 Si / 1000 Ang^3
#
#
#
# Elastic Constant Matrix: (Units=GPa)
#
#
# Indices 1 2 3 4 5 6 
#
# 1 121.8074 40.6450 22.1478 1.3664 -14.4791 -18.5748
# 2 40.6450 48.6165 -0.2791 0.0337 8.8967 -11.6617
# 3 22.1478 -0.2791 85.3805 18.8219 -3.1956 -12.2981
# 4 1.3664 0.0337 18.8219 42.4305 8.6532 0.4820
# 5 -14.4791 8.8967 -3.1956 8.6532 31.7693 -7.4194
# 6 -18.5748 -11.6617 -12.2981 0.4820 -7.4194 21.7996
#
#
#
# Elastic Compliance Matrix: (Units=1/GPa)
#
#
# Indices 1 2 3 4 5 6 
#
# 1 0.016568 -0.013943 -0.001599 -0.002915 0.014610 0.010793
# 2 -0.013943 0.036046 0.003202 0.002188 -0.015843 0.003768
# 3 -0.001599 0.003202 0.015646 -0.007969 0.004674 0.010944
# 4 -0.002915 0.002188 -0.007969 0.030079 -0.013522 -0.011076
# 5 0.014610 -0.015843 0.004674 -0.013522 0.052513 0.024782
# 6 0.010793 0.003768 0.010944 -0.011076 0.024782 0.071937
#
#
# Mechanical properties :
#
#
# Convention : Reuss Voigt Hill
#
# Bulk Modulus (GPa) = 22.94686 42.31461 32.63074
# Shear Modulus (GPa) = 19.08419 32.08593 25.58506
#
# Velocity S-wave (km/s) = 3.16150 4.09934 3.66058
# Velocity P-wave (km/s) = 5.03438 6.67592 5.91240
#
# Compressibility (1/GPa) = 0.04357895
#
# Stress axis : x y z
#
# Youngs Moduli (GPa) = 60.35616 27.74204 63.91549
#
# Poissons Ratio (x) = 0.38682 0.10223
# Poissons Ratio (y) = 0.84157 -0.20467
# Poissons Ratio (z) = 0.09654 -0.08884
#
# Static dielectric constant tensor:
#      x y z
#    x 1.661990 -0.008410 0.008480 
#    y -0.008410 1.667910 0.016360 
#    z 0.008480 0.016360 1.677490 
# 
# From -- ./inp_files/201785.got.cif
#   From: 2010.05.17/outbox.cif.g08.bks.cpg/sg2_101_cif.got.tgz:201785.got - 2010.06.03 11:33:40.
