data_PCOD9037508
_publ_section_title
;
Structure prediction by ZEFSAII (Michael W. Deem and Ramdas Pophale) SiO2 
 PCOD9037508
Probable space group: P -1
;
_chemical_formula_sum "Si O2"
_cell_formula_units_Z 10
_cell_length_a 9.944173
_cell_length_b 8.601549
_cell_length_c 9.692805
_cell_angle_alpha 111.842045
_cell_angle_beta 45.394336
_cell_angle_gamma 76.440101
_cell_volume 362.314841
_symmetry_space_group_name_H-M "P -1"
_symmetry_group_IT_number 2
_symmetry_cell_setting 'triclinic'
loop_
_space_group_symop_operation_xyz
x,y,z
-x,-y,-z
loop_
_atom_site_type_symbol
_atom_site_label
_atom_site_fract_x
_atom_site_fract_y
_atom_site_fract_z
Si Si1 0.077682 0.280318 0.758949
Si Si2 0.393263 0.857532 0.722204
Si Si3 0.824322 0.665122 0.816247
Si Si4 0.295783 0.828878 0.305725
Si Si5 0.478487 0.546729 0.341552
O O1 0.359755 0.202416 0.556580
O O2 0.941210 0.470883 0.791684
O O3 0.217074 0.012254 0.540154
O O4 0.800431 0.405577 0.084517
O O5 0.290727 0.788164 0.659255
O O6 0.524677 0.642661 0.669781
O O7 0.213228 0.121274 0.022257
O O8 0.000000 0.500000 0.500000
O O9 0.512087 0.797305 0.052784
O O10 0.415160 0.599856 0.239885
O O11 0.000000 0.000000 0.500000
#
# Coordination Sequence:
#
# PCOD9037508 Si02
#       5
#     2   2   2   2   2
#     4  10  23  40  68 102 137 182 232 294 349 410
#     4  10  23  44  71 103 139 182 233 290 352 417
#     4  10  24  45  70 102 141 187 235 288 349 418
#     4  10  24  45  70 102 141 187 235 288 349 418
#     4  10  23  44  71 103 139 182 233 290 352 417
#
# _framework density 27.600301999999999
#
# number of rings (size 3 to 8) (size 9 to 14) (size 15 to 20)
#    0.000    2.000    0.000    0.600    0.000   21.600 
#    0.000   14.000    0.000    1.200    0.000    0.000 
#    0.000    0.000    0.000    0.000    0.000    0.000 
#
# Total GULP energy -55812.659861 kJ/mol
# GULP energy per Si atom -5581.265986 kJ/mol
# Density = 2.753748 g / cm^3
# Si number density = 27.600302 Si / 1000 Ang^3
#
#
#
# Elastic Constant Matrix: (Units=GPa)
#
#
# Indices 1 2 3 4 5 6 
#
# 1 178.7912 -172.9473 -267.1420 -218.4577 -725.3590 302.7845
# 2 -172.9473 769.5786 780.1904 523.0398 1883.3532 -761.2389
# 3 -267.1420 780.1904 1100.8691 638.0537 2355.9805 -940.3498
# 4 -218.4577 523.0398 638.0537 496.1871 1667.7359 -667.1810
# 5 -725.3590 1883.3532 2355.9805 1667.7359 5952.6497-2398.1898
# 6 302.7845 -761.2389 -940.3498 -667.1810-2398.1898 1011.1463
#
#
#
# Elastic Compliance Matrix: (Units=1/GPa)
#
#
# Indices 1 2 3 4 5 6 
#
# 1 0.016372 -0.005286 0.000614 0.009091 -0.001220 -0.005207
# 2 -0.005286 0.007727 -0.001489 -0.003054 -0.000726 0.002278
# 3 0.000614 -0.001489 0.007048 0.005808 -0.004764 -0.002217
# 4 0.009091 -0.003054 0.005808 0.044589 -0.015986 -0.008114
# 5 -0.001220 -0.000726 -0.004764 -0.015986 0.011374 0.011815
# 6 -0.005207 0.002278 -0.002217 -0.008114 0.011815 0.024870
#
#
# Mechanical properties :
#
#
# Convention : Reuss Voigt Hill
#
# Bulk Modulus (GPa) = 53.11554 303.27124 178.19339
# Shear Modulus (GPa) = 38.29164 1605.93914 822.11539
#
# Velocity S-wave (km/s) = 3.72877 24.14785 17.27748
# Velocity P-wave (km/s) = 6.15018 29.79278 21.51086
#
# Compressibility (1/GPa) = 0.01882688
#
# Stress axis : x y z
#
# Youngs Moduli (GPa) = 61.07846 129.41663 141.87786
#
# Poissons Ratio (x) = 0.68404 -0.08708
# Poissons Ratio (y) = 0.32284 0.21120
# Poissons Ratio (z) = -0.03749 0.19265
#
# Static dielectric constant tensor:
#      x y z
#    x 0.442710 0.520250 0.622630 
#    y 0.520250 1.923170 -0.206180 
#    z 0.622630 -0.206180 1.982960 
# 
# From -- ./inp_files/62740.got.cif
#   From: 2010.05.17/outbox.cif.g08.bks.cpg/sg2_32_cif.got.tgz:62740.got - 2010.06.03 11:33:40.
