data_PCOD9037805
_publ_section_title
;
Structure prediction by ZEFSAII (Michael W. Deem and Ramdas Pophale) SiO2 
 PCOD9037805
Probable space group: P -1
;
_chemical_formula_sum "Si O2"
_cell_formula_units_Z 14
_cell_length_a 9.252135
_cell_length_b 5.325161
_cell_length_c 25.023927
_cell_angle_alpha 119.828824
_cell_angle_beta 138.104891
_cell_angle_gamma 46.234234
_cell_volume 594.172637
_symmetry_space_group_name_H-M "P -1"
_symmetry_group_IT_number 2
_symmetry_cell_setting 'triclinic'
loop_
_space_group_symop_operation_xyz
x,y,z
-x,-y,-z
loop_
_atom_site_type_symbol
_atom_site_label
_atom_site_fract_x
_atom_site_fract_y
_atom_site_fract_z
Si Si1 0.396888 0.829175 0.318087
Si Si2 0.325194 0.868872 0.414379
Si Si3 0.266668 0.953292 0.579260
Si Si4 0.795074 0.060171 0.836632
Si Si5 0.573584 0.840117 0.846650
Si Si6 0.643136 0.094313 0.005643
Si Si7 0.793206 0.022863 0.320120
O O1 0.256356 0.030674 0.246413
O O2 0.546031 0.421867 0.303453
O O3 0.215819 0.988554 0.336497
O O4 0.637191 0.848368 0.406442
O O5 0.512371 0.450890 0.413792
O O6 0.070651 0.972755 0.388904
O O7 0.500000 0.000000 0.500000
O O8 0.225643 0.128323 0.645173
O O9 0.000000 0.000000 0.500000
O O10 0.752998 0.859209 0.851418
O O11 0.287292 0.085398 0.766936
O O12 0.603508 0.478739 0.831765
O O13 0.070058 0.020291 0.910156
O O14 0.637255 0.947923 0.930815
O O15 0.500000 0.500000 0.000000
O O16 0.500000 0.000000 0.000000
#
# Coordination Sequence:
#
# PCOD9037805 Si02
#       7
#     2   2   2   2   2   2   2
#     4  10  23  41  63  91 126 171 217 275 330 391
#     4  11  24  40  61  94 127 171 218 277 336 394
#     4  11  22  40  63  90 127 167 218 273 329 397
#     4  11  23  45  71  94 134 178 225 266 334 401
#     4  11  23  45  70  96 129 185 219 267 336 403
#     4  12  26  42  67 106 139 170 218 279 328 394
#     4  10  23  41  63  91 128 167 224 270 332 395
#
# _framework density 23.562173000000001
#
# number of rings (size 3 to 8) (size 9 to 14) (size 15 to 20)
#    0.000    1.143    1.429    4.286    2.000    6.857 
#    0.000    0.000    0.000    0.000    0.000    0.000 
#    0.000    0.000    0.000    0.000    0.000    0.000 
#
# Total GULP energy -78055.892091 kJ/mol
# GULP energy per Si atom -5575.420864 kJ/mol
# Density = 2.350854 g / cm^3
# Si number density = 23.562173 Si / 1000 Ang^3
#
#
#
# Elastic Constant Matrix: (Units=GPa)
#
#
# Indices 1 2 3 4 5 6 
#
# 1 140.0543 13.1747 45.9877 6.2984 -7.6497 9.8651
# 2 13.1747 39.0315 -6.5639 8.8595 -3.8466 7.2355
# 3 45.9877 -6.5639 128.8806 9.2588 8.8378 -7.3290
# 4 6.2984 8.8595 9.2588 25.2709 4.0290 4.9170
# 5 -7.6497 -3.8466 8.8378 4.0290 43.7810 4.5078
# 6 9.8651 7.2355 -7.3290 4.9170 4.5078 28.7018
#
#
#
# Elastic Compliance Matrix: (Units=1/GPa)
#
#
# Indices 1 2 3 4 5 6 
#
# 1 0.009032 -0.002848 -0.003788 0.000489 0.002441 -0.003821
# 2 -0.002848 0.030655 0.002867 -0.010670 0.003080 -0.004673
# 3 -0.003788 0.002867 0.009964 -0.004138 -0.002475 0.004221
# 4 0.000489 -0.010670 -0.004138 0.046444 -0.003682 -0.005913
# 5 0.002441 0.003080 -0.002475 -0.003682 0.024946 -0.005535
# 6 -0.003821 -0.004673 0.004221 -0.005913 -0.005535 0.040292
#
#
# Mechanical properties :
#
#
# Convention : Reuss Voigt Hill
#
# Bulk Modulus (GPa) = 23.74497 45.90703 34.82600
# Shear Modulus (GPa) = 27.33601 36.57529 31.95565
#
# Velocity S-wave (km/s) = 3.40981 3.94418 3.68669
# Velocity P-wave (km/s) = 5.05983 6.34569 5.73889
#
# Compressibility (1/GPa) = 0.04211417
#
# Stress axis : x y z
#
# Youngs Moduli (GPa) = 110.71544 32.62063 100.36380
#
# Poissons Ratio (x) = 0.09290 0.38015
# Poissons Ratio (y) = 0.31531 -0.28775
# Poissons Ratio (z) = 0.41936 -0.09353
#
# Static dielectric constant tensor:
#      x y z
#    x 1.901660 -0.007330 -0.054730 
#    y -0.007330 1.762610 0.160260 
#    z -0.054730 0.160260 1.797190 
# 
# From -- ./inp_files/616204.got.cif
#   From: 2010.05.17/outbox.cif.g08.bks.cpg/sg2_309_cif.got.tgz:616204.got - 2010.06.03 11:33:40.
