data_PCOD9037409
_publ_section_title
;
Structure prediction by ZEFSAII (Michael W. Deem and Ramdas Pophale) SiO2 
 PCOD9037409
Probable space group: P -1
;
_chemical_formula_sum "Si O2"
_cell_formula_units_Z 14
_cell_length_a 10.860395
_cell_length_b 9.592663
_cell_length_c 14.064101
_cell_angle_alpha 64.699579
_cell_angle_beta 121.185369
_cell_angle_gamma 64.208073
_cell_volume 599.385049
_symmetry_space_group_name_H-M "P -1"
_symmetry_group_IT_number 2
_symmetry_cell_setting 'triclinic'
loop_
_space_group_symop_operation_xyz
x,y,z
-x,-y,-z
loop_
_atom_site_type_symbol
_atom_site_label
_atom_site_fract_x
_atom_site_fract_y
_atom_site_fract_z
Si Si1 0.481307 0.158015 0.671871
Si Si2 0.263840 0.243020 0.760960
Si Si3 0.255876 0.918383 0.769759
Si Si4 0.795500 0.866080 0.495394
Si Si5 0.258573 0.620973 0.320858
Si Si6 0.132164 0.700527 0.832971
Si Si7 0.067343 0.784201 0.996662
O O1 0.380043 0.224881 0.719795
O O2 0.466764 0.003547 0.660977
O O3 0.285033 0.443332 0.445153
O O4 0.780351 0.960834 0.852439
O O5 0.033648 0.547199 0.634496
O O6 0.178524 0.150559 0.718026
O O7 0.500000 0.000000 0.000000
O O8 0.091155 0.920738 0.737784
O O9 0.225303 0.967588 0.630035
O O10 0.576874 0.600926 0.010808
O O11 0.894763 0.822600 0.651272
O O12 0.500000 0.500000 0.500000
O O13 0.998673 0.972276 0.114173
O O14 0.274154 0.572130 0.228358
O O15 0.154426 0.647706 0.968340
#
# Coordination Sequence:
#
# PCOD9037409 Si02
#       7
#     2   2   2   2   2   2   2
#     4  10  23  40  66  97 128 173 225 273 326 388
#     4  11  23  42  71  95 130 172 226 282 325 387
#     4  10  23  42  62  99 130 174 223 269 336 390
#     4  11  24  43  66  97 132 175 221 276 328 397
#     4   9  21  42  62  97 129 172 221 263 326 391
#     4  11  24  42  65  96 139 174 214 275 332 397
#     4  10  23  40  66  96 135 174 215 276 323 398
#
# _framework density 23.357272999999999
#
# number of rings (size 3 to 8) (size 9 to 14) (size 15 to 20)
#    0.000    1.714    1.429    2.143    6.000    5.143 
#    0.000    5.000    0.000    0.000    0.000    0.000 
#    0.000    0.000    0.000    0.000    0.000    0.000 
#
# Total GULP energy -78226.013974 kJ/mol
# GULP energy per Si atom -5587.572427 kJ/mol
# Density = 2.330411 g / cm^3
# Si number density = 23.357273 Si / 1000 Ang^3
#
#
#
# Elastic Constant Matrix: (Units=GPa)
#
#
# Indices 1 2 3 4 5 6 
#
# 1 112.9711 50.9562 37.7843 13.6634 -24.2489 10.9877
# 2 50.9562 83.4197 34.4041 29.5091 -7.2851 -0.8414
# 3 37.7843 34.4041 127.8183 34.6422 -30.3947 -1.7146
# 4 13.6634 29.5091 34.6422 52.8068 -5.1351 -8.4253
# 5 -24.2489 -7.2851 -30.3947 -5.1351 43.7412 3.9582
# 6 10.9877 -0.8414 -1.7146 -8.4253 3.9582 20.8506
#
#
#
# Elastic Compliance Matrix: (Units=1/GPa)
#
#
# Indices 1 2 3 4 5 6 
#
# 1 0.015632 -0.008887 -0.000684 0.000538 0.007669 -0.009891
# 2 -0.008887 0.020638 -0.001600 -0.008102 -0.003809 0.002834
# 3 -0.000684 -0.001600 0.011848 -0.006441 0.007073 -0.002675
# 4 0.000538 -0.008102 -0.006441 0.029031 -0.003131 0.011185
# 5 0.007669 -0.003809 0.007073 -0.003131 0.032018 -0.010957
# 6 -0.009891 0.002834 -0.002675 0.011185 -0.010957 0.059667
#
#
# Mechanical properties :
#
#
# Convention : Reuss Voigt Hill
#
# Bulk Modulus (GPa) = 38.79367 63.38872 51.09119
# Shear Modulus (GPa) = 25.02921 36.88403 30.95662
#
# Velocity S-wave (km/s) = 3.27705 3.97813 3.64449
# Velocity P-wave (km/s) = 5.56450 6.94970 6.29532
#
# Compressibility (1/GPa) = 0.02577740
#
# Stress axis : x y z
#
# Youngs Moduli (GPa) = 63.97082 48.45462 84.40219
#
# Poissons Ratio (x) = 0.43061 0.05770
# Poissons Ratio (y) = 0.56851 0.13501
# Poissons Ratio (z) = 0.04374 0.07751
#
# Static dielectric constant tensor:
#      x y z
#    x 1.903340 -0.005970 -0.003500 
#    y -0.005970 1.937550 -0.032430 
#    z -0.003500 -0.032430 1.910170 
# 
# From -- ./inp_files/514216.got.cif
#   From: 2010.05.17/outbox.cif.g08.bks.cpg/sg2_258_cif.got.tgz:514216.got - 2010.06.03 11:33:40.
