data_PCOD9037330
_publ_section_title
;
Structure prediction by ZEFSAII (Michael W. Deem and Ramdas Pophale) SiO2 
 PCOD9037330
Probable space group: P -1
;
_chemical_formula_sum "Si O2"
_cell_formula_units_Z 16
_cell_length_a 13.272782
_cell_length_b 29.824912
_cell_length_c 19.162606
_cell_angle_alpha 160.826273
_cell_angle_beta 161.556186
_cell_angle_gamma 28.189220
_cell_volume 780.375684
_symmetry_space_group_name_H-M "P -1"
_symmetry_group_IT_number 2
_symmetry_cell_setting 'triclinic'
loop_
_space_group_symop_operation_xyz
x,y,z
-x,-y,-z
loop_
_atom_site_type_symbol
_atom_site_label
_atom_site_fract_x
_atom_site_fract_y
_atom_site_fract_z
Si Si1 0.301883 0.127875 0.336448
Si Si2 0.869357 0.645909 0.634211
Si Si3 0.617352 0.409183 0.650711
Si Si4 0.332468 0.534849 0.512291
Si Si5 0.097319 0.301005 0.714375
Si Si6 0.309623 0.852170 0.138303
Si Si7 0.370583 0.611060 0.129278
Si Si8 0.162156 0.821282 0.779525
O O1 0.585544 0.243825 0.669267
O O2 0.174406 0.162014 0.379021
O O3 0.985291 0.136262 0.091579
O O4 0.368533 0.971257 0.144319
O O5 0.691561 0.657819 0.608176
O O6 0.599482 0.638334 0.386224
O O7 0.000000 0.500000 0.500000
O O8 0.144848 0.768449 0.973450
O O9 0.516226 0.485280 0.626648
O O10 0.863864 0.309202 0.639250
O O11 0.794320 0.539187 0.001910
O O12 0.500000 0.500000 0.500000
O O13 0.300783 0.696041 0.723741
O O14 0.979042 0.450498 0.165299
O O15 0.420594 0.234732 0.841273
O O16 0.906554 0.220082 0.406516
O O17 0.500000 0.000000 0.500000
O O18 0.500000 0.500000 0.000000
#
# Coordination Sequence:
#
# PCOD9037330 Si02
#       8
#     2   2   2   2   2   2   2   2
#     4  10  23  40  65  95 129 163 213 263 325 378
#     4  11  23  39  64  95 127 163 213 268 314 375
#     4  11  24  40  62  99 128 168 213 266 323 377
#     4  12  24  40  66  94 128 171 214 261 318 380
#     4  11  22  38  67  92 131 161 213 263 323 376
#     4  11  22  41  67  96 125 166 209 264 320 383
#     4  11  23  40  63  93 127 163 213 268 315 372
#     4  11  21  40  64  95 125 168 210 262 320 378
#
# _framework density 20.502946000000001
#
# number of rings (size 3 to 8) (size 9 to 14) (size 15 to 20)
#    0.000    1.000    5.000    2.250    1.750    1.000 
#    0.000    1.250    0.000    0.000    0.000    0.000 
#    0.000    0.000    0.000    0.000    0.000    0.000 
#
# Total GULP energy -89444.610005 kJ/mol
# GULP energy per Si atom -5590.288125 kJ/mol
# Density = 2.045628 g / cm^3
# Si number density = 20.502946 Si / 1000 Ang^3
#
#
#
# Elastic Constant Matrix: (Units=GPa)
#
#
# Indices 1 2 3 4 5 6 
#
# 1 128.8085 46.8998 59.3882 17.3358 26.5629 -22.7605
# 2 46.8998 94.8262 55.2911 17.0288 22.5232 -14.4005
# 3 59.3882 55.2911 104.3952 20.8723 28.3900 -14.9643
# 4 17.3358 17.0288 20.8723 37.0030 3.9270 0.4618
# 5 26.5629 22.5232 28.3900 3.9270 41.8636 -0.3679
# 6 -22.7605 -14.4005 -14.9643 0.4618 -0.3679 34.9554
#
#
#
# Elastic Compliance Matrix: (Units=1/GPa)
#
#
# Indices 1 2 3 4 5 6 
#
# 1 0.012247 -0.001613 -0.003653 -0.002568 -0.004135 0.005736
# 2 -0.001613 0.016695 -0.005772 -0.003321 -0.003704 0.003362
# 3 -0.003653 -0.005772 0.017812 -0.005062 -0.006156 0.002871
# 4 -0.002568 -0.003321 -0.005062 0.032281 0.003771 -0.005594
# 5 -0.004135 -0.003704 -0.006156 0.003771 0.032266 -0.006564
# 6 0.005736 0.003362 0.002871 -0.005594 -0.006564 0.034962
#
#
# Mechanical properties :
#
#
# Convention : Reuss Voigt Hill
#
# Bulk Modulus (GPa) = 40.52058 72.35423 56.43741
# Shear Modulus (GPa) = 28.31841 33.86111 31.08976
#
# Velocity S-wave (km/s) = 3.72046 4.06830 3.89827
# Velocity P-wave (km/s) = 6.18563 7.57855 6.91724
#
# Compressibility (1/GPa) = 0.02467882
#
# Stress axis : x y z
#
# Youngs Moduli (GPa) = 81.65528 59.89697 56.14340
#
# Poissons Ratio (x) = 0.09662 0.20506
# Poissons Ratio (y) = 0.13171 0.32405
# Poissons Ratio (z) = 0.29825 0.34571
#
# Static dielectric constant tensor:
#      x y z
#    x 1.752410 0.027650 -0.019350 
#    y 0.027650 1.733560 -0.008800 
#    z -0.019350 -0.008800 1.746750 
# 
# From -- ./inp_files/321058.got.cif
#   From: 2010.05.17/outbox.cif.g08.bks.cpg/sg2_161_cif.got.tgz:321058.got - 2010.06.03 11:33:40.
