data_PCOD9037065
_publ_section_title
;
Structure prediction by ZEFSAII (Michael W. Deem and Ramdas Pophale) SiO2 
 PCOD9037065
Probable space group: P -1
;
_chemical_formula_sum "Si O2"
_cell_formula_units_Z 14
_cell_length_a 15.301775
_cell_length_b 12.684429
_cell_length_c 9.006337
_cell_angle_alpha 123.286205
_cell_angle_beta 123.941529
_cell_angle_gamma 26.869433
_cell_volume 649.406834
_symmetry_space_group_name_H-M "P -1"
_symmetry_group_IT_number 2
_symmetry_cell_setting 'triclinic'
loop_
_space_group_symop_operation_xyz
x,y,z
-x,-y,-z
loop_
_atom_site_type_symbol
_atom_site_label
_atom_site_fract_x
_atom_site_fract_y
_atom_site_fract_z
Si Si1 0.231321 0.639625 0.341408
Si Si2 0.533173 0.421116 0.667608
Si Si3 0.083239 0.318809 0.317232
Si Si4 0.335157 0.100634 0.119173
Si Si5 0.201205 0.965021 0.808189
Si Si6 0.254547 0.362710 0.990560
Si Si7 0.853223 0.028956 0.892669
O O1 0.390027 0.463241 0.487941
O O2 0.290761 0.711582 0.375973
O O3 0.265675 0.499091 0.140910
O O4 0.001734 0.860916 0.334631
O O5 0.385359 0.688746 0.741332
O O6 0.643317 0.273377 0.807942
O O7 0.284196 0.146206 0.281533
O O8 0.000000 0.500000 0.500000
O O9 0.936065 0.472370 0.157206
O O10 0.085340 0.172008 0.266206
O O11 0.565342 0.866063 0.116075
O O12 0.250940 0.302469 0.102271
O O13 0.255475 0.056357 0.924208
O O14 0.160016 0.981468 0.954141
O O15 0.000000 0.000000 0.000000
#
# Coordination Sequence:
#
# PCOD9037065 Si02
#       7
#     2   2   2   2   2   2   2
#     4  11  22  39  65  94 133 168 220 282 322 394
#     4  11  23  40  62  99 131 166 223 274 326 394
#     4  11  25  45  67  98 137 172 226 281 330 402
#     4  10  23  39  72  94 126 179 223 271 341 395
#     4  11  21  41  66  94 129 173 220 271 339 389
#     4  11  21  44  68  93 133 179 223 273 336 401
#     4  11  22  43  67  92 134 178 216 265 344 395
#
# _framework density 21.558136000000001
#
# number of rings (size 3 to 8) (size 9 to 14) (size 15 to 20)
#    0.000    1.143    5.714    1.286    0.000    2.857 
#    2.571    0.000    0.000    0.000    0.000    0.000 
#    0.000    0.000    0.000    0.000    0.000    0.000 
#
# Total GULP energy -78065.716515 kJ/mol
# GULP energy per Si atom -5576.122608 kJ/mol
# Density = 2.150907 g / cm^3
# Si number density = 21.558136 Si / 1000 Ang^3
#
#
#
# Elastic Constant Matrix: (Units=GPa)
#
#
# Indices 1 2 3 4 5 6 
#
# 1 65.2267 15.5697 3.4278 4.7755 0.5305 2.4381
# 2 15.5697 95.0547 21.0283 -2.3890 0.3659 -3.1347
# 3 3.4278 21.0283 82.8361 14.3144 1.1508 4.3316
# 4 4.7755 -2.3890 14.3144 46.1343 -2.2099 2.5940
# 5 0.5305 0.3659 1.1508 -2.2099 14.4391 0.4355
# 6 2.4381 -3.1347 4.3316 2.5940 0.4355 24.1260
#
#
#
# Elastic Compliance Matrix: (Units=1/GPa)
#
#
# Indices 1 2 3 4 5 6 
#
# 1 0.016207 -0.002872 0.000499 -0.001914 -0.000799 -0.001880
# 2 -0.002872 0.011844 -0.003324 0.001831 0.000283 0.002224
# 3 0.000499 -0.003324 0.013816 -0.004451 -0.001642 -0.002455
# 4 -0.001914 0.001831 -0.004451 0.023621 0.004035 -0.001382
# 5 -0.000799 0.000283 -0.001642 0.004035 0.070066 -0.001286
# 6 -0.001880 0.002224 -0.002455 -0.001382 -0.001286 0.042541
#
#
# Mechanical properties :
#
#
# Convention : Reuss Voigt Hill
#
# Bulk Modulus (GPa) = 32.81761 35.90766 34.36264
# Shear Modulus (GPa) = 25.04405 30.47931 27.76168
#
# Velocity S-wave (km/s) = 3.41207 3.76416 3.59243
# Velocity P-wave (km/s) = 5.54787 5.96525 5.76034
#
# Compressibility (1/GPa) = 0.03047144
#
# Stress axis : x y z
#
# Youngs Moduli (GPa) = 61.70019 84.42794 72.38155
#
# Poissons Ratio (x) = 0.24248 -0.03608
# Poissons Ratio (y) = 0.17721 0.24063
# Poissons Ratio (z) = -0.03076 0.28068
#
# Static dielectric constant tensor:
#      x y z
#    x 1.825090 -0.035540 0.040280 
#    y -0.035540 1.822200 0.038280 
#    z 0.040280 0.038280 1.845960 
# 
# From -- ./inp_files/305776.got.cif
#   From: 2010.05.17/outbox.cif.g08.bks.cpg/sg2_153_cif.got.tgz:305776.got - 2010.06.03 11:33:40.
