data_PCOD9037308
_publ_section_title
;
Structure prediction by ZEFSAII (Michael W. Deem and Ramdas Pophale) SiO2 
 PCOD9037308
Probable space group: P -1
;
_chemical_formula_sum "Si O2"
_cell_formula_units_Z 16
_cell_length_a 15.326655
_cell_length_b 9.394869
_cell_length_c 9.600942
_cell_angle_alpha 93.322147
_cell_angle_beta 65.838276
_cell_angle_gamma 40.780293
_cell_volume 648.136049
_symmetry_space_group_name_H-M "P -1"
_symmetry_group_IT_number 2
_symmetry_cell_setting 'triclinic'
loop_
_space_group_symop_operation_xyz
x,y,z
-x,-y,-z
loop_
_atom_site_type_symbol
_atom_site_label
_atom_site_fract_x
_atom_site_fract_y
_atom_site_fract_z
Si Si1 0.084817 0.754238 0.994675
Si Si2 0.524362 0.593769 0.871568
Si Si3 0.884986 0.757464 0.197111
Si Si4 0.273538 0.182184 0.051226
Si Si5 0.297022 0.885076 0.415824
Si Si6 0.367366 0.109493 0.294445
Si Si7 0.911614 0.237725 0.667303
Si Si8 0.712737 0.695290 0.348197
O O1 0.944872 0.802862 0.056785
O O2 0.252863 0.492100 0.770298
O O3 0.097474 0.754610 0.154594
O O4 0.000000 0.000000 0.000000
O O5 0.589323 0.405977 0.693947
O O6 0.693331 0.489044 0.786521
O O7 0.500000 0.500000 0.000000
O O8 0.347309 0.923946 0.985834
O O9 0.801459 0.714762 0.209305
O O10 0.068103 0.476775 0.148265
O O11 0.729011 0.034313 0.405113
O O12 0.273276 0.240536 0.212961
O O13 0.431880 0.073512 0.864053
O O14 0.380507 0.921373 0.295371
O O15 0.081798 0.133048 0.522395
O O16 0.250747 0.331295 0.510275
O O17 0.000000 0.000000 0.500000
O O18 0.500000 0.000000 0.500000
#
# Coordination Sequence:
#
# PCOD9037308 Si02
#       8
#     2   2   2   2   2   2   2   2
#     4  11  25  47  72 103 140 187 238 289 356 416
#     4  11  22  39  63 101 140 181 231 291 358 406
#     4  10  24  46  69 101 140 183 237 288 354 424
#     4  11  24  41  69 102 147 182 233 299 357 414
#     4   9  20  40  63  97 138 177 232 287 348 406
#     4  10  23  40  65 104 139 182 235 284 359 412
#     4   9  22  42  68 100 143 180 233 296 350 414
#     4  11  25  45  72  98 143 190 238 282 353 430
#
# _framework density 24.686176
#
# number of rings (size 3 to 8) (size 9 to 14) (size 15 to 20)
#    0.000    1.750    1.250    1.125    8.750    6.000 
#    2.250    0.625    0.000    0.000    0.000    0.000 
#    0.000    0.000    0.000    0.000    0.000    0.000 
#
# Total GULP energy -89168.992104 kJ/mol
# GULP energy per Si atom -5573.062006 kJ/mol
# Density = 2.462999 g / cm^3
# Si number density = 24.686176 Si / 1000 Ang^3
#
#
#
# Elastic Constant Matrix: (Units=GPa)
#
#
# Indices 1 2 3 4 5 6 
#
# 1 109.1860 41.9294 40.6630 8.3884 12.8560 7.2422
# 2 41.9294 125.5491 56.1648 26.6075 0.9410 32.1611
# 3 40.6630 56.1648 135.5117 23.5616 40.9207 6.3993
# 4 8.3884 26.6075 23.5616 44.7480 13.7576 5.8774
# 5 12.8560 0.9410 40.9207 13.7576 58.2594 2.6265
# 6 7.2422 32.1611 6.3993 5.8774 2.6265 36.6479
#
#
#
# Elastic Compliance Matrix: (Units=1/GPa)
#
#
# Indices 1 2 3 4 5 6 
#
# 1 0.011145 -0.003481 -0.001695 0.001209 -0.001546 0.001066
# 2 -0.003481 0.016170 -0.006046 -0.006297 0.006778 -0.011923
# 3 -0.001695 -0.006046 0.012939 -0.000793 -0.008615 0.004126
# 4 0.001209 -0.006297 -0.000793 0.028035 -0.006291 0.001380
# 5 -0.001546 0.006778 -0.008615 -0.006291 0.025155 -0.004933
# 6 0.001066 -0.011923 0.004126 0.001380 -0.004933 0.036951
#
#
# Mechanical properties :
#
#
# Convention : Reuss Voigt Hill
#
# Bulk Modulus (GPa) = 56.15287 71.97346 64.06317
# Shear Modulus (GPa) = 31.49052 43.36371 37.42711
#
# Velocity S-wave (km/s) = 3.57548 4.19573 3.89796
# Velocity P-wave (km/s) = 6.31201 7.25884 6.80192
#
# Compressibility (1/GPa) = 0.01780853
#
# Stress axis : x y z
#
# Youngs Moduli (GPa) = 89.72311 61.84105 77.28803
#
# Poissons Ratio (x) = 0.21530 0.13101
# Poissons Ratio (y) = 0.31237 0.46732
# Poissons Ratio (z) = 0.15209 0.37392
#
# Static dielectric constant tensor:
#      x y z
#    x 1.999680 0.157120 0.205370 
#    y 0.157120 1.524360 -0.300130 
#    z 0.205370 -0.300130 2.018490 
# 
# From -- ./inp_files/457109.got.cif
#   From: 2010.05.17/outbox.cif.g08.bks.cpg/sg2_229_cif.got.tgz:457109.got - 2010.06.03 11:33:40.
