data_PCOD9037705
_publ_section_title
;
Structure prediction by ZEFSAII (Michael W. Deem and Ramdas Pophale) SiO2 
 PCOD9037705
Probable space group: P -1
;
_chemical_formula_sum "Si O2"
_cell_formula_units_Z 16
_cell_length_a 5.433935
_cell_length_b 23.530419
_cell_length_c 28.997348
_cell_angle_alpha 170.202591
_cell_angle_beta 95.055354
_cell_angle_gamma 85.773423
_cell_volume 626.574127
_symmetry_space_group_name_H-M "P -1"
_symmetry_group_IT_number 2
_symmetry_cell_setting 'triclinic'
loop_
_space_group_symop_operation_xyz
x,y,z
-x,-y,-z
loop_
_atom_site_type_symbol
_atom_site_label
_atom_site_fract_x
_atom_site_fract_y
_atom_site_fract_z
Si Si1 0.735269 0.305147 0.830189
Si Si2 0.471525 0.683868 0.779922
Si Si3 0.813659 0.467979 0.860229
Si Si4 0.630645 0.201683 0.457673
Si Si5 0.491600 0.370212 0.688533
Si Si6 0.728070 0.770435 0.732580
Si Si7 0.186777 0.832931 0.106683
Si Si8 0.024321 0.297286 0.411786
O O1 0.708621 0.948256 0.569280
O O2 0.500000 0.500000 0.000000
O O3 0.741143 0.273396 0.749558
O O4 0.000000 0.500000 0.000000
O O5 0.691569 0.485871 0.647060
O O6 0.281011 0.443287 0.555296
O O7 0.500000 0.000000 0.000000
O O8 0.356221 0.865472 0.967017
O O9 0.092269 0.521847 0.888683
O O10 0.760832 0.857142 0.181463
O O11 0.662437 0.323092 0.698108
O O12 0.636535 0.356189 0.631954
O O13 0.347442 0.080807 0.341455
O O14 0.358917 0.701503 0.964034
O O15 0.500000 0.500000 0.500000
O O16 0.919532 0.809105 0.724436
O O17 0.852108 0.598573 0.641207
O O18 0.964859 0.991241 0.201210
#
# Coordination Sequence:
#
# PCOD9037705 Si02
#       8
#     2   2   2   2   2   2   2   2
#     4  12  27  48  80 109 152 193 238 293 359 432
#     4  11  22  39  64  92 128 179 224 282 352 414
#     4  11  25  44  71 105 138 184 233 287 357 419
#     4  10  23  44  64  95 140 177 232 290 350 426
#     4  11  24  45  72 102 141 180 236 282 357 421
#     4  11  22  39  61  87 126 167 226 284 347 413
#     4  10  24  41  67  96 134 181 227 292 347 423
#     4  10  23  41  60  92 129 170 226 285 348 413
#
# _framework density 25.535682999999999
#
# number of rings (size 3 to 8) (size 9 to 14) (size 15 to 20)
#    0.000    1.250    2.500    2.250    5.250    3.500 
#    0.000    0.000    0.000    0.000    0.000    0.000 
#    0.000    0.000    0.000    0.000    0.000    0.000 
#
# Total GULP energy -89430.705318 kJ/mol
# GULP energy per Si atom -5589.419082 kJ/mol
# Density = 2.547756 g / cm^3
# Si number density = 25.535683 Si / 1000 Ang^3
#
#
#
# Elastic Constant Matrix: (Units=GPa)
#
#
# Indices 1 2 3 4 5 6 
#
# 1 44.5075 11.9970 0.4672 -8.9940 -0.0440 2.6113
# 2 11.9970 142.0346 21.6021 -5.3788 -1.8153 10.2409
# 3 0.4672 21.6021 87.5746 -12.0049 -14.3963 2.9676
# 4 -8.9940 -5.3788 -12.0049 42.1566 4.6934 -0.2216
# 5 -0.0440 -1.8153 -14.3963 4.6934 36.0609 -1.1902
# 6 2.6113 10.2409 2.9676 -0.2216 -1.1902 36.0605
#
#
#
# Elastic Compliance Matrix: (Units=1/GPa)
#
#
# Indices 1 2 3 4 5 6 
#
# 1 0.024103 -0.001909 0.001041 0.005230 -0.000374 -0.001269
# 2 -0.001909 0.007619 -0.001867 0.000072 -0.000436 -0.001886
# 3 0.001041 -0.001867 0.013100 0.003188 0.004707 -0.000448
# 4 0.005230 0.000072 0.003188 0.025987 -0.002118 -0.000572
# 5 -0.000374 -0.000436 0.004707 -0.002118 0.029888 0.000737
# 6 -0.001269 -0.001886 -0.000448 -0.000572 0.000737 0.028416
#
#
# Mechanical properties :
#
#
# Convention : Reuss Voigt Hill
#
# Bulk Modulus (GPa) = 25.41264 38.02769 31.72016
# Shear Modulus (GPa) = 33.85234 38.85896 36.35565
#
# Velocity S-wave (km/s) = 3.64495 3.90520 3.77731
# Velocity P-wave (km/s) = 5.26190 5.93788 5.61008
#
# Compressibility (1/GPa) = 0.03935050
#
# Stress axis : x y z
#
# Youngs Moduli (GPa) = 41.48886 131.25271 76.33679
#
# Poissons Ratio (x) = 0.25061 -0.07946
# Poissons Ratio (y) = 0.07922 0.14253
# Poissons Ratio (z) = -0.04319 0.24506
#
# Static dielectric constant tensor:
#      x y z
#    x 2.065050 0.024950 -0.036040 
#    y 0.024950 2.052760 0.143720 
#    z -0.036040 0.143720 2.368990 
# 
# From -- ./inp_files/141323.got.cif
#   From: 2010.05.17/outbox.cif.g08.bks.cpg/sg2_71_cif.got.tgz:141323.got - 2010.06.03 11:33:40.
