data_PCOD9037245
_publ_section_title
;
Structure prediction by ZEFSAII (Michael W. Deem and Ramdas Pophale) SiO2 
 PCOD9037245
Probable space group: P -1
;
_chemical_formula_sum "Si O2"
_cell_formula_units_Z 16
_cell_length_a 12.848091
_cell_length_b 8.442572
_cell_length_c 11.365093
_cell_angle_alpha 75.032736
_cell_angle_beta 135.044376
_cell_angle_gamma 121.782243
_cell_volume 726.860112
_symmetry_space_group_name_H-M "P -1"
_symmetry_group_IT_number 2
_symmetry_cell_setting 'triclinic'
loop_
_space_group_symop_operation_xyz
x,y,z
-x,-y,-z
loop_
_atom_site_type_symbol
_atom_site_label
_atom_site_fract_x
_atom_site_fract_y
_atom_site_fract_z
Si Si1 0.052313 0.424417 0.706340
Si Si2 0.922378 0.127666 0.873499
Si Si3 0.546790 0.838392 0.550278
Si Si4 0.598863 0.766645 0.346214
Si Si5 0.041278 0.940453 0.420113
Si Si6 0.762883 0.508995 0.520958
Si Si7 0.647768 0.204553 0.034094
Si Si8 0.044311 0.794147 0.852626
O O1 0.014418 0.298144 0.820818
O O2 0.050153 0.281162 0.635182
O O3 0.894015 0.464230 0.564094
O O4 0.232287 0.619925 0.817901
O O5 0.744520 0.961978 0.713426
O O6 0.915801 0.212202 0.978244
O O7 0.000000 0.000000 0.000000
O O8 0.529322 0.739656 0.428845
O O9 0.415919 0.677765 0.563132
O O10 0.500000 0.000000 0.500000
O O11 0.697229 0.655183 0.409355
O O12 0.450419 0.729605 0.145881
O O13 0.756589 0.982710 0.431954
O O14 0.000000 0.000000 0.500000
O O15 0.991925 0.041959 0.257706
O O16 0.876508 0.603196 0.711804
O O17 0.790182 0.175708 0.089147
O O18 0.500000 0.000000 0.000000
#
# Coordination Sequence:
#
# PCOD9037245 Si02
#       8
#     2   2   2   2   2   2   2   2
#     4  11  24  45  70 103 139 184 234 283 360 414
#     4  12  22  39  69 105 144 172 227 289 350 425
#     4  12  22  39  63 101 144 178 222 279 349 419
#     4  11  23  42  65  98 135 179 233 284 342 404
#     4  11  22  46  71  96 134 184 237 287 339 414
#     4  10  23  40  64 101 139 181 222 273 351 425
#     4  11  26  46  68 100 140 185 239 289 339 410
#     4  10  23  42  67  99 138 182 226 283 353 408
#
# _framework density 22.012488999999999
#
# number of rings (size 3 to 8) (size 9 to 14) (size 15 to 20)
#    0.000    1.000    3.750    2.625    3.500    1.000 
#    0.000   17.500    0.000    0.000    0.000    0.000 
#    0.000    0.000    0.000    0.000    0.000    0.000 
#
# Total GULP energy -89253.836348 kJ/mol
# GULP energy per Si atom -5578.364772 kJ/mol
# Density = 2.196239 g / cm^3
# Si number density = 22.012489 Si / 1000 Ang^3
#
#
#
# Elastic Constant Matrix: (Units=GPa)
#
#
# Indices 1 2 3 4 5 6 
#
# 1 76.2232 23.4127 43.0212 1.2124 2.6645 -20.0984
# 2 23.4127 120.7824 38.6570 14.7245 -0.2669 -3.6645
# 3 43.0212 38.6570 88.2343 1.4149 12.4005 -5.7828
# 4 1.2124 14.7245 1.4149 40.3351 -0.6820 5.4706
# 5 2.6645 -0.2669 12.4005 -0.6820 43.5874 1.1534
# 6 -20.0984 -3.6645 -5.7828 5.4706 1.1534 43.3312
#
#
#
# Elastic Compliance Matrix: (Units=1/GPa)
#
#
# Indices 1 2 3 4 5 6 
#
# 1 0.020889 -0.000597 -0.009514 -0.001208 0.001183 0.008490
# 2 -0.000597 0.010218 -0.004275 -0.003601 0.001247 0.000438
# 3 -0.009514 -0.004275 0.018307 0.001452 -0.004567 -0.002393
# 4 -0.001208 -0.003601 0.001452 0.026643 0.000163 -0.004039
# 5 0.001183 0.001247 -0.004567 0.000163 0.024196 -0.000620
# 6 0.008490 0.000438 -0.002393 -0.004039 -0.000620 0.027260
#
#
# Mechanical properties :
#
#
# Convention : Reuss Voigt Hill
#
# Bulk Modulus (GPa) = 48.44218 55.04686 51.74452
# Shear Modulus (GPa) = 30.64400 37.46067 34.05233
#
# Velocity S-wave (km/s) = 3.73516 4.12975 3.93740
# Velocity P-wave (km/s) = 6.37623 6.91384 6.65047
#
# Compressibility (1/GPa) = 0.02064317
#
# Stress axis : x y z
#
# Youngs Moduli (GPa) = 47.87232 97.86519 54.62467
#
# Poissons Ratio (x) = 0.05840 0.51970
# Poissons Ratio (y) = 0.02857 0.23350
# Poissons Ratio (z) = 0.45546 0.41834
#
# Static dielectric constant tensor:
#      x y z
#    x 1.861850 0.030050 -0.060320 
#    y 0.030050 1.801430 -0.008320 
#    z -0.060320 -0.008320 1.775860 
# 
# From -- ./inp_files/447245.got.cif
#   From: 2010.05.17/outbox.cif.g08.bks.cpg/sg2_224_cif.got.tgz:447245.got - 2010.06.03 11:33:40.
