data_PCOD9037255
_publ_section_title
;
Structure prediction by ZEFSAII (Michael W. Deem and Ramdas Pophale) SiO2 
 PCOD9037255
Probable space group: P -1
;
_chemical_formula_sum "Si O2"
_cell_formula_units_Z 16
_cell_length_a 19.240818
_cell_length_b 6.942204
_cell_length_c 9.554380
_cell_angle_alpha 48.934897
_cell_angle_beta 129.777797
_cell_angle_gamma 108.566507
_cell_volume 727.971358
_symmetry_space_group_name_H-M "P -1"
_symmetry_group_IT_number 2
_symmetry_cell_setting 'triclinic'
loop_
_space_group_symop_operation_xyz
x,y,z
-x,-y,-z
loop_
_atom_site_type_symbol
_atom_site_label
_atom_site_fract_x
_atom_site_fract_y
_atom_site_fract_z
Si Si1 0.693340 0.485992 0.632952
Si Si2 0.999782 0.738155 0.209862
Si Si3 0.853069 0.440732 0.070984
Si Si4 0.038561 0.315040 0.265660
Si Si5 0.371830 0.061824 0.175482
Si Si6 0.412154 0.036585 0.561794
Si Si7 0.150075 0.821471 0.544320
Si Si8 0.695323 0.423224 0.334182
O O1 0.700524 0.489727 0.472777
O O2 0.622611 0.731543 0.485293
O O3 0.667134 0.204960 0.770619
O O4 0.787337 0.501567 0.827487
O O5 0.899015 0.671915 0.086375
O O6 0.064112 0.498143 0.331998
O O7 0.048058 0.757351 0.410587
O O8 0.000000 0.000000 0.000000
O O9 0.804858 0.330531 0.191177
O O10 0.943831 0.234395 0.239290
O O11 0.122766 0.114618 0.416100
O O12 0.000000 0.500000 0.000000
O O13 0.478662 0.007224 0.294821
O O14 0.368839 0.111253 0.315967
O O15 0.324321 0.312594 0.907581
O O16 0.380640 0.764655 0.691006
O O17 0.213179 0.755445 0.523978
#
# Coordination Sequence:
#
# PCOD9037255 Si02
#       8
#     2   2   2   2   2   2   2   2
#     4  11  25  45  69 107 140 183 229 285 344 413
#     4  10  23  40  64  89 123 174 224 278 330 393
#     4  10  25  43  65  93 136 176 227 279 342 399
#     4  10  23  41  64  91 124 176 223 278 336 398
#     4  10  23  49  69 110 137 185 223 283 349 415
#     4  10  23  45  79  99 145 178 228 282 348 413
#     4  12  23  44  65  95 133 182 228 282 341 400
#     4  11  27  41  72 105 142 179 235 282 340 415
#
# _framework density 21.978885999999999
#
# number of rings (size 3 to 8) (size 9 to 14) (size 15 to 20)
#    0.750    0.750    1.250    2.250    5.250    3.500 
#    4.500    0.000    0.000    0.000    0.000    0.000 
#    0.000    0.000    0.000    0.000    0.000    0.000 
#
# Total GULP energy -89301.428930 kJ/mol
# GULP energy per Si atom -5581.339308 kJ/mol
# Density = 2.192886 g / cm^3
# Si number density = 21.978886 Si / 1000 Ang^3
#
#
#
# Elastic Constant Matrix: (Units=GPa)
#
#
# Indices 1 2 3 4 5 6 
#
# 1 76.3055 38.6632 10.7353 -2.1517 -4.6988 -16.6688
# 2 38.6632 107.3316 27.6421 -10.2363 -5.9698 -19.2857
# 3 10.7353 27.6421 71.8909 -9.3491 -11.3059 -3.0468
# 4 -2.1517 -10.2363 -9.3491 29.4597 -0.7938 4.5961
# 5 -4.6988 -5.9698 -11.3059 -0.7938 29.4647 -0.4856
# 6 -16.6688 -19.2857 -3.0468 4.5961 -0.4856 46.6822
#
#
#
# Elastic Compliance Matrix: (Units=1/GPa)
#
#
# Indices 1 2 3 4 5 6 
#
# 1 0.016737 -0.005305 -0.000215 -0.001258 0.001542 0.003910
# 2 -0.005305 0.012975 -0.003667 0.002505 0.000492 0.002985
# 3 -0.000215 -0.003667 0.016785 0.004327 0.005766 -0.000862
# 4 -0.001258 0.002505 0.004327 0.036597 0.002909 -0.002705
# 5 0.001542 0.000492 0.005766 0.002909 0.036596 0.001225
# 6 0.003910 0.002985 -0.000862 -0.002705 0.001225 0.024274
#
#
# Mechanical properties :
#
#
# Convention : Reuss Voigt Hill
#
# Bulk Modulus (GPa) = 35.55786 45.51212 40.53499
# Shear Modulus (GPa) = 29.11859 33.02050 31.06955
#
# Velocity S-wave (km/s) = 3.64379 3.88025 3.76388
# Velocity P-wave (km/s) = 5.82377 6.38962 6.11325
#
# Compressibility (1/GPa) = 0.02812318
#
# Stress axis : x y z
#
# Youngs Moduli (GPa) = 59.74662 77.07084 59.57747
#
# Poissons Ratio (x) = 0.40889 0.01279
# Poissons Ratio (y) = 0.31698 0.21847
# Poissons Ratio (z) = 0.01283 0.28262
#
# Static dielectric constant tensor:
#      x y z
#    x 1.130540 1.422140 0.586470 
#    y 1.422140 -0.711200 -1.133190 
#    z 0.586470 -1.133190 1.318190 
# 
# From -- ./inp_files/340183.got.cif
#   From: 2010.05.17/outbox.cif.g08.bks.cpg/sg2_171_cif.got.tgz:340183.got - 2010.06.03 11:33:40.
