data_PCOD9037398
_publ_section_title
;
Structure prediction by ZEFSAII (Michael W. Deem and Ramdas Pophale) SiO2 
 PCOD9037398
Probable space group: P -1
;
_chemical_formula_sum "Si O2"
_cell_formula_units_Z 15
_cell_length_a 14.016826
_cell_length_b 8.985040
_cell_length_c 12.885330
_cell_angle_alpha 90.819097
_cell_angle_beta 148.560001
_cell_angle_gamma 68.592961
_cell_volume 623.359703
_symmetry_space_group_name_H-M "P -1"
_symmetry_group_IT_number 2
_symmetry_cell_setting 'triclinic'
loop_
_space_group_symop_operation_xyz
x,y,z
-x,-y,-z
loop_
_atom_site_type_symbol
_atom_site_label
_atom_site_fract_x
_atom_site_fract_y
_atom_site_fract_z
Si Si1 0.940428 0.733456 0.310647
Si Si2 0.217365 0.606947 0.262448
Si Si3 0.500000 0.500000 0.000000
Si Si4 0.029761 0.125449 0.455478
Si Si5 0.717409 0.654038 0.489470
Si Si6 0.859686 0.010532 0.064085
Si Si7 0.518522 0.740592 0.849930
Si Si8 0.126811 0.642854 0.947589
O O1 0.903404 0.781525 0.398080
O O2 0.199439 0.502270 0.529537
O O3 0.935818 0.888673 0.242016
O O4 0.727948 0.747697 0.066127
O O5 0.500000 0.500000 0.500000
O O6 0.237994 0.469919 0.367988
O O7 0.098904 0.624590 0.043550
O O8 0.040987 0.832149 0.148063
O O9 0.483821 0.662509 0.920213
O O10 0.245425 0.683258 0.832779
O O11 0.259717 0.965696 0.593452
O O12 0.000000 0.000000 0.500000
O O13 0.913143 0.679647 0.682972
O O14 0.434161 0.860123 0.221429
O O15 0.876773 0.178119 0.067702
O O16 0.614394 0.577786 0.848241
#
# Coordination Sequence:
#
# PCOD9037398 Si02
#       8
#     2   2   1   2   2   2   2   2
#     4  10  24  45  65  96 135 170 219 276 322 395
#     4  11  23  45  67  99 139 173 221 277 327 391
#     4  10  24  42  64 100 126 166 226 258 330 400
#     4  10  23  40  66  95 131 169 214 272 330 384
#     4  10  24  44  67 102 131 178 223 270 331 391
#     4  11  25  44  70  96 136 177 221 269 336 393
#     4  10  24  43  65  97 128 173 220 272 335 381
#     4  11  24  44  68  99 135 176 223 274 330 395
#
# _framework density 24.063153
#
# number of rings (size 3 to 8) (size 9 to 14) (size 15 to 20)
#    0.000    1.600    1.333    1.200    7.467    3.200 
#    9.600    0.000    0.000    0.000    0.000    0.000 
#    0.000    0.000    0.000    0.000    0.000    0.000 
#
# Total GULP energy -83705.864658 kJ/mol
# GULP energy per Si atom -5580.390977 kJ/mol
# Density = 2.400838 g / cm^3
# Si number density = 24.063153 Si / 1000 Ang^3
#
#
#
# Elastic Constant Matrix: (Units=GPa)
#
#
# Indices 1 2 3 4 5 6 
#
# 1 82.0469 55.3467 19.7441 -22.5176 8.5854 -9.2636
# 2 55.3467 118.6768 61.1505 -27.0526 16.2712 -19.6422
# 3 19.7441 61.1505 131.2688 -41.5467 33.2655 -18.6854
# 4 -22.5176 -27.0526 -41.5467 43.3781 -9.9607 11.1920
# 5 8.5854 16.2712 33.2655 -9.9607 44.6212 -5.2789
# 6 -9.2636 -19.6422 -18.6854 11.1920 -5.2789 45.3917
#
#
#
# Elastic Compliance Matrix: (Units=1/GPa)
#
#
# Indices 1 2 3 4 5 6 
#
# 1 0.020012 -0.009562 0.004536 0.008458 -0.001916 -0.000494
# 2 -0.009562 0.016195 -0.006350 -0.001540 0.000667 0.002900
# 3 0.004536 -0.006350 0.015487 0.011277 -0.007479 0.000903
# 4 0.008458 -0.001540 0.011277 0.037935 -0.001457 -0.003821
# 5 -0.001916 0.000667 -0.007479 -0.001457 0.027835 0.000416
# 6 -0.000494 0.002900 0.000903 -0.003821 0.000416 0.024547
#
#
# Mechanical properties :
#
#
# Convention : Reuss Voigt Hill
#
# Bulk Modulus (GPa) = 34.55046 67.16391 50.85718
# Shear Modulus (GPa) = 28.66814 39.72828 34.19821
#
# Velocity S-wave (km/s) = 3.45537 4.06766 3.77395
# Velocity P-wave (km/s) = 5.50535 7.07342 6.33806
#
# Compressibility (1/GPa) = 0.02894318
#
# Stress axis : x y z
#
# Youngs Moduli (GPa) = 49.96898 61.74874 64.57159
#
# Poissons Ratio (x) = 0.59042 -0.29291
# Poissons Ratio (y) = 0.47778 0.41002
# Poissons Ratio (z) = -0.22667 0.39210
#
# Static dielectric constant tensor:
#      x y z
#    x 1.893750 -0.018000 -0.039390 
#    y -0.018000 1.936810 0.051300 
#    z -0.039390 0.051300 1.952690 
# 
# From -- ./inp_files/529813.got.cif
#   From: 2010.05.17/outbox.cif.g08.bks.cpg/sg2_265_cif.got.tgz:529813.got - 2010.06.03 11:33:40.
