data_PCOD9037375
_publ_section_title
;
Structure prediction by ZEFSAII (Michael W. Deem and Ramdas Pophale) SiO2 
 PCOD9037375
Probable space group: P -1
;
_chemical_formula_sum "Si O2"
_cell_formula_units_Z 16
_cell_length_a 11.178275
_cell_length_b 16.062428
_cell_length_c 8.589917
_cell_angle_alpha 52.248103
_cell_angle_beta 130.612066
_cell_angle_gamma 141.032154
_cell_volume 717.886725
_symmetry_space_group_name_H-M "P -1"
_symmetry_group_IT_number 2
_symmetry_cell_setting 'triclinic'
loop_
_space_group_symop_operation_xyz
x,y,z
-x,-y,-z
loop_
_atom_site_type_symbol
_atom_site_label
_atom_site_fract_x
_atom_site_fract_y
_atom_site_fract_z
Si Si1 0.817197 0.464762 0.779223
Si Si2 0.265648 0.930576 0.900240
Si Si3 0.909887 0.933757 0.329630
Si Si4 0.682247 0.626887 0.407129
Si Si5 0.690798 0.212926 0.464083
Si Si6 0.389587 0.613579 0.992967
Si Si7 0.267791 0.973709 0.498380
Si Si8 0.956765 0.355207 0.800792
O O1 0.833868 0.590859 0.587084
O O2 0.819271 0.388684 0.723252
O O3 0.642900 0.378496 0.859125
O O4 0.000000 0.500000 0.000000
O O5 0.206899 0.911807 0.690185
O O6 0.233986 0.025584 0.860726
O O7 0.125250 0.786215 0.030260
O O8 0.500000 0.000000 0.000000
O O9 0.784729 0.772865 0.400388
O O10 0.100026 0.994277 0.304701
O O11 0.000000 0.000000 0.500000
O O12 0.500000 0.500000 0.500000
O O13 0.588334 0.622926 0.164765
O O14 0.611380 0.274924 0.219448
O O15 0.735208 0.125299 0.507570
O O16 0.892515 0.327806 0.598358
O O17 0.499914 0.111157 0.533572
O O18 0.191217 0.472166 0.913898
#
# Coordination Sequence:
#
# PCOD9037375 Si02
#       8
#     2   2   2   2   2   2   2   2
#     4   9  21  38  69  97 129 175 228 289 341 402
#     4  11  23  42  73 104 133 173 245 297 350 404
#     4  10  25  41  70 105 135 175 229 303 347 408
#     4  10  23  40  66 104 139 173 224 295 358 403
#     4  11  23  43  67  97 145 190 236 275 356 431
#     4  10  23  40  66  95 141 181 231 285 354 413
#     4  10  24  42  68  97 140 185 230 291 352 423
#     4  11  23  41  68 103 131 188 239 292 337 425
#
# _framework density 22.28764
#
# number of rings (size 3 to 8) (size 9 to 14) (size 15 to 20)
#    0.000    1.750    1.250    1.125   19.250    0.000 
#    0.000    3.125    0.000    0.000    0.000    0.000 
#    0.000    0.000    0.000    0.000    0.000    0.000 
#
# Total GULP energy -89185.973893 kJ/mol
# GULP energy per Si atom -5574.123368 kJ/mol
# Density = 2.223691 g / cm^3
# Si number density = 22.287640 Si / 1000 Ang^3
#
#
#
# Elastic Constant Matrix: (Units=GPa)
#
#
# Indices 1 2 3 4 5 6 
#
# 1 87.0588 38.4871 46.2635 -6.1124 24.6057 -10.5739
# 2 38.4871 132.2805 40.1431 0.3358 18.6873 -14.9538
# 3 46.2635 40.1431 110.8786 -1.0683 23.1719 -16.2179
# 4 -6.1124 0.3358 -1.0683 41.6451 -3.1743 8.7256
# 5 24.6057 18.6873 23.1719 -3.1743 37.5228 -4.0552
# 6 -10.5739 -14.9538 -16.2179 8.7256 -4.0552 34.5734
#
#
#
# Elastic Compliance Matrix: (Units=1/GPa)
#
#
# Indices 1 2 3 4 5 6 
#
# 1 0.017289 -0.002541 -0.004724 0.001759 -0.006928 0.000716
# 2 -0.002541 0.009330 -0.001565 -0.001174 -0.001831 0.002606
# 3 -0.004724 -0.001565 0.012899 -0.001445 -0.003794 0.003849
# 4 0.001759 -0.001174 -0.001445 0.025836 0.001757 -0.006962
# 5 -0.006928 -0.001831 -0.003794 0.001757 0.034480 -0.001090
# 6 0.000716 0.002606 0.003849 -0.006962 -0.001090 0.033704
#
#
# Mechanical properties :
#
#
# Convention : Reuss Voigt Hill
#
# Bulk Modulus (GPa) = 45.75252 64.44503 55.09877
# Shear Modulus (GPa) = 31.54886 36.43655 33.99270
#
# Velocity S-wave (km/s) = 3.76644 4.04769 3.90959
# Velocity P-wave (km/s) = 6.28391 7.12902 6.71977
#
# Compressibility (1/GPa) = 0.02185672
#
# Stress axis : x y z
#
# Youngs Moduli (GPa) = 57.84041 107.17740 77.52789
#
# Poissons Ratio (x) = 0.27238 0.36625
# Poissons Ratio (y) = 0.14700 0.12134
# Poissons Ratio (z) = 0.27324 0.16774
#
# Static dielectric constant tensor:
#      x y z
#    x 2.057140 0.070810 0.188950 
#    y 0.070810 1.820880 0.058190 
#    z 0.188950 0.058190 2.034260 
# 
# From -- ./inp_files/271935.got.cif
#   From: 2010.05.17/outbox.cif.g08.bks.cpg/sg2_136_cif.got.tgz:271935.got - 2010.06.03 11:33:40.
