data_PCOD9037354
_publ_section_title
;
Structure prediction by ZEFSAII (Michael W. Deem and Ramdas Pophale) SiO2 
 PCOD9037354
Probable space group: P -1
;
_chemical_formula_sum "Si O2"
_cell_formula_units_Z 14
_cell_length_a 12.609660
_cell_length_b 5.300744
_cell_length_c 7.798149
_cell_angle_alpha 94.154903
_cell_angle_beta 97.341842
_cell_angle_gamma 94.879070
_cell_volume 513.251973
_symmetry_space_group_name_H-M "P -1"
_symmetry_group_IT_number 2
_symmetry_cell_setting 'triclinic'
loop_
_space_group_symop_operation_xyz
x,y,z
-x,-y,-z
loop_
_atom_site_type_symbol
_atom_site_label
_atom_site_fract_x
_atom_site_fract_y
_atom_site_fract_z
Si Si1 0.837485 0.534670 0.364401
Si Si2 0.988805 0.316970 0.823750
Si Si3 0.522743 0.551867 0.735784
Si Si4 0.803928 0.815094 0.047895
Si Si5 0.204338 0.077419 0.328690
Si Si6 0.647595 0.239119 0.493589
Si Si7 0.409138 0.157785 0.916301
O O1 0.958369 0.526151 0.319551
O O2 0.760720 0.317816 0.428358
O O3 0.783101 0.589981 0.171652
O O4 0.833498 0.769363 0.508306
O O5 0.875363 0.172915 0.748341
O O6 0.072994 0.104281 0.869225
O O7 0.000000 0.500000 0.000000
O O8 0.586894 0.624604 0.924662
O O9 0.606325 0.458919 0.613671
O O10 0.448969 0.767668 0.664091
O O11 0.439969 0.306485 0.755535
O O12 0.800072 0.768907 0.842740
O O13 0.709392 0.982940 0.090572
O O14 0.321769 0.989037 0.391583
O O15 0.500000 0.000000 0.000000
#
# Coordination Sequence:
#
# PCOD9037354 Si02
#       7
#     2   2   2   2   2   2   2
#     4  10  25  46  68  98 141 174 228 285 332 414
#     4  10  25  46  72 100 138 181 228 285 345 402
#     4  10  23  40  65  98 137 172 226 279 332 408
#     4  10  24  46  66 100 143 173 231 287 328 410
#     4  12  25  44  73 100 134 188 227 278 350 402
#     4  11  24  43  67 101 135 178 225 281 341 402
#     4  11  22  41  67  98 133 181 222 273 342 400
#
# _framework density 27.277051
#
# number of rings (size 3 to 8) (size 9 to 14) (size 15 to 20)
#    0.857    0.571    1.429    2.571    6.000    1.714 
#    0.000    3.571    0.000    0.000    0.000    0.000 
#    0.000    0.000    0.000    0.000    0.000    0.000 
#
# Total GULP energy -78202.305323 kJ/mol
# GULP energy per Si atom -5585.878952 kJ/mol
# Density = 2.721497 g / cm^3
# Si number density = 27.277051 Si / 1000 Ang^3
#
#
#
# Elastic Constant Matrix: (Units=GPa)
#
#
# Indices 1 2 3 4 5 6 
#
# 1 126.4795 29.8917 42.1978 -2.2240 -0.8259 2.9356
# 2 29.8917 70.3066 51.5210 11.4021 6.8455 -5.0126
# 3 42.1978 51.5210 200.5843 -10.6947 10.0084 4.6171
# 4 -2.2240 11.4021 -10.6947 43.1380 -5.4803 11.4565
# 5 -0.8259 6.8455 10.0084 -5.4803 52.3791 -15.5545
# 6 2.9356 -5.0126 4.6171 11.4565 -15.5545 28.6583
#
#
#
# Elastic Compliance Matrix: (Units=1/GPa)
#
#
# Indices 1 2 3 4 5 6 
#
# 1 0.009154 -0.003754 -0.000838 0.001832 0.000401 -0.001974
# 2 -0.003754 0.022221 -0.005640 -0.009886 -0.000248 0.008997
# 3 -0.000838 -0.005640 0.007015 0.004198 -0.001524 -0.004536
# 4 0.001832 -0.009886 0.004198 0.030914 -0.000818 -0.015396
# 5 0.000401 -0.000248 -0.001524 -0.000818 0.023224 0.013093
# 6 -0.001974 0.008997 -0.004536 -0.015396 0.013093 0.050662
#
#
# Mechanical properties :
#
#
# Convention : Reuss Voigt Hill
#
# Bulk Modulus (GPa) = 55.78720 71.62126 63.70423
# Shear Modulus (GPa) = 29.47585 43.08572 36.28079
#
# Velocity S-wave (km/s) = 3.29083 3.97868 3.65099
# Velocity P-wave (km/s) = 5.91066 6.88625 6.41702
#
# Compressibility (1/GPa) = 0.01792526
#
# Stress axis : x y z
#
# Youngs Moduli (GPa) = 109.24106 45.00172 142.55903
#
# Poissons Ratio (x) = 0.16896 0.11951
# Poissons Ratio (y) = 0.41014 0.80398
# Poissons Ratio (z) = 0.09158 0.25379
#
# Static dielectric constant tensor:
#      x y z
#    x 2.268030 0.016180 0.017730 
#    y 0.016180 2.137950 0.006780 
#    z 0.017730 0.006780 2.147450 
# 
# From -- ./inp_files/229706.got.cif
#   From: 2010.05.17/outbox.cif.g08.bks.cpg/sg2_115_cif.got.tgz:229706.got - 2010.06.03 11:33:40.
