data_PCOD9037658
_publ_section_title
;
Structure prediction by ZEFSAII (Michael W. Deem and Ramdas Pophale) SiO2 
 PCOD9037658
Probable space group: P -1
;
_chemical_formula_sum "Si O2"
_cell_formula_units_Z 14
_cell_length_a 12.991086
_cell_length_b 5.213562
_cell_length_c 14.615228
_cell_angle_alpha 68.644333
_cell_angle_beta 48.292705
_cell_angle_gamma 96.563723
_cell_volume 590.852423
_symmetry_space_group_name_H-M "P -1"
_symmetry_group_IT_number 2
_symmetry_cell_setting 'triclinic'
loop_
_space_group_symop_operation_xyz
x,y,z
-x,-y,-z
loop_
_atom_site_type_symbol
_atom_site_label
_atom_site_fract_x
_atom_site_fract_y
_atom_site_fract_z
Si Si1 0.919955 0.640912 0.127400
Si Si2 0.893711 0.385018 0.670728
Si Si3 0.557432 0.471924 0.571435
Si Si4 0.894495 0.729661 0.312733
Si Si5 0.502661 0.770982 0.737510
Si Si6 0.329691 0.315177 0.180725
Si Si7 0.843869 0.543978 0.984738
O O1 0.808564 0.558790 0.290138
O O2 0.066641 0.623676 0.086782
O O3 0.842672 0.450837 0.105684
O O4 0.000000 0.000000 0.000000
O O5 0.780170 0.524185 0.752719
O O6 0.000000 0.500000 0.500000
O O7 0.028806 0.442643 0.657051
O O8 0.777589 0.006728 0.771726
O O9 0.500000 0.500000 0.500000
O O10 0.745932 0.726673 0.448499
O O11 0.473184 0.555055 0.692649
O O12 0.534669 0.121023 0.646754
O O13 0.035553 0.087027 0.157839
O O14 0.631585 0.775750 0.730260
O O15 0.336390 0.593720 0.916089
O O16 0.500000 0.500000 0.000000
#
# Coordination Sequence:
#
# PCOD9037658 Si02
#       7
#     2   2   2   2   2   2   2
#     4   9  21  39  65  99 134 172 234 283 340 412
#     4  12  27  48  74 103 144 192 245 300 354 429
#     4  12  29  47  71 108 149 187 229 288 364 436
#     4  11  25  42  72  99 137 184 239 281 351 418
#     4  12  27  47  72 101 149 187 231 294 366 411
#     4  12  27  49  74 109 144 188 248 309 362 420
#     4  10  23  40  71  98 137 179 235 282 348 423
#
# _framework density 23.694579000000001
#
# number of rings (size 3 to 8) (size 9 to 14) (size 15 to 20)
#    0.000    0.857    0.000    5.571   16.000    0.000 
#    0.000    0.000    0.000    0.000    0.000    0.000 
#    0.000    0.000    0.000    0.000    0.000    0.000 
#
# Total GULP energy -78093.857299 kJ/mol
# GULP energy per Si atom -5578.132664 kJ/mol
# Density = 2.364065 g / cm^3
# Si number density = 23.694579 Si / 1000 Ang^3
#
#
#
# Elastic Constant Matrix: (Units=GPa)
#
#
# Indices 1 2 3 4 5 6 
#
# 1 149.3424 40.7567 41.2062 10.2011 4.6639 -26.3892
# 2 40.7567 128.2332 26.4900 7.2484 9.0615 -28.0179
# 3 41.2062 26.4900 120.2620 0.8480 -4.7362 -17.7122
# 4 10.2011 7.2484 0.8480 34.2674 0.5231 -7.5260
# 5 4.6639 9.0615 -4.7362 0.5231 47.3661 6.9480
# 6 -26.3892 -28.0179 -17.7122 -7.5260 6.9480 39.6865
#
#
#
# Elastic Compliance Matrix: (Units=1/GPa)
#
#
# Indices 1 2 3 4 5 6 
#
# 1 0.008413 -0.001250 -0.002097 -0.001343 -0.001335 0.003754
# 2 -0.001250 0.009964 -0.000960 -0.000307 -0.002786 0.006204
# 3 -0.002097 -0.000960 0.009608 0.001066 0.001010 0.002241
# 4 -0.001343 -0.000307 0.001066 0.030809 -0.000828 0.005354
# 5 -0.001335 -0.002786 0.001010 -0.000828 0.022849 -0.006561
# 6 0.003754 0.006204 0.002241 0.005354 -0.006561 0.035238
#
#
# Mechanical properties :
#
#
# Convention : Reuss Voigt Hill
#
# Bulk Modulus (GPa) = 51.62925 68.30484 59.96705
# Shear Modulus (GPa) = 37.89282 43.55630 40.72456
#
# Velocity S-wave (km/s) = 4.00336 4.29212 4.15025
# Velocity P-wave (km/s) = 6.57313 7.31115 6.95194
#
# Compressibility (1/GPa) = 0.01936886
#
# Stress axis : x y z
#
# Youngs Moduli (GPa) = 118.86801 100.36490 104.08435
#
# Poissons Ratio (x) = 0.12546 0.21830
# Poissons Ratio (y) = 0.14859 0.09994
# Poissons Ratio (z) = 0.24930 0.09637
#
# Static dielectric constant tensor:
#      x y z
#    x 1.935240 -0.027490 -0.070130 
#    y -0.027490 1.908980 -0.013150 
#    z -0.070130 -0.013150 1.395530 
# 
# From -- ./inp_files/510712.got.cif
#   From: 2010.05.17/outbox.cif.g08.bks.cpg/sg2_256_cif.got.tgz:510712.got - 2010.06.03 11:33:40.
