data_PCOD9037730
_publ_section_title
;
Structure prediction by ZEFSAII (Michael W. Deem and Ramdas Pophale) SiO2 
 PCOD9037730
Probable space group: P -1
;
_chemical_formula_sum "Si O2"
_cell_formula_units_Z 16
_cell_length_a 8.598290
_cell_length_b 12.275946
_cell_length_c 14.690996
_cell_angle_alpha 107.386596
_cell_angle_beta 128.989959
_cell_angle_gamma 113.453797
_cell_volume 705.107015
_symmetry_space_group_name_H-M "P -1"
_symmetry_group_IT_number 2
_symmetry_cell_setting 'triclinic'
loop_
_space_group_symop_operation_xyz
x,y,z
-x,-y,-z
loop_
_atom_site_type_symbol
_atom_site_label
_atom_site_fract_x
_atom_site_fract_y
_atom_site_fract_z
Si Si1 0.620777 0.618598 0.809424
Si Si2 0.797645 0.517290 0.208688
Si Si3 0.643830 0.022858 0.776978
Si Si4 0.235699 0.930552 0.454623
Si Si5 0.614991 0.089546 0.968630
Si Si6 0.800087 0.889860 0.176104
Si Si7 0.709020 0.803465 0.704950
Si Si8 0.736046 0.482506 0.682625
O O1 0.324635 0.530371 0.741797
O O2 0.670867 0.729668 0.771216
O O3 0.582520 0.472190 0.715519
O O4 0.967280 0.774122 0.031555
O O5 0.945735 0.708110 0.295413
O O6 0.058559 0.543435 0.267084
O O7 0.457695 0.326963 0.989554
O O8 0.583267 0.984288 0.852024
O O9 0.427347 0.017101 0.642287
O O10 0.551997 0.858936 0.662103
O O11 0.091602 0.980311 0.370553
O O12 0.500000 0.000000 0.500000
O O13 0.407371 0.101324 0.857675
O O14 0.977834 0.297090 0.170686
O O15 0.500000 0.000000 0.000000
O O16 0.940981 0.003794 0.160983
O O17 0.536446 0.647894 0.527275
#
# Coordination Sequence:
#
# PCOD9037730 Si02
#       8
#     2   2   2   2   2   2   2   2
#     4  11  24  41  68  99 139 174 232 277 344 418
#     4  11  23  42  67 100 132 180 228 281 346 399
#     4  11  23  41  66  96 133 183 221 273 347 394
#     4  12  23  44  68  95 137 180 233 282 330 407
#     4  10  24  43  66  99 142 174 223 285 344 407
#     4  11  23  41  70  95 134 185 220 278 343 398
#     4  12  22  42  67  98 137 178 223 280 347 402
#     4  10  23  41  61  98 136 175 215 281 342 394
#
# _framework density 22.691590000000001
#
# number of rings (size 3 to 8) (size 9 to 14) (size 15 to 20)
#    0.000    1.000    3.750    2.625    3.500    3.000 
#    0.000    1.250    0.000    9.750    0.000    0.000 
#    0.000    0.000    0.000    0.000    0.000    0.000 
#
# Total GULP energy -89120.879486 kJ/mol
# GULP energy per Si atom -5570.054968 kJ/mol
# Density = 2.263994 g / cm^3
# Si number density = 22.691590 Si / 1000 Ang^3
#
#
#
# Elastic Constant Matrix: (Units=GPa)
#
#
# Indices 1 2 3 4 5 6 
#
# 1 91.4559 21.0228 27.8634 -7.8958 -14.3605 -8.1715
# 2 21.0228 74.0442 27.2577 -10.6630 3.9671 4.9352
# 3 27.8634 27.2577 91.9060 -13.7856 -8.9951 -11.1686
# 4 -7.8958 -10.6630 -13.7856 32.4564 -7.8796 5.5017
# 5 -14.3605 3.9671 -8.9951 -7.8796 39.7854 -0.4220
# 6 -8.1715 4.9352 -11.1686 5.5017 -0.4220 26.1401
#
#
#
# Elastic Compliance Matrix: (Units=1/GPa)
#
#
# Indices 1 2 3 4 5 6 
#
# 1 0.013627 -0.003437 -0.001826 0.002055 0.005296 0.003782
# 2 -0.003437 0.017391 -0.004854 0.003174 -0.003519 -0.007156
# 3 -0.001826 -0.004854 0.014590 0.004153 0.004007 0.005770
# 4 0.002055 0.003174 0.004153 0.037219 0.008673 -0.005876
# 5 0.005296 -0.003519 0.004007 0.008673 0.030050 0.002692
# 6 0.003782 -0.007156 0.005770 -0.005876 0.002692 0.044534
#
#
# Mechanical properties :
#
#
# Convention : Reuss Voigt Hill
#
# Bulk Modulus (GPa) = 39.40863 45.52154 42.46509
# Shear Modulus (GPa) = 26.86688 31.76051 29.31369
#
# Velocity S-wave (km/s) = 3.44467 3.74526 3.59810
# Velocity P-wave (km/s) = 5.76418 6.22954 6.00137
#
# Compressibility (1/GPa) = 0.02537515
#
# Stress axis : x y z
#
# Youngs Moduli (GPa) = 73.38139 57.50199 68.53933
#
# Poissons Ratio (x) = 0.19762 0.12516
# Poissons Ratio (y) = 0.25219 0.33267
# Poissons Ratio (z) = 0.13400 0.27910
#
# Static dielectric constant tensor:
#      x y z
#    x 1.994800 -0.023760 0.040720 
#    y -0.023760 1.849720 -0.026710 
#    z 0.040720 -0.026710 1.851610 
# 
# From -- ./inp_files/317673.got.cif
#   From: 2010.05.17/outbox.cif.g08.bks.cpg/sg2_159_cif.got.tgz:317673.got - 2010.06.03 11:33:40.
