data_PCOD9037762
_publ_section_title
;
Structure prediction by ZEFSAII (Michael W. Deem and Ramdas Pophale) SiO2 
 PCOD9037762
Probable space group: P -1
;
_chemical_formula_sum "Si O2"
_cell_formula_units_Z 14
_cell_length_a 11.134794
_cell_length_b 10.351261
_cell_length_c 20.208480
_cell_angle_alpha 32.183225
_cell_angle_beta 47.075960
_cell_angle_gamma 70.205871
_cell_volume 720.149485
_symmetry_space_group_name_H-M "P -1"
_symmetry_group_IT_number 2
_symmetry_cell_setting 'triclinic'
loop_
_space_group_symop_operation_xyz
x,y,z
-x,-y,-z
loop_
_atom_site_type_symbol
_atom_site_label
_atom_site_fract_x
_atom_site_fract_y
_atom_site_fract_z
Si Si1 0.082138 0.368603 0.937574
Si Si2 0.711408 0.333822 0.129592
Si Si3 0.079395 0.117451 0.493007
Si Si4 0.654521 0.755319 0.885738
Si Si5 0.963708 0.143253 0.886889
Si Si6 0.392841 0.841052 0.038934
Si Si7 0.266030 0.761548 0.574728
O O1 0.190032 0.541393 0.889634
O O2 0.240188 0.572085 0.731249
O O3 0.010544 0.025451 0.109072
O O4 0.000000 0.000000 0.000000
O O5 0.498439 0.997365 0.360610
O O6 0.671642 0.561888 0.017512
O O7 0.877042 0.345890 0.016518
O O8 0.240961 0.480867 0.270264
O O9 0.186086 0.957192 0.540528
O O10 0.000000 0.000000 0.500000
O O11 0.880042 0.997005 0.664685
O O12 0.500000 0.500000 0.000000
O O13 0.554762 0.893754 0.900104
O O14 0.745613 0.074994 0.980826
O O15 0.122977 0.506191 0.683312
O O16 0.500000 0.000000 0.000000
#
# Coordination Sequence:
#
# PCOD9037762 Si02
#       7
#     2   2   2   2   2   2   2
#     4  10  23  41  62  93 138 163 214 267 331 397
#     4  11  22  39  66  98 123 172 218 270 326 393
#     4  12  22  42  69  98 129 172 228 280 324 399
#     4  12  23  40  72  97 128 172 229 273 327 391
#     4  10  23  42  63  91 135 170 209 268 329 393
#     4  12  26  45  69 100 138 172 220 283 342 389
#     4  11  20  40  66  94 126 171 219 265 327 391
#
# _framework density 19.44041
#
# number of rings (size 3 to 8) (size 9 to 14) (size 15 to 20)
#    0.000    0.857    5.714    1.286    2.000    1.143 
#    0.000    2.857    0.000    0.000    0.000    0.000 
#    0.000    0.000    0.000    0.000    0.000    0.000 
#
# Total GULP energy -78110.744233 kJ/mol
# GULP energy per Si atom -5579.338874 kJ/mol
# Density = 1.939616 g / cm^3
# Si number density = 19.440410 Si / 1000 Ang^3
#
#
#
# Elastic Constant Matrix: (Units=GPa)
#
#
# Indices 1 2 3 4 5 6 
#
# 1 91.6678 12.7859 18.3766 -10.3263 -6.0192 -8.9472
# 2 12.7859 58.7138 24.8342 -19.9256 -9.9715 -7.1561
# 3 18.3766 24.8342 104.2588 -0.1909 -13.3097 5.9616
# 4 -10.3263 -19.9256 -0.1909 31.1465 1.4831 -1.0735
# 5 -6.0192 -9.9715 -13.3097 1.4831 26.8995 -2.1769
# 6 -8.9472 -7.1561 5.9616 -1.0735 -2.1769 34.9669
#
#
#
# Elastic Compliance Matrix: (Units=1/GPa)
#
#
# Indices 1 2 3 4 5 6 
#
# 1 0.012297 0.000622 -0.002286 0.004504 0.001920 0.003921
# 2 0.000622 0.027746 -0.006245 0.017857 0.006988 0.007885
# 3 -0.002286 -0.006245 0.012093 -0.004961 0.003116 -0.003883
# 4 0.004504 0.017857 -0.004961 0.045087 0.003273 0.007241
# 5 0.001920 0.006988 0.003116 0.003273 0.041889 0.004098
# 6 0.003921 0.007885 -0.003883 0.007241 0.004098 0.032355
#
#
# Mechanical properties :
#
#
# Convention : Reuss Voigt Hill
#
# Bulk Modulus (GPa) = 27.53550 40.73708 34.13629
# Shear Modulus (GPa) = 25.07657 31.84549 28.46103
#
# Velocity S-wave (km/s) = 3.59544 4.05175 3.83039
# Velocity P-wave (km/s) = 5.60634 6.54898 6.09591
#
# Compressibility (1/GPa) = 0.03631675
#
# Stress axis : x y z
#
# Youngs Moduli (GPa) = 81.32197 36.04187 82.69418
#
# Poissons Ratio (x) = -0.02242 0.18908
# Poissons Ratio (y) = -0.05058 0.51639
# Poissons Ratio (z) = 0.18594 0.22507
#
# Static dielectric constant tensor:
#      x y z
#    x 1.702410 -0.040440 0.030200 
#    y -0.040440 1.665810 0.019140 
#    z 0.030200 0.019140 1.647390 
# 
# From -- ./inp_files/566428.got.cif
#   From: 2010.05.17/outbox.cif.g08.bks.cpg/sg2_284_cif.got.tgz:566428.got - 2010.06.03 11:33:40.
