data_PCOD9037573
_publ_section_title
;
Structure prediction by ZEFSAII (Michael W. Deem and Ramdas Pophale) SiO2 
 PCOD9037573
Probable space group: P -1
;
_chemical_formula_sum "Si O2"
_cell_formula_units_Z 12
_cell_length_a 14.393838
_cell_length_b 8.891572
_cell_length_c 13.973758
_cell_angle_alpha 43.872783
_cell_angle_beta 147.524446
_cell_angle_gamma 150.111338
_cell_volume 478.147638
_symmetry_space_group_name_H-M "P -1"
_symmetry_group_IT_number 2
_symmetry_cell_setting 'triclinic'
loop_
_space_group_symop_operation_xyz
x,y,z
-x,-y,-z
loop_
_atom_site_type_symbol
_atom_site_label
_atom_site_fract_x
_atom_site_fract_y
_atom_site_fract_z
Si Si1 0.214196 0.241081 0.879957
Si Si2 0.183821 0.240268 0.633852
Si Si3 0.480533 0.723733 0.340589
Si Si4 0.099199 0.675467 0.108435
Si Si5 0.937910 0.424131 0.370095
Si Si6 0.362946 0.657436 0.059057
O O1 0.108303 0.124490 0.732744
O O2 0.135470 0.390529 0.798542
O O3 0.500000 0.500000 0.000000
O O4 0.159229 0.979210 0.010747
O O5 0.449060 0.363459 0.803087
O O6 0.159464 0.478985 0.495587
O O7 0.000000 0.000000 0.500000
O O8 0.500000 0.500000 0.500000
O O9 0.344587 0.749872 0.289578
O O10 0.341429 0.570226 0.190767
O O11 0.706641 0.060768 0.341751
O O12 0.000000 0.500000 0.000000
O O13 0.914828 0.496906 0.118335
O O14 0.000000 0.500000 0.500000
O O15 0.500000 0.000000 0.000000
#
# Coordination Sequence:
#
# PCOD9037573 Si02
#       6
#     2   2   2   2   2   2
#     4  11  23  46  74 101 144 188 241 289 366 427
#     4  11  23  41  68 104 137 187 233 293 353 421
#     4  11  23  41  71 105 134 184 246 291 341 437
#     4  10  23  42  68 104 132 189 247 286 338 449
#     4  10  23  40  69 101 141 181 231 291 364 416
#     4  11  25  40  68 100 141 181 240 297 348 402
#
# _framework density 25.096851000000001
#
# number of rings (size 3 to 8) (size 9 to 14) (size 15 to 20)
#    0.000    1.333    3.333    2.000   11.667    0.000 
#    0.000    1.667    0.000    0.000    0.000    0.000 
#    0.000    0.000    0.000    0.000    0.000    0.000 
#
# Total GULP energy -66831.763564 kJ/mol
# GULP energy per Si atom -5569.313630 kJ/mol
# Density = 2.503973 g / cm^3
# Si number density = 25.096851 Si / 1000 Ang^3
#
#
#
# Elastic Constant Matrix: (Units=GPa)
#
#
# Indices 1 2 3 4 5 6 
#
# 1 171.1943 24.0589 49.8786 -18.6103 61.2300 -1.8970
# 2 24.0589 113.7128 27.0369 -33.3079 36.8925 10.7440
# 3 49.8786 27.0369 138.5497 -43.3164 51.2972 -3.3244
# 4 -18.6103 -33.3079 -43.3164 52.9359 -21.9569 1.5978
# 5 61.2300 36.8925 51.2972 -21.9569 73.1154 1.4605
# 6 -1.8970 10.7440 -3.3244 1.5978 1.4605 39.5680
#
#
#
# Elastic Compliance Matrix: (Units=1/GPa)
#
#
# Indices 1 2 3 4 5 6 
#
# 1 0.008415 0.000549 -0.000571 -0.000061 -0.006951 0.000466
# 2 0.000549 0.012557 0.001627 0.007152 -0.005723 -0.003324
# 3 -0.000571 0.001627 0.011956 0.007959 -0.006350 0.000448
# 4 -0.000061 0.007152 0.007959 0.029911 -0.000110 -0.002480
# 5 -0.006951 -0.005723 -0.006350 -0.000110 0.026814 -0.000298
# 6 0.000466 -0.003324 0.000448 -0.002480 -0.000298 0.026347
#
#
# Mechanical properties :
#
#
# Convention : Reuss Voigt Hill
#
# Bulk Modulus (GPa) = 27.67175 69.48953 48.58064
# Shear Modulus (GPa) = 40.05278 54.62269 47.33774
#
# Velocity S-wave (km/s) = 3.99924 4.67033 4.34775
# Velocity P-wave (km/s) = 5.68992 7.53866 6.67857
#
# Compressibility (1/GPa) = 0.03613793
#
# Stress axis : x y z
#
# Youngs Moduli (GPa) = 118.83148 79.63855 83.64285
#
# Poissons Ratio (x) = -0.04370 0.04774
# Poissons Ratio (y) = -0.06521 -0.13610
# Poissons Ratio (z) = 0.06782 -0.12958
#
# Static dielectric constant tensor:
#      x y z
#    x 2.004120 0.017940 0.230250 
#    y 0.017940 1.971340 0.023640 
#    z 0.230250 0.023640 1.085510 
# 
# From -- ./inp_files/529338.got.cif
#   From: 2010.05.17/outbox.cif.g08.bks.cpg/sg2_265_cif.got.tgz:529338.got - 2010.06.03 11:33:40.
