data_PCOD9037663
_publ_section_title
;
Structure prediction by ZEFSAII (Michael W. Deem and Ramdas Pophale) SiO2 
 PCOD9037663
Probable space group: P -1
;
_chemical_formula_sum "Si O2"
_cell_formula_units_Z 12
_cell_length_a 16.014994
_cell_length_b 9.704678
_cell_length_c 7.192953
_cell_angle_alpha 62.998565
_cell_angle_beta 59.032495
_cell_angle_gamma 36.663467
_cell_volume 570.519970
_symmetry_space_group_name_H-M "P -1"
_symmetry_group_IT_number 2
_symmetry_cell_setting 'triclinic'
loop_
_space_group_symop_operation_xyz
x,y,z
-x,-y,-z
loop_
_atom_site_type_symbol
_atom_site_label
_atom_site_fract_x
_atom_site_fract_y
_atom_site_fract_z
Si Si1 0.529130 0.460075 0.710859
Si Si2 0.938955 0.238388 0.482001
Si Si3 0.772254 0.912960 0.767947
Si Si4 0.597287 0.930145 0.661452
Si Si5 0.342899 0.486992 0.158399
Si Si6 0.281255 0.282311 0.753472
O O1 0.500000 0.500000 0.500000
O O2 0.580865 0.549396 0.712572
O O3 0.430380 0.178153 0.727776
O O4 0.385622 0.564695 0.912906
O O5 0.073642 0.192484 0.392013
O O6 0.838587 0.446171 0.318429
O O7 0.000000 0.000000 0.500000
O O8 0.827149 0.338627 0.716548
O O9 0.705004 0.899365 0.682191
O O10 0.778378 0.784165 0.009014
O O11 0.658788 0.185049 0.771888
O O12 0.659874 0.856730 0.424953
O O13 0.404587 0.248683 0.174342
#
# Coordination Sequence:
#
# PCOD9037663 Si02
#       6
#     2   2   2   2   2   2
#     4  11  25  40  69 100 132 177 224 272 325 398
#     4  11  24  45  66  98 140 178 213 274 342 394
#     4  12  24  42  69 102 131 173 228 268 331 400
#     4  10  23  40  72 100 127 170 230 275 320 393
#     4  10  23  45  65  95 140 171 222 271 335 385
#     4  10  23  42  70  95 136 174 217 275 333 383
#
# _framework density 21.033443999999999
#
# number of rings (size 3 to 8) (size 9 to 14) (size 15 to 20)
#    0.000    1.333    3.333    1.000    7.000    2.667 
#    0.000    2.500    0.000    0.000    0.000    0.000 
#    0.000    0.000    0.000    0.000    0.000    0.000 
#
# Total GULP energy -67073.013843 kJ/mol
# GULP energy per Si atom -5589.417820 kJ/mol
# Density = 2.098557 g / cm^3
# Si number density = 21.033444 Si / 1000 Ang^3
#
#
#
# Elastic Constant Matrix: (Units=GPa)
#
#
# Indices 1 2 3 4 5 6 
#
# 1 190.3717 52.7220 60.7768 -0.3441 -19.9959 4.1838
# 2 52.7220 132.4085 14.6885 -0.4422 -4.9513 -8.5666
# 3 60.7768 14.6885 100.5205 -9.4976 -17.5994 -0.7560
# 4 -0.3441 -0.4422 -9.4976 16.5581 3.4965 -6.9622
# 5 -19.9959 -4.9513 -17.5994 3.4965 44.6350 6.9619
# 6 4.1838 -8.5666 -0.7560 -6.9622 6.9619 24.9896
#
#
#
# Elastic Compliance Matrix: (Units=1/GPa)
#
#
# Indices 1 2 3 4 5 6 
#
# 1 0.007772 -0.002823 -0.004331 -0.004800 0.002530 -0.004442
# 2 -0.002823 0.008884 0.000515 0.002586 -0.000985 0.004529
# 3 -0.004331 0.000515 0.013743 0.008582 0.002389 0.003042
# 4 -0.004800 0.002586 0.008582 0.078102 -0.008673 0.026126
# 5 0.002530 -0.000985 0.002389 -0.008673 0.026694 -0.010542
# 6 -0.004442 0.004529 0.003042 0.026126 -0.010542 0.052621
#
#
# Mechanical properties :
#
#
# Convention : Reuss Voigt Hill
#
# Bulk Modulus (GPa) = 58.40613 75.51949 66.96281
# Shear Modulus (GPa) = 24.17788 36.91076 30.54432
#
# Velocity S-wave (km/s) = 3.39410 4.19365 3.81488
# Velocity P-wave (km/s) = 6.57179 7.70917 7.16309
#
# Compressibility (1/GPa) = 0.01712149
#
# Stress axis : x y z
#
# Youngs Moduli (GPa) = 128.66852 112.55992 72.76236
#
# Poissons Ratio (x) = 0.31776 0.31510
# Poissons Ratio (y) = 0.36323 -0.03744
# Poissons Ratio (z) = 0.55720 -0.05792
#
# Static dielectric constant tensor:
#      x y z
#    x 1.757040 -0.003450 0.001190 
#    y -0.003450 1.788250 -0.016850 
#    z 0.001190 -0.016850 1.779940 
# 
# From -- ./inp_files/106864.got.cif
#   From: 2010.05.17/outbox.cif.g08.bks.cpg/sg2_54_cif.got.tgz:106864.got - 2010.06.03 11:33:40.
