data_PCOD9037627
_publ_section_title
;
Structure prediction by ZEFSAII (Michael W. Deem and Ramdas Pophale) SiO2 
 PCOD9037627
Probable space group: P -1
;
_chemical_formula_sum "Si O2"
_cell_formula_units_Z 14
_cell_length_a 11.284435
_cell_length_b 14.891618
_cell_length_c 16.784071
_cell_angle_alpha 27.462109
_cell_angle_beta 29.114607
_cell_angle_gamma 48.202203
_cell_volume 553.643044
_symmetry_space_group_name_H-M "P -1"
_symmetry_group_IT_number 2
_symmetry_cell_setting 'triclinic'
loop_
_space_group_symop_operation_xyz
x,y,z
-x,-y,-z
loop_
_atom_site_type_symbol
_atom_site_label
_atom_site_fract_x
_atom_site_fract_y
_atom_site_fract_z
Si Si1 0.641410 0.963173 0.759126
Si Si2 0.296625 0.875096 0.575703
Si Si3 0.011802 0.787519 0.315572
Si Si4 0.938424 0.129353 0.007756
Si Si5 0.862708 0.045185 0.732238
Si Si6 0.454655 0.564057 0.386687
Si Si7 0.406920 0.489532 0.829536
O O1 0.717161 0.121692 0.514639
O O2 0.792515 0.091502 0.649045
O O3 0.304249 0.833508 0.070491
O O4 0.709837 0.759012 0.872850
O O5 0.269553 0.645331 0.806209
O O6 0.089612 0.959659 0.659863
O O7 0.617600 0.056494 0.259062
O O8 0.727147 0.618087 0.572685
O O9 0.021898 0.758045 0.426729
O O10 0.015359 0.022525 0.120332
O O11 0.137392 0.389531 0.688877
O O12 0.000000 0.000000 0.000000
O O13 0.580943 0.828269 0.098681
O O14 0.500000 0.500000 0.500000
O O15 0.595255 0.523481 0.255809
#
# Coordination Sequence:
#
# PCOD9037627 Si02
#       7
#     2   2   2   2   2   2   2
#     4  11  22  41  69  93 134 180 223 269 331 397
#     4  11  23  45  70  94 140 173 222 272 336 402
#     4  11  20  41  66  95 135 173 227 272 325 404
#     4  11  19  39  69  93 124 183 220 263 330 394
#     4  11  26  38  66 104 135 173 217 282 342 378
#     4  11  20  37  60  99 131 159 225 269 315 395
#     4  10  23  40  70  96 128 179 226 265 336 389
#
# _framework density 25.287053
#
# number of rings (size 3 to 8) (size 9 to 14) (size 15 to 20)
#    0.000    1.143    5.714    1.286    0.000    5.714 
#    0.000    0.714    0.000    0.000    0.000    0.000 
#    0.000    0.000    0.000    0.000    0.000    0.000 
#
# Total GULP energy -78256.268841 kJ/mol
# GULP energy per Si atom -5589.733489 kJ/mol
# Density = 2.522950 g / cm^3
# Si number density = 25.287053 Si / 1000 Ang^3
#
#
#
# Elastic Constant Matrix: (Units=GPa)
#
#
# Indices 1 2 3 4 5 6 
#
# 1 134.4709 44.9137 31.4650 -11.2516 -0.0610 0.9668
# 2 44.9137 91.5076 27.5412 9.1810 -7.9351 -14.7702
# 3 31.4650 27.5412 75.6584 -3.7865 -16.8542 -6.9429
# 4 -11.2516 9.1810 -3.7865 27.3755 -7.3247 -7.3345
# 5 -0.0610 -7.9351 -16.8542 -7.3247 45.3776 4.1961
# 6 0.9668 -14.7702 -6.9429 -7.3345 4.1961 45.5656
#
#
#
# Elastic Compliance Matrix: (Units=1/GPa)
#
#
# Indices 1 2 3 4 5 6 
#
# 1 0.010100 -0.005003 -0.002447 0.004902 -0.000855 -0.001341
# 2 -0.005003 0.015755 -0.003690 -0.006919 -0.000067 0.003543
# 3 -0.002447 -0.003690 0.017409 0.004815 0.006438 0.001691
# 4 0.004902 -0.006919 0.004815 0.044820 0.007365 0.004923
# 5 -0.000855 -0.000067 0.006438 0.007365 0.025623 -0.000197
# 6 -0.001341 0.003543 0.001691 0.004923 -0.000197 0.024192
#
#
# Mechanical properties :
#
#
# Convention : Reuss Voigt Hill
#
# Bulk Modulus (GPa) = 47.66024 56.60853 52.13439
# Shear Modulus (GPa) = 29.90920 36.84485 33.37702
#
# Velocity S-wave (km/s) = 3.44290 3.82129 3.63702
# Velocity P-wave (km/s) = 5.89010 6.47338 6.18862
#
# Compressibility (1/GPa) = 0.02098185
#
# Stress axis : x y z
#
# Youngs Moduli (GPa) = 99.01322 63.47345 57.44216
#
# Poissons Ratio (x) = 0.31756 0.14057
# Poissons Ratio (y) = 0.49536 0.21198
# Poissons Ratio (z) = 0.24231 0.23424
#
# Static dielectric constant tensor:
#      x y z
#    x 2.073220 0.025170 -0.012490 
#    y 0.025170 2.059200 0.051720 
#    z -0.012490 0.051720 2.013640 
# 
# From -- ./inp_files/569922.got.cif
#   From: 2010.05.17/outbox.cif.g08.bks.cpg/sg2_285_cif.got.tgz:569922.got - 2010.06.03 11:33:40.
