data_PCOD9037744
_publ_section_title
;
Structure prediction by ZEFSAII (Michael W. Deem and Ramdas Pophale) SiO2 
 PCOD9037744
Probable space group: P -1
;
_chemical_formula_sum "Si O2"
_cell_formula_units_Z 16
_cell_length_a 15.090751
_cell_length_b 8.122842
_cell_length_c 9.453985
_cell_angle_alpha 86.749521
_cell_angle_beta 135.328191
_cell_angle_gamma 82.474609
_cell_volume 788.833287
_symmetry_space_group_name_H-M "P -1"
_symmetry_group_IT_number 2
_symmetry_cell_setting 'triclinic'
loop_
_space_group_symop_operation_xyz
x,y,z
-x,-y,-z
loop_
_atom_site_type_symbol
_atom_site_label
_atom_site_fract_x
_atom_site_fract_y
_atom_site_fract_z
Si Si1 0.482711 0.172324 0.880557
Si Si2 0.718917 0.320767 0.159436
Si Si3 0.238354 0.337767 0.924132
Si Si4 0.157674 0.878321 0.975590
Si Si5 0.186315 0.242355 0.570542
Si Si6 0.598702 0.000617 0.736948
Si Si7 0.079058 0.926112 0.451338
Si Si8 0.042519 0.567913 0.900361
O O1 0.330829 0.261345 0.706443
O O2 0.525572 0.122731 0.771457
O O3 0.583128 0.278031 0.044545
O O4 0.500000 0.000000 0.000000
O O5 0.704969 0.511514 0.083698
O O6 0.829867 0.259585 0.407738
O O7 0.781033 0.201530 0.101729
O O8 0.164606 0.274476 0.712290
O O9 0.143061 0.422760 0.936234
O O10 0.345113 0.180702 0.114883
O O11 0.274726 0.939525 0.175717
O O12 0.108159 0.725505 0.995605
O O13 0.032301 0.033218 0.795758
O O14 0.175122 0.051462 0.533015
O O15 0.076966 0.360999 0.345581
O O16 0.500000 0.000000 0.500000
O O17 0.000000 0.000000 0.500000
O O18 0.000000 0.500000 0.000000
#
# Coordination Sequence:
#
# PCOD9037744 Si02
#       8
#     2   2   2   2   2   2   2   2
#     4  11  20  40  62  89 120 159 203 236 300 360
#     4   9  18  33  57  90 121 153 189 249 297 353
#     4  11  22  39  60  92 118 153 205 249 296 346
#     4   8  18  38  59  81 117 163 199 228 302 365
#     4  11  21  37  64  87 122 159 196 246 292 360
#     4  11  24  42  64  85 120 161 202 247 293 364
#     4   9  15  30  59  84 111 158 195 232 293 356
#     4  10  23  41  62  90 124 157 197 250 303 350
#
# _framework density 20.283118999999999
#
# number of rings (size 3 to 8) (size 9 to 14) (size 15 to 20)
#    0.000    2.000    2.500    2.625    1.750    1.500 
#    2.250    2.500    2.750    0.000    0.000    0.000 
#    0.000    0.000    0.000    0.000    0.000    0.000 
#
# Total GULP energy -89339.985450 kJ/mol
# GULP energy per Si atom -5583.749091 kJ/mol
# Density = 2.023695 g / cm^3
# Si number density = 20.283119 Si / 1000 Ang^3
#
#
#
# Elastic Constant Matrix: (Units=GPa)
#
#
# Indices 1 2 3 4 5 6 
#
# 1 98.3577 30.0920 41.4067 3.5746 13.4956 16.6932
# 2 30.0920 65.9137 46.8902 -2.7231 7.6229 9.9932
# 3 41.4067 46.8902 136.5606 9.1998 7.3640 12.0151
# 4 3.5746 -2.7231 9.1998 21.6672 5.3112 8.0515
# 5 13.4956 7.6229 7.3640 5.3112 34.5209 2.2085
# 6 16.6932 9.9932 12.0151 8.0515 2.2085 27.0627
#
#
#
# Elastic Compliance Matrix: (Units=1/GPa)
#
#
# Indices 1 2 3 4 5 6 
#
# 1 0.013702 -0.002979 -0.002467 0.001804 -0.004037 -0.006464
# 2 -0.002979 0.023245 -0.006985 0.009552 -0.003551 -0.006197
# 3 -0.002467 -0.006985 0.010710 -0.005617 0.001027 0.000933
# 4 0.001804 0.009552 -0.005617 0.058765 -0.009451 -0.018858
# 5 -0.004037 -0.003551 0.001027 -0.009451 0.032340 0.003518
# 6 -0.006464 -0.006197 0.000933 -0.018858 0.003518 0.048136
#
#
# Mechanical properties :
#
#
# Convention : Reuss Voigt Hill
#
# Bulk Modulus (GPa) = 43.86864 59.73442 51.80153
# Shear Modulus (GPa) = 22.79360 28.81301 25.80331
#
# Velocity S-wave (km/s) = 3.35591 3.77310 3.57060
# Velocity P-wave (km/s) = 6.05733 6.96390 6.52638
#
# Compressibility (1/GPa) = 0.02279533
#
# Stress axis : x y z
#
# Youngs Moduli (GPa) = 72.98007 43.01909 93.36988
#
# Poissons Ratio (x) = 0.12817 0.23033
# Poissons Ratio (y) = 0.21744 0.65220
# Poissons Ratio (z) = 0.18003 0.30049
#
# Static dielectric constant tensor:
#      x y z
#    x 1.730040 0.011710 0.015760 
#    y 0.011710 1.749830 0.002980 
#    z 0.015760 0.002980 1.748290 
# 
# From -- ./inp_files/298611.got.cif
#   From: 2010.05.17/outbox.cif.g08.bks.cpg/sg2_150_cif.got.tgz:298611.got - 2010.06.03 11:33:40.
