data_PCOD9037067
_publ_section_title
;
Structure prediction by ZEFSAII (Michael W. Deem and Ramdas Pophale) SiO2 
 PCOD9037067
Probable space group: P -1
;
_chemical_formula_sum "Si O2"
_cell_formula_units_Z 14
_cell_length_a 9.445425
_cell_length_b 8.001189
_cell_length_c 16.161422
_cell_angle_alpha 84.476366
_cell_angle_beta 141.300260
_cell_angle_gamma 114.410280
_cell_volume 638.122986
_symmetry_space_group_name_H-M "P -1"
_symmetry_group_IT_number 2
_symmetry_cell_setting 'triclinic'
loop_
_space_group_symop_operation_xyz
x,y,z
-x,-y,-z
loop_
_atom_site_type_symbol
_atom_site_label
_atom_site_fract_x
_atom_site_fract_y
_atom_site_fract_z
Si Si1 0.816013 0.638883 0.652419
Si Si2 0.895374 0.787841 0.868343
Si Si3 0.318716 0.971800 0.304297
Si Si4 0.420535 0.862025 0.193233
Si Si5 0.882928 0.310020 0.619999
Si Si6 0.990833 0.156885 0.426233
Si Si7 0.627069 0.573007 0.282919
O O1 0.500000 0.500000 0.500000
O O2 0.870793 0.693354 0.770686
O O3 0.924622 0.507109 0.672561
O O4 0.923922 0.828050 0.630672
O O5 0.877567 0.977547 0.833118
O O6 0.636730 0.643753 0.814125
O O7 0.162404 0.825906 0.030503
O O8 0.603683 0.178569 0.445815
O O9 0.374242 0.843428 0.271709
O O10 0.178740 0.846660 0.327911
O O11 0.508956 0.713659 0.210976
O O12 0.680639 0.085486 0.288591
O O13 0.148300 0.376154 0.685152
O O14 0.202517 0.364560 0.556515
O O15 0.000000 0.000000 0.500000
#
# Coordination Sequence:
#
# PCOD9037067 Si02
#       7
#     2   2   2   2   2   2   2
#     4  12  24  44  69 100 133 174 225 275 330 396
#     4  12  26  44  70  97 138 179 219 271 341 397
#     4  11  24  42  70  98 137 171 225 277 333 392
#     4  11  25  44  68  98 139 179 217 271 342 398
#     4  11  25  41  71 104 129 172 232 281 320 385
#     4  10  23  39  72  97 129 166 229 269 325 387
#     4  11  23  44  70  99 132 177 226 273 325 394
#
# _framework density 21.939344999999999
#
# number of rings (size 3 to 8) (size 9 to 14) (size 15 to 20)
#    0.000    0.857    4.286    1.714    8.000    1.714 
#    0.000    1.429    0.000    0.000    0.000    0.000 
#    0.000    0.000    0.000    0.000    0.000    0.000 
#
# Total GULP energy -78269.347517 kJ/mol
# GULP energy per Si atom -5590.667680 kJ/mol
# Density = 2.188941 g / cm^3
# Si number density = 21.939345 Si / 1000 Ang^3
#
#
#
# Elastic Constant Matrix: (Units=GPa)
#
#
# Indices 1 2 3 4 5 6 
#
# 1 163.3558 40.2237 43.8034 -6.3806 6.2199 8.5795
# 2 40.2237 76.9796 27.0089 -10.1204 10.2361 13.3287
# 3 43.8034 27.0089 120.7752 5.2747 12.1786 23.7725
# 4 -6.3806 -10.1204 5.2747 16.5038 -0.0651 3.7367
# 5 6.2199 10.2361 12.1786 -0.0651 30.5353 4.9811
# 6 8.5795 13.3287 23.7725 3.7367 4.9811 46.0708
#
#
#
# Elastic Compliance Matrix: (Units=1/GPa)
#
#
# Indices 1 2 3 4 5 6 
#
# 1 0.007497 -0.003040 -0.002235 0.001644 0.000310 0.000470
# 2 -0.003040 0.018103 -0.002269 0.011546 -0.003864 -0.004019
# 3 -0.002235 -0.002269 0.010817 -0.004852 -0.002481 -0.003847
# 4 0.001644 0.011546 -0.004852 0.071399 -0.001005 -0.006825
# 5 0.000310 -0.003864 -0.002481 -0.001005 0.035194 -0.001383
# 6 0.000470 -0.004019 -0.003847 -0.006825 -0.001383 0.025469
#
#
# Mechanical properties :
#
#
# Convention : Reuss Voigt Hill
#
# Bulk Modulus (GPa) = 46.88453 64.79806 55.84130
# Shear Modulus (GPa) = 26.22233 35.29361 30.75797
#
# Velocity S-wave (km/s) = 3.46094 4.01520 3.74833
# Velocity P-wave (km/s) = 6.11452 7.14808 6.65140
#
# Compressibility (1/GPa) = 0.02132900
#
# Stress axis : x y z
#
# Youngs Moduli (GPa) = 133.38527 55.24085 92.44555
#
# Poissons Ratio (x) = 0.16792 0.20660
# Poissons Ratio (y) = 0.40546 0.20979
# Poissons Ratio (z) = 0.29809 0.12536
#
# Static dielectric constant tensor:
#      x y z
#    x 1.840950 -0.032830 -0.016410 
#    y -0.032830 1.890430 0.013200 
#    z -0.016410 0.013200 1.781290 
# 
# From -- ./inp_files/173199.got.cif
#   From: 2010.05.17/outbox.cif.g08.bks.cpg/sg2_87_cif.got.tgz:173199.got - 2010.06.03 11:33:40.
