data_PCOD9037039
_publ_section_title
;
Structure prediction by ZEFSAII (Michael W. Deem and Ramdas Pophale) SiO2 
 PCOD9037039
Probable space group: P -1
;
_chemical_formula_sum "Si O2"
_cell_formula_units_Z 16
_cell_length_a 12.220558
_cell_length_b 8.354461
_cell_length_c 17.299859
_cell_angle_alpha 126.923228
_cell_angle_beta 150.236983
_cell_angle_gamma 51.872413
_cell_volume 680.161347
_symmetry_space_group_name_H-M "P -1"
_symmetry_group_IT_number 2
_symmetry_cell_setting 'triclinic'
loop_
_space_group_symop_operation_xyz
x,y,z
-x,-y,-z
loop_
_atom_site_type_symbol
_atom_site_label
_atom_site_fract_x
_atom_site_fract_y
_atom_site_fract_z
Si Si1 0.315494 0.978580 0.688616
Si Si2 0.099812 0.279704 0.210049
Si Si3 0.628158 0.410988 0.872307
Si Si4 0.146556 0.547913 0.675176
Si Si5 0.538362 0.964849 0.369346
Si Si6 0.342592 0.132179 0.010678
Si Si7 0.927285 0.325378 0.604797
Si Si8 0.073104 0.026398 0.278395
O O1 0.275321 0.752097 0.581737
O O2 0.312572 0.074927 0.629306
O O3 0.545601 0.972287 0.872126
O O4 0.118753 0.108961 0.662477
O O5 0.130232 0.511028 0.314118
O O6 0.089892 0.135121 0.237740
O O7 0.324500 0.147782 0.268987
O O8 0.866463 0.308786 0.028729
O O9 0.416061 0.469918 0.817817
O O10 0.548503 0.239220 0.721907
O O11 0.637037 0.632075 0.909024
O O12 0.000000 0.500000 0.500000
O O13 0.043509 0.456317 0.657277
O O14 0.083610 0.792006 0.714164
O O15 0.685245 0.027450 0.546201
O O16 0.075722 0.139485 0.855108
O O17 0.500000 0.000000 0.000000
#
# Coordination Sequence:
#
# PCOD9037039 Si02
#       8
#     2   2   2   2   2   2   2   2
#     4  11  24  43  73 102 144 179 233 288 354 409
#     4  11  27  47  71 100 143 187 240 281 346 416
#     4  12  24  43  71 102 140 183 229 285 351 410
#     4  11  19  38  68 101 134 176 229 283 344 404
#     4  12  26  49  73  98 141 194 235 281 345 425
#     4  12  26  41  69 111 146 171 230 300 356 403
#     4  10  23  39  70 103 136 178 232 285 350 402
#     4  11  25  43  71 101 138 184 233 289 345 412
#
# _framework density 23.523828999999999
#
# number of rings (size 3 to 8) (size 9 to 14) (size 15 to 20)
#    0.000    0.750    3.750    3.000    7.000    1.500 
#    0.000    1.250    0.000    0.000    0.000    0.000 
#    0.000    0.000    0.000    0.000    0.000    0.000 
#
# Total GULP energy -89322.649679 kJ/mol
# GULP energy per Si atom -5582.665605 kJ/mol
# Density = 2.347029 g / cm^3
# Si number density = 23.523829 Si / 1000 Ang^3
#
#
#
# Elastic Constant Matrix: (Units=GPa)
#
#
# Indices 1 2 3 4 5 6 
#
# 1 34.8182 10.7930 11.6863 -1.3695 0.0886 2.2213
# 2 10.7930 72.3261 28.4302 19.3496 16.5840 1.9395
# 3 11.6863 28.4302 118.5207 -3.7034 7.4370 5.7982
# 4 -1.3695 19.3496 -3.7034 55.3061 4.8674 3.1671
# 5 0.0886 16.5840 7.4370 4.8674 22.3228 -8.0758
# 6 2.2213 1.9395 5.7982 3.1671 -8.0758 31.9705
#
#
#
# Elastic Compliance Matrix: (Units=1/GPa)
#
#
# Indices 1 2 3 4 5 6 
#
# 1 0.031140 -0.005313 -0.001920 0.002220 0.003697 -0.000779
# 2 -0.005313 0.021106 -0.003688 -0.006329 -0.014210 -0.003205
# 3 -0.001920 -0.003688 0.009790 0.002170 -0.001736 -0.002072
# 4 0.002220 -0.006329 0.002170 0.020777 -0.001501 -0.002601
# 5 0.003697 -0.014210 -0.001736 -0.001501 0.062327 0.016813
# 6 -0.000779 -0.003205 -0.002072 -0.002601 0.016813 0.036408
#
#
# Mechanical properties :
#
#
# Convention : Reuss Voigt Hill
#
# Bulk Modulus (GPa) = 24.88053 36.38708 30.63381
# Shear Modulus (GPa) = 23.06400 33.57026 28.31713
#
# Velocity S-wave (km/s) = 3.13461 3.78176 3.47329
# Velocity P-wave (km/s) = 4.86834 5.87969 5.39775
#
# Compressibility (1/GPa) = 0.04019206
#
# Stress axis : x y z
#
# Youngs Moduli (GPa) = 32.11329 47.37948 102.14965
#
# Poissons Ratio (x) = 0.25172 0.19618
# Poissons Ratio (y) = 0.17061 0.37676
# Poissons Ratio (z) = 0.06167 0.17475
#
# Static dielectric constant tensor:
#      x y z
#    x 1.893470 -0.022860 0.001640 
#    y -0.022860 1.936530 0.026600 
#    z 0.001640 0.026600 1.934910 
# 
# From -- ./inp_files/597445.got.cif
#   From: 2010.05.17/outbox.cif.g08.bks.cpg/sg2_299_cif.got.tgz:597445.got - 2010.06.03 11:33:40.
