data_PCOD9037446
_publ_section_title
;
Structure prediction by ZEFSAII (Michael W. Deem and Ramdas Pophale) SiO2 
 PCOD9037446
Probable space group: P -1
;
_chemical_formula_sum "Si O2"
_cell_formula_units_Z 14
_cell_length_a 10.718475
_cell_length_b 17.843680
_cell_length_c 8.528386
_cell_angle_alpha 140.393808
_cell_angle_beta 121.730523
_cell_angle_gamma 35.447752
_cell_volume 579.800321
_symmetry_space_group_name_H-M "P -1"
_symmetry_group_IT_number 2
_symmetry_cell_setting 'triclinic'
loop_
_space_group_symop_operation_xyz
x,y,z
-x,-y,-z
loop_
_atom_site_type_symbol
_atom_site_label
_atom_site_fract_x
_atom_site_fract_y
_atom_site_fract_z
Si Si1 0.889488 0.486901 0.223044
Si Si2 0.651650 0.792409 0.787422
Si Si3 0.430704 0.380502 0.041533
Si Si4 0.194589 0.718545 0.080444
Si Si5 0.142648 0.756378 0.477246
Si Si6 0.220630 0.962407 0.889336
Si Si7 0.668264 0.999074 0.666606
O O1 0.795200 0.660631 0.522584
O O2 0.157399 0.314647 0.126672
O O3 0.777258 0.544523 0.074227
O O4 0.800083 0.426082 0.159427
O O5 0.467105 0.807649 0.730451
O O6 0.500000 0.000000 0.000000
O O7 0.312601 0.558306 0.341824
O O8 0.612203 0.330503 0.964215
O O9 0.544790 0.199811 0.902363
O O10 0.200843 0.740382 0.305883
O O11 0.960770 0.896975 0.135602
O O12 0.158690 0.870351 0.758813
O O13 0.887544 0.868109 0.492869
O O14 0.233651 0.055623 0.180229
O O15 0.500000 0.000000 0.500000
#
# Coordination Sequence:
#
# PCOD9037446 Si02
#       7
#     2   2   2   2   2   2   2
#     4  10  23  40  67 109 136 177 235 301 350 412
#     4  11  23  39  66 102 143 182 231 292 355 407
#     4  11  25  45  74 101 142 181 240 291 354 415
#     4  11  22  44  79 107 134 178 241 305 351 408
#     4  11  25  49  75 105 137 185 242 294 355 411
#     4  12  25  45  73 103 143 191 233 288 356 418
#     4  12  31  47  67 102 153 193 234 280 352 436
#
# _framework density 24.146246000000001
#
# number of rings (size 3 to 8) (size 9 to 14) (size 15 to 20)
#    0.000    0.857    2.857    4.286    8.000    1.143 
#    2.571    0.000    0.000    0.000    0.000    0.000 
#    0.000    0.000    0.000    0.000    0.000    0.000 
#
# Total GULP energy -78308.695542 kJ/mol
# GULP energy per Si atom -5593.478253 kJ/mol
# Density = 2.409129 g / cm^3
# Si number density = 24.146246 Si / 1000 Ang^3
#
#
#
# Elastic Constant Matrix: (Units=GPa)
#
#
# Indices 1 2 3 4 5 6 
#
# 1 83.1009 35.9462 31.0075 11.1683 24.4969 -23.1369
# 2 35.9462 140.3424 41.3668 3.8371 9.5385 -26.1517
# 3 31.0075 41.3668 105.3935 9.9980 23.7393 -0.1849
# 4 11.1683 3.8371 9.9980 40.1668 -2.2771 13.9857
# 5 24.4969 9.5385 23.7393 -2.2771 24.4614 1.4475
# 6 -23.1369 -26.1517 -0.1849 13.9857 1.4475 43.6038
#
#
#
# Elastic Compliance Matrix: (Units=1/GPa)
#
#
# Indices 1 2 3 4 5 6 
#
# 1 0.031696 -0.001089 0.000928 -0.019121 -0.035387 0.023477
# 2 -0.001089 0.009450 -0.003219 -0.001760 0.000032 0.005640
# 3 0.000928 -0.003219 0.013973 -0.004369 -0.013670 0.000476
# 4 -0.019121 -0.001760 -0.004369 0.042090 0.029514 -0.025700
# 5 -0.035387 0.000032 -0.013670 0.029514 0.094179 -0.031409
# 6 0.023477 0.005640 0.000476 -0.025700 -0.031409 0.048061
#
#
# Mechanical properties :
#
#
# Convention : Reuss Voigt Hill
#
# Bulk Modulus (GPa) = 20.67875 60.60866 40.64371
# Shear Modulus (GPa) = 19.05995 36.34747 27.70371
#
# Velocity S-wave (km/s) = 2.81259 3.88404 3.39090
# Velocity P-wave (km/s) = 4.37380 6.72826 5.67449
#
# Compressibility (1/GPa) = 0.04835882
#
# Stress axis : x y z
#
# Youngs Moduli (GPa) = 31.54950 105.81849 71.56643
#
# Poissons Ratio (x) = 0.11528 -0.06643
# Poissons Ratio (y) = 0.03437 0.23038
# Poissons Ratio (z) = -0.02928 0.34064
#
# Static dielectric constant tensor:
#      x y z
#    x 1.985590 0.038860 -0.009000 
#    y 0.038860 1.929050 -0.009350 
#    z -0.009000 -0.009350 1.979770 
# 
# From -- ./inp_files/282458.got.cif
#   From: 2010.05.17/outbox.cif.g08.bks.cpg/sg2_142_cif.got.tgz:282458.got - 2010.06.03 11:33:40.
