data_PCOD9037957
_publ_section_title
;
Structure prediction by ZEFSAII (Michael W. Deem and Ramdas Pophale) SiO2 
 PCOD9037957
Probable space group: P -1
;
_chemical_formula_sum "Si O2"
_cell_formula_units_Z 16
_cell_length_a 15.138828
_cell_length_b 11.084315
_cell_length_c 14.182698
_cell_angle_alpha 117.981715
_cell_angle_beta 28.396228
_cell_angle_gamma 134.135086
_cell_volume 737.149447
_symmetry_space_group_name_H-M "P -1"
_symmetry_group_IT_number 2
_symmetry_cell_setting 'triclinic'
loop_
_space_group_symop_operation_xyz
x,y,z
-x,-y,-z
loop_
_atom_site_type_symbol
_atom_site_label
_atom_site_fract_x
_atom_site_fract_y
_atom_site_fract_z
Si Si1 0.551984 0.584638 0.751032
Si Si2 0.818849 0.440359 0.269468
Si Si3 0.534339 0.651360 0.084727
Si Si4 0.424769 0.778791 0.075058
Si Si5 0.968237 0.007496 0.883142
Si Si6 0.901403 0.202753 0.741836
Si Si7 0.383465 0.090382 0.654269
Si Si8 0.796876 0.592048 0.169863
O O1 0.529036 0.439777 0.786275
O O2 0.383924 0.484689 0.778286
O O3 0.841918 0.745734 0.508048
O O4 0.457945 0.668449 0.930455
O O5 0.608608 0.302341 0.492218
O O6 0.693936 0.448614 0.298761
O O7 0.020398 0.645752 0.198225
O O8 0.959839 0.372583 0.081148
O O9 0.384456 0.696063 0.186796
O O10 0.500000 0.500000 0.000000
O O11 0.822998 0.848268 0.883657
O O12 0.207775 0.768595 0.234840
O O13 0.681313 0.994966 0.908901
O O14 0.154360 0.003009 0.765139
O O15 0.117979 0.220105 0.799971
O O16 0.740015 0.944367 0.141768
O O17 0.500000 0.000000 0.500000
#
# Coordination Sequence:
#
# PCOD9037957 Si02
#       8
#     2   2   2   2   2   2   2   2
#     4  11  22  42  64  91 124 163 206 260 313 375
#     4  11  23  40  64  94 126 168 206 263 317 379
#     4  10  23  41  65  90 125 167 208 258 308 362
#     4  10  23  42  61  92 124 163 213 259 303 367
#     4  11  22  41  65  92 129 165 209 261 312 383
#     4  11  22  40  68  87 124 168 205 256 315 364
#     4  11  23  40  65  97 127 166 207 256 326 377
#     4  11  23  40  65  94 128 162 213 259 319 382
#
# _framework density 21.705234000000001
#
# number of rings (size 3 to 8) (size 9 to 14) (size 15 to 20)
#    0.000    1.250    2.500    4.125    0.000    3.500 
#    0.000    2.500    0.000    0.000    0.000    0.000 
#    0.000    0.000    0.000    0.000    0.000    0.000 
#
# Total GULP energy -89415.916729 kJ/mol
# GULP energy per Si atom -5588.494796 kJ/mol
# Density = 2.165583 g / cm^3
# Si number density = 21.705234 Si / 1000 Ang^3
#
#
#
# Elastic Constant Matrix: (Units=GPa)
#
#
# Indices 1 2 3 4 5 6 
#
# 1 139.6177 38.6967 24.2191 -14.1335 -10.6205 -17.9832
# 2 38.6967 114.0057 28.3685 -9.8079 -14.0255 4.6536
# 3 24.2191 28.3685 78.7624 -2.2615 -6.1178 -12.2706
# 4 -14.1335 -9.8079 -2.2615 28.0851 -1.6971 -8.4814
# 5 -10.6205 -14.0255 -6.1178 -1.6971 19.0372 -4.1938
# 6 -17.9832 4.6536 -12.2706 -8.4814 -4.1938 29.5443
#
#
#
# Elastic Compliance Matrix: (Units=1/GPa)
#
#
# Indices 1 2 3 4 5 6 
#
# 1 0.010439 -0.002417 -0.000025 0.007832 0.006926 0.009956
# 2 -0.002417 0.011396 -0.003427 0.001778 0.005351 -0.003420
# 3 -0.000025 -0.003427 0.015716 0.002920 0.004655 0.008551
# 4 0.007832 0.001778 0.002920 0.047895 0.015661 0.021672
# 5 0.006926 0.005351 0.004655 0.015661 0.067497 0.019384
# 6 0.009956 -0.003420 0.008551 0.021672 0.019384 0.052971
#
#
# Mechanical properties :
#
#
# Convention : Reuss Voigt Hill
#
# Bulk Modulus (GPa) = 38.74378 57.21715 47.98047
# Shear Modulus (GPa) = 22.09882 31.40674 26.75278
#
# Velocity S-wave (km/s) = 3.19428 3.80803 3.51458
# Velocity P-wave (km/s) = 5.61189 6.76410 6.21475
#
# Compressibility (1/GPa) = 0.02581059
#
# Stress axis : x y z
#
# Youngs Moduli (GPa) = 95.79601 87.75275 63.62858
#
# Poissons Ratio (x) = 0.21214 0.00161
# Poissons Ratio (y) = 0.23159 0.21807
# Poissons Ratio (z) = 0.00242 0.30075
#
# Static dielectric constant tensor:
#      x y z
#    x 1.833260 0.011050 0.010680 
#    y 0.011050 1.810150 -0.005900 
#    z 0.010680 -0.005900 1.766200 
# 
# From -- ./inp_files/532577.got.cif
#   From: 2010.05.17/outbox.cif.g08.bks.cpg/sg2_267_cif.got.tgz:532577.got - 2010.06.03 11:33:40.
