data_PCOD9037217
_publ_section_title
;
Structure prediction by ZEFSAII (Michael W. Deem and Ramdas Pophale) SiO2 
 PCOD9037217
Probable space group: P -1
;
_chemical_formula_sum "Si O2"
_cell_formula_units_Z 14
_cell_length_a 7.983648
_cell_length_b 25.313708
_cell_length_c 27.797535
_cell_angle_alpha 10.597758
_cell_angle_beta 146.370032
_cell_angle_gamma 144.500899
_cell_volume 571.691401
_symmetry_space_group_name_H-M "P -1"
_symmetry_group_IT_number 2
_symmetry_cell_setting 'triclinic'
loop_
_space_group_symop_operation_xyz
x,y,z
-x,-y,-z
loop_
_atom_site_type_symbol
_atom_site_label
_atom_site_fract_x
_atom_site_fract_y
_atom_site_fract_z
Si Si1 0.396985 0.577797 0.641569
Si Si2 0.565239 0.595809 0.834492
Si Si3 0.473104 0.160998 0.900416
Si Si4 0.752073 0.378281 0.630942
Si Si5 0.947034 0.338597 0.922708
Si Si6 0.363530 0.817903 0.859566
Si Si7 0.757116 0.852187 0.739072
O O1 0.650747 0.475748 0.754967
O O2 0.470103 0.397139 0.869534
O O3 0.070906 0.493602 0.620322
O O4 0.444798 0.919520 0.349050
O O5 0.725173 0.377537 0.031713
O O6 0.671662 0.575409 0.933588
O O7 0.210950 0.539473 0.789739
O O8 0.542779 0.939771 0.515417
O O9 0.341934 0.478952 0.570421
O O10 0.800709 0.173583 0.991640
O O11 0.500000 0.000000 0.000000
O O12 0.271925 0.964979 0.061887
O O13 0.500000 0.500000 0.500000
O O14 0.122335 0.174785 0.154093
O O15 0.059089 0.937862 0.705377
#
# Coordination Sequence:
#
# PCOD9037217 Si02
#       7
#     2   2   2   2   2   2   2
#     4  11  25  45  68 104 143 182 234 288 347 416
#     4  11  24  42  76  99 141 190 230 286 352 410
#     4  10  24  40  66  97 133 173 234 278 341 412
#     4  10  23  40  63  94 134 173 227 284 334 408
#     4  11  25  43  71  98 144 184 228 294 351 408
#     4  11  25  44  73 105 142 185 232 285 346 417
#     4  10  24  48  65 109 141 180 238 288 342 422
#
# _framework density 24.488737
#
# number of rings (size 3 to 8) (size 9 to 14) (size 15 to 20)
#    0.000    1.429    1.429    1.714   12.000    1.143 
#    0.000    2.143    0.000    0.000    0.000    0.000 
#    0.000    0.000    0.000    0.000    0.000    0.000 
#
# Total GULP energy -78155.496548 kJ/mol
# GULP energy per Si atom -5582.535468 kJ/mol
# Density = 2.443300 g / cm^3
# Si number density = 24.488737 Si / 1000 Ang^3
#
#
#
# Elastic Constant Matrix: (Units=GPa)
#
#
# Indices 1 2 3 4 5 6 
#
# 1 51.1892 15.9865 31.8024 1.6692 2.7864 -15.9775
# 2 15.9865 185.3096 36.0248 -3.6313 -21.9181 -21.8499
# 3 31.8024 36.0248 127.7398 3.9487 -38.8461 -5.2267
# 4 1.6692 -3.6313 3.9487 37.1722 -10.2624 7.2741
# 5 2.7864 -21.9181 -38.8461 -10.2624 67.2067 -28.5024
# 6 -15.9775 -21.8499 -5.2267 7.2741 -28.5024 58.0040
#
#
#
# Elastic Compliance Matrix: (Units=1/GPa)
#
#
# Indices 1 2 3 4 5 6 
#
# 1 0.025963 -0.000819 -0.007159 -0.002463 -0.003914 0.004584
# 2 -0.000819 0.006454 -0.000353 0.000975 0.003732 0.003885
# 3 -0.007159 -0.000353 0.012550 0.000777 0.008970 0.003336
# 4 -0.002463 0.000975 0.000777 0.028595 0.004564 -0.001585
# 5 -0.003914 0.003732 0.008970 0.004564 0.028271 0.014455
# 6 0.004584 0.003885 0.003336 -0.001585 0.014455 0.027569
#
#
# Mechanical properties :
#
#
# Convention : Reuss Voigt Hill
#
# Bulk Modulus (GPa) = 35.32818 59.09625 47.21221
# Shear Modulus (GPa) = 32.15446 51.17157 41.66302
#
# Velocity S-wave (km/s) = 3.62751 4.57617 4.12917
# Velocity P-wave (km/s) = 5.65709 7.21846 6.48494
#
# Compressibility (1/GPa) = 0.02830602
#
# Stress axis : x y z
#
# Youngs Moduli (GPa) = 38.51624 154.93878 79.67832
#
# Poissons Ratio (x) = 0.12685 0.57045
# Poissons Ratio (y) = 0.03153 0.02810
# Poissons Ratio (z) = 0.27575 0.05465
#
# Static dielectric constant tensor:
#      x y z
#    x 1.944830 -0.029340 -0.034940 
#    y -0.029340 1.942240 -0.042620 
#    z -0.034940 -0.042620 2.086990 
# 
# From -- ./inp_files/37026.got.cif
#   From: 2010.05.17/outbox.cif.g08.bks.cpg/sg2_19_cif.got.tgz:37026.got - 2010.06.03 11:33:40.
