data_PCOD9037601
_publ_section_title
;
Structure prediction by ZEFSAII (Michael W. Deem and Ramdas Pophale) SiO2 
 PCOD9037601
Probable space group: P -1
;
_chemical_formula_sum "Si O2"
_cell_formula_units_Z 15
_cell_length_a 18.194857
_cell_length_b 7.073689
_cell_length_c 12.997144
_cell_angle_alpha 111.982277
_cell_angle_beta 155.696545
_cell_angle_gamma 66.847097
_cell_volume 632.456037
_symmetry_space_group_name_H-M "P -1"
_symmetry_group_IT_number 2
_symmetry_cell_setting 'triclinic'
loop_
_space_group_symop_operation_xyz
x,y,z
-x,-y,-z
loop_
_atom_site_type_symbol
_atom_site_label
_atom_site_fract_x
_atom_site_fract_y
_atom_site_fract_z
Si Si1 0.243589 0.463173 0.082364
Si Si2 0.353226 0.370934 0.657402
Si Si3 0.299956 0.941842 0.534939
Si Si4 0.551283 0.180184 0.529590
Si Si5 0.000000 0.000000 0.500000
Si Si6 0.269465 0.615885 0.796060
Si Si7 0.672871 0.779441 0.072436
Si Si8 0.905787 0.416707 0.765506
O O1 0.370285 0.334399 0.303064
O O2 0.304612 0.688276 0.208453
O O3 0.281929 0.349657 0.001084
O O4 0.039120 0.447497 0.848726
O O5 0.314418 0.563310 0.723729
O O6 0.284810 0.447500 0.474260
O O7 0.250685 0.185266 0.524256
O O8 0.564785 0.294207 0.918591
O O9 0.369354 0.893769 0.496308
O O10 0.137177 0.813373 0.322724
O O11 0.463378 0.872645 0.808614
O O12 0.500000 0.000000 0.500000
O O13 0.913755 0.232643 0.397456
O O14 0.202025 0.041871 0.729630
O O15 0.283163 0.389243 0.817748
O O16 0.000000 0.500000 0.000000
#
# Coordination Sequence:
#
# PCOD9037601 Si02
#       8
#     2   2   2   2   1   2   2   2
#     4  10  24  42  64 104 138 187 235 300 357 423
#     4  11  26  44  71 106 146 192 243 296 375 423
#     4  11  24  44  72 105 142 198 239 297 369 435
#     4  10  23  40  69  99 137 185 248 296 356 421
#     4  12  24  44  72 106 136 182 248 290 366 428
#     4  11  25  46  73 107 144 188 242 307 357 441
#     4  11  24  44  73 103 144 186 238 304 363 431
#     4  12  25  45  70 102 152 191 244 298 355 440
#
# _framework density 23.717063
#
# number of rings (size 3 to 8) (size 9 to 14) (size 15 to 20)
#    0.000    1.067    4.000    1.200    3.733    4.267 
#    0.000    0.000    0.000    0.000    0.000    0.000 
#    0.000    0.000    0.000    0.000    0.000    0.000 
#
# Total GULP energy -83719.270594 kJ/mol
# GULP energy per Si atom -5581.284706 kJ/mol
# Density = 2.366308 g / cm^3
# Si number density = 23.717063 Si / 1000 Ang^3
#
#
#
# Elastic Constant Matrix: (Units=GPa)
#
#
# Indices 1 2 3 4 5 6 
#
# 1 55.6760 10.6443 13.9759 -0.7416 -3.2341 8.8378
# 2 10.6443 123.3305 24.1311 25.0797 -1.2805 26.6234
# 3 13.9759 24.1311 94.5536 12.3656 2.6351 4.0749
# 4 -0.7416 25.0797 12.3656 50.5503 12.7900 13.3989
# 5 -3.2341 -1.2805 2.6351 12.7900 28.2183 2.9709
# 6 8.8378 26.6234 4.0749 13.3989 2.9709 34.5837
#
#
#
# Elastic Compliance Matrix: (Units=1/GPa)
#
#
# Indices 1 2 3 4 5 6 
#
# 1 0.019779 -0.000365 -0.002929 0.002079 0.002152 -0.005419
# 2 -0.000365 0.010809 -0.001993 -0.003874 0.003102 -0.006758
# 3 -0.002929 -0.001993 0.011751 -0.002234 -0.000703 0.001824
# 4 0.002079 -0.003874 -0.002234 0.026907 -0.011214 -0.006747
# 5 0.002152 0.003102 -0.000703 -0.011214 0.041189 -0.002049
# 6 -0.005419 -0.006758 0.001824 -0.006747 -0.002049 0.038078
#
#
# Mechanical properties :
#
#
# Convention : Reuss Voigt Hill
#
# Bulk Modulus (GPa) = 31.48123 41.22919 36.35521
# Shear Modulus (GPa) = 29.46818 37.65773 33.56296
#
# Velocity S-wave (km/s) = 3.52872 3.98903 3.76592
# Velocity P-wave (km/s) = 5.46854 6.21595 5.85419
#
# Compressibility (1/GPa) = 0.03176496
#
# Stress axis : x y z
#
# Youngs Moduli (GPa) = 50.55902 92.51847 85.10086
#
# Poissons Ratio (x) = 0.03374 0.24924
# Poissons Ratio (y) = 0.01844 0.16962
# Poissons Ratio (z) = 0.14808 0.18440
#
# Static dielectric constant tensor:
#      x y z
#    x 1.935300 0.039550 -0.041190 
#    y 0.039550 1.987540 -0.055520 
#    z -0.041190 -0.055520 1.953070 
# 
# From -- ./inp_files/46952.got.cif
#   From: 2010.05.17/outbox.cif.g08.bks.cpg/sg2_24_cif.got.tgz:46952.got - 2010.06.03 11:33:40.
