data_PCOD9037369
_publ_section_title
;
Structure prediction by ZEFSAII (Michael W. Deem and Ramdas Pophale) SiO2 
 PCOD9037369
Probable space group: P -1
;
_chemical_formula_sum "Si O2"
_cell_formula_units_Z 16
_cell_length_a 14.328409
_cell_length_b 5.377389
_cell_length_c 18.437309
_cell_angle_alpha 82.697339
_cell_angle_beta 151.701424
_cell_angle_gamma 89.941755
_cell_volume 648.435856
_symmetry_space_group_name_H-M "P -1"
_symmetry_group_IT_number 2
_symmetry_cell_setting 'triclinic'
loop_
_space_group_symop_operation_xyz
x,y,z
-x,-y,-z
loop_
_atom_site_type_symbol
_atom_site_label
_atom_site_fract_x
_atom_site_fract_y
_atom_site_fract_z
Si Si1 0.173624 0.316655 0.079732
Si Si2 0.814525 0.875371 0.401322
Si Si3 0.073855 0.707965 0.717068
Si Si4 0.412396 0.897044 0.178294
Si Si5 0.316367 0.860025 0.368743
Si Si6 0.502475 0.497821 0.377430
Si Si7 0.081534 0.737596 0.883300
Si Si8 0.715909 0.823831 0.176501
O O1 0.373422 0.311206 0.263060
O O2 0.222813 0.026812 0.096296
O O3 0.150611 0.469626 0.982570
O O4 0.000000 0.500000 0.000000
O O5 0.591983 0.032547 0.272908
O O6 0.750296 0.753494 0.288248
O O7 0.915694 0.705167 0.544668
O O8 0.000000 0.000000 0.500000
O O9 0.003836 0.702282 0.751534
O O10 0.241943 0.443402 0.828460
O O11 0.138994 0.980010 0.746096
O O12 0.524704 0.661538 0.315479
O O13 0.288304 0.838123 0.025700
O O14 0.369850 0.680251 0.341466
O O15 0.315622 0.676877 0.445381
O O16 0.500000 0.000000 0.500000
O O17 0.106692 0.070251 0.213605
O O18 0.500000 0.000000 0.000000
#
# Coordination Sequence:
#
# PCOD9037369 Si02
#       8
#     2   2   2   2   2   2   2   2
#     4  11  23  43  68  99 145 192 239 301 364 446
#     4  10  25  49  73 104 143 190 243 312 379 450
#     4  11  26  45  71 111 140 190 241 308 378 450
#     4  11  24  46  70 100 143 189 249 301 370 446
#     4  11  23  42  65 102 149 188 241 298 370 438
#     4  10  23  40  66 102 135 194 243 297 363 440
#     4  11  26  41  68 105 142 189 246 304 371 445
#     4  11  24  48  76 105 145 188 240 307 381 453
#
# _framework density 24.674761
#
# number of rings (size 3 to 8) (size 9 to 14) (size 15 to 20)
#    0.000    1.250    0.000    4.500    7.000    4.000 
#   13.500    0.000    0.000    0.000    0.000    0.000 
#    0.000    0.000    0.000    0.000    0.000    0.000 
#
# Total GULP energy -89241.156894 kJ/mol
# GULP energy per Si atom -5577.572306 kJ/mol
# Density = 2.461860 g / cm^3
# Si number density = 24.674761 Si / 1000 Ang^3
#
#
#
# Elastic Constant Matrix: (Units=GPa)
#
#
# Indices 1 2 3 4 5 6 
#
# 1 64.6549 15.3543 35.1783 13.1924 -1.9193 -2.2149
# 2 15.3543 50.0001 19.6516 -3.6257 -4.8762 -2.8674
# 3 35.1783 19.6516 116.9428 -10.3863 -11.6966 21.3818
# 4 13.1924 -3.6257 -10.3863 30.5541 -4.5326 -0.4238
# 5 -1.9193 -4.8762 -11.6966 -4.5326 49.0055 4.4586
# 6 -2.2149 -2.8674 21.3818 -0.4238 4.4586 22.8337
#
#
#
# Elastic Compliance Matrix: (Units=1/GPa)
#
#
# Indices 1 2 3 4 5 6 
#
# 1 0.026595 -0.004465 -0.011712 -0.016542 -0.004970 0.013649
# 2 -0.004465 0.023268 -0.003026 0.003927 0.001314 0.005139
# 3 -0.011712 -0.003026 0.017715 0.011383 0.006260 -0.019116
# 4 -0.016542 0.003927 0.011383 0.045187 0.007772 -0.012450
# 5 -0.004970 0.001314 0.006260 0.007772 0.023522 -0.010628
# 6 0.013649 0.005139 -0.019116 -0.012450 -0.010628 0.065509
#
#
# Mechanical properties :
#
#
# Convention : Reuss Voigt Hill
#
# Bulk Modulus (GPa) = 34.28009 41.32956 37.80482
# Shear Modulus (GPa) = 20.00590 31.23957 25.62273
#
# Velocity S-wave (km/s) = 2.85052 3.56202 3.22595
# Velocity P-wave (km/s) = 4.97563 5.80547 5.40649
#
# Compressibility (1/GPa) = 0.02917145
#
# Stress axis : x y z
#
# Youngs Moduli (GPa) = 37.60146 42.97718 56.44879
#
# Poissons Ratio (x) = 0.19190 0.66111
# Poissons Ratio (y) = 0.16790 0.17083
# Poissons Ratio (z) = 0.44038 0.13006
#
# Static dielectric constant tensor:
#      x y z
#    x 2.084070 0.026280 0.031950 
#    y 0.026280 2.054320 0.010110 
#    z 0.031950 0.010110 1.916180 
# 
# From -- ./inp_files/480568.got.cif
#   From: 2010.05.17/outbox.cif.g08.bks.cpg/sg2_241_cif.got.tgz:480568.got - 2010.06.03 11:33:40.
