data_PCOD9037856
_publ_section_title
;
Structure prediction by ZEFSAII (Michael W. Deem and Ramdas Pophale) SiO2 
 PCOD9037856
Probable space group: P -1
;
_chemical_formula_sum "Si O2"
_cell_formula_units_Z 16
_cell_length_a 12.352989
_cell_length_b 15.839120
_cell_length_c 5.124249
_cell_angle_alpha 87.681320
_cell_angle_beta 67.949540
_cell_angle_gamma 49.103050
_cell_volume 671.583084
_symmetry_space_group_name_H-M "P -1"
_symmetry_group_IT_number 2
_symmetry_cell_setting 'triclinic'
loop_
_space_group_symop_operation_xyz
x,y,z
-x,-y,-z
loop_
_atom_site_type_symbol
_atom_site_label
_atom_site_fract_x
_atom_site_fract_y
_atom_site_fract_z
Si Si1 0.573698 0.892401 0.761125
Si Si2 0.370009 0.477333 0.392827
Si Si3 0.112621 0.227748 0.835865
Si Si4 0.263814 0.985119 0.775593
Si Si5 0.191182 0.916523 0.347240
Si Si6 0.412342 0.649036 0.303162
Si Si7 0.900765 0.446721 0.729422
Si Si8 0.205389 0.328580 0.140161
O O1 0.741867 0.841918 0.498598
O O2 0.442490 0.934208 0.658920
O O3 0.621057 0.784231 0.892746
O O4 0.500000 0.000000 0.000000
O O5 0.341374 0.591884 0.438479
O O6 0.458533 0.398437 0.577942
O O7 0.207533 0.515624 0.430507
O O8 0.492376 0.405476 0.048461
O O9 0.940057 0.340515 0.859041
O O10 0.133997 0.123730 0.943100
O O11 0.155887 0.280172 0.992403
O O12 0.233622 0.965954 0.517827
O O13 0.246448 0.920237 0.012493
O O14 0.280456 0.787067 0.373356
O O15 0.000000 0.000000 0.500000
O O16 0.819918 0.563664 0.946579
O O17 0.078695 0.386369 0.486420
#
# Coordination Sequence:
#
# PCOD9037856 Si02
#       8
#     2   2   2   2   2   2   2   2
#     4  11  23  43  66 103 146 184 232 291 337 429
#     4  10  23  45  74  99 131 183 224 290 346 418
#     4  11  24  42  69 101 145 186 233 284 341 429
#     4  12  27  44  73 105 134 196 231 277 368 411
#     4  12  29  49  71 104 143 177 238 302 347 419
#     4  10  24  46  69 102 133 169 236 289 352 402
#     4  10  24  41  66 101 137 186 226 286 350 409
#     4  10  23  41  64 100 144 175 235 278 346 415
#
# _framework density 23.824304999999999
#
# number of rings (size 3 to 8) (size 9 to 14) (size 15 to 20)
#    0.000    1.250    1.250    2.625   10.500    0.000 
#    2.250    0.000    0.000    0.000    0.000    0.000 
#    0.000    0.000    0.000    0.000    0.000    0.000 
#
# Total GULP energy -89570.058378 kJ/mol
# GULP energy per Si atom -5598.128649 kJ/mol
# Density = 2.377008 g / cm^3
# Si number density = 23.824305 Si / 1000 Ang^3
#
#
#
# Elastic Constant Matrix: (Units=GPa)
#
#
# Indices 1 2 3 4 5 6 
#
# 1 80.2621 38.3700 -0.7318 12.3932 10.9620 -15.5513
# 2 38.3700 225.6006 19.0963 20.4568 8.4304 -11.3282
# 3 -0.7318 19.0963 54.4777 1.4943 9.2051 12.5735
# 4 12.3932 20.4568 1.4943 28.1894 3.1637 2.1596
# 5 10.9620 8.4304 9.2051 3.1637 36.6565 -6.1841
# 6 -15.5513 -11.3282 12.5735 2.1596 -6.1841 8.7033
#
#
#
# Elastic Compliance Matrix: (Units=1/GPa)
#
#
# Indices 1 2 3 4 5 6 
#
# 1 0.091039 0.022969 -0.122308 -0.094025 0.082434 0.451166
# 2 0.022969 0.013410 -0.042508 -0.032119 0.028481 0.148112
# 3 -0.122308 -0.042508 0.221448 0.145384 -0.145508 -0.733255
# 4 -0.094025 -0.032119 0.145384 0.144431 -0.102649 -0.528620
# 5 0.082434 0.028481 -0.145508 -0.102649 0.127641 0.510743
# 6 0.451166 0.148112 -0.733255 -0.528620 0.510743 2.667224
#
#
# Mechanical properties :
#
#
# Convention : Reuss Voigt Hill
#
# Bulk Modulus (GPa) = 23.69457 52.64548 38.17003
# Shear Modulus (GPa) = 1.40333 34.95023 18.17678
#
# Velocity S-wave (km/s) = 0.76832 3.83430 2.76515
# Velocity P-wave (km/s) = 3.27936 6.46125 5.12357
#
# Compressibility (1/GPa) = 0.04220375
#
# Stress axis : x y z
#
# Youngs Moduli (GPa) = 10.98430 74.57348 4.51574
#
# Poissons Ratio (x) = -1.71289 0.55231
# Poissons Ratio (y) = -0.25230 0.19195
# Poissons Ratio (z) = 1.34346 3.16995
#
# Static dielectric constant tensor:
#      x y z
#    x 1.881540 0.043830 -0.038170 
#    y 0.043830 2.002840 -0.078300 
#    z -0.038170 -0.078300 1.934460 
# 
# From -- ./inp_files/77822.got.cif
#   From: 2010.05.17/outbox.cif.g08.bks.cpg/sg2_39_cif.got.tgz:77822.got - 2010.06.03 11:33:40.
