data_PCOD9037260
_publ_section_title
;
Structure prediction by ZEFSAII (Michael W. Deem and Ramdas Pophale) SiO2 
 PCOD9037260
Probable space group: P -1
;
_chemical_formula_sum "Si O2"
_cell_formula_units_Z 13
_cell_length_a 4.727597
_cell_length_b 15.758466
_cell_length_c 18.036957
_cell_angle_alpha 23.055409
_cell_angle_beta 81.276816
_cell_angle_gamma 71.598392
_cell_volume 463.190071
_symmetry_space_group_name_H-M "P -1"
_symmetry_group_IT_number 2
_symmetry_cell_setting 'triclinic'
loop_
_space_group_symop_operation_xyz
x,y,z
-x,-y,-z
loop_
_atom_site_type_symbol
_atom_site_label
_atom_site_fract_x
_atom_site_fract_y
_atom_site_fract_z
Si Si1 0.420520 0.458080 0.649013
Si Si2 0.815211 0.089697 0.289059
Si Si3 0.539463 0.762108 0.520780
Si Si4 0.014076 0.820764 0.252539
Si Si5 0.000000 0.000000 0.500000
Si Si6 0.591576 0.537059 0.113806
Si Si7 0.297957 0.149225 0.022189
O O1 0.495171 0.652666 0.534210
O O2 0.179887 0.592846 0.483736
O O3 0.760502 0.256325 0.766482
O O4 0.268975 0.337239 0.807968
O O5 0.790837 0.867701 0.427114
O O6 0.705074 0.095021 0.372808
O O7 0.624710 0.323922 0.059287
O O8 0.195278 0.994054 0.368485
O O9 0.588867 0.562204 0.741507
O O10 0.043314 0.046319 0.108768
O O11 0.639951 0.915427 0.180513
O O12 0.089246 0.709349 0.717319
O O13 0.679221 0.728155 0.000694
#
# Coordination Sequence:
#
# PCOD9037260 Si02
#       7
#     2   2   2   2   1   2   2
#     4  10  23  40  64  93 130 166 210 261 300 360
#     4  11  23  43  66  92 128 164 204 256 313 373
#     4  10  24  41  64  96 126 166 211 250 307 372
#     4  11  24  40  63  94 127 168 212 254 308 362
#     4  10  24  44  66  98 122 158 210 258 314 378
#     4  10  23  42  67  91 127 165 205 259 314 371
#     4  11  24  41  63  92 126 168 210 254 311 369
#
# _framework density 28.066234999999999
#
# number of rings (size 3 to 8) (size 9 to 14) (size 15 to 20)
#    0.000    1.538    0.000    3.231    0.000   17.231 
#    0.000    4.615    0.000    0.000    0.000    0.000 
#    0.000    0.000    0.000    0.000    0.000    0.000 
#
# Total GULP energy -72818.410478 kJ/mol
# GULP energy per Si atom -5601.416191 kJ/mol
# Density = 2.800235 g / cm^3
# Si number density = 28.066235 Si / 1000 Ang^3
#
#
#
# Elastic Constant Matrix: (Units=GPa)
#
#
# Indices 1 2 3 4 5 6 
#
# 1 98.3573 22.3874 20.0370 -0.7908 1.8460 -0.0146
# 2 22.3874 55.6999 27.8113 -6.1923 -10.6536 16.7127
# 3 20.0370 27.8113 160.7388 12.9937 7.4678 6.2762
# 4 -0.7908 -6.1923 12.9937 69.7802 4.3150 3.2261
# 5 1.8460 -10.6536 7.4678 4.3150 33.9540 0.0745
# 6 -0.0146 16.7127 6.2762 3.2261 0.0745 35.1661
#
#
#
# Elastic Compliance Matrix: (Units=1/GPa)
#
#
# Indices 1 2 3 4 5 6 
#
# 1 0.011614 -0.005792 -0.000426 -0.000292 -0.002324 0.002865
# 2 -0.005792 0.028731 -0.004463 0.003311 0.009919 -0.013185
# 3 -0.000426 -0.004463 0.007269 -0.001628 -0.002771 0.000979
# 4 -0.000292 0.003311 -0.001628 0.015078 -0.000497 -0.002665
# 5 -0.002324 0.009919 -0.002771 -0.000497 0.033372 -0.004246
# 6 0.002865 -0.013185 0.000979 -0.002665 -0.004246 0.034783
#
#
# Mechanical properties :
#
#
# Convention : Reuss Voigt Hill
#
# Bulk Modulus (GPa) = 38.09179 50.58526 44.33853
# Shear Modulus (GPa) = 31.06373 44.08406 37.57389
#
# Velocity S-wave (km/s) = 3.33047 3.96752 3.66287
# Velocity P-wave (km/s) = 5.32832 6.24908 5.80698
#
# Compressibility (1/GPa) = 0.02625237
#
# Stress axis : x y z
#
# Youngs Moduli (GPa) = 86.10447 34.80533 137.57663
#
# Poissons Ratio (x) = 0.20159 0.05859
# Poissons Ratio (y) = 0.49871 0.61398
# Poissons Ratio (z) = 0.03667 0.15533
#
# Static dielectric constant tensor:
#      x y z
#    x 1.766040 0.629860 0.197630 
#    y 0.629860 1.000260 -0.400430 
#    z 0.197630 -0.400430 1.995620 
# 
# From -- ./inp_files/550701.got.cif
#   From: 2010.05.17/outbox.cif.g08.bks.cpg/sg2_276_cif.got.tgz:550701.got - 2010.06.03 11:33:40.
