data_PCOD9037249
_publ_section_title
;
Structure prediction by ZEFSAII (Michael W. Deem and Ramdas Pophale) SiO2 
 PCOD9037249
Probable space group: P -1
;
_chemical_formula_sum "Si O2"
_cell_formula_units_Z 12
_cell_length_a 14.514096
_cell_length_b 6.962230
_cell_length_c 5.107657
_cell_angle_alpha 104.002057
_cell_angle_beta 87.162935
_cell_angle_gamma 103.253548
_cell_volume 487.446970
_symmetry_space_group_name_H-M "P -1"
_symmetry_group_IT_number 2
_symmetry_cell_setting 'triclinic'
loop_
_space_group_symop_operation_xyz
x,y,z
-x,-y,-z
loop_
_atom_site_type_symbol
_atom_site_label
_atom_site_fract_x
_atom_site_fract_y
_atom_site_fract_z
Si Si1 0.938276 0.415376 0.730807
Si Si2 0.172953 0.020069 0.504149
Si Si3 0.615360 0.512732 0.216042
Si Si4 0.515009 0.815432 0.189505
Si Si5 0.205961 0.302703 0.084235
Si Si6 0.653830 0.169420 0.409645
O O1 0.909531 0.171155 0.631807
O O2 0.000000 0.500000 0.500000
O O3 0.848250 0.518563 0.795360
O O4 0.000000 0.500000 0.000000
O O5 0.255225 0.909063 0.549509
O O6 0.157870 0.157982 0.800272
O O7 0.202541 0.164766 0.297159
O O8 0.571177 0.702650 0.353641
O O9 0.689187 0.596557 0.002150
O O10 0.669260 0.396226 0.370857
O O11 0.524776 0.343871 0.081222
O O12 0.422127 0.851748 0.355228
O O13 0.593457 0.009966 0.157538
#
# Coordination Sequence:
#
# PCOD9037249 Si02
#       6
#     2   2   2   2   2   2
#     4  12  29  52  84 112 148 192 244 308 385 456
#     4  12  29  49  78 115 154 193 249 308 376 448
#     4  11  24  41  70 101 147 198 249 304 363 428
#     4  10  23  40  64 104 146 192 262 298 361 416
#     4  12  29  49  78 115 154 193 249 308 376 448
#     4  11  24  41  70 101 147 198 249 304 363 428
#
# _framework density 24.61806
#
# number of rings (size 3 to 8) (size 9 to 14) (size 15 to 20)
#    0.000    0.667    1.667    4.000   11.667    9.333 
#    0.000    0.000    0.000    0.000    0.000    0.000 
#    0.000    0.000    0.000    0.000    0.000    0.000 
#
# Total GULP energy -67187.376629 kJ/mol
# GULP energy per Si atom -5598.948052 kJ/mol
# Density = 2.456203 g / cm^3
# Si number density = 24.618060 Si / 1000 Ang^3
#
#
#
# Elastic Constant Matrix: (Units=GPa)
#
#
# Indices 1 2 3 4 5 6 
#
# 1 52.3418 8.7409 16.4375 11.1598 -4.4444 4.4264
# 2 8.7409 153.0661 51.8840 0.4407 8.9764 9.7198
# 3 16.4375 51.8840 129.2494 -4.9865 -4.1476 10.3268
# 4 11.1598 0.4407 -4.9865 48.4619 0.3760 2.5289
# 5 -4.4444 8.9764 -4.1476 0.3760 38.7901 10.1365
# 6 4.4264 9.7198 10.3268 2.5289 10.1365 47.7346
#
#
#
# Elastic Compliance Matrix: (Units=1/GPa)
#
#
# Indices 1 2 3 4 5 6 
#
# 1 0.021440 -0.000405 -0.002540 -0.005129 0.002765 -0.001672
# 2 -0.000405 0.007757 -0.003105 -0.000259 -0.002061 -0.000419
# 3 -0.002540 -0.003105 0.009566 0.001671 0.001875 -0.001688
# 4 -0.005129 -0.000259 0.001671 0.022041 -0.000319 -0.000933
# 5 0.002765 -0.002061 0.001875 -0.000319 0.028413 -0.006259
# 6 -0.001672 -0.000419 -0.001688 -0.000933 -0.006259 0.022933
#
#
# Mechanical properties :
#
#
# Convention : Reuss Voigt Hill
#
# Bulk Modulus (GPa) = 37.50381 54.30912 45.90647
# Shear Modulus (GPa) = 37.55513 44.17032 40.86272
#
# Velocity S-wave (km/s) = 3.91002 4.24042 4.07857
# Velocity P-wave (km/s) = 5.97090 6.78848 6.39278
#
# Compressibility (1/GPa) = 0.02666395
#
# Stress axis : x y z
#
# Youngs Moduli (GPa) = 46.64153 128.91633 104.53692
#
# Poissons Ratio (x) = 0.05217 0.26551
# Poissons Ratio (y) = 0.01887 0.32459
# Poissons Ratio (z) = 0.11846 0.40029
#
# Static dielectric constant tensor:
#      x y z
#    x 1.960610 -0.036630 0.085030 
#    y -0.036630 2.040650 0.046910 
#    z 0.085030 0.046910 2.016750 
# 
# From -- ./inp_files/86024.got.cif
#   From: 2010.05.17/outbox.cif.g08.bks.cpg/sg2_44_cif.got.tgz:86024.got - 2010.06.03 11:33:40.
