data_PCOD9037638
_publ_section_title
;
Structure prediction by ZEFSAII (Michael W. Deem and Ramdas Pophale) SiO2 
 PCOD9037638
Probable space group: P -1
;
_chemical_formula_sum "Si O2"
_cell_formula_units_Z 14
_cell_length_a 12.033475
_cell_length_b 19.795944
_cell_length_c 6.503286
_cell_angle_alpha 50.680034
_cell_angle_beta 144.931390
_cell_angle_gamma 141.886081
_cell_volume 549.154687
_symmetry_space_group_name_H-M "P -1"
_symmetry_group_IT_number 2
_symmetry_cell_setting 'triclinic'
loop_
_space_group_symop_operation_xyz
x,y,z
-x,-y,-z
loop_
_atom_site_type_symbol
_atom_site_label
_atom_site_fract_x
_atom_site_fract_y
_atom_site_fract_z
Si Si1 0.201017 0.677930 0.474022
Si Si2 0.163763 0.401190 0.601169
Si Si3 0.326543 0.214714 0.739041
Si Si4 0.369236 0.905789 0.175812
Si Si5 0.056434 0.812487 0.512881
Si Si6 0.447577 0.632324 0.587727
Si Si7 0.807775 0.006597 0.925251
O O1 0.192091 0.777423 0.213673
O O2 0.285782 0.646909 0.464772
O O3 0.947717 0.591058 0.371011
O O4 0.420203 0.725064 0.876009
O O5 0.275630 0.515020 0.435878
O O6 0.950627 0.286356 0.397137
O O7 0.368936 0.383638 0.986002
O O8 0.395716 0.263758 0.523107
O O9 0.164164 0.239717 0.563997
O O10 0.163174 0.082093 0.767970
O O11 0.620900 0.938477 0.584656
O O12 0.302099 0.967959 0.102026
O O13 0.303922 0.898204 0.850972
O O14 0.021831 0.877632 0.159228
#
# Coordination Sequence:
#
# PCOD9037638 Si02
#       7
#     2   2   2   2   2   2   2
#     4  11  23  47  71 104 135 181 235 285 337 414
#     4  11  25  48  73  99 141 181 233 284 347 406
#     4  11  26  42  70 105 137 179 235 282 346 406
#     4  10  23  40  71 100 139 183 224 283 348 401
#     4  12  23  44  69 104 139 184 226 288 343 409
#     4  11  26  49  69 101 140 183 231 290 336 413
#     4  10  23  44  66 103 138 183 232 278 337 421
#
# _framework density 25.493725999999999
#
# number of rings (size 3 to 8) (size 9 to 14) (size 15 to 20)
#    0.000    1.143    2.857    2.143    2.000    4.000 
#    2.571    0.000    0.000    0.000    0.000    0.000 
#    0.000    0.000    0.000    0.000    0.000    0.000 
#
# Total GULP energy -78226.499079 kJ/mol
# GULP energy per Si atom -5587.607077 kJ/mol
# Density = 2.543570 g / cm^3
# Si number density = 25.493726 Si / 1000 Ang^3
#
#
#
# Elastic Constant Matrix: (Units=GPa)
#
#
# Indices 1 2 3 4 5 6 
#
# 1 135.9268 22.7532 17.5702 2.1520 2.7031 -14.2599
# 2 22.7532 91.6758 45.9191 23.8656 -24.7038 -9.0896
# 3 17.5702 45.9191 71.8125 -19.3154 -13.3141 -2.2744
# 4 2.1520 23.8656 -19.3154 -7.5230 1.2987 0.5958
# 5 2.7031 -24.7038 -13.3141 1.2987 32.2306 0.1821
# 6 -14.2599 -9.0896 -2.2744 0.5958 0.1821 26.7465
#
#
#
# Elastic Compliance Matrix: (Units=1/GPa)
#
#
# Indices 1 2 3 4 5 6 
#
# 1 0.008253 -0.001731 -0.001273 -0.000009 -0.002565 0.003721
# 2 -0.001731 0.007209 0.001904 0.018568 0.005702 0.001237
# 3 -0.001273 0.001904 0.009487 -0.017525 0.006185 0.001124
# 4 -0.000009 0.018568 -0.017525 -0.027211 0.008059 0.005366
# 5 -0.002565 0.005702 0.006185 0.008059 0.037839 0.000659
# 6 0.003721 0.001237 0.001124 0.005366 0.000659 0.039764
#
#
# Mechanical properties :
#
#
# Convention : Reuss Voigt Hill
#
# Bulk Modulus (GPa) = 43.95383 52.43333 48.19358
# Shear Modulus (GPa) = 58.73879 24.50234 41.62057
#
# Velocity S-wave (km/s) = 4.80526 3.10354 4.04490
# Velocity P-wave (km/s) = 6.93295 5.78398 6.38437
#
# Compressibility (1/GPa) = 0.02275115
#
# Stress axis : x y z
#
# Youngs Moduli (GPa) = 121.17331 138.71266 105.40279
#
# Poissons Ratio (x) = 0.24005 0.13416
# Poissons Ratio (y) = 0.20969 -0.20072
# Poissons Ratio (z) = 0.15423 -0.26415
#
# Static dielectric constant tensor:
#      x y z
#    x 1.960470 0.058840 -0.052690 
#    y 0.058840 2.088410 0.043390 
#    z -0.052690 0.043390 2.081410 
# 
# From -- ./inp_files/81285.got.cif
#   From: 2010.05.17/outbox.cif.g08.bks.cpg/sg2_41_cif.got.tgz:81285.got - 2010.06.03 11:33:40.
