data_PCOD9037641
_publ_section_title
;
Structure prediction by ZEFSAII (Michael W. Deem and Ramdas Pophale) SiO2 
 PCOD9037641
Probable space group: P -1
;
_chemical_formula_sum "Si O2"
_cell_formula_units_Z 16
_cell_length_a 8.221122
_cell_length_b 10.319434
_cell_length_c 16.522241
_cell_angle_alpha 132.100998
_cell_angle_beta 46.419701
_cell_angle_gamma 134.734564
_cell_volume 672.962901
_symmetry_space_group_name_H-M "P -1"
_symmetry_group_IT_number 2
_symmetry_cell_setting 'triclinic'
loop_
_space_group_symop_operation_xyz
x,y,z
-x,-y,-z
loop_
_atom_site_type_symbol
_atom_site_label
_atom_site_fract_x
_atom_site_fract_y
_atom_site_fract_z
Si Si1 0.759476 0.950342 0.315676
Si Si2 0.923200 0.424202 0.838563
Si Si3 0.349983 0.119387 0.368073
Si Si4 0.394535 0.077097 0.894023
Si Si5 0.117032 0.316885 0.415459
Si Si6 0.794427 0.265341 0.655609
Si Si7 0.618235 0.675326 0.391992
Si Si8 0.976312 0.824158 0.047514
O O1 0.488588 0.853732 0.327228
O O2 0.704940 0.871518 0.392650
O O3 0.923133 0.870897 0.175443
O O4 0.910181 0.183595 0.366109
O O5 0.680135 0.237542 0.878613
O O6 0.834802 0.426393 0.776641
O O7 0.178029 0.402752 0.730836
O O8 0.965093 0.613864 0.952703
O O9 0.234619 0.182594 0.358770
O O10 0.406322 0.276190 0.485753
O O11 0.580553 0.088904 0.239255
O O12 0.170069 0.906817 0.380081
O O13 0.238530 0.163570 0.931258
O O14 0.238514 0.983977 0.988644
O O15 0.347154 0.511910 0.388175
O O16 0.977030 0.352070 0.554623
#
# Coordination Sequence:
#
# PCOD9037641 Si02
#       8
#     2   2   2   2   2   2   2   2
#     4  12  26  46  63 101 150 175 215 279 351 400
#     4  11  23  45  69 101 129 177 233 275 328 391
#     4  11  21  45  71 100 133 171 235 277 331 397
#     4  10  23  40  71 102 123 179 226 283 324 384
#     4  12  25  43  68 104 138 178 224 276 343 409
#     4  11  23  42  73 100 135 180 216 291 339 389
#     4  12  27  43  70 104 135 182 221 281 344 402
#     4  11  24  44  68  99 137 177 231 271 328 410
#
# _framework density 23.775455999999998
#
# number of rings (size 3 to 8) (size 9 to 14) (size 15 to 20)
#    0.000    0.750    5.000    3.750    1.750    2.000 
#    2.250    4.375    0.000    0.000    0.000    0.000 
#    0.000    0.000    0.000    0.000    0.000    0.000 
#
# Total GULP energy -89563.097730 kJ/mol
# GULP energy per Si atom -5597.693608 kJ/mol
# Density = 2.372134 g / cm^3
# Si number density = 23.775456 Si / 1000 Ang^3
#
#
#
# Elastic Constant Matrix: (Units=GPa)
#
#
# Indices 1 2 3 4 5 6 
#
# 1 35.3057 3.9635 -2.4969 -3.8066 -10.5840 -1.9624
# 2 3.9635 118.5644 42.3392 -13.2766 -7.2867 24.8783
# 3 -2.4969 42.3392 122.5864 -14.6982 -7.4404 3.4789
# 4 -3.8066 -13.2766 -14.6982 31.3759 7.0296 -7.3215
# 5 -10.5840 -7.2867 -7.4404 7.0296 30.9996 2.0073
# 6 -1.9624 24.8783 3.4789 -7.3215 2.0073 27.7579
#
#
#
# Elastic Compliance Matrix: (Units=1/GPa)
#
#
# Indices 1 2 3 4 5 6 
#
# 1 0.032212 -0.001594 0.002057 0.002689 0.010286 0.003414
# 2 -0.001594 0.012243 -0.003803 0.000250 0.002056 -0.010692
# 3 0.002057 -0.003803 0.009945 0.003801 0.001124 0.003229
# 4 0.002689 0.000250 0.003801 0.038093 -0.007401 0.010072
# 5 0.010286 0.002056 0.001124 -0.007401 0.038590 -0.006000
# 6 0.003414 -0.010692 0.003229 0.010072 -0.006000 0.048536
#
#
# Mechanical properties :
#
#
# Convention : Reuss Voigt Hill
#
# Bulk Modulus (GPa) = 20.95599 40.45202 30.70400
# Shear Modulus (GPa) = 24.72714 33.53672 29.13193
#
# Velocity S-wave (km/s) = 3.22844 3.75982 3.50422
# Velocity P-wave (km/s) = 4.76764 5.99161 5.41433
#
# Compressibility (1/GPa) = 0.04771906
#
# Stress axis : x y z
#
# Youngs Moduli (GPa) = 31.04467 81.67618 100.55115
#
# Poissons Ratio (x) = 0.13021 -0.20679
# Poissons Ratio (y) = 0.04949 0.38239
# Poissons Ratio (z) = -0.06385 0.31061
#
# Static dielectric constant tensor:
#      x y z
#    x 1.985510 0.008990 -0.028940 
#    y 0.008990 1.872320 0.003690 
#    z -0.028940 0.003690 1.876540 
# 
# From -- ./inp_files/560001.got.cif
#   From: 2010.05.17/outbox.cif.g08.bks.cpg/sg2_281_cif.got.tgz:560001.got - 2010.06.03 11:33:40.
