data_PCOD9037681
_publ_section_title
;
Structure prediction by ZEFSAII (Michael W. Deem and Ramdas Pophale) SiO2 
 PCOD9037681
Probable space group: P -1
;
_chemical_formula_sum "Si O2"
_cell_formula_units_Z 14
_cell_length_a 8.978008
_cell_length_b 13.554048
_cell_length_c 5.052730
_cell_angle_alpha 114.299903
_cell_angle_beta 74.370638
_cell_angle_gamma 102.662727
_cell_volume 535.536575
_symmetry_space_group_name_H-M "P -1"
_symmetry_group_IT_number 2
_symmetry_cell_setting 'triclinic'
loop_
_space_group_symop_operation_xyz
x,y,z
-x,-y,-z
loop_
_atom_site_type_symbol
_atom_site_label
_atom_site_fract_x
_atom_site_fract_y
_atom_site_fract_z
Si Si1 0.053210 0.858895 0.692898
Si Si2 0.290018 0.687980 0.906302
Si Si3 0.306989 0.160434 0.269375
Si Si4 0.252090 0.483635 0.375336
Si Si5 0.572196 0.705328 0.140557
Si Si6 0.237005 0.924046 0.159818
Si Si7 0.966318 0.379776 0.679237
O O1 0.174180 0.912163 0.475381
O O2 0.075859 0.732369 0.582577
O O3 0.880865 0.849810 0.647093
O O4 0.090774 0.916588 0.017763
O O5 0.391816 0.686362 0.123151
O O6 0.313786 0.813664 0.943587
O O7 0.108913 0.653776 0.037693
O O8 0.337557 0.592159 0.592512
O O9 0.382170 0.246954 0.542859
O O10 0.339239 0.038353 0.188121
O O11 0.355378 0.202749 0.002327
O O12 0.128519 0.526513 0.281788
O O13 0.147344 0.416857 0.579588
O O14 0.645313 0.595656 0.909837
#
# Coordination Sequence:
#
# PCOD9037681 Si02
#       7
#     2   2   2   2   2   2   2
#     4  11  21  43  71 106 138 175 232 298 348 406
#     4  11  26  45  70 104 140 189 232 286 350 421
#     4  12  26  46  68 106 142 188 231 286 351 420
#     4  11  23  45  70 104 136 185 232 296 344 416
#     4  12  29  44  72 100 152 186 229 280 355 424
#     4  11  24  43  75 101 139 180 238 292 346 403
#     4  10  23  40  74 101 140 173 241 289 354 398
#
# _framework density 26.142008000000001
#
# number of rings (size 3 to 8) (size 9 to 14) (size 15 to 20)
#    0.000    0.857    2.857    3.429    4.000    2.857 
#    0.000    0.000    0.000    0.000    0.000    0.000 
#    0.000    0.000    0.000    0.000    0.000    0.000 
#
# Total GULP energy -78467.258310 kJ/mol
# GULP energy per Si atom -5604.804165 kJ/mol
# Density = 2.608251 g / cm^3
# Si number density = 26.142008 Si / 1000 Ang^3
#
#
#
# Elastic Constant Matrix: (Units=GPa)
#
#
# Indices 1 2 3 4 5 6 
#
# 1 98.5596 35.7863 17.4149 16.7766 -2.7521 -9.5779
# 2 35.7863 162.7965 35.5090 11.6616 -17.9136 -4.1138
# 3 17.4149 35.5090 95.6129 11.5768 11.3565 0.5213
# 4 16.7766 11.6616 11.5768 51.1948 2.8611 -0.8124
# 5 -2.7521 -17.9136 11.3565 2.8611 30.8684 -2.0060
# 6 -9.5779 -4.1138 0.5213 -0.8124 -2.0060 35.9687
#
#
#
# Elastic Compliance Matrix: (Units=1/GPa)
#
#
# Indices 1 2 3 4 5 6 
#
# 1 0.011921 -0.001971 -0.001168 -0.003193 0.000836 0.002940
# 2 -0.001971 0.007979 -0.003200 -0.000758 0.005750 0.000738
# 3 -0.001168 -0.003200 0.012828 -0.001439 -0.006629 -0.001265
# 4 -0.003193 -0.000758 -0.001439 0.021192 -0.002196 -0.000560
# 5 0.000836 0.005750 -0.006629 -0.002196 0.038650 0.003082
# 6 0.002940 0.000738 -0.001265 -0.000560 0.003082 0.028847
#
#
# Mechanical properties :
#
#
# Convention : Reuss Voigt Hill
#
# Bulk Modulus (GPa) = 49.87084 59.37657 54.62370
# Shear Modulus (GPa) = 35.51696 41.49031 38.50364
#
# Velocity S-wave (km/s) = 3.68994 3.98818 3.84196
# Velocity P-wave (km/s) = 6.10512 6.63098 6.37347
#
# Compressibility (1/GPa) = 0.02005180
#
# Stress axis : x y z
#
# Youngs Moduli (GPa) = 83.88756 125.32209 77.95168
#
# Poissons Ratio (x) = 0.24696 0.09105
# Poissons Ratio (y) = 0.16531 0.24943
# Poissons Ratio (z) = 0.09798 0.40100
#
# Static dielectric constant tensor:
#      x y z
#    x 2.074720 -0.020730 -0.006340 
#    y -0.020730 2.073640 -0.007350 
#    z -0.006340 -0.007350 2.009140 
# 
# From -- ./inp_files/39437.got.cif
#   From: 2010.05.17/outbox.cif.g08.bks.cpg/sg2_20_cif.got.tgz:39437.got - 2010.06.03 11:33:40.
