data_PCOD9037748
_publ_section_title
;
Structure prediction by ZEFSAII (Michael W. Deem and Ramdas Pophale) SiO2 
 PCOD9037748
Probable space group: P -1
;
_chemical_formula_sum "Si O2"
_cell_formula_units_Z 13
_cell_length_a 16.417922
_cell_length_b 6.924878
_cell_length_c 9.415291
_cell_angle_alpha 46.543717
_cell_angle_beta 47.087722
_cell_angle_gamma 51.724815
_cell_volume 545.619579
_symmetry_space_group_name_H-M "P -1"
_symmetry_group_IT_number 2
_symmetry_cell_setting 'triclinic'
loop_
_space_group_symop_operation_xyz
x,y,z
-x,-y,-z
loop_
_atom_site_type_symbol
_atom_site_label
_atom_site_fract_x
_atom_site_fract_y
_atom_site_fract_z
Si Si1 0.009420 0.451967 0.277843
Si Si2 0.013820 0.117257 0.712843
Si Si3 0.249836 0.123497 0.067522
Si Si4 0.383277 0.491418 0.223072
Si Si5 0.387794 0.472745 0.562459
Si Si6 0.736726 0.895186 0.602105
Si Si7 0.000000 0.500000 0.000000
O O1 0.990414 0.230448 0.523727
O O2 0.113174 0.296504 0.115988
O O3 0.060153 0.672389 0.189881
O O4 0.912656 0.524280 0.236508
O O5 0.133264 0.192642 0.565843
O O6 0.020884 0.803026 0.874103
O O7 0.287299 0.792815 0.167301
O O8 0.265995 0.165283 0.195554
O O9 0.333266 0.249987 0.811808
O O10 0.408143 0.430331 0.391295
O O11 0.339448 0.255641 0.318882
O O12 0.500000 0.500000 0.000000
O O13 0.500000 0.500000 0.500000
O O14 0.300647 0.776285 0.531477
#
# Coordination Sequence:
#
# PCOD9037748 Si02
#       7
#     2   2   2   2   2   2   1
#     4  10  23  41  62  91 128 167 209 258 314 372
#     4  10  23  42  63  91 128 170 209 259 313 370
#     4  10  23  42  62  91 125 165 210 260 314 372
#     4  11  24  42  66  94 124 166 212 259 316 377
#     4  11  23  40  64  94 128 162 206 262 318 376
#     4  10  23  42  62  90 129 165 209 260 312 373
#     4  12  22  38  64  92 124 164 214 258 308 368
#
# _framework density 23.826125000000001
#
# number of rings (size 3 to 8) (size 9 to 14) (size 15 to 20)
#    0.000    1.538    0.000    3.692    0.000   14.769 
#    0.000    0.000    0.000    0.000    0.000    0.000 
#    0.000    0.000    0.000    0.000    0.000    0.000 
#
# Total GULP energy -72513.156186 kJ/mol
# GULP energy per Si atom -5577.935091 kJ/mol
# Density = 2.377190 g / cm^3
# Si number density = 23.826125 Si / 1000 Ang^3
#
#
#
# Elastic Constant Matrix: (Units=GPa)
#
#
# Indices 1 2 3 4 5 6 
#
# 1 63.2748 -4.4425 11.6118 0.5240 3.8770 18.4640
# 2 -4.4425 83.3919 11.3935 -6.5475 14.8125 18.6006
# 3 11.6118 11.3935 92.6351 -11.0825 14.4778 9.6698
# 4 0.5240 -6.5475 -11.0825 26.1776 -2.0898 4.5945
# 5 3.8770 14.8125 14.4778 -2.0898 47.6981 4.7542
# 6 18.4640 18.6006 9.6698 4.5945 4.7542 34.8515
#
#
#
# Elastic Compliance Matrix: (Units=1/GPa)
#
#
# Indices 1 2 3 4 5 6 
#
# 1 0.020176 0.004536 -0.001259 0.002359 -0.001278 -0.012897
# 2 0.004536 0.015825 -0.000103 0.005442 -0.003916 -0.011003
# 3 -0.001259 -0.000103 0.012429 0.005548 -0.003093 -0.003036
# 4 0.002359 0.005442 0.005548 0.043824 -0.000509 -0.011402
# 5 -0.001278 -0.003916 -0.003093 -0.000509 0.023148 0.000535
# 6 -0.012897 -0.011003 -0.003036 -0.011402 0.000535 0.043671
#
#
# Mechanical properties :
#
#
# Convention : Reuss Voigt Hill
#
# Bulk Modulus (GPa) = 18.25565 30.71414 24.48490
# Shear Modulus (GPa) = 29.24244 36.46136 32.85190
#
# Velocity S-wave (km/s) = 3.50712 3.91616 3.71727
# Velocity P-wave (km/s) = 4.90699 5.77645 5.35938
#
# Compressibility (1/GPa) = 0.05477756
#
# Stress axis : x y z
#
# Youngs Moduli (GPa) = 49.56449 63.19306 80.45384
#
# Poissons Ratio (x) = -0.28662 0.10126
# Poissons Ratio (y) = -0.22481 0.00829
# Poissons Ratio (z) = 0.06239 0.00651
#
# Static dielectric constant tensor:
#      x y z
#    x -1.598730 -2.275110 -2.758560 
#    y -2.275110 1.188100 -1.493710 
#    z -2.758560 -1.493710 -0.268000 
# 
# From -- ./inp_files/35994.got.cif
#   From: 2010.05.17/outbox.cif.g08.bks.cpg/sg2_18_cif.got.tgz:35994.got - 2010.06.03 11:33:40.
