data_PCOD9037005
_publ_section_title
;
Structure prediction by ZEFSAII (Michael W. Deem and Ramdas Pophale) SiO2 
 PCOD9037005
Probable space group: P -1
;
_chemical_formula_sum "Si O2"
_cell_formula_units_Z 16
_cell_length_a 8.106118
_cell_length_b 13.029164
_cell_length_c 14.562570
_cell_angle_alpha 28.953044
_cell_angle_beta 105.781352
_cell_angle_gamma 94.710175
_cell_volume 675.197027
_symmetry_space_group_name_H-M "P -1"
_symmetry_group_IT_number 2
_symmetry_cell_setting 'triclinic'
loop_
_space_group_symop_operation_xyz
x,y,z
-x,-y,-z
loop_
_atom_site_type_symbol
_atom_site_label
_atom_site_fract_x
_atom_site_fract_y
_atom_site_fract_z
Si Si1 0.212958 0.113177 0.505025
Si Si2 0.412720 0.982331 0.130039
Si Si3 0.877193 0.948179 0.802670
Si Si4 0.129033 0.542061 0.063001
Si Si5 0.852281 0.081606 0.992639
Si Si6 0.354643 0.394510 0.437468
Si Si7 0.215042 0.787577 0.608902
Si Si8 0.522932 0.397694 0.877941
O O1 0.250311 0.291642 0.302166
O O2 0.284225 0.195858 0.543062
O O3 0.994815 0.184773 0.425460
O O4 0.278015 0.886831 0.632363
O O5 0.274016 0.016188 0.170129
O O6 0.307282 0.002735 0.002135
O O7 0.540699 0.724386 0.363689
O O8 0.499934 0.174108 0.009323
O O9 0.802848 0.064615 0.603142
O O10 0.983633 0.686744 0.001293
O O11 0.041317 0.016081 0.820983
O O12 0.284680 0.658740 0.993718
O O13 0.000000 0.500000 0.000000
O O14 0.786657 0.354834 0.766822
O O15 0.000000 0.000000 0.000000
O O16 0.473050 0.449764 0.330045
O O17 0.353672 0.541256 0.801471
#
# Coordination Sequence:
#
# PCOD9037005 Si02
#       8
#     2   2   2   2   2   2   2   2
#     4  10  23  39  68  94 139 177 220 273 339 401
#     4  11  25  44  69  96 136 183 222 287 332 389
#     4  11  21  42  67  95 136 177 224 273 337 396
#     4  11  22  41  66  95 134 178 218 276 334 405
#     4  10  23  43  70  98 131 180 230 276 340 397
#     4  11  23  44  68  98 136 176 225 281 339 397
#     4  11  23  41  67 102 136 179 228 269 336 407
#     4  11  25  42  68 101 139 171 230 276 329 400
#
# _framework density 23.696788000000002
#
# number of rings (size 3 to 8) (size 9 to 14) (size 15 to 20)
#    0.000    1.250    5.000    1.125    3.500    3.500 
#    0.000    3.750    0.000    0.000    0.000    0.000 
#    0.000    0.000    0.000    0.000    0.000    0.000 
#
# Total GULP energy -89181.460283 kJ/mol
# GULP energy per Si atom -5573.841268 kJ/mol
# Density = 2.364285 g / cm^3
# Si number density = 23.696788 Si / 1000 Ang^3
#
#
#
# Elastic Constant Matrix: (Units=GPa)
#
#
# Indices 1 2 3 4 5 6 
#
# 1 74.7601 35.7188 15.4849 -13.2096 0.1483 2.7910
# 2 35.7188 95.3668 16.0266 -19.3329 -2.8396 -1.5538
# 3 15.4849 16.0266 56.6422 -13.1379 0.7923 -7.0606
# 4 -13.2096 -19.3329 -13.1379 38.4150 -6.1004 8.1711
# 5 0.1483 -2.8396 0.7923 -6.1004 32.9315 -13.2927
# 6 2.7910 -1.5538 -7.0606 8.1711 -13.2927 40.3396
#
#
#
# Elastic Compliance Matrix: (Units=1/GPa)
#
#
# Indices 1 2 3 4 5 6 
#
# 1 0.017160 -0.005505 -0.002872 0.002563 -0.001137 -0.002796
# 2 -0.005505 0.013830 -0.001242 0.004915 0.002349 0.000475
# 3 -0.002872 -0.001242 0.020311 0.004902 0.001638 0.003253
# 4 0.002563 0.004915 0.004902 0.032699 0.004647 -0.004222
# 5 -0.001137 0.002349 0.001638 0.004647 0.035986 0.011373
# 6 -0.002796 0.000475 0.003253 -0.004222 0.011373 0.030173
#
#
# Mechanical properties :
#
#
# Convention : Reuss Voigt Hill
#
# Bulk Modulus (GPa) = 31.18756 40.13663 35.66209
# Shear Modulus (GPa) = 27.76477 32.97313 30.36895
#
# Velocity S-wave (km/s) = 3.42668 3.73427 3.58378
# Velocity P-wave (km/s) = 5.37083 5.96384 5.67509
#
# Compressibility (1/GPa) = 0.03206407
#
# Stress axis : x y z
#
# Youngs Moduli (GPa) = 58.27391 72.30529 49.23487
#
# Poissons Ratio (x) = 0.39800 0.14141
# Poissons Ratio (y) = 0.32077 0.06115
# Poissons Ratio (z) = 0.16737 0.08981
#
# Static dielectric constant tensor:
#      x y z
#    x 1.966190 0.074280 -0.012610 
#    y 0.074280 1.991640 0.064390 
#    z -0.012610 0.064390 1.936110 
# 
# From -- ./inp_files/499773.got.cif
#   From: 2010.05.17/outbox.cif.g08.bks.cpg/sg2_250_cif.got.tgz:499773.got - 2010.06.03 11:33:40.
