data_PCOD9037682
_publ_section_title
;
Structure prediction by ZEFSAII (Michael W. Deem and Ramdas Pophale) SiO2 
 PCOD9037682
Probable space group: P -1
;
_chemical_formula_sum "Si O2"
_cell_formula_units_Z 16
_cell_length_a 17.552741
_cell_length_b 9.343394
_cell_length_c 11.546455
_cell_angle_alpha 113.375465
_cell_angle_beta 122.618425
_cell_angle_gamma 25.368583
_cell_volume 661.607688
_symmetry_space_group_name_H-M "P -1"
_symmetry_group_IT_number 2
_symmetry_cell_setting 'triclinic'
loop_
_space_group_symop_operation_xyz
x,y,z
-x,-y,-z
loop_
_atom_site_type_symbol
_atom_site_label
_atom_site_fract_x
_atom_site_fract_y
_atom_site_fract_z
Si Si1 0.419035 0.526584 0.290377
Si Si2 0.026878 0.642413 0.546303
Si Si3 0.962656 0.297412 0.176399
Si Si4 0.638835 0.461178 0.504777
Si Si5 0.137346 0.246294 0.138855
Si Si6 0.867288 0.437054 0.654074
Si Si7 0.383820 0.338011 0.023391
Si Si8 0.278545 0.774566 0.930463
O O1 0.478757 0.614679 0.343543
O O2 0.478893 0.368245 0.414649
O O3 0.490926 0.297127 0.179653
O O4 0.180889 0.888005 0.228277
O O5 0.000000 0.500000 0.500000
O O6 0.124850 0.549561 0.717392
O O7 0.118502 0.542412 0.464129
O O8 0.817976 0.059295 0.511243
O O9 0.826247 0.402039 0.016741
O O10 0.997235 0.411505 0.184175
O O11 0.737509 0.477612 0.572215
O O12 0.233654 0.261777 0.263768
O O13 0.000000 0.500000 0.000000
O O14 0.224131 0.953438 0.060465
O O15 0.092299 0.071495 0.780946
O O16 0.321924 0.529893 0.921249
O O17 0.500000 0.000000 0.000000
O O18 0.500000 0.500000 0.000000
#
# Coordination Sequence:
#
# PCOD9037682 Si02
#       8
#     2   2   2   2   2   2   2   2
#     4  10  23  45  72 101 140 190 242 305 358 436
#     4  11  23  40  72 102 147 191 240 300 365 438
#     4  11  23  46  71 106 139 190 245 294 371 429
#     4  10  24  43  72 100 142 195 243 294 366 436
#     4  10  23  40  74 102 142 190 233 304 363 429
#     4  11  24  46  74 105 145 199 242 299 366 440
#     4  12  28  42  75 108 144 190 241 309 364 440
#     4  11  26  45  71 109 150 188 241 306 369 429
#
# _framework density 24.183516999999998
#
# number of rings (size 3 to 8) (size 9 to 14) (size 15 to 20)
#    0.000    1.250    2.500    2.250   10.500    0.000 
#    0.000    0.625    2.750    0.000    0.000    0.000 
#    0.000    0.000    0.000    0.000    0.000    0.000 
#
# Total GULP energy -89152.436479 kJ/mol
# GULP energy per Si atom -5572.027280 kJ/mol
# Density = 2.412847 g / cm^3
# Si number density = 24.183517 Si / 1000 Ang^3
#
#
#
# Elastic Constant Matrix: (Units=GPa)
#
#
# Indices 1 2 3 4 5 6 
#
# 1 155.7647 43.5740 80.0895 25.7193 30.0378 25.9240
# 2 43.5740 83.0358 35.7526 17.5426 12.5507 28.6644
# 3 80.0895 35.7526 148.5309 22.2183 14.4370 12.6635
# 4 25.7193 17.5426 22.2183 33.4361 4.6728 10.3331
# 5 30.0378 12.5507 14.4370 4.6728 58.8012 4.4848
# 6 25.9240 28.6644 12.6635 10.3331 4.4848 39.7408
#
#
#
# Elastic Compliance Matrix: (Units=1/GPa)
#
#
# Indices 1 2 3 4 5 6 
#
# 1 0.010876 -0.001404 -0.004409 -0.003120 -0.003662 -0.003452
# 2 -0.001404 0.018306 -0.002046 -0.003699 -0.001593 -0.010494
# 3 -0.004409 -0.002046 0.009810 -0.002685 0.000350 0.001885
# 4 -0.003120 -0.003699 -0.002685 0.037267 0.000400 -0.004176
# 5 -0.003662 -0.001593 0.000350 0.000400 0.019010 0.001177
# 6 -0.003452 -0.010494 0.001885 -0.004176 0.001177 0.035337
#
#
# Mechanical properties :
#
#
# Convention : Reuss Voigt Hill
#
# Bulk Modulus (GPa) = 42.97121 78.46261 60.71691
# Shear Modulus (GPa) = 32.45025 41.58996 37.02010
#
# Velocity S-wave (km/s) = 3.66708 4.15150 3.91679
# Velocity P-wave (km/s) = 5.97807 7.44950 6.75398
#
# Compressibility (1/GPa) = 0.02327140
#
# Stress axis : x y z
#
# Youngs Moduli (GPa) = 91.94626 54.62747 101.94131
#
# Poissons Ratio (x) = 0.07671 0.44949
# Poissons Ratio (y) = 0.12912 0.20860
# Poissons Ratio (z) = 0.40542 0.11179
#
# Static dielectric constant tensor:
#      x y z
#    x 2.017410 0.038860 0.016360 
#    y 0.038860 2.024010 -0.083670 
#    z 0.016360 -0.083670 2.168820 
# 
# From -- ./inp_files/462353.got.cif
#   From: 2010.05.17/outbox.cif.g08.bks.cpg/sg2_232_cif.got.tgz:462353.got - 2010.06.03 11:33:40.
