data_PCOD9037849
_publ_section_title
;
Structure prediction by ZEFSAII (Michael W. Deem and Ramdas Pophale) SiO2 
 PCOD9037849
Probable space group: P -1
;
_chemical_formula_sum "Si O2"
_cell_formula_units_Z 16
_cell_length_a 8.596841
_cell_length_b 16.592418
_cell_length_c 5.273609
_cell_angle_alpha 84.491932
_cell_angle_beta 119.379355
_cell_angle_gamma 92.916850
_cell_volume 652.462138
_symmetry_space_group_name_H-M "P -1"
_symmetry_group_IT_number 2
_symmetry_cell_setting 'triclinic'
loop_
_space_group_symop_operation_xyz
x,y,z
-x,-y,-z
loop_
_atom_site_type_symbol
_atom_site_label
_atom_site_fract_x
_atom_site_fract_y
_atom_site_fract_z
Si Si1 0.252991 0.339593 0.288705
Si Si2 0.406125 0.847177 0.854304
Si Si3 0.970790 0.446387 0.244357
Si Si4 0.991922 0.220191 0.850803
Si Si5 0.093633 0.932837 0.841169
Si Si6 0.197763 0.097862 0.757360
Si Si7 0.377383 0.745283 0.357731
Si Si8 0.618952 0.499448 0.851449
O O1 0.455455 0.314373 0.509498
O O2 0.278667 0.414333 0.094994
O O3 0.119055 0.376441 0.381010
O O4 0.146229 0.263861 0.116568
O O5 0.593113 0.887027 0.074536
O O6 0.366919 0.778122 0.052711
O O7 0.240477 0.906878 0.752032
O O8 0.425933 0.811499 0.597970
O O9 0.000000 0.500000 0.500000
O O10 0.761659 0.427572 0.036482
O O11 0.000000 0.500000 0.000000
O O12 0.820962 0.279678 0.692069
O O13 0.094537 0.181832 0.707131
O O14 0.908959 0.139740 0.939066
O O15 0.897354 0.931940 0.563698
O O16 0.151670 0.023464 0.933390
O O17 0.500000 0.500000 0.500000
O O18 0.500000 0.500000 0.000000
#
# Coordination Sequence:
#
# PCOD9037849 Si02
#       8
#     2   2   2   2   2   2   2   2
#     4  11  25  47  76 102 142 185 230 287 353 414
#     4  11  23  44  64  99 140 183 236 291 345 410
#     4  10  23  47  71 105 139 179 227 278 344 424
#     4  11  23  45  65 104 138 183 239 288 351 411
#     4  10  23  41  63  99 137 191 234 293 346 412
#     4  11  21  40  68  94 140 187 238 291 349 407
#     4  11  25  44  68 102 143 178 230 291 347 413
#     4  11  25  48  74 108 141 179 230 285 350 428
#
# _framework density 24.522494999999999
#
# number of rings (size 3 to 8) (size 9 to 14) (size 15 to 20)
#    0.000    1.250    2.500    3.000    1.750    3.000 
#    9.000    1.875    0.000    0.000    0.000    0.000 
#    0.000    0.000    0.000    0.000    0.000    0.000 
#
# Total GULP energy -89281.512133 kJ/mol
# GULP energy per Si atom -5580.094508 kJ/mol
# Density = 2.446668 g / cm^3
# Si number density = 24.522495 Si / 1000 Ang^3
#
#
#
# Elastic Constant Matrix: (Units=GPa)
#
#
# Indices 1 2 3 4 5 6 
#
# 1 107.4498 33.2654 47.0883 3.7709 19.1979 -19.3625
# 2 33.2654 77.0293 17.2265 -5.3343 -0.0604 -29.9093
# 3 47.0883 17.2265 114.9411 0.7147 7.9132 -20.0577
# 4 3.7709 -5.3343 0.7147 27.4554 -11.0711 6.9228
# 5 19.1979 -0.0604 7.9132 -11.0711 45.7380 0.9873
# 6 -19.3625 -29.9093 -20.0577 6.9228 0.9873 41.0372
#
#
#
# Elastic Compliance Matrix: (Units=1/GPa)
#
#
# Indices 1 2 3 4 5 6 
#
# 1 0.014595 -0.004808 -0.004304 -0.006263 -0.006958 0.002503
# 2 -0.004808 0.019714 0.000970 0.002278 0.002166 0.012137
# 3 -0.004304 0.000970 0.011086 -0.000727 -0.000377 0.004226
# 4 -0.006263 0.002278 -0.000727 0.045871 0.014071 -0.009727
# 5 -0.006958 0.002166 -0.000377 0.014071 0.028365 -0.004945
# 6 0.002503 0.012137 0.004226 -0.009727 -0.004945 0.038220
#
#
# Mechanical properties :
#
#
# Convention : Reuss Voigt Hill
#
# Bulk Modulus (GPa) = 34.35173 54.95340 44.65256
# Shear Modulus (GPa) = 27.19768 36.30212 31.74990
#
# Velocity S-wave (km/s) = 3.33391 3.85172 3.60213
# Velocity P-wave (km/s) = 5.37202 6.49916 5.96228
#
# Compressibility (1/GPa) = 0.02911062
#
# Stress axis : x y z
#
# Youngs Moduli (GPa) = 68.51514 50.72643 90.20389
#
# Poissons Ratio (x) = 0.24389 0.38824
# Poissons Ratio (y) = 0.32942 -0.08748
# Poissons Ratio (z) = 0.29489 -0.04920
#
# Static dielectric constant tensor:
#      x y z
#    x 2.016820 -0.074880 0.014290 
#    y -0.074880 2.049880 -0.053570 
#    z 0.014290 -0.053570 1.979480 
# 
# From -- ./inp_files/44770.got.cif
#   From: 2010.05.17/outbox.cif.g08.bks.cpg/sg2_23_cif.got.tgz:44770.got - 2010.06.03 11:33:40.
