data_PCOD9037378
_publ_section_title
;
Structure prediction by ZEFSAII (Michael W. Deem and Ramdas Pophale) SiO2 
 PCOD9037378
Probable space group: P -1
;
_chemical_formula_sum "Si O2"
_cell_formula_units_Z 15
_cell_length_a 27.844452
_cell_length_b 16.965006
_cell_length_c 17.254519
_cell_angle_alpha 25.202437
_cell_angle_beta 15.356488
_cell_angle_gamma 16.166441
_cell_volume 575.227709
_symmetry_space_group_name_H-M "P -1"
_symmetry_group_IT_number 2
_symmetry_cell_setting 'triclinic'
loop_
_space_group_symop_operation_xyz
x,y,z
-x,-y,-z
loop_
_atom_site_type_symbol
_atom_site_label
_atom_site_fract_x
_atom_site_fract_y
_atom_site_fract_z
Si Si1 0.142653 0.739041 0.068242
Si Si2 0.359727 0.418358 0.486269
Si Si3 0.939399 0.228704 0.217970
Si Si4 0.570234 0.650845 0.733350
Si Si5 0.000000 0.500000 0.500000
Si Si6 0.242096 0.233661 0.529209
Si Si7 0.655436 0.661811 0.140893
Si Si8 0.611534 0.135733 0.781975
O O1 0.374697 0.649755 0.843449
O O2 0.316846 0.429958 0.026204
O O3 0.892594 0.802055 0.429298
O O4 0.000000 0.000000 0.000000
O O5 0.099411 0.674583 0.720178
O O6 0.274801 0.479650 0.474331
O O7 0.491244 0.116505 0.570691
O O8 0.697116 0.524007 0.279820
O O9 0.856812 0.078281 0.479817
O O10 0.261300 0.999907 0.889803
O O11 0.707988 0.638045 0.604016
O O12 0.500000 0.500000 0.000000
O O13 0.814732 0.666892 0.558227
O O14 0.955213 0.366007 0.892343
O O15 0.431771 0.786184 0.310690
O O16 0.663250 0.878781 0.941419
#
# Coordination Sequence:
#
# PCOD9037378 Si02
#       8
#     2   2   2   2   1   2   2   2
#     4  11  22  41  66 107 149 186 247 298 362 431
#     4  11  25  47  73 110 143 194 247 303 360 439
#     4  11  26  45  75 105 144 196 239 305 365 426
#     4  12  27  51  73 106 147 200 248 299 370 439
#     4  12  24  42  74 108 140 192 236 300 370 422
#     4  12  25  46  75 106 147 192 247 303 365 445
#     4  11  22  44  68 106 151 189 239 302 368 428
#     4  10  23  40  66 106 149 191 242 298 359 441
#
# _framework density 26.076630000000002
#
# number of rings (size 3 to 8) (size 9 to 14) (size 15 to 20)
#    0.000    0.800    4.000    2.400    1.867    1.067 
#    0.000    0.000    0.000    0.000    0.000    0.000 
#    0.000    0.000    0.000    0.000    0.000    0.000 
#
# Total GULP energy -83856.489290 kJ/mol
# GULP energy per Si atom -5590.432619 kJ/mol
# Density = 2.601728 g / cm^3
# Si number density = 26.076630 Si / 1000 Ang^3
#
#
#
# Elastic Constant Matrix: (Units=GPa)
#
#
# Indices 1 2 3 4 5 6 
#
# 1 198.7092 29.5807 31.4375 -2.9577 5.7852 8.8690
# 2 29.5807 81.6044 9.0399 -11.9187 -1.6230 0.3357
# 3 31.4375 9.0399 54.6903 -1.5978 -9.0122 5.5834
# 4 -2.9577 -11.9187 -1.5978 39.1561 5.7923 10.0970
# 5 5.7852 -1.6230 -9.0122 5.7923 46.1582 -5.1505
# 6 8.8690 0.3357 5.5834 10.0970 -5.1505 48.8586
#
#
#
# Elastic Compliance Matrix: (Units=1/GPa)
#
#
# Indices 1 2 3 4 5 6 
#
# 1 0.005901 -0.001771 -0.003259 0.000238 -0.001569 -0.000901
# 2 -0.001771 0.013616 -0.001074 0.004110 -0.000081 -0.000507
# 3 -0.003259 -0.001074 0.021193 -0.000001 0.004356 -0.001363
# 4 0.000238 0.004110 -0.000001 0.029126 -0.004270 -0.006541
# 5 -0.001569 -0.000081 0.004356 -0.004270 0.023597 0.003157
# 6 -0.000901 -0.000507 -0.001363 -0.006541 0.003157 0.022475
#
#
# Mechanical properties :
#
#
# Convention : Reuss Voigt Hill
#
# Bulk Modulus (GPa) = 35.08563 52.79112 43.93837
# Shear Modulus (GPa) = 36.33298 44.49762 40.41530
#
# Velocity S-wave (km/s) = 3.73676 4.13536 3.94111
# Velocity P-wave (km/s) = 5.66585 6.56431 6.13156
#
# Compressibility (1/GPa) = 0.02850170
#
# Stress axis : x y z
#
# Youngs Moduli (GPa) = 169.45952 73.44379 47.18604
#
# Poissons Ratio (x) = 0.13005 0.15378
# Poissons Ratio (y) = 0.30008 0.05069
# Poissons Ratio (z) = 0.55226 0.07890
#
# Static dielectric constant tensor:
#      x y z
#    x 2.015830 -0.017010 -0.049020 
#    y -0.017010 2.129590 -0.065010 
#    z -0.049020 -0.065010 1.152710 
# 
# From -- ./inp_files/424866.got.cif
#   From: 2010.05.17/outbox.cif.g08.bks.cpg/sg2_213_cif.got.tgz:424866.got - 2010.06.03 11:33:40.
