data_PCOD9037887
_publ_section_title
;
Structure prediction by ZEFSAII (Michael W. Deem and Ramdas Pophale) SiO2 
 PCOD9037887
Probable space group: P -1
;
_chemical_formula_sum "Si O2"
_cell_formula_units_Z 16
_cell_length_a 9.327586
_cell_length_b 12.887310
_cell_length_c 14.889831
_cell_angle_alpha 39.680087
_cell_angle_beta 131.093201
_cell_angle_gamma 127.860601
_cell_volume 839.361661
_symmetry_space_group_name_H-M "P -1"
_symmetry_group_IT_number 2
_symmetry_cell_setting 'triclinic'
loop_
_space_group_symop_operation_xyz
x,y,z
-x,-y,-z
loop_
_atom_site_type_symbol
_atom_site_label
_atom_site_fract_x
_atom_site_fract_y
_atom_site_fract_z
Si Si1 0.702326 0.501700 0.134719
Si Si2 0.304443 0.067685 0.894849
Si Si3 0.206848 0.066355 0.651415
Si Si4 0.576568 0.361672 0.564769
Si Si5 0.163408 0.512675 0.132646
Si Si6 0.091775 0.772203 0.674639
Si Si7 0.892246 0.255802 0.889648
Si Si8 0.597156 0.546780 0.262415
O O1 0.776569 0.338848 0.242733
O O2 0.686789 0.505145 0.233815
O O3 0.878721 0.660278 0.077908
O O4 0.500000 0.500000 0.000000
O O5 0.207585 0.059636 0.762795
O O6 0.342060 0.257513 0.817755
O O7 0.500000 0.000000 0.000000
O O8 0.172894 0.942200 0.994519
O O9 0.399855 0.198464 0.608862
O O10 0.008263 0.118658 0.505296
O O11 0.202733 0.890427 0.719572
O O12 0.500000 0.500000 0.500000
O O13 0.768059 0.320683 0.717239
O O14 0.621760 0.437114 0.433384
O O15 0.179303 0.673085 0.094710
O O16 0.366431 0.509979 0.174471
O O17 0.091281 0.356922 0.271819
O O18 0.000000 0.500000 0.000000
#
# Coordination Sequence:
#
# PCOD9037887 Si02
#       8
#     2   2   2   2   2   2   2   2
#     4  11  27  46  64  91 141 178 217 262 330 406
#     4  12  22  37  68 103 127 162 221 278 327 373
#     4  11  21  39  69  98 129 162 222 289 317 376
#     4  12  19  40  66  98 129 161 219 279 324 388
#     4  11  19  34  63  90 121 168 228 264 314 378
#     4  10  23  41  64  93 129 173 219 270 328 381
#     4  11  23  40  64  93 130 172 217 274 323 385
#     4  12  24  39  67  96 129 177 213 267 338 382
#
# _framework density 19.062106
#
# number of rings (size 3 to 8) (size 9 to 14) (size 15 to 20)
#    0.000    0.750    6.250    3.000    1.750    1.000 
#    0.000    0.625    0.000    0.000    0.000    0.000 
#    0.000    0.000    0.000    0.000    0.000    0.000 
#
# Total GULP energy -89365.087483 kJ/mol
# GULP energy per Si atom -5585.317968 kJ/mol
# Density = 1.901872 g / cm^3
# Si number density = 19.062106 Si / 1000 Ang^3
#
#
#
# Elastic Constant Matrix: (Units=GPa)
#
#
# Indices 1 2 3 4 5 6 
#
# 1 98.2589 43.2351 32.5848 -8.3922 -3.1522 0.1220
# 2 43.2351 116.9797 44.2235 -8.2196 4.4317 -1.9111
# 3 32.5848 44.2235 102.3246 10.8796 -8.4055 1.1884
# 4 -8.3922 -8.2196 10.8796 37.6428 3.6033 0.4047
# 5 -3.1522 4.4317 -8.4055 3.6033 23.1675 5.4189
# 6 0.1220 -1.9111 1.1884 0.4047 5.4189 32.2968
#
#
#
# Elastic Compliance Matrix: (Units=1/GPa)
#
#
# Indices 1 2 3 4 5 6 
#
# 1 0.012952 -0.003587 -0.002779 0.002807 0.001092 -0.000377
# 2 -0.003587 0.012317 -0.005086 0.003888 -0.005725 0.001841
# 3 -0.002779 -0.005086 0.014159 -0.006490 0.007195 -0.001937
# 4 0.002807 0.003888 -0.006490 0.030649 -0.007807 0.001384
# 5 0.001092 -0.005725 0.007195 -0.007807 0.050327 -0.008954
# 6 -0.000377 0.001841 -0.001937 0.001384 -0.008954 0.032629
#
#
# Mechanical properties :
#
#
# Convention : Reuss Voigt Hill
#
# Bulk Modulus (GPa) = 60.51343 61.96112 61.23728
# Shear Modulus (GPa) = 27.55649 31.78941 29.67295
#
# Velocity S-wave (km/s) = 3.80625 4.08815 3.94972
# Velocity P-wave (km/s) = 7.15060 7.40671 7.27978
#
# Compressibility (1/GPa) = 0.01652526
#
# Stress axis : x y z
#
# Youngs Moduli (GPa) = 77.20695 81.18768 70.62414
#
# Poissons Ratio (x) = 0.29121 0.19625
# Poissons Ratio (y) = 0.27693 0.35921
# Poissons Ratio (z) = 0.21454 0.41293
#
# Static dielectric constant tensor:
#      x y z
#    x 1.634870 0.014810 -0.015770 
#    y 0.014810 1.687660 0.006820 
#    z -0.015770 0.006820 1.728880 
# 
# From -- ./inp_files/239331.got.cif
#   From: 2010.05.17/outbox.cif.g08.bks.cpg/sg2_120_cif.got.tgz:239331.got - 2010.06.03 11:33:40.
