data_PCOD9037617
_publ_section_title
;
Structure prediction by ZEFSAII (Michael W. Deem and Ramdas Pophale) SiO2 
 PCOD9037617
Probable space group: P -1
;
_chemical_formula_sum "Si O2"
_cell_formula_units_Z 14
_cell_length_a 15.405228
_cell_length_b 8.859432
_cell_length_c 14.773743
_cell_angle_alpha 141.475413
_cell_angle_beta 38.288961
_cell_angle_gamma 146.626038
_cell_volume 637.900102
_symmetry_space_group_name_H-M "P -1"
_symmetry_group_IT_number 2
_symmetry_cell_setting 'triclinic'
loop_
_space_group_symop_operation_xyz
x,y,z
-x,-y,-z
loop_
_atom_site_type_symbol
_atom_site_label
_atom_site_fract_x
_atom_site_fract_y
_atom_site_fract_z
Si Si1 0.912058 0.171112 0.639091
Si Si2 0.396584 0.125162 0.604709
Si Si3 0.542924 0.770311 0.790576
Si Si4 0.897834 0.153702 0.431705
Si Si5 0.789495 0.820386 0.898192
Si Si6 0.464770 0.747543 0.043963
Si Si7 0.105375 0.856041 0.860449
O O1 0.858641 0.102130 0.545297
O O2 0.018288 0.519444 0.740012
O O3 0.741087 0.008746 0.761423
O O4 0.000000 0.000000 0.500000
O O5 0.518755 0.469271 0.642696
O O6 0.500000 0.000000 0.500000
O O7 0.269432 0.980852 0.556011
O O8 0.271903 0.056599 0.757893
O O9 0.497576 0.927997 0.827130
O O10 0.436411 0.696949 0.935631
O O11 0.000000 0.500000 0.500000
O O12 0.037746 0.095333 0.253879
O O13 0.695955 0.512118 0.888889
O O14 0.632927 0.760531 0.937421
O O15 0.842100 0.082256 0.048693
O O16 0.000000 0.000000 0.000000
#
# Coordination Sequence:
#
# PCOD9037617 Si02
#       7
#     2   2   2   2   2   2   2
#     4  12  27  46  71 106 150 189 235 303 377 432
#     4  12  27  44  73 105 147 193 245 296 369 435
#     4  11  24  44  65 102 147 181 228 302 365 421
#     4  12  25  45  73 104 144 192 246 295 358 440
#     4  11  23  43  75 107 136 190 251 294 356 439
#     4  10  23  40  70 106 142 180 234 304 364 419
#     4  12  23  46  73 106 137 193 244 298 351 435
#
# _framework density 21.947009999999999
#
# number of rings (size 3 to 8) (size 9 to 14) (size 15 to 20)
#    0.000    0.571    4.286    3.429    4.000    2.857 
#    0.000    2.143    0.000    0.000    0.000    0.000 
#    0.000    0.000    0.000    0.000    0.000    0.000 
#
# Total GULP energy -78154.015650 kJ/mol
# GULP energy per Si atom -5582.429689 kJ/mol
# Density = 2.189706 g / cm^3
# Si number density = 21.947010 Si / 1000 Ang^3
#
#
#
# Elastic Constant Matrix: (Units=GPa)
#
#
# Indices 1 2 3 4 5 6 
#
# 1 99.2041 33.3507 55.2609 9.9747 -22.0121 -1.2732
# 2 33.3507 123.2236 45.2283 16.5251 -16.7651 -8.7664
# 3 55.2609 45.2283 115.7972 4.7625 -12.3850 -1.7855
# 4 9.9747 16.5251 4.7625 38.1847 -2.7844 -3.1898
# 5 -22.0121 -16.7651 -12.3850 -2.7844 46.2147 3.7128
# 6 -1.2732 -8.7664 -1.7855 -3.1898 3.7128 32.5630
#
#
#
# Elastic Compliance Matrix: (Units=1/GPa)
#
#
# Indices 1 2 3 4 5 6 
#
# 1 0.015275 -0.000826 -0.006320 -0.002534 0.005195 -0.000812
# 2 -0.000826 0.010458 -0.003283 -0.003577 0.002144 0.002008
# 3 -0.006320 -0.003283 0.012801 0.001408 -0.000668 -0.000215
# 4 -0.002534 -0.003577 0.001408 0.028336 -0.000569 0.001856
# 5 0.005195 0.002144 -0.000668 -0.000569 0.024849 -0.002145
# 6 -0.000812 0.002008 -0.000215 0.001856 -0.002145 0.031633
#
#
# Mechanical properties :
#
#
# Convention : Reuss Voigt Hill
#
# Bulk Modulus (GPa) = 56.57095 67.32273 61.94684
# Shear Modulus (GPa) = 33.31030 37.01815 35.16422
#
# Velocity S-wave (km/s) = 3.90007 4.11141 4.00713
# Velocity P-wave (km/s) = 6.79064 7.29931 7.04957
#
# Compressibility (1/GPa) = 0.01767692
#
# Stress axis : x y z
#
# Youngs Moduli (GPa) = 65.46508 95.61918 78.11633
#
# Poissons Ratio (x) = 0.07897 0.49368
# Poissons Ratio (y) = 0.05406 0.25648
# Poissons Ratio (z) = 0.41373 0.31395
#
# Static dielectric constant tensor:
#      x y z
#    x 1.811410 -0.040480 -0.019300 
#    y -0.040480 1.831290 -0.040530 
#    z -0.019300 -0.040530 1.968340 
# 
# From -- ./inp_files/530230.got.cif
#   From: 2010.05.17/outbox.cif.g08.bks.cpg/sg2_266_cif.got.tgz:530230.got - 2010.06.03 11:33:40.
