data_PCOD9037717
_publ_section_title
;
Structure prediction by ZEFSAII (Michael W. Deem and Ramdas Pophale) SiO2 
 PCOD9037717
Probable space group: P -1
;
_chemical_formula_sum "Si O2"
_cell_formula_units_Z 16
_cell_length_a 16.529958
_cell_length_b 9.559588
_cell_length_c 8.403159
_cell_angle_alpha 62.175820
_cell_angle_beta 64.959102
_cell_angle_gamma 105.098080
_cell_volume 872.979972
_symmetry_space_group_name_H-M "P -1"
_symmetry_group_IT_number 2
_symmetry_cell_setting 'triclinic'
loop_
_space_group_symop_operation_xyz
x,y,z
-x,-y,-z
loop_
_atom_site_type_symbol
_atom_site_label
_atom_site_fract_x
_atom_site_fract_y
_atom_site_fract_z
Si Si1 0.380405 0.240006 0.198485
Si Si2 0.835512 0.166230 0.496242
Si Si3 0.672624 0.579905 0.313380
Si Si4 0.962315 0.134878 0.138453
Si Si5 0.512394 0.588985 0.677742
Si Si6 0.867628 0.890034 0.782674
Si Si7 0.158820 0.466430 0.611310
Si Si8 0.195130 0.275786 0.423249
O O1 0.448466 0.263777 0.285772
O O2 0.315161 0.330890 0.264272
O O3 0.286016 0.023248 0.340781
O O4 0.455898 0.377974 0.919938
O O5 0.835741 0.342565 0.464800
O O6 0.907124 0.213579 0.251760
O O7 0.885639 0.091247 0.619305
O O8 0.611823 0.627729 0.467110
O O9 0.577136 0.424774 0.356900
O O10 0.747951 0.524767 0.363966
O O11 0.755148 0.761858 0.038587
O O12 0.044138 0.111393 0.187661
O O13 0.038453 0.282842 0.860351
O O14 0.864673 0.911124 0.308614
O O15 0.856376 0.793102 0.672300
O O16 0.183308 0.431581 0.431771
#
# Coordination Sequence:
#
# PCOD9037717 Si02
#       8
#     2   2   2   2   2   2   2   2
#     4   9  18  33  58  77  98 138 181 209 251 309
#     4  10  19  35  53  77 110 136 165 211 270 309
#     4  10  19  31  56  80 102 130 183 216 249 297
#     4   9  19  35  58  74 101 140 179 207 250 307
#     4  10  17  33  58  78  97 135 187 215 241 300
#     4   9  18  36  56  76 100 140 178 210 248 308
#     4  11  21  32  52  82 109 133 166 218 265 304
#     4  10  17  33  52  81 100 136 178 209 247 313
#
# _framework density 18.328026999999999
#
# number of rings (size 3 to 8) (size 9 to 14) (size 15 to 20)
#    0.000    2.500    3.750    2.250    0.000    0.000 
#    0.000    3.750    5.500    0.000    0.000    0.000 
#    0.000    0.000    0.000    0.000    0.000    0.000 
#
# Total GULP energy -89118.882305 kJ/mol
# GULP energy per Si atom -5569.930144 kJ/mol
# Density = 1.828631 g / cm^3
# Si number density = 18.328027 Si / 1000 Ang^3
#
#
#
# Elastic Constant Matrix: (Units=GPa)
#
#
# Indices 1 2 3 4 5 6 
#
# 1 36.1583 4.7860 5.5438 -0.0343 -2.7019 -1.9677
# 2 4.7860 75.7569 35.2496 15.2928 -1.1046 -22.4993
# 3 5.5438 35.2496 110.3469 12.2638 -15.9173 -5.0687
# 4 -0.0343 15.2928 12.2638 15.2141 3.0273 -5.7757
# 5 -2.7019 -1.1046 -15.9173 3.0273 25.1571 2.3196
# 6 -1.9677 -22.4993 -5.0687 -5.7757 2.3196 20.6779
#
#
#
# Elastic Compliance Matrix: (Units=1/GPa)
#
#
# Indices 1 2 3 4 5 6 
#
# 1 0.028202 -0.001410 -0.000868 0.002292 0.002017 0.001351
# 2 -0.001410 0.025206 -0.006286 -0.010696 -0.003874 0.023199
# 3 -0.000868 -0.006286 0.013185 -0.009020 0.009731 -0.007301
# 4 0.002292 -0.010696 -0.009020 0.092882 -0.018434 0.014381
# 5 0.002017 -0.003874 0.009731 -0.018434 0.049308 -0.012317
# 6 0.001351 0.023199 -0.007301 0.014381 -0.012317 0.077340
#
#
# Mechanical properties :
#
#
# Convention : Reuss Voigt Hill
#
# Bulk Modulus (GPa) = 20.21584 34.82454 27.52019
# Shear Modulus (GPa) = 15.63772 23.98869 19.81320
#
# Velocity S-wave (km/s) = 2.92415 3.62173 3.29147
# Velocity P-wave (km/s) = 4.73865 6.04410 5.43075
#
# Compressibility (1/GPa) = 0.04946616
#
# Stress axis : x y z
#
# Youngs Moduli (GPa) = 35.45803 39.67263 75.84571
#
# Poissons Ratio (x) = 0.05593 0.06585
# Poissons Ratio (y) = 0.04999 0.47674
# Poissons Ratio (z) = 0.03078 0.24937
#
# Static dielectric constant tensor:
#      x y z
#    x 1.679430 0.056190 -0.015800 
#    y 0.056190 1.629540 0.002190 
#    z -0.015800 0.002190 1.661070 
# 
# From -- ./inp_files/227108.got.cif
#   From: 2010.05.17/outbox.cif.g08.bks.cpg/sg2_114_cif.got.tgz:227108.got - 2010.06.03 11:33:40.
