data_PCOD9037433
_publ_section_title
;
Structure prediction by ZEFSAII (Michael W. Deem and Ramdas Pophale) SiO2 
 PCOD9037433
Probable space group: P -1
;
_chemical_formula_sum "Si O2"
_cell_formula_units_Z 14
_cell_length_a 7.911435
_cell_length_b 17.668238
_cell_length_c 5.671949
_cell_angle_alpha 100.744673
_cell_angle_beta 110.593780
_cell_angle_gamma 48.094672
_cell_volume 551.018068
_symmetry_space_group_name_H-M "P -1"
_symmetry_group_IT_number 2
_symmetry_cell_setting 'triclinic'
loop_
_space_group_symop_operation_xyz
x,y,z
-x,-y,-z
loop_
_atom_site_type_symbol
_atom_site_label
_atom_site_fract_x
_atom_site_fract_y
_atom_site_fract_z
Si Si1 0.250187 0.011606 0.184134
Si Si2 0.303983 0.191695 0.694427
Si Si3 0.778080 0.712433 0.794281
Si Si4 0.918724 0.084640 0.695152
Si Si5 0.401811 0.405042 0.338735
Si Si6 0.301995 0.582475 0.134064
Si Si7 0.134819 0.778340 0.600264
O O1 0.532756 0.931215 0.299169
O O2 0.210918 0.931007 0.182087
O O3 0.056392 0.118010 0.285461
O O4 0.161921 0.050387 0.900423
O O5 0.327357 0.224530 0.466069
O O6 0.025991 0.245348 0.590587
O O7 0.344371 0.224598 0.982685
O O8 0.758582 0.625248 0.719130
O O9 0.051144 0.666019 0.927290
O O10 0.783560 0.187939 0.551138
O O11 0.000000 0.000000 0.500000
O O12 0.260329 0.518440 0.241999
O O13 0.558373 0.392813 0.628357
O O14 0.619466 0.317692 0.219158
O O15 0.500000 0.500000 0.000000
#
# Coordination Sequence:
#
# PCOD9037433 Si02
#       7
#     2   2   2   2   2   2   2
#     4  10  23  40  67 100 145 198 245 300 358 432
#     4  12  28  46  72 110 153 194 250 301 362 440
#     4  12  29  50  76 113 152 191 249 301 372 444
#     4   9  21  38  63  98 139 186 253 295 359 425
#     4  11  26  47  76 111 144 197 239 312 372 439
#     4  11  26  50  80 106 148 186 250 308 377 444
#     4  11  23  43  69 102 147 192 247 298 363 431
#
# _framework density 25.407515
#
# number of rings (size 3 to 8) (size 9 to 14) (size 15 to 20)
#    0.000    1.143    1.429    2.571   16.000    2.286 
#    0.000    0.000    0.000    0.000    0.000    0.000 
#    0.000    0.000    0.000    0.000    0.000    0.000 
#
# Total GULP energy -78140.773119 kJ/mol
# GULP energy per Si atom -5581.483794 kJ/mol
# Density = 2.534969 g / cm^3
# Si number density = 25.407515 Si / 1000 Ang^3
#
#
#
# Elastic Constant Matrix: (Units=GPa)
#
#
# Indices 1 2 3 4 5 6 
#
# 1 70.8419 -6.1320 31.6648 11.3281 -2.0501 2.0422
# 2 -6.1320 90.2457 34.9825 1.2679 -8.3185 -3.1539
# 3 31.6648 34.9825 122.6678 7.4457 -8.2201 -2.4714
# 4 11.3281 1.2679 7.4457 37.8158 -2.0052 12.0876
# 5 -2.0501 -8.3185 -8.2201 -2.0052 29.4574 -1.9817
# 6 2.0422 -3.1539 -2.4714 12.0876 -1.9817 42.4971
#
#
#
# Elastic Compliance Matrix: (Units=1/GPa)
#
#
# Indices 1 2 3 4 5 6 
#
# 1 0.017397 0.003283 -0.005122 -0.004413 0.000434 0.000385
# 2 0.003283 0.013305 -0.004395 -0.000706 0.002772 0.000904
# 3 -0.005122 -0.004395 0.010880 -0.000640 0.001449 0.000802
# 4 -0.004413 -0.000706 -0.000640 0.030699 0.000828 -0.008571
# 5 0.000434 0.002772 0.001449 0.000828 0.035334 0.001681
# 6 0.000385 0.000904 0.000802 -0.008571 0.001681 0.026143
#
#
# Mechanical properties :
#
#
# Convention : Reuss Voigt Hill
#
# Bulk Modulus (GPa) = 34.34879 44.97621 39.66250
# Shear Modulus (GPa) = 32.06579 36.83672 34.45125
#
# Velocity S-wave (km/s) = 3.55640 3.81180 3.68631
# Velocity P-wave (km/s) = 5.51475 6.09208 5.81059
#
# Compressibility (1/GPa) = 0.02911311
#
# Stress axis : x y z
#
# Youngs Moduli (GPa) = 57.48182 75.16205 91.91372
#
# Poissons Ratio (x) = -0.24677 0.47081
# Poissons Ratio (y) = -0.18872 0.40395
# Poissons Ratio (z) = 0.29444 0.33033
#
# Static dielectric constant tensor:
#      x y z
#    x 2.090840 -0.029190 0.025390 
#    y -0.029190 2.035930 0.028730 
#    z 0.025390 0.028730 2.095900 
# 
# From -- ./inp_files/48703.got.cif
#   From: 2010.05.17/outbox.cif.g08.bks.cpg/sg2_25_cif.got.tgz:48703.got - 2010.06.03 11:33:40.
