data_PCOD9037563
_publ_section_title
;
Structure prediction by ZEFSAII (Michael W. Deem and Ramdas Pophale) SiO2 
 PCOD9037563
Probable space group: P -1
;
_chemical_formula_sum "Si O2"
_cell_formula_units_Z 16
_cell_length_a 9.053586
_cell_length_b 14.415326
_cell_length_c 5.026740
_cell_angle_alpha 96.597083
_cell_angle_beta 90.167193
_cell_angle_gamma 102.403506
_cell_volume 636.229208
_symmetry_space_group_name_H-M "P -1"
_symmetry_group_IT_number 2
_symmetry_cell_setting 'triclinic'
loop_
_space_group_symop_operation_xyz
x,y,z
-x,-y,-z
loop_
_atom_site_type_symbol
_atom_site_label
_atom_site_fract_x
_atom_site_fract_y
_atom_site_fract_z
Si Si1 0.823724 0.500016 0.505516
Si Si2 0.969726 0.080946 0.285906
Si Si3 0.517316 0.398508 0.594489
Si Si4 0.004920 0.217536 0.827069
Si Si5 0.497340 0.209466 0.251742
Si Si6 0.745114 0.988210 0.860448
Si Si7 0.739965 0.602146 0.040456
Si Si8 0.681193 0.190105 0.755029
O O1 0.698888 0.409032 0.582226
O O2 0.781688 0.523037 0.213217
O O3 0.000000 0.500000 0.500000
O O4 0.790365 0.579956 0.738648
O O5 0.976399 0.155739 0.541683
O O6 0.103645 0.024372 0.297026
O O7 0.015748 0.149151 0.050501
O O8 0.810218 0.014905 0.168138
O O9 0.500000 0.500000 0.500000
O O10 0.446675 0.302691 0.398248
O O11 0.431172 0.395877 0.874314
O O12 0.152558 0.298979 0.841307
O O13 0.846640 0.251033 0.855336
O O14 0.371367 0.111575 0.206735
O O15 0.626677 0.193513 0.454576
O O16 0.563473 0.223367 0.961294
O O17 0.683253 0.079433 0.792498
#
# Coordination Sequence:
#
# PCOD9037563 Si02
#       8
#     2   2   2   2   2   2   2   2
#     4  11  25  43  72 103 138 179 227 295 365 418
#     4  10  23  40  68  98 136 184 228 297 333 424
#     4  10  26  49  72 104 143 183 245 299 355 419
#     4  11  23  42  67 102 140 179 245 278 357 403
#     4  12  26  43  71  97 140 189 237 282 370 418
#     4  10  23  44  67 100 142 181 238 282 358 409
#     4  11  24  44  72  99 139 184 230 291 350 426
#     4  11  26  41  65 102 142 183 227 299 340 438
#
# _framework density 25.148167999999998
#
# number of rings (size 3 to 8) (size 9 to 14) (size 15 to 20)
#    0.000    1.250    0.000    4.500    3.500   14.500 
#    0.000    0.000    0.000    0.000    0.000    0.000 
#    0.000    0.000    0.000    0.000    0.000    0.000 
#
# Total GULP energy -89540.859472 kJ/mol
# GULP energy per Si atom -5596.303717 kJ/mol
# Density = 2.509093 g / cm^3
# Si number density = 25.148168 Si / 1000 Ang^3
#
#
#
# Elastic Constant Matrix: (Units=GPa)
#
#
# Indices 1 2 3 4 5 6 
#
# 1 126.1236 50.3885 11.8934 3.0824 -10.6388 10.3673
# 2 50.3885 113.5732 23.4139 26.5332 7.0474 14.8387
# 3 11.8934 23.4139 91.1315 18.6437 -9.7209 2.0037
# 4 3.0824 26.5332 18.6437 34.6549 -1.9806 6.2434
# 5 -10.6388 7.0474 -9.7209 -1.9806 42.6720 -0.2539
# 6 10.3673 14.8387 2.0037 6.2434 -0.2539 54.9307
#
#
#
# Elastic Compliance Matrix: (Units=1/GPa)
#
#
# Indices 1 2 3 4 5 6 
#
# 1 0.010483 -0.005608 -0.000317 0.003898 0.003643 -0.000878
# 2 -0.005608 0.014350 -0.001423 -0.009679 -0.004552 -0.001687
# 3 -0.000317 -0.001423 0.012842 -0.005745 0.002819 0.000642
# 4 0.003898 -0.009679 -0.005745 0.039619 0.003086 -0.002400
# 5 0.003643 -0.004552 0.002819 0.003086 0.025881 0.000208
# 6 -0.000878 -0.001687 0.000642 -0.002400 0.000208 0.019077
#
#
# Mechanical properties :
#
#
# Convention : Reuss Voigt Hill
#
# Bulk Modulus (GPa) = 43.51666 55.80221 49.65944
# Shear Modulus (GPa) = 34.57600 42.79371 38.68485
#
# Velocity S-wave (km/s) = 3.71198 4.12960 3.92634
# Velocity P-wave (km/s) = 5.97607 6.70639 6.35173
#
# Compressibility (1/GPa) = 0.02297970
#
# Stress axis : x y z
#
# Youngs Moduli (GPa) = 95.39045 69.68474 77.86841
#
# Poissons Ratio (x) = 0.39077 0.02468
# Poissons Ratio (y) = 0.53492 0.11084
# Poissons Ratio (z) = 0.03023 0.09919
#
# Static dielectric constant tensor:
#      x y z
#    x 2.076570 -0.025290 0.004260 
#    y -0.025290 2.002820 -0.029900 
#    z 0.004260 -0.029900 2.023440 
# 
# From -- ./inp_files/39370.got.cif
#   From: 2010.05.17/outbox.cif.g08.bks.cpg/sg2_20_cif.got.tgz:39370.got - 2010.06.03 11:33:40.
