data_PCOD9037793
_publ_section_title
;
Structure prediction by ZEFSAII (Michael W. Deem and Ramdas Pophale) SiO2 
 PCOD9037793
Probable space group: P -1
;
_chemical_formula_sum "Si O2"
_cell_formula_units_Z 14
_cell_length_a 17.324737
_cell_length_b 10.124962
_cell_length_c 11.656664
_cell_angle_alpha 41.227430
_cell_angle_beta 151.428474
_cell_angle_gamma 139.130385
_cell_volume 614.065538
_symmetry_space_group_name_H-M "P -1"
_symmetry_group_IT_number 2
_symmetry_cell_setting 'triclinic'
loop_
_space_group_symop_operation_xyz
x,y,z
-x,-y,-z
loop_
_atom_site_type_symbol
_atom_site_label
_atom_site_fract_x
_atom_site_fract_y
_atom_site_fract_z
Si Si1 0.328960 0.851627 0.930069
Si Si2 0.372161 0.410960 0.221194
Si Si3 0.956840 0.169176 0.582998
Si Si4 0.819965 0.370406 0.478436
Si Si5 0.720976 0.379628 0.757946
Si Si6 0.434120 0.751844 0.589106
Si Si7 0.056055 0.243760 0.055369
O O1 0.315892 0.618374 0.018789
O O2 0.316116 0.815684 0.074190
O O3 0.167836 0.911708 0.634295
O O4 0.500000 0.000000 0.000000
O O5 0.551228 0.451077 0.492137
O O6 0.419999 0.342706 0.204017
O O7 0.223855 0.238373 0.205657
O O8 0.841302 0.242334 0.478090
O O9 0.102556 0.381704 0.604538
O O10 0.017062 0.981159 0.834246
O O11 0.637733 0.313210 0.336839
O O12 0.938036 0.303479 0.769646
O O13 0.716492 0.323646 0.654669
O O14 0.873645 0.569634 0.881938
O O15 0.500000 0.000000 0.500000
#
# Coordination Sequence:
#
# PCOD9037793 Si02
#       7
#     2   2   2   2   2   2   2
#     4  11  19  35  65  97 122 157 211 263 304 359
#     4   9  19  37  62  93 118 158 208 251 301 371
#     4  11  23  38  66  92 126 159 213 257 310 362
#     4  11  24  42  60  93 126 168 206 255 308 379
#     4   9  20  37  64  90 121 158 210 250 308 361
#     4  10  23  41  63  86 127 170 204 250 322 374
#     4  11  19  41  67  91 120 163 212 258 304 365
#
# _framework density 22.798867999999999
#
# number of rings (size 3 to 8) (size 9 to 14) (size 15 to 20)
#    0.857    0.857    2.857    4.714    2.000    0.571 
#    0.000    2.857    0.000    0.000    0.000    0.000 
#    0.000    0.000    0.000    0.000    0.000    0.000 
#
# Total GULP energy -78173.375634 kJ/mol
# GULP energy per Si atom -5583.812545 kJ/mol
# Density = 2.274698 g / cm^3
# Si number density = 22.798868 Si / 1000 Ang^3
#
#
#
# Elastic Constant Matrix: (Units=GPa)
#
#
# Indices 1 2 3 4 5 6 
#
# 1 87.5365 5.1836 -19.2001 -4.2578 -5.4671 12.7781
# 2 5.1836 77.6852 6.4660 -28.1842 -7.4101 23.9606
# 3 -19.2001 6.4660 85.1141 -5.4153 -24.6995 -2.1323
# 4 -4.2578 -28.1842 -5.4153 29.2782 7.7370 -15.3855
# 5 -5.4671 -7.4101 -24.6995 7.7370 24.5200 0.8045
# 6 12.7781 23.9606 -2.1323 -15.3855 0.8045 22.8956
#
#
#
# Elastic Compliance Matrix: (Units=1/GPa)
#
#
# Indices 1 2 3 4 5 6 
#
# 1 0.015233 0.002066 0.006184 -0.005347 0.012400 -0.014116
# 2 0.002066 0.022776 0.000370 0.012270 0.004398 -0.016863
# 3 0.006184 0.000370 0.019181 -0.003963 0.022242 -0.005497
# 4 -0.005347 0.012270 -0.003963 0.071474 -0.025299 0.038693
# 5 0.012400 0.004398 0.022242 -0.025299 0.076221 -0.029130
# 6 -0.014116 -0.016863 -0.005497 0.038693 -0.029130 0.095714
#
#
# Mechanical properties :
#
#
# Convention : Reuss Voigt Hill
#
# Bulk Modulus (GPa) = 13.43570 26.13720 19.78645
# Shear Modulus (GPa) = 16.22485 32.53118 24.37802
#
# Velocity S-wave (km/s) = 2.67057 3.78150 3.27351
# Velocity P-wave (km/s) = 3.92622 5.52770 4.79430
#
# Compressibility (1/GPa) = 0.07442855
#
# Stress axis : x y z
#
# Youngs Moduli (GPa) = 65.64777 43.90571 52.13618
#
# Poissons Ratio (x) = -0.09069 -0.32240
# Poissons Ratio (y) = -0.13560 -0.01930
# Poissons Ratio (z) = -0.40596 -0.01625
#
# Static dielectric constant tensor:
#      x y z
#    x 1.914550 0.008500 0.004380 
#    y 0.008500 1.826390 0.015660 
#    z 0.004380 0.015660 1.864180 
# 
# From -- ./inp_files/463529.got.cif
#   From: 2010.05.17/outbox.cif.g08.bks.cpg/sg2_232_cif.got.tgz:463529.got - 2010.06.03 11:33:40.
