data_PCOD9037992
_publ_section_title
;
Structure prediction by ZEFSAII (Michael W. Deem and Ramdas Pophale) SiO2 
 PCOD9037992
Probable space group: P -1
;
_chemical_formula_sum "Si O2"
_cell_formula_units_Z 14
_cell_length_a 8.352787
_cell_length_b 7.799825
_cell_length_c 17.048301
_cell_angle_alpha 123.111796
_cell_angle_beta 61.527691
_cell_angle_gamma 74.937521
_cell_volume 578.652736
_symmetry_space_group_name_H-M "P -1"
_symmetry_group_IT_number 2
_symmetry_cell_setting 'triclinic'
loop_
_space_group_symop_operation_xyz
x,y,z
-x,-y,-z
loop_
_atom_site_type_symbol
_atom_site_label
_atom_site_fract_x
_atom_site_fract_y
_atom_site_fract_z
Si Si1 0.096766 0.917176 0.592534
Si Si2 0.749868 0.183763 0.892820
Si Si3 0.631174 0.694368 0.433256
Si Si4 0.035865 0.645913 0.401015
Si Si5 0.510554 0.987050 0.114166
Si Si6 0.751222 0.561260 0.085550
Si Si7 0.938008 0.274210 0.117329
O O1 0.386540 0.738322 0.508874
O O2 0.044076 0.767998 0.509918
O O3 0.007317 0.175586 0.620909
O O4 0.940180 0.019526 0.734799
O O5 0.633598 0.063521 0.918903
O O6 0.500000 0.500000 0.000000
O O7 0.836373 0.273487 0.960146
O O8 0.812193 0.649422 0.447785
O O9 0.827750 0.405908 0.261599
O O10 0.500000 0.000000 0.500000
O O11 0.320383 0.326090 0.248305
O O12 0.535877 0.849602 0.158227
O O13 0.798224 0.810269 0.977788
O O14 0.714318 0.551711 0.183314
O O15 0.000000 0.500000 0.000000
O O16 0.000000 0.000000 0.000000
#
# Coordination Sequence:
#
# PCOD9037992 Si02
#       7
#     2   2   2   2   2   2   2
#     4  10  23  46  67  99 136 186 226 282 348 411
#     4  10  23  41  65  95 136 175 224 273 344 408
#     4  10  24  41  69 100 136 177 231 282 345 406
#     4  10  23  43  71 101 136 177 232 288 341 407
#     4  10  23  41  66 102 135 174 227 282 347 400
#     4   9  22  42  66  97 137 176 221 281 342 407
#     4  11  24  44  71 103 134 179 235 288 342 412
#
# _framework density 24.194129
#
# number of rings (size 3 to 8) (size 9 to 14) (size 15 to 20)
#    0.000    2.000    0.000    0.857   14.000   10.286 
#    2.571    0.714    0.000    0.000    0.000    0.000 
#    0.000    0.000    0.000    0.000    0.000    0.000 
#
# Total GULP energy -78177.691360 kJ/mol
# GULP energy per Si atom -5584.120811 kJ/mol
# Density = 2.413906 g / cm^3
# Si number density = 24.194129 Si / 1000 Ang^3
#
#
#
# Elastic Constant Matrix: (Units=GPa)
#
#
# Indices 1 2 3 4 5 6 
#
# 1 178.7529 39.7858 70.8561 -13.1054 -2.3241 22.4588
# 2 39.7858 69.2226 29.4662 2.6745 5.5826 -19.1549
# 3 70.8561 29.4662 123.7900 6.0707 -12.6570 14.0595
# 4 -13.1054 2.6745 6.0707 30.6905 0.3545 -4.5326
# 5 -2.3241 5.5826 -12.6570 0.3545 42.5914 3.2387
# 6 22.4588 -19.1549 14.0595 -4.5326 3.2387 38.1296
#
#
#
# Elastic Compliance Matrix: (Units=1/GPa)
#
#
# Indices 1 2 3 4 5 6 
#
# 1 0.009491 -0.006280 -0.003243 0.004178 0.000885 -0.007128
# 2 -0.006280 0.026421 -0.005575 -0.000920 -0.006938 0.019507
# 3 -0.003243 -0.005575 0.012717 -0.004433 0.004865 -0.006520
# 4 0.004178 -0.000920 -0.004433 0.035799 -0.001502 0.003094
# 5 0.000885 -0.006938 0.004865 -0.001502 0.026521 -0.008232
# 6 -0.007128 0.019507 -0.006520 0.003094 -0.008232 0.043696
#
#
# Mechanical properties :
#
#
# Convention : Reuss Voigt Hill
#
# Bulk Modulus (GPa) = 54.24457 72.44243 63.34350
# Shear Modulus (GPa) = 26.18032 37.72610 31.95321
#
# Velocity S-wave (km/s) = 3.29309 3.95309 3.63809
# Velocity P-wave (km/s) = 6.07688 7.13043 6.62463
#
# Compressibility (1/GPa) = 0.01843502
#
# Stress axis : x y z
#
# Youngs Moduli (GPa) = 105.36629 37.84799 78.63770
#
# Poissons Ratio (x) = 0.23767 0.25499
# Poissons Ratio (y) = 0.66166 0.43838
# Poissons Ratio (z) = 0.34166 0.21099
#
# Static dielectric constant tensor:
#      x y z
#    x 2.059440 0.006670 0.072240 
#    y 0.006670 2.331180 0.099520 
#    z 0.072240 0.099520 1.894230 
# 
# From -- ./inp_files/557550.got.cif
#   From: 2010.05.17/outbox.cif.g08.bks.cpg/sg2_279_cif.got.tgz:557550.got - 2010.06.03 11:33:40.
