data_PCOD9037766
_publ_section_title
;
Structure prediction by ZEFSAII (Michael W. Deem and Ramdas Pophale) SiO2 
 PCOD9037766
Probable space group: P -1
;
_chemical_formula_sum "Si O2"
_cell_formula_units_Z 16
_cell_length_a 23.002390
_cell_length_b 20.525988
_cell_length_c 8.522468
_cell_angle_alpha 149.253948
_cell_angle_beta 30.863826
_cell_angle_gamma 158.033909
_cell_volume 728.828295
_symmetry_space_group_name_H-M "P -1"
_symmetry_group_IT_number 2
_symmetry_cell_setting 'triclinic'
loop_
_space_group_symop_operation_xyz
x,y,z
-x,-y,-z
loop_
_atom_site_type_symbol
_atom_site_label
_atom_site_fract_x
_atom_site_fract_y
_atom_site_fract_z
Si Si1 0.042276 0.519279 0.621488
Si Si2 0.452110 0.594558 0.377547
Si Si3 0.584902 0.168636 0.537863
Si Si4 0.925267 0.671919 0.289135
Si Si5 0.124214 0.984360 0.214555
Si Si6 0.642365 0.953447 0.467114
Si Si7 0.930650 0.304706 0.696492
Si Si8 0.459797 0.327122 0.300794
O O1 0.223457 0.711246 0.648811
O O2 0.000000 0.500000 0.500000
O O3 0.023681 0.372124 0.452129
O O4 0.903708 0.503369 0.968724
O O5 0.255979 0.426491 0.482381
O O6 0.536994 0.770049 0.435778
O O7 0.507863 0.654641 0.551999
O O8 0.500000 0.500000 0.000000
O O9 0.487030 0.083894 0.426154
O O10 0.500000 0.000000 0.500000
O O11 0.561511 0.294624 0.915705
O O12 0.021086 0.756872 0.408719
O O13 0.022563 0.802691 0.183097
O O14 0.271278 0.149990 0.328332
O O15 0.224542 0.009400 0.882196
O O16 0.000000 0.000000 0.500000
O O17 0.745076 0.128647 0.707846
O O18 0.000000 0.500000 0.000000
O O19 0.500000 0.500000 0.500000
#
# Coordination Sequence:
#
# PCOD9037766 Si02
#       8
#     2   2   2   2   2   2   2   2
#     4  11  21  39  65  96 132 175 223 281 340 403
#     4  12  25  44  68 100 138 182 227 282 347 416
#     4  11  23  42  68 100 135 181 233 284 344 413
#     4  11  23  42  64  95 133 172 223 281 337 404
#     4  11  23  42  67  95 127 175 229 278 333 401
#     4  11  24  43  67  97 134 176 225 283 341 407
#     4  10  23  41  62  94 130 170 216 273 341 408
#     4  11  24  43  67 101 138 181 229 284 343 412
#
# _framework density 21.953043999999998
#
# number of rings (size 3 to 8) (size 9 to 14) (size 15 to 20)
#    0.000    1.000    0.000    8.250    0.000    4.000 
#    0.000    8.125    0.000    0.000    0.000    0.000 
#    0.000    0.000    0.000    0.000    0.000    0.000 
#
# Total GULP energy -89195.005850 kJ/mol
# GULP energy per Si atom -5574.687866 kJ/mol
# Density = 2.190308 g / cm^3
# Si number density = 21.953044 Si / 1000 Ang^3
#
#
#
# Elastic Constant Matrix: (Units=GPa)
#
#
# Indices 1 2 3 4 5 6 
#
# 1 178.3699 39.3314 27.8380 0.4408 14.1177 2.0368
# 2 39.3314 118.5338 15.5618 2.8719 1.5934 -7.3600
# 3 27.8380 15.5618 72.7061 -12.0832 -7.1392 16.2726
# 4 0.4408 2.8719 -12.0832 41.3027 3.1595 -2.9110
# 5 14.1177 1.5934 -7.1392 3.1595 30.9353 2.5691
# 6 2.0368 -7.3600 16.2726 -2.9110 2.5691 63.2979
#
#
#
# Elastic Compliance Matrix: (Units=1/GPa)
#
#
# Indices 1 2 3 4 5 6 
#
# 1 0.006700 -0.001786 -0.002695 -0.000434 -0.003576 0.000395
# 2 -0.001786 0.009401 -0.001872 -0.001061 -0.000125 0.001588
# 3 -0.002695 -0.001872 0.017499 0.004547 0.005285 -0.004635
# 4 -0.000434 -0.001061 0.004547 0.025718 -0.001321 -0.000042
# 5 -0.003576 -0.000125 0.005285 -0.001321 0.035548 -0.002762
# 6 0.000395 0.001588 -0.004635 -0.000042 -0.002762 0.017272
#
#
# Mechanical properties :
#
#
# Convention : Reuss Voigt Hill
#
# Bulk Modulus (GPa) = 47.86245 59.45246 53.65746
# Shear Modulus (GPa) = 37.93364 46.23241 42.08302
#
# Velocity S-wave (km/s) = 4.16136 4.59406 4.38306
# Velocity P-wave (km/s) = 6.70364 7.43512 7.07883
#
# Compressibility (1/GPa) = 0.02089320
#
# Stress axis : x y z
#
# Youngs Moduli (GPa) = 149.24430 106.37218 57.14774
#
# Poissons Ratio (x) = 0.19003 0.15400
# Poissons Ratio (y) = 0.26661 0.10699
# Poissons Ratio (z) = 0.40218 0.19914
#
# Static dielectric constant tensor:
#      x y z
#    x 2.165540 0.029940 -0.022650 
#    y 0.029940 1.806470 -0.000250 
#    z -0.022650 -0.000250 1.890840 
# 
# From -- ./inp_files/355305.got.cif
#   From: 2010.05.17/outbox.cif.g08.bks.cpg/sg2_178_cif.got.tgz:355305.got - 2010.06.03 11:33:40.
