data_PCOD9037425
_publ_section_title
;
Structure prediction by ZEFSAII (Michael W. Deem and Ramdas Pophale) SiO2 
 PCOD9037425
Probable space group: P -1
;
_chemical_formula_sum "Si O2"
_cell_formula_units_Z 14
_cell_length_a 9.684165
_cell_length_b 8.775931
_cell_length_c 10.271372
_cell_angle_alpha 63.898670
_cell_angle_beta 139.358797
_cell_angle_gamma 106.783113
_cell_volume 509.059430
_symmetry_space_group_name_H-M "P -1"
_symmetry_group_IT_number 2
_symmetry_cell_setting 'triclinic'
loop_
_space_group_symop_operation_xyz
x,y,z
-x,-y,-z
loop_
_atom_site_type_symbol
_atom_site_label
_atom_site_fract_x
_atom_site_fract_y
_atom_site_fract_z
Si Si1 0.536613 0.709911 0.085878
Si Si2 0.533522 0.225916 0.472526
Si Si3 0.483172 0.049438 0.774905
Si Si4 0.112912 0.904769 0.435023
Si Si5 0.066507 0.239061 0.157325
Si Si6 0.845838 0.432421 0.284708
Si Si7 0.815327 0.468352 0.689200
O O1 0.312528 0.641870 0.906276
O O2 0.589154 0.869152 0.971071
O O3 0.516038 0.798628 0.177874
O O4 0.697791 0.546377 0.234554
O O5 0.553720 0.111881 0.660659
O O6 0.703542 0.162154 0.511021
O O7 0.293606 0.219343 0.252250
O O8 0.598312 0.411206 0.494952
O O9 0.239877 0.998766 0.602215
O O10 0.033699 0.734757 0.501529
O O11 0.987051 0.060137 0.212572
O O12 0.149781 0.346702 0.297917
O O13 0.892963 0.344486 0.909091
O O14 0.994018 0.450198 0.713150
#
# Coordination Sequence:
#
# PCOD9037425 Si02
#       7
#     2   2   2   2   2   2   2
#     4   9  20  38  67  98 136 177 224 275 336 401
#     4  11  24  43  71  98 138 176 224 279 339 395
#     4   9  19  39  67 100 126 183 225 268 342 398
#     4  10  23  43  67  96 135 184 220 277 344 391
#     4  10  24  45  68  97 139 173 230 280 329 405
#     4  10  23  40  66  99 139 176 224 278 335 404
#     4  11  26  42  69 104 131 182 227 273 340 395
#
# _framework density 27.5017
#
# number of rings (size 3 to 8) (size 9 to 14) (size 15 to 20)
#    0.000    2.000    0.000    2.143   12.000    4.000 
#    0.000    0.000    0.000    0.000    0.000    0.000 
#    0.000    0.000    0.000    0.000    0.000    0.000 
#
# Total GULP energy -78462.968582 kJ/mol
# GULP energy per Si atom -5604.497756 kJ/mol
# Density = 2.743911 g / cm^3
# Si number density = 27.501700 Si / 1000 Ang^3
#
#
#
# Elastic Constant Matrix: (Units=GPa)
#
#
# Indices 1 2 3 4 5 6 
#
# 1 59.4051 16.9765 5.3428 6.9384 -1.6992 2.0396
# 2 16.9765 150.4082 44.8794 5.6065 6.6916 -0.0576
# 3 5.3428 44.8794 81.4941 -10.5474 -13.3895 10.1162
# 4 6.9384 5.6065 -10.5474 70.1209 9.0801 3.0984
# 5 -1.6992 6.6916 -13.3895 9.0801 27.0026 6.1356
# 6 2.0396 -0.0576 10.1162 3.0984 6.1356 56.7635
#
#
#
# Elastic Compliance Matrix: (Units=1/GPa)
#
#
# Indices 1 2 3 4 5 6 
#
# 1 0.017738 -0.002147 0.000323 -0.001836 0.002626 -0.000881
# 2 -0.002147 0.008961 -0.006019 -0.000778 -0.005486 0.001794
# 3 0.000323 -0.006019 0.018173 0.001973 0.010891 -0.004541
# 4 -0.001836 -0.000778 0.001973 0.015343 -0.003945 -0.000698
# 5 0.002626 -0.005486 0.010891 -0.003945 0.046851 -0.006890
# 6 -0.000881 0.001794 -0.004541 -0.000698 -0.006890 0.019243
#
#
# Mechanical properties :
#
#
# Convention : Reuss Voigt Hill
#
# Bulk Modulus (GPa) = 34.26427 47.30054 40.78240
# Shear Modulus (GPa) = 32.95474 45.71797 39.33635
#
# Velocity S-wave (km/s) = 3.46537 4.08164 3.78607
# Velocity P-wave (km/s) = 5.33833 6.28088 5.82869
#
# Compressibility (1/GPa) = 0.02918492
#
# Stress axis : x y z
#
# Youngs Moduli (GPa) = 56.37639 111.59992 55.02716
#
# Poissons Ratio (x) = 0.23961 -0.01775
# Poissons Ratio (y) = 0.12104 0.33119
# Poissons Ratio (z) = -0.01819 0.67169
#
# Static dielectric constant tensor:
#      x y z
#    x 2.149790 -0.048650 0.027180 
#    y -0.048650 2.137420 -0.005010 
#    z 0.027180 -0.005010 2.158420 
# 
# From -- ./inp_files/198519.got.cif
#   From: 2010.05.17/outbox.cif.g08.bks.cpg/sg2_100_cif.got.tgz:198519.got - 2010.06.03 11:33:40.
