data_PCOD9037535
_publ_section_title
;
Structure prediction by ZEFSAII (Michael W. Deem and Ramdas Pophale) SiO2 
 PCOD9037535
Probable space group: P -1
;
_chemical_formula_sum "Si O2"
_cell_formula_units_Z 16
_cell_length_a 16.785224
_cell_length_b 13.762730
_cell_length_c 5.878081
_cell_angle_alpha 90.087809
_cell_angle_beta 77.928513
_cell_angle_gamma 148.567248
_cell_volume 649.478775
_symmetry_space_group_name_H-M "P -1"
_symmetry_group_IT_number 2
_symmetry_cell_setting 'triclinic'
loop_
_space_group_symop_operation_xyz
x,y,z
-x,-y,-z
loop_
_atom_site_type_symbol
_atom_site_label
_atom_site_fract_x
_atom_site_fract_y
_atom_site_fract_z
Si Si1 0.288442 0.490778 0.737302
Si Si2 0.236024 0.778507 0.553287
Si Si3 0.959515 0.071095 0.043188
Si Si4 0.605886 0.202185 0.214385
Si Si5 0.409385 0.465772 0.360371
Si Si6 0.899936 0.082789 0.573611
Si Si7 0.897733 0.531042 0.681193
Si Si8 0.417217 0.276653 0.123553
O O1 0.359968 0.670270 0.637766
O O2 0.273995 0.395819 0.544975
O O3 0.414805 0.573386 0.842278
O O4 0.111711 0.305164 0.961045
O O5 0.317494 0.817844 0.732691
O O6 0.148069 0.597778 0.476341
O O7 0.077992 0.686487 0.687722
O O8 0.405771 0.983728 0.312572
O O9 0.887350 0.010867 0.341626
O O10 0.893404 0.027037 0.828856
O O11 0.000000 0.000000 0.000000
O O12 0.730176 0.359715 0.933850
O O13 0.500000 0.500000 0.500000
O O14 0.362951 0.331817 0.216129
O O15 0.539324 0.673984 0.165687
O O16 0.049232 0.313643 0.470394
O O17 0.715826 0.937154 0.703282
#
# Coordination Sequence:
#
# PCOD9037535 Si02
#       8
#     2   2   2   2   2   2   2   2
#     4  11  23  40  67  99 137 185 234 298 353 432
#     4  10  24  43  72 103 132 190 233 303 373 445
#     4  12  28  45  68 103 149 190 237 292 364 422
#     4  11  22  44  69 103 141 178 241 295 371 442
#     4   9  21  39  64  93 133 179 242 295 352 414
#     4  12  27  46  70 105 144 192 241 298 358 439
#     4  11  23  45  69 100 146 180 243 297 373 432
#     4  10  23  40  68  94 134 187 245 294 352 424
#
# _framework density 24.63514
#
# number of rings (size 3 to 8) (size 9 to 14) (size 15 to 20)
#    0.000    1.250    1.250    3.375   10.500    1.000 
#    0.000    2.500    0.000    0.000    0.000    0.000 
#    0.000    0.000    0.000    0.000    0.000    0.000 
#
# Total GULP energy -89104.532172 kJ/mol
# GULP energy per Si atom -5569.033261 kJ/mol
# Density = 2.457907 g / cm^3
# Si number density = 24.635140 Si / 1000 Ang^3
#
#
#
# Elastic Constant Matrix: (Units=GPa)
#
#
# Indices 1 2 3 4 5 6 
#
# 1 91.5212 12.3389 20.1372 2.0506 10.3525 3.1392
# 2 12.3389 109.5438 39.9084 -16.4239 7.7057 6.8340
# 3 20.1372 39.9084 117.8958 -29.0592 9.9187 7.2284
# 4 2.0506 -16.4239 -29.0592 40.0224 -0.9605 -1.8458
# 5 10.3525 7.7057 9.9187 -0.9605 21.5003 -2.9346
# 6 3.1392 6.8340 7.2284 -1.8458 -2.9346 24.8734
#
#
#
# Elastic Compliance Matrix: (Units=1/GPa)
#
#
# Indices 1 2 3 4 5 6 
#
# 1 0.012116 -0.000566 -0.001966 -0.002475 -0.005051 -0.001582
# 2 -0.000566 0.010832 -0.002619 0.002405 -0.002605 -0.002273
# 3 -0.001966 -0.002619 0.012021 0.007556 -0.003650 -0.002395
# 4 -0.002475 0.002405 0.007556 0.031523 -0.001805 -0.000418
# 5 -0.005051 -0.002605 -0.003650 -0.001805 0.052638 0.008490
# 6 -0.001582 -0.002273 -0.002395 -0.000418 0.008490 0.042694
#
#
# Mechanical properties :
#
#
# Convention : Reuss Voigt Hill
#
# Bulk Modulus (GPa) = 40.53788 51.52553 46.03171
# Shear Modulus (GPa) = 27.72402 33.71763 30.72083
#
# Velocity S-wave (km/s) = 3.35832 3.70358 3.53517
# Velocity P-wave (km/s) = 5.61505 6.26495 5.94888
#
# Compressibility (1/GPa) = 0.02466828
#
# Stress axis : x y z
#
# Youngs Moduli (GPa) = 82.53341 92.31759 83.18995
#
# Poissons Ratio (x) = 0.05221 0.16356
# Poissons Ratio (y) = 0.04667 0.21786
# Poissons Ratio (z) = 0.16227 0.24176
#
# Static dielectric constant tensor:
#      x y z
#    x 2.020270 0.025530 0.033240 
#    y 0.025530 2.144000 -0.032560 
#    z 0.033240 -0.032560 2.013580 
# 
# From -- ./inp_files/110846.got.cif
#   From: 2010.05.17/outbox.cif.g08.bks.cpg/sg2_56_cif.got.tgz:110846.got - 2010.06.03 11:33:40.
