data_PCOD9037832
_publ_section_title
;
Structure prediction by ZEFSAII (Michael W. Deem and Ramdas Pophale) SiO2 
 PCOD9037832
Probable space group: P -1
;
_chemical_formula_sum "Si O2"
_cell_formula_units_Z 16
_cell_length_a 10.196921
_cell_length_b 17.209821
_cell_length_c 8.471992
_cell_angle_alpha 119.383493
_cell_angle_beta 102.640485
_cell_angle_gamma 128.786321
_cell_volume 638.522217
_symmetry_space_group_name_H-M "P -1"
_symmetry_group_IT_number 2
_symmetry_cell_setting 'triclinic'
loop_
_space_group_symop_operation_xyz
x,y,z
-x,-y,-z
loop_
_atom_site_type_symbol
_atom_site_label
_atom_site_fract_x
_atom_site_fract_y
_atom_site_fract_z
Si Si1 0.211861 0.322268 0.320868
Si Si2 0.920783 0.862261 0.182578
Si Si3 0.877999 0.022981 0.147056
Si Si4 0.102253 0.576999 0.778813
Si Si5 0.432170 0.082771 0.617545
Si Si6 0.135324 0.808531 0.483511
Si Si7 0.658389 0.475129 0.178377
Si Si8 0.613347 0.231083 0.462482
O O1 0.500000 0.500000 0.500000
O O2 0.187986 0.395862 0.497956
O O3 0.045124 0.197086 0.999205
O O4 0.150852 0.206961 0.312480
O O5 0.810695 0.984804 0.494756
O O6 0.890785 0.937075 0.154075
O O7 0.653885 0.690298 0.040492
O O8 0.642077 0.886857 0.821432
O O9 0.816404 0.073308 0.289582
O O10 0.281075 0.593746 0.884599
O O11 0.000000 0.500000 0.500000
O O12 0.851328 0.435447 0.688441
O O13 0.315685 0.776024 0.057657
O O14 0.547293 0.178517 0.574894
O O15 0.266488 0.899247 0.437891
O O16 0.272716 0.800939 0.589983
O O17 0.817731 0.609842 0.208967
#
# Coordination Sequence:
#
# PCOD9037832 Si02
#       8
#     2   2   2   2   2   2   2   2
#     4   9  19  37  60  93 130 167 210 258 316 390
#     4  11  22  40  67 103 135 166 219 269 340 387
#     4  11  21  40  71  98 129 176 219 268 324 394
#     4  11  24  45  66  95 126 177 228 270 327 391
#     4  12  25  41  66  98 137 172 213 281 332 386
#     4  10  23  41  63  95 133 179 221 265 322 388
#     4   9  21  41  66  91 129 172 222 267 318 397
#     4  11  23  43  66  95 134 171 225 270 323 388
#
# _framework density 25.057860000000002
#
# number of rings (size 3 to 8) (size 9 to 14) (size 15 to 20)
#    0.000    1.500    1.250    3.750    0.000    4.500 
#    2.250    6.250    0.000    0.000    0.000    0.000 
#    0.000    0.000    0.000    0.000    0.000    0.000 
#
# Total GULP energy -89345.839698 kJ/mol
# GULP energy per Si atom -5584.114981 kJ/mol
# Density = 2.500083 g / cm^3
# Si number density = 25.057860 Si / 1000 Ang^3
#
#
#
# Elastic Constant Matrix: (Units=GPa)
#
#
# Indices 1 2 3 4 5 6 
#
# 1 63.1156 19.6220 29.6122 10.0923 8.6790 -3.6108
# 2 19.6220 172.7599 50.5391 39.4068 28.7459 22.7050
# 3 29.6122 50.5391 110.5320 17.4370 15.3452 5.4860
# 4 10.0923 39.4068 17.4370 41.8031 10.2491 5.5441
# 5 8.6790 28.7459 15.3452 10.2491 38.4869 -3.8541
# 6 -3.6108 22.7050 5.4860 5.5441 -3.8541 43.6600
#
#
#
# Elastic Compliance Matrix: (Units=1/GPa)
#
#
# Indices 1 2 3 4 5 6 
#
# 1 0.018732 -0.000431 -0.004405 -0.002296 -0.001284 0.002505
# 2 -0.000431 0.009185 -0.002295 -0.005889 -0.004699 -0.004191
# 3 -0.004405 -0.002295 0.011731 -0.001157 -0.001727 -0.000651
# 4 -0.002296 -0.005889 -0.001157 0.031441 -0.003120 -0.001250
# 5 -0.001284 -0.004699 -0.001727 -0.003120 0.031879 0.005765
# 6 0.002505 -0.004191 -0.000651 -0.001250 0.005765 0.026040
#
#
# Mechanical properties :
#
#
# Convention : Reuss Voigt Hill
#
# Bulk Modulus (GPa) = 39.39167 60.66157 50.02662
# Shear Modulus (GPa) = 32.95311 41.23228 37.09269
#
# Velocity S-wave (km/s) = 3.63034 4.06086 3.85162
# Velocity P-wave (km/s) = 5.77294 6.80063 6.30775
#
# Compressibility (1/GPa) = 0.02538608
#
# Stress axis : x y z
#
# Youngs Moduli (GPa) = 53.38550 108.87833 85.24317
#
# Poissons Ratio (x) = 0.04689 0.37552
# Poissons Ratio (y) = 0.02299 0.19561
# Poissons Ratio (z) = 0.23518 0.24984
#
# Static dielectric constant tensor:
#      x y z
#    x 2.000850 0.041190 -0.073610 
#    y 0.041190 2.038210 -0.018730 
#    z -0.073610 -0.018730 2.041990 
# 
# From -- ./inp_files/195792.got.cif
#   From: 2010.05.17/outbox.cif.g08.bks.cpg/sg2_98_cif.got.tgz:195792.got - 2010.06.03 11:33:40.
