data_PCOD9037635
_publ_section_title
;
Structure prediction by ZEFSAII (Michael W. Deem and Ramdas Pophale) SiO2 
 PCOD9037635
Probable space group: P -1
;
_chemical_formula_sum "Si O2"
_cell_formula_units_Z 14
_cell_length_a 14.863861
_cell_length_b 11.019406
_cell_length_c 14.380608
_cell_angle_alpha 43.928671
_cell_angle_beta 150.438583
_cell_angle_gamma 115.470370
_cell_volume 660.245581
_symmetry_space_group_name_H-M "P -1"
_symmetry_group_IT_number 2
_symmetry_cell_setting 'triclinic'
loop_
_space_group_symop_operation_xyz
x,y,z
-x,-y,-z
loop_
_atom_site_type_symbol
_atom_site_label
_atom_site_fract_x
_atom_site_fract_y
_atom_site_fract_z
Si Si1 0.010175 0.344745 0.173738
Si Si2 0.102718 0.041000 0.157804
Si Si3 0.353649 0.349503 0.721359
Si Si4 0.509220 0.078368 0.824551
Si Si5 0.728993 0.268282 0.841082
Si Si6 0.146673 0.373971 0.938770
Si Si7 0.480107 0.596103 0.826956
O O1 0.269356 0.161645 0.521895
O O2 0.908743 0.475816 0.104678
O O3 0.000000 0.500000 0.000000
O O4 0.867777 0.259138 0.059002
O O5 0.258267 0.832459 0.475990
O O6 0.230373 0.141774 0.180342
O O7 0.890451 0.219253 0.928039
O O8 0.000000 0.000000 0.000000
O O9 0.457576 0.239301 0.775559
O O10 0.472314 0.443748 0.828093
O O11 0.092218 0.531541 0.375042
O O12 0.377976 0.158291 0.907286
O O13 0.662334 0.102867 0.878851
O O14 0.500000 0.500000 0.500000
O O15 0.315462 0.385885 0.019320
O O16 0.500000 0.500000 0.000000
#
# Coordination Sequence:
#
# PCOD9037635 Si02
#       7
#     2   2   2   2   2   2   2
#     4  11  21  39  69 105 132 175 239 287 349 417
#     4  12  27  47  71 104 142 189 237 282 359 424
#     4  10  23  46  66 100 138 178 237 281 358 409
#     4  10  23  40  70  99 136 182 223 297 344 413
#     4  12  24  42  71 103 138 176 236 292 350 406
#     4  11  24  47  72  96 140 186 234 296 344 416
#     4  12  29  45  70 101 144 190 235 287 348 424
#
# _framework density 21.204229999999999
#
# number of rings (size 3 to 8) (size 9 to 14) (size 15 to 20)
#    0.000    0.857    4.286    2.143    6.000    1.714 
#    0.000    4.286    0.000    0.000    0.000    0.000 
#    0.000    0.000    0.000    0.000    0.000    0.000 
#
# Total GULP energy -78316.216449 kJ/mol
# GULP energy per Si atom -5594.015461 kJ/mol
# Density = 2.115597 g / cm^3
# Si number density = 21.204230 Si / 1000 Ang^3
#
#
#
# Elastic Constant Matrix: (Units=GPa)
#
#
# Indices 1 2 3 4 5 6 
#
# 1 96.2493 26.1441 42.4801 3.2434 -4.6043 32.7861
# 2 26.1441 96.6073 34.8786 14.5322 3.9179 14.4965
# 3 42.4801 34.8786 113.3124 -2.3477 -18.6353 10.7230
# 4 3.2434 14.5322 -2.3477 36.7253 3.8892 -7.0204
# 5 -4.6043 3.9179 -18.6353 3.8892 26.5899 1.6876
# 6 32.7861 14.4965 10.7230 -7.0204 1.6876 36.8511
#
#
#
# Elastic Compliance Matrix: (Units=1/GPa)
#
#
# Indices 1 2 3 4 5 6 
#
# 1 0.018336 0.000048 -0.005299 -0.005130 0.001209 -0.015823
# 2 0.000048 0.013897 -0.004592 -0.006368 -0.003996 -0.005203
# 3 -0.005299 -0.004592 0.013437 0.002758 0.008599 0.002743
# 4 -0.005130 -0.006368 0.002758 0.033208 -0.003684 0.012762
# 5 0.001209 -0.003996 0.008599 -0.003684 0.045275 -0.004781
# 6 -0.015823 -0.005203 0.002743 0.012762 -0.004781 0.045113
#
#
# Mechanical properties :
#
#
# Convention : Reuss Voigt Hill
#
# Bulk Modulus (GPa) = 38.48620 57.01940 47.75280
# Shear Modulus (GPa) = 25.30189 33.54434 29.42312
#
# Velocity S-wave (km/s) = 3.45809 3.98171 3.72910
# Velocity P-wave (km/s) = 5.84244 6.93452 6.41178
#
# Compressibility (1/GPa) = 0.02598334
#
# Stress axis : x y z
#
# Youngs Moduli (GPa) = 54.53779 71.95777 74.42134
#
# Poissons Ratio (x) = -0.00345 0.39435
# Poissons Ratio (y) = -0.00261 0.34177
# Poissons Ratio (z) = 0.28899 0.33045
#
# Static dielectric constant tensor:
#      x y z
#    x 1.770270 -0.030080 -0.024050 
#    y -0.030080 1.813750 0.023790 
#    z -0.024050 0.023790 1.775070 
# 
# From -- ./inp_files/532349.got.cif
#   From: 2010.05.17/outbox.cif.g08.bks.cpg/sg2_267_cif.got.tgz:532349.got - 2010.06.03 11:33:40.
