data_PCOD9037327
_publ_section_title
;
Structure prediction by ZEFSAII (Michael W. Deem and Ramdas Pophale) SiO2 
 PCOD9037327
Probable space group: P -1
;
_chemical_formula_sum "Si O2"
_cell_formula_units_Z 16
_cell_length_a 8.493594
_cell_length_b 26.455360
_cell_length_c 19.323810
_cell_angle_alpha 19.489204
_cell_angle_beta 148.334731
_cell_angle_gamma 147.744831
_cell_volume 736.849242
_symmetry_space_group_name_H-M "P -1"
_symmetry_group_IT_number 2
_symmetry_cell_setting 'triclinic'
loop_
_space_group_symop_operation_xyz
x,y,z
-x,-y,-z
loop_
_atom_site_type_symbol
_atom_site_label
_atom_site_fract_x
_atom_site_fract_y
_atom_site_fract_z
Si Si1 0.399804 0.680916 0.083307
Si Si2 0.773809 0.716137 0.052905
Si Si3 0.697984 0.654505 0.595726
Si Si4 0.845431 0.818420 0.196182
Si Si5 0.397190 0.823789 0.660999
Si Si6 0.246626 0.360967 0.049347
Si Si7 0.559690 0.164701 0.845037
Si Si8 0.745668 0.423147 0.358236
O O1 0.661878 0.772529 0.009987
O O2 0.314573 0.508807 0.237610
O O3 0.575117 0.722210 0.168293
O O4 0.061450 0.707245 0.934261
O O5 0.850126 0.545782 0.302560
O O6 0.100324 0.816763 0.019163
O O7 0.488527 0.718871 0.892368
O O8 0.466408 0.725431 0.371405
O O9 0.599135 0.642704 0.655290
O O10 0.043147 0.765410 0.581327
O O11 0.686779 0.816603 0.213956
O O12 0.099104 0.717109 0.416830
O O13 0.000000 0.000000 0.000000
O O14 0.500000 0.000000 0.500000
O O15 0.603622 0.780026 0.733355
O O16 0.178327 0.457467 0.831740
O O17 0.500000 0.500000 0.000000
O O18 0.500000 0.000000 0.000000
#
# Coordination Sequence:
#
# PCOD9037327 Si02
#       8
#     2   2   2   2   2   2   2   2
#     4  11  23  42  67  96 129 169 225 270 333 397
#     4  10  23  42  67  94 131 175 220 270 332 400
#     4  11  23  40  69  95 130 176 223 273 328 402
#     4  12  25  41  66 100 136 169 218 280 336 396
#     4  11  24  42  65  96 133 175 223 275 337 396
#     4  11  23  41  66  96 130 175 224 275 326 394
#     4  12  24  42  65  92 132 175 218 272 338 399
#     4  10  23  40  65  94 128 167 219 266 330 393
#
# _framework density 21.714075000000001
#
# number of rings (size 3 to 8) (size 9 to 14) (size 15 to 20)
#    0.000    1.000    1.250    6.000    1.750    6.000 
#    0.000    0.625    0.000    0.000    0.000    0.000 
#    0.000    0.000    0.000    0.000    0.000    0.000 
#
# Total GULP energy -89096.219688 kJ/mol
# GULP energy per Si atom -5568.513731 kJ/mol
# Density = 2.166465 g / cm^3
# Si number density = 21.714075 Si / 1000 Ang^3
#
#
#
# Elastic Constant Matrix: (Units=GPa)
#
#
# Indices 1 2 3 4 5 6 
#
# 1 117.5767 22.3114 31.8589 -8.7129 34.6605 5.2356
# 2 22.3114 103.1640 22.1036 -5.0139 20.0173 -1.2076
# 3 31.8589 22.1036 66.3789 -10.0565 23.6705 -0.4790
# 4 -8.7129 -5.0139 -10.0565 26.4475 -8.0581 4.9378
# 5 34.6605 20.0173 23.6705 -8.0581 42.7771 1.3360
# 6 5.2356 -1.2076 -0.4790 4.9378 1.3360 33.1660
#
#
#
# Elastic Compliance Matrix: (Units=1/GPa)
#
#
# Indices 1 2 3 4 5 6 
#
# 1 0.011678 -0.000471 -0.002641 0.000762 -0.007584 -0.001707
# 2 -0.000471 0.010955 -0.002152 -0.000104 -0.003592 0.000602
# 3 -0.002641 -0.002152 0.020286 0.004152 -0.007306 0.000308
# 4 0.000762 -0.000104 0.004152 0.042482 0.005342 -0.006604
# 5 -0.007584 -0.003592 -0.007306 0.005342 0.036292 -0.001296
# 6 -0.001707 0.000602 0.000308 -0.006604 -0.001296 0.031483
#
#
# Mechanical properties :
#
#
# Convention : Reuss Voigt Hill
#
# Bulk Modulus (GPa) = 30.87315 48.85193 39.86254
# Shear Modulus (GPa) = 28.65320 34.53448 31.59384
#
# Velocity S-wave (km/s) = 3.63653 3.99233 3.81858
# Velocity P-wave (km/s) = 5.64636 6.61803 6.15141
#
# Compressibility (1/GPa) = 0.03239061
#
# Stress axis : x y z
#
# Youngs Moduli (GPa) = 85.63034 91.27947 49.29621
#
# Poissons Ratio (x) = 0.04302 0.13017
# Poissons Ratio (y) = 0.04036 0.10610
# Poissons Ratio (z) = 0.22611 0.19646
#
# Static dielectric constant tensor:
#      x y z
#    x 1.794490 -0.215490 0.060180 
#    y -0.215490 1.195980 0.322670 
#    z 0.060180 0.322670 1.669620 
# 
# From -- ./inp_files/592087.got.cif
#   From: 2010.05.17/outbox.cif.g08.bks.cpg/sg2_297_cif.got.tgz:592087.got - 2010.06.03 11:33:40.
