data_PCOD9037383
_publ_section_title
;
Structure prediction by ZEFSAII (Michael W. Deem and Ramdas Pophale) SiO2 
 PCOD9037383
Probable space group: P -1
;
_chemical_formula_sum "Si O2"
_cell_formula_units_Z 16
_cell_length_a 7.737620
_cell_length_b 5.540687
_cell_length_c 21.872200
_cell_angle_alpha 48.559392
_cell_angle_beta 62.980614
_cell_angle_gamma 64.700370
_cell_volume 614.844939
_symmetry_space_group_name_H-M "P -1"
_symmetry_group_IT_number 2
_symmetry_cell_setting 'triclinic'
loop_
_space_group_symop_operation_xyz
x,y,z
-x,-y,-z
loop_
_atom_site_type_symbol
_atom_site_label
_atom_site_fract_x
_atom_site_fract_y
_atom_site_fract_z
Si Si1 0.483374 0.533935 0.288112
Si Si2 0.210714 0.186587 0.201045
Si Si3 0.766666 0.702219 0.050204
Si Si4 0.195260 0.844083 0.770061
Si Si5 0.174144 0.194131 0.342046
Si Si6 0.779171 0.547357 0.403511
Si Si7 0.628065 0.560811 0.544791
Si Si8 0.769906 0.362588 0.988096
O O1 0.708970 0.407570 0.256471
O O2 0.356244 0.381338 0.284522
O O3 0.408127 0.383542 0.387119
O O4 0.404404 0.919291 0.229909
O O5 0.110325 0.243393 0.273898
O O6 0.243058 0.485075 0.103648
O O7 0.041102 0.054179 0.212305
O O8 0.747882 0.366998 0.143741
O O9 0.000990 0.718921 0.012310
O O10 0.690169 0.642805 0.004517
O O11 0.686772 0.026834 0.049265
O O12 0.270705 0.173269 0.686977
O O13 0.993247 0.341837 0.390350
O O14 0.259537 0.819207 0.408561
O O15 0.757945 0.704435 0.448844
O O16 0.596793 0.360941 0.457598
#
# Coordination Sequence:
#
# PCOD9037383 Si02
#       8
#     2   2   2   2   2   2   2   2
#     4  11  23  41  61  92 127 161 210 265 315 382
#     4  10  23  40  66  90 123 169 209 258 322 387
#     4   9  20  36  63  94 128 166 214 270 321 383
#     4  11  22  41  64  93 122 169 211 261 323 383
#     4  11  22  41  63  90 126 163 209 264 316 382
#     4  11  22  41  65  90 124 167 212 259 322 386
#     4  10  24  42  60  92 127 162 210 267 317 378
#     4   9  19  38  63  94 127 167 215 266 323 388
#
# _framework density 26.022824
#
# number of rings (size 3 to 8) (size 9 to 14) (size 15 to 20)
#    0.000    1.750    2.500    1.125    1.750    5.000 
#    2.250    1.250    0.000    0.000    0.000    0.000 
#    0.000    0.000    0.000    0.000    0.000    0.000 
#
# Total GULP energy -89317.286543 kJ/mol
# GULP energy per Si atom -5582.330409 kJ/mol
# Density = 2.596359 g / cm^3
# Si number density = 26.022824 Si / 1000 Ang^3
#
#
#
# Elastic Constant Matrix: (Units=GPa)
#
#
# Indices 1 2 3 4 5 6 
#
# 1 77.0762 20.8308 11.5383 -3.5375 11.2715 -30.7703
# 2 20.8308 77.8557 11.6207 2.1872 2.0073 -16.8999
# 3 11.5383 11.6207 111.6019 -1.9986 18.4478 1.2128
# 4 -3.5375 2.1872 -1.9986 29.9203 -2.8955 -7.8471
# 5 11.2715 2.0073 18.4478 -2.8955 30.7699 3.1463
# 6 -30.7703 -16.8999 1.2128 -7.8471 3.1463 27.3650
#
#
#
# Elastic Compliance Matrix: (Units=1/GPa)
#
#
# Indices 1 2 3 4 5 6 
#
# 1 0.032919 0.000734 -0.001317 0.013658 -0.014440 0.043104
# 2 0.000734 0.015234 -0.001536 0.001606 -0.001306 0.010912
# 3 -0.001317 -0.001536 0.010150 -0.000512 -0.005304 -0.002416
# 4 0.013658 0.001606 -0.000512 0.042092 -0.003793 0.028878
# 5 -0.014440 -0.001306 -0.005304 -0.003793 0.043033 -0.022843
# 6 0.043104 0.010912 -0.002416 0.028878 -0.022843 0.102765
#
#
# Mechanical properties :
#
#
# Convention : Reuss Voigt Hill
#
# Bulk Modulus (GPa) = 18.49588 39.39037 28.94313
# Shear Modulus (GPa) = 18.62517 32.44732 25.53624
#
# Velocity S-wave (km/s) = 2.67820 3.53495 3.13597
# Velocity P-wave (km/s) = 4.08494 5.64188 4.92532
#
# Compressibility (1/GPa) = 0.05406609
#
# Stress axis : x y z
#
# Youngs Moduli (GPa) = 30.37720 65.64049 98.51870
#
# Poissons Ratio (x) = -0.04817 0.12974
# Poissons Ratio (y) = -0.02229 0.15133
# Poissons Ratio (z) = 0.04000 0.10083
#
# Static dielectric constant tensor:
#      x y z
#    x 2.019990 0.062500 0.000840 
#    y 0.062500 2.131020 0.026640 
#    z 0.000840 0.026640 2.049740 
# 
# From -- ./inp_files/106195.got.cif
#   From: 2010.05.17/outbox.cif.g08.bks.cpg/sg2_54_cif.got.tgz:106195.got - 2010.06.03 11:33:40.
