data_PCOD9037038
_publ_section_title
;
Structure prediction by ZEFSAII (Michael W. Deem and Ramdas Pophale) SiO2 
 PCOD9037038
Probable space group: P -1
;
_chemical_formula_sum "Si O2"
_cell_formula_units_Z 16
_cell_length_a 19.336691
_cell_length_b 9.291003
_cell_length_c 5.400238
_cell_angle_alpha 89.017601
_cell_angle_beta 95.436039
_cell_angle_gamma 133.705666
_cell_volume 696.621236
_symmetry_space_group_name_H-M "P -1"
_symmetry_group_IT_number 2
_symmetry_cell_setting 'triclinic'
loop_
_space_group_symop_operation_xyz
x,y,z
-x,-y,-z
loop_
_atom_site_type_symbol
_atom_site_label
_atom_site_fract_x
_atom_site_fract_y
_atom_site_fract_z
Si Si1 0.991194 0.078448 0.747358
Si Si2 0.649203 0.753903 0.172818
Si Si3 0.554376 0.386616 0.862519
Si Si4 0.188543 0.010991 0.441116
Si Si5 0.036982 0.657694 0.720814
Si Si6 0.716404 0.094837 0.834891
Si Si7 0.119688 0.496893 0.991806
Si Si8 0.501322 0.159158 0.369052
O O1 0.076423 0.321888 0.787892
O O2 0.885052 0.999310 0.739036
O O3 0.000000 0.000000 0.500000
O O4 0.000000 0.000000 0.000000
O O5 0.541394 0.651114 0.196571
O O6 0.711571 0.789080 0.422477
O O7 0.639024 0.613992 0.970785
O O8 0.698159 0.966199 0.068129
O O9 0.561199 0.330168 0.594026
O O10 0.537481 0.251008 0.096396
O O11 0.119145 0.880435 0.652119
O O12 0.216377 0.900518 0.325882
O O13 0.088103 0.615055 0.913927
O O14 0.000000 0.500000 0.500000
O O15 0.947893 0.621337 0.790536
O O16 0.611844 0.961910 0.679753
O O17 0.768004 0.319133 0.919115
O O18 0.500000 0.000000 0.500000
#
# Coordination Sequence:
#
# PCOD9037038 Si02
#       8
#     2   2   2   2   2   2   2   2
#     4  12  29  47  63  90 141 190 220 273 343 406
#     4  10  23  39  70 103 132 166 231 289 336 396
#     4  10  23  44  69 100 138 178 219 281 347 396
#     4  12  22  41  71  95 134 171 235 283 330 403
#     4  11  19  35  68 100 123 170 217 291 342 375
#     4  11  23  39  72 104 127 169 233 290 330 404
#     4  11  22  40  63  97 134 172 228 280 342 400
#     4  11  24  46  69 100 144 181 217 270 343 410
#
# _framework density 22.968003
#
# number of rings (size 3 to 8) (size 9 to 14) (size 15 to 20)
#    0.000    1.000    5.000    1.875    3.500    1.500 
#    4.500    0.000    0.000    0.000    0.000    0.000 
#    0.000    0.000    0.000    0.000    0.000    0.000 
#
# Total GULP energy -89234.605702 kJ/mol
# GULP energy per Si atom -5577.162856 kJ/mol
# Density = 2.291573 g / cm^3
# Si number density = 22.968003 Si / 1000 Ang^3
#
#
#
# Elastic Constant Matrix: (Units=GPa)
#
#
# Indices 1 2 3 4 5 6 
#
# 1 47.0014 20.4230 28.9020 -4.5277 19.4603 -7.5331
# 2 20.4230 93.8612 47.4722 28.3315 4.4383 -5.8096
# 3 28.9020 47.4722 130.6240 21.8047 15.3496 -4.0162
# 4 -4.5277 28.3315 21.8047 51.4608 -6.2810 0.8073
# 5 19.4603 4.4383 15.3496 -6.2810 44.3149 -0.9639
# 6 -7.5331 -5.8096 -4.0162 0.8073 -0.9639 19.1631
#
#
#
# Elastic Compliance Matrix: (Units=1/GPa)
#
#
# Indices 1 2 3 4 5 6 
#
# 1 0.033628 -0.005743 -0.004828 0.006627 -0.011371 0.009615
# 2 -0.005743 0.016034 -0.003292 -0.007853 0.000993 0.002294
# 3 -0.004828 -0.003292 0.010660 -0.003331 -0.001728 -0.000608
# 4 0.006627 -0.007853 -0.003331 0.026102 0.002698 -0.001437
# 5 -0.011371 0.000993 -0.001728 0.002698 0.028371 -0.003218
# 6 0.009615 0.002294 -0.000608 -0.001437 -0.003218 0.056430
#
#
# Mechanical properties :
#
#
# Convention : Reuss Voigt Hill
#
# Bulk Modulus (GPa) = 30.67744 51.67568 41.17656
# Shear Modulus (GPa) = 23.83050 34.63371 29.23210
#
# Velocity S-wave (km/s) = 3.22460 3.88740 3.57141
# Velocity P-wave (km/s) = 5.22012 6.53429 5.91382
#
# Compressibility (1/GPa) = 0.03259724
#
# Stress axis : x y z
#
# Youngs Moduli (GPa) = 29.73744 62.36839 93.80444
#
# Poissons Ratio (x) = 0.35816 0.45287
# Poissons Ratio (y) = 0.17077 0.30879
# Poissons Ratio (z) = 0.14357 0.20531
#
# Static dielectric constant tensor:
#      x y z
#    x 1.878470 -0.007980 0.020350 
#    y -0.007980 1.991890 -0.032670 
#    z 0.020350 -0.032670 1.993190 
# 
# From -- ./inp_files/105101.got.cif
#   From: 2010.05.17/outbox.cif.g08.bks.cpg/sg2_53_cif.got.tgz:105101.got - 2010.06.03 11:33:40.
