data_PCOD9037018
_publ_section_title
;
Structure prediction by ZEFSAII (Michael W. Deem and Ramdas Pophale) SiO2 
 PCOD9037018
Probable space group: P -1
;
_chemical_formula_sum "Si O2"
_cell_formula_units_Z 16
_cell_length_a 8.920879
_cell_length_b 12.287595
_cell_length_c 9.232189
_cell_angle_alpha 45.749724
_cell_angle_beta 87.153854
_cell_angle_gamma 78.876204
_cell_volume 706.056114
_symmetry_space_group_name_H-M "P -1"
_symmetry_group_IT_number 2
_symmetry_cell_setting 'triclinic'
loop_
_space_group_symop_operation_xyz
x,y,z
-x,-y,-z
loop_
_atom_site_type_symbol
_atom_site_label
_atom_site_fract_x
_atom_site_fract_y
_atom_site_fract_z
Si Si1 0.534291 0.355841 0.371747
Si Si2 0.253318 0.460418 0.672490
Si Si3 0.423677 0.172815 0.290139
Si Si4 0.107524 0.106201 0.467408
Si Si5 0.478621 0.827235 0.180876
Si Si6 0.295535 0.848482 0.904945
Si Si7 0.773189 0.436336 0.736332
Si Si8 0.995654 0.558248 0.783343
O O1 0.680140 0.431421 0.315842
O O2 0.475859 0.298710 0.277678
O O3 0.547552 0.213491 0.614512
O O4 0.408723 0.497940 0.311604
O O5 0.375783 0.307290 0.755203
O O6 0.189178 0.558557 0.439952
O O7 0.110523 0.432476 0.796378
O O8 0.241876 0.166304 0.310311
O O9 0.528498 0.188181 0.130545
O O10 0.500000 0.000000 0.500000
O O11 0.993374 0.262811 0.381128
O O12 0.203517 0.003323 0.687995
O O13 0.000000 0.000000 0.500000
O O14 0.325246 0.835069 0.087380
O O15 0.500000 0.000000 0.000000
O O16 0.199727 0.714081 0.021010
O O17 0.837746 0.565064 0.699807
O O18 0.000000 0.500000 0.000000
#
# Coordination Sequence:
#
# PCOD9037018 Si02
#       8
#     2   2   2   2   2   2   2   2
#     4  11  21  43  69  97 136 174 226 284 338 399
#     4  11  25  44  70 102 136 181 224 282 338 411
#     4  10  23  39  69 101 132 176 226 287 339 387
#     4  11  25  46  64  97 145 178 221 279 343 404
#     4  11  22  41  71 102 133 169 227 283 341 396
#     4  11  23  43  70 101 131 175 229 286 336 399
#     4  11  22  46  67  98 139 175 225 282 340 405
#     4  12  28  45  70  98 137 188 228 276 338 409
#
# _framework density 22.661086000000001
#
# number of rings (size 3 to 8) (size 9 to 14) (size 15 to 20)
#    0.000    1.000    3.750    3.375    8.750    0.500 
#    0.000    0.625    0.000    0.000    0.000    0.000 
#    0.000    0.000    0.000    0.000    0.000    0.000 
#
# Total GULP energy -89085.571872 kJ/mol
# GULP energy per Si atom -5567.848242 kJ/mol
# Density = 2.260951 g / cm^3
# Si number density = 22.661086 Si / 1000 Ang^3
#
#
#
# Elastic Constant Matrix: (Units=GPa)
#
#
# Indices 1 2 3 4 5 6 
#
# 1 65.3014 24.7165 4.0883 4.8146 6.3346 -0.1886
# 2 24.7165 64.4990 12.0348 -14.7206 -1.1852 8.4934
# 3 4.0883 12.0348 111.4780 -6.0547 4.1932 -3.2837
# 4 4.8146 -14.7206 -6.0547 39.2237 6.0921 -3.1692
# 5 6.3346 -1.1852 4.1932 6.0921 25.7600 -5.3794
# 6 -0.1886 8.4934 -3.2837 -3.1692 -5.3794 34.1245
#
#
#
# Elastic Compliance Matrix: (Units=1/GPa)
#
#
# Indices 1 2 3 4 5 6 
#
# 1 0.019381 -0.008828 0.000150 -0.004984 -0.003754 0.001264
# 2 -0.008828 0.021795 -0.001722 0.008544 0.000436 -0.004777
# 3 0.000150 -0.001722 0.009308 0.001123 -0.001653 0.001169
# 4 -0.004984 0.008544 0.001123 0.030372 -0.005776 -0.000136
# 5 -0.003754 0.000436 -0.001653 -0.005776 0.042629 0.005895
# 6 0.001264 -0.004777 0.001169 -0.000136 0.005895 0.031530
#
#
# Mechanical properties :
#
#
# Convention : Reuss Voigt Hill
#
# Bulk Modulus (GPa) = 33.68750 35.88416 34.78583
# Shear Modulus (GPa) = 26.92364 33.18422 30.05393
#
# Velocity S-wave (km/s) = 3.45062 3.83086 3.64570
# Velocity P-wave (km/s) = 5.54741 5.95289 5.75372
#
# Compressibility (1/GPa) = 0.02968461
#
# Stress axis : x y z
#
# Youngs Moduli (GPa) = 51.59770 45.88138 107.42951
#
# Poissons Ratio (x) = 0.40503 -0.01612
# Poissons Ratio (y) = 0.45549 0.18502
# Poissons Ratio (z) = -0.00774 0.07902
#
# Static dielectric constant tensor:
#      x y z
#    x 1.949130 0.158850 -0.120520 
#    y 0.158850 1.863440 0.087550 
#    z -0.120520 0.087550 1.812220 
# 
# From -- ./inp_files/184195.got.cif
#   From: 2010.05.17/outbox.cif.g08.bks.cpg/sg2_93_cif.got.tgz:184195.got - 2010.06.03 11:33:40.
