data_PCOD9037481
_publ_section_title
;
Structure prediction by ZEFSAII (Michael W. Deem and Ramdas Pophale) SiO2 
 PCOD9037481
Probable space group: P -1
;
_chemical_formula_sum "Si O2"
_cell_formula_units_Z 12
_cell_length_a 14.793565
_cell_length_b 10.962761
_cell_length_c 7.412978
_cell_angle_alpha 62.942692
_cell_angle_beta 71.145923
_cell_angle_gamma 29.360150
_cell_volume 517.485224
_symmetry_space_group_name_H-M "P -1"
_symmetry_group_IT_number 2
_symmetry_cell_setting 'triclinic'
loop_
_space_group_symop_operation_xyz
x,y,z
-x,-y,-z
loop_
_atom_site_type_symbol
_atom_site_label
_atom_site_fract_x
_atom_site_fract_y
_atom_site_fract_z
Si Si1 0.623270 0.982360 0.232480
Si Si2 0.301285 0.418852 0.581998
Si Si3 0.944842 0.000837 0.342865
Si Si4 0.780221 0.475249 0.025165
Si Si5 0.028259 0.497795 0.268905
Si Si6 0.324935 0.917224 0.498132
O O1 0.619802 0.822736 0.378783
O O2 0.819179 0.757079 0.153086
O O3 0.640556 0.057624 0.344781
O O4 0.436829 0.255784 0.068723
O O5 0.218876 0.492494 0.783666
O O6 0.470774 0.317779 0.562124
O O7 0.133553 0.683999 0.389490
O O8 0.881227 0.204618 0.122478
O O9 0.771922 0.109977 0.403476
O O10 0.000000 0.000000 0.500000
O O11 0.879913 0.471247 0.852957
O O12 0.000000 0.500000 0.500000
O O13 0.170379 0.205209 0.310680
#
# Coordination Sequence:
#
# PCOD9037481 Si02
#       6
#     2   2   2   2   2   2
#     4  11  23  40  70  98 131 172 225 278 319 389
#     4  11  23  42  71  97 137 177 216 274 331 394
#     4  10  25  45  63  97 142 177 214 272 338 395
#     4  11  25  42  65 104 134 170 227 274 326 393
#     4  10  23  40  67  98 130 174 220 271 331 387
#     4  11  23  41  71  95 131 181 221 263 340 392
#
# _framework density 23.189067999999999
#
# number of rings (size 3 to 8) (size 9 to 14) (size 15 to 20)
#    0.000    1.333    3.333    1.000    2.333    8.000 
#    0.000    5.833    0.000    0.000    0.000    0.000 
#    0.000    0.000    0.000    0.000    0.000    0.000 
#
# Total GULP energy -67096.304102 kJ/mol
# GULP energy per Si atom -5591.358675 kJ/mol
# Density = 2.313629 g / cm^3
# Si number density = 23.189068 Si / 1000 Ang^3
#
#
#
# Elastic Constant Matrix: (Units=GPa)
#
#
# Indices 1 2 3 4 5 6 
#
# 1 127.3642 33.2915 55.5807 1.6162 -22.3850 -16.2728
# 2 33.2915 99.8603 62.3401 -19.2634 1.1550 -22.2412
# 3 55.5807 62.3401 136.7430 -19.6221 -25.0990 -6.4480
# 4 1.6162 -19.2634 -19.6221 46.3533 -9.2037 -2.2135
# 5 -22.3850 1.1550 -25.0990 -9.2037 28.8006 0.2044
# 6 -16.2728 -22.2412 -6.4480 -2.2135 0.2044 50.9250
#
#
#
# Elastic Compliance Matrix: (Units=1/GPa)
#
#
# Indices 1 2 3 4 5 6 
#
# 1 0.010748 -0.001753 -0.002492 -0.000865 0.005960 0.002292
# 2 -0.001753 0.017765 -0.008291 0.002540 -0.008534 0.006293
# 3 -0.002492 -0.008291 0.015309 0.005709 0.013578 -0.002285
# 4 -0.000865 0.002540 0.005709 0.027799 0.013065 0.002712
# 5 0.005960 -0.008534 0.013578 0.013065 0.055703 0.000241
# 6 0.002292 0.006293 -0.002285 0.002712 0.000241 0.022945
#
#
# Mechanical properties :
#
#
# Convention : Reuss Voigt Hill
#
# Bulk Modulus (GPa) = 53.33266 74.04358 63.68812
# Shear Modulus (GPa) = 27.53408 39.39946 33.46677
#
# Velocity S-wave (km/s) = 3.44957 4.12643 3.80309
# Velocity P-wave (km/s) = 6.23819 7.39614 6.84171
#
# Compressibility (1/GPa) = 0.01875024
#
# Stress axis : x y z
#
# Youngs Moduli (GPa) = 93.03652 56.29055 65.31921
#
# Poissons Ratio (x) = 0.09869 0.16275
# Poissons Ratio (y) = 0.16312 0.54159
# Poissons Ratio (z) = 0.23181 0.46673
#
# Static dielectric constant tensor:
#      x y z
#    x 1.886700 0.023050 0.025100 
#    y 0.023050 1.979230 0.029820 
#    z 0.025100 0.029820 1.903220 
# 
# From -- ./inp_files/239421.got.cif
#   From: 2010.05.17/outbox.cif.g08.bks.cpg/sg2_120_cif.got.tgz:239421.got - 2010.06.03 11:33:40.
