data_PCOD9037460
_publ_section_title
;
Structure prediction by ZEFSAII (Michael W. Deem and Ramdas Pophale) SiO2 
 PCOD9037460
Probable space group: P -1
;
_chemical_formula_sum "Si O2"
_cell_formula_units_Z 16
_cell_length_a 9.499663
_cell_length_b 17.999741
_cell_length_c 12.908905
_cell_angle_alpha 31.772409
_cell_angle_beta 42.203632
_cell_angle_gamma 56.348859
_cell_volume 762.711998
_symmetry_space_group_name_H-M "P -1"
_symmetry_group_IT_number 2
_symmetry_cell_setting 'triclinic'
loop_
_space_group_symop_operation_xyz
x,y,z
-x,-y,-z
loop_
_atom_site_type_symbol
_atom_site_label
_atom_site_fract_x
_atom_site_fract_y
_atom_site_fract_z
Si Si1 0.275734 0.927459 0.762233
Si Si2 0.788831 0.376255 0.738230
Si Si3 0.420865 0.405566 0.317688
Si Si4 0.923041 0.425768 0.020936
Si Si5 0.646402 0.930437 0.229787
Si Si6 0.156130 0.897870 0.504899
Si Si7 0.038624 0.364912 0.419618
Si Si8 0.925198 0.072578 0.720107
O O1 0.500000 0.000000 0.500000
O O2 0.250480 0.004435 0.795478
O O3 0.254897 0.758488 0.999618
O O4 0.084321 0.962035 0.756322
O O5 0.607962 0.469794 0.733825
O O6 0.000000 0.500000 0.500000
O O7 0.851983 0.320136 0.660015
O O8 0.671507 0.422687 0.143801
O O9 0.339390 0.237290 0.592434
O O10 0.265422 0.421597 0.287138
O O11 0.944495 0.262111 0.210569
O O12 0.029484 0.517192 0.757163
O O13 0.000000 0.500000 0.000000
O O14 0.398403 0.940094 0.363692
O O15 0.753518 0.012409 0.973402
O O16 0.172852 0.901259 0.367278
O O17 0.000000 0.000000 0.500000
O O18 0.056918 0.227434 0.504247
#
# Coordination Sequence:
#
# PCOD9037460 Si02
#       8
#     2   2   2   2   2   2   2   2
#     4  12  25  39  68 103 132 168 222 273 328 390
#     4  10  23  41  64 101 133 163 217 275 326 385
#     4  10  23  40  67  95 129 164 215 273 322 385
#     4  11  24  42  65  91 129 172 217 257 328 392
#     4  11  23  43  67  97 128 175 219 262 333 396
#     4  11  26  44  64  96 132 170 218 275 323 388
#     4  11  21  41  68  93 124 173 211 266 323 384
#     4  12  22  42  68  91 132 174 217 265 327 393
#
# _framework density 20.977774
#
# number of rings (size 3 to 8) (size 9 to 14) (size 15 to 20)
#    0.000    1.000    3.750    3.375    1.750    8.000 
#    0.000    0.625    0.000    0.000    0.000    0.000 
#    0.000    0.000    0.000    0.000    0.000    0.000 
#
# Total GULP energy -89380.680757 kJ/mol
# GULP energy per Si atom -5586.292547 kJ/mol
# Density = 2.093003 g / cm^3
# Si number density = 20.977774 Si / 1000 Ang^3
#
#
#
# Elastic Constant Matrix: (Units=GPa)
#
#
# Indices 1 2 3 4 5 6 
#
# 1 68.8218 3.7855 15.0806 -10.1418 16.8758 1.9972
# 2 3.7855 83.0035 26.3693 -21.6638 7.8593 -19.7075
# 3 15.0806 26.3693 134.5394 -11.3565 22.0676 -10.0030
# 4 -10.1418 -21.6638 -11.3565 25.8064 1.5979 11.1195
# 5 16.8758 7.8593 22.0676 1.5979 30.7188 -3.3310
# 6 1.9972 -19.7075 -10.0030 11.1195 -3.3310 28.3306
#
#
#
# Elastic Compliance Matrix: (Units=1/GPa)
#
#
# Indices 1 2 3 4 5 6 
#
# 1 0.019672 0.002186 0.000102 0.013218 -0.012835 -0.006527
# 2 0.002186 0.017587 -0.001400 0.012689 -0.004698 0.006052
# 3 0.000102 -0.001400 0.009011 0.003120 -0.006308 0.000234
# 4 0.013218 0.012689 0.003120 0.065158 -0.018168 -0.018713
# 5 -0.012835 -0.004698 -0.006308 -0.018168 0.047160 0.008085
# 6 -0.006527 0.006052 0.000234 -0.018713 0.008085 0.048346
#
#
# Mechanical properties :
#
#
# Convention : Reuss Voigt Hill
#
# Bulk Modulus (GPa) = 20.81342 41.87060 31.34201
# Shear Modulus (GPa) = 22.60662 33.04646 27.82654
#
# Velocity S-wave (km/s) = 3.28631 3.97332 3.64603
# Velocity P-wave (km/s) = 4.93386 6.40723 5.71820
#
# Compressibility (1/GPa) = 0.04804593
#
# Stress axis : x y z
#
# Youngs Moduli (GPa) = 50.83280 56.86153 110.97287
#
# Poissons Ratio (x) = -0.12429 -0.01135
# Poissons Ratio (y) = -0.11111 0.15538
# Poissons Ratio (z) = -0.00520 0.07962
#
# Static dielectric constant tensor:
#      x y z
#    x 1.754090 0.020640 -0.019770 
#    y 0.020640 1.807100 -0.001760 
#    z -0.019770 -0.001760 1.786830 
# 
# From -- ./inp_files/218342.got.cif
#   From: 2010.05.17/outbox.cif.g08.bks.cpg/sg2_110_cif.got.tgz:218342.got - 2010.06.03 11:33:40.
