data_PCOD9037676
_publ_section_title
;
Structure prediction by ZEFSAII (Michael W. Deem and Ramdas Pophale) SiO2 
 PCOD9037676
Probable space group: P -1
;
_chemical_formula_sum "Si O2"
_cell_formula_units_Z 14
_cell_length_a 9.248836
_cell_length_b 12.053836
_cell_length_c 9.869119
_cell_angle_alpha 124.020082
_cell_angle_beta 61.847759
_cell_angle_gamma 131.052103
_cell_volume 678.042392
_symmetry_space_group_name_H-M "P -1"
_symmetry_group_IT_number 2
_symmetry_cell_setting 'triclinic'
loop_
_space_group_symop_operation_xyz
x,y,z
-x,-y,-z
loop_
_atom_site_type_symbol
_atom_site_label
_atom_site_fract_x
_atom_site_fract_y
_atom_site_fract_z
Si Si1 0.526404 0.377397 0.995512
Si Si2 0.942596 0.841232 0.327714
Si Si3 0.132819 0.071795 0.858858
Si Si4 0.291019 0.870777 0.562409
Si Si5 0.898725 0.364430 0.761299
Si Si6 0.822340 0.403912 0.410000
Si Si7 0.483856 0.454167 0.630881
O O1 0.498828 0.413844 0.186038
O O2 0.500000 0.500000 0.000000
O O3 0.349285 0.208710 0.905357
O O4 0.737639 0.398512 0.909940
O O5 0.954738 0.873457 0.183137
O O6 0.715889 0.711122 0.366914
O O7 0.049808 0.747603 0.253475
O O8 0.000000 0.000000 0.500000
O O9 0.158417 0.941402 0.685695
O O10 0.000000 0.000000 0.000000
O O11 0.203340 0.739425 0.396802
O O12 0.274919 0.783445 0.651342
O O13 0.500000 0.000000 0.500000
O O14 0.093560 0.523040 0.725907
O O15 0.664253 0.436440 0.558934
O O16 0.000000 0.500000 0.500000
O O17 0.500000 0.500000 0.500000
#
# Coordination Sequence:
#
# PCOD9037676 Si02
#       7
#     2   2   2   2   2   2   2
#     4  12  26  47  73 103 145 189 246 296 354 427
#     4  12  26  48  75 104 150 190 237 300 368 426
#     4  12  28  45  72 106 142 190 241 298 358 427
#     4  11  21  43  69 104 140 186 239 291 351 420
#     4  11  24  44  72 105 140 192 239 296 359 427
#     4  10  23  40  73 103 138 186 244 288 350 433
#     4  12  26  47  70 107 145 187 231 299 363 426
#
# _framework density 20.647675
#
# number of rings (size 3 to 8) (size 9 to 14) (size 15 to 20)
#    0.000    0.571    5.714    2.571    8.000    0.571 
#    2.571    0.714    0.000    0.000    0.000    0.000 
#    0.000    0.000    0.000    0.000    0.000    0.000 
#
# Total GULP energy -78132.203655 kJ/mol
# GULP energy per Si atom -5580.871690 kJ/mol
# Density = 2.060068 g / cm^3
# Si number density = 20.647675 Si / 1000 Ang^3
#
#
#
# Elastic Constant Matrix: (Units=GPa)
#
#
# Indices 1 2 3 4 5 6 
#
# 1 134.0036 44.5057 55.3429 -19.4857 -27.4949 -18.2898
# 2 44.5057 104.0294 22.4525 -28.8738 -0.5075 -16.6308
# 3 55.3429 22.4525 67.0686 -21.2795 4.9255 -18.4059
# 4 -19.4857 -28.8738 -21.2795 35.0798 0.1798 5.9222
# 5 -27.4949 -0.5075 4.9255 0.1798 44.3407 -1.0852
# 6 -18.2898 -16.6308 -18.4059 5.9222 -1.0852 39.5573
#
#
#
# Elastic Compliance Matrix: (Units=1/GPa)
#
#
# Indices 1 2 3 4 5 6 
#
# 1 0.017092 -0.005136 -0.014426 -0.003528 0.012154 -0.000107
# 2 -0.005136 0.014587 0.004201 0.011050 -0.003432 0.003964
# 3 -0.014426 0.004201 0.033015 0.014185 -0.012427 0.007993
# 4 -0.003528 0.011050 0.014185 0.043766 -0.003742 0.002960
# 5 0.012154 -0.003432 -0.012427 -0.003742 0.031441 -0.000183
# 6 -0.000107 0.003964 0.007993 0.002960 -0.000183 0.030168
#
#
# Mechanical properties :
#
#
# Convention : Reuss Voigt Hill
#
# Bulk Modulus (GPa) = 29.43643 61.07820 45.25732
# Shear Modulus (GPa) = 23.57202 35.98226 29.77714
#
# Velocity S-wave (km/s) = 3.38247 4.17907 3.80169
# Velocity P-wave (km/s) = 5.43528 7.27541 6.42160
#
# Compressibility (1/GPa) = 0.03397151
#
# Stress axis : x y z
#
# Youngs Moduli (GPa) = 58.50618 68.55243 30.28960
#
# Poissons Ratio (x) = 0.35208 0.43696
# Poissons Ratio (y) = 0.30048 -0.12724
# Poissons Ratio (z) = 0.84401 -0.28796
#
# Static dielectric constant tensor:
#      x y z
#    x 1.898180 -0.014060 -0.036960 
#    y -0.014060 1.842960 -0.036920 
#    z -0.036960 -0.036920 1.738060 
# 
# From -- ./inp_files/159135.got.cif
#   From: 2010.05.17/outbox.cif.g08.bks.cpg/sg2_80_cif.got.tgz:159135.got - 2010.06.03 11:33:40.
