data_PCOD9037153
_publ_section_title
;
Structure prediction by ZEFSAII (Michael W. Deem and Ramdas Pophale) SiO2 
 PCOD9037153
Probable space group: P -1
;
_chemical_formula_sum "Si O2"
_cell_formula_units_Z 14
_cell_length_a 18.284542
_cell_length_b 11.771129
_cell_length_c 7.829888
_cell_angle_alpha 142.977380
_cell_angle_beta 54.458812
_cell_angle_gamma 137.066178
_cell_volume 691.161204
_symmetry_space_group_name_H-M "P -1"
_symmetry_group_IT_number 2
_symmetry_cell_setting 'triclinic'
loop_
_space_group_symop_operation_xyz
x,y,z
-x,-y,-z
loop_
_atom_site_type_symbol
_atom_site_label
_atom_site_fract_x
_atom_site_fract_y
_atom_site_fract_z
Si Si1 0.032877 0.365676 0.414321
Si Si2 0.460518 0.169902 0.777866
Si Si3 0.146945 0.120978 0.831454
Si Si4 0.122708 0.585979 0.890790
Si Si5 0.129238 0.183087 0.542796
Si Si6 0.381204 0.306917 0.726689
Si Si7 0.701340 0.915600 0.799242
O O1 0.114800 0.548373 0.655058
O O2 0.000000 0.500000 0.500000
O O3 0.089017 0.240342 0.122158
O O4 0.925979 0.149315 0.379806
O O5 0.428137 0.205608 0.673514
O O6 0.500000 0.000000 0.500000
O O7 0.549900 0.423322 0.024106
O O8 0.370728 0.085538 0.949728
O O9 0.162312 0.193368 0.702989
O O10 0.263812 0.214407 0.853134
O O11 0.145851 0.411905 0.732387
O O12 0.000000 0.500000 0.000000
O O13 0.216122 0.839529 0.102280
O O14 0.213957 0.135680 0.287806
O O15 0.000000 0.000000 0.500000
O O16 0.366934 0.233997 0.455853
#
# Coordination Sequence:
#
# PCOD9037153 Si02
#       7
#     2   2   2   2   2   2   2
#     4  11  24  35  60  96 135 175 222 269 327 403
#     4  11  27  46  75  99 130 175 237 294 345 409
#     4  10  23  40  62  91 131 181 214 277 337 395
#     4  12  23  38  63  98 136 179 226 266 333 409
#     4  11  21  41  63  92 138 178 220 268 328 409
#     4  10  25  48  68  98 137 170 233 287 349 405
#     4  11  26  43  71 102 138 185 221 282 351 403
#
# _framework density 20.255766999999999
#
# number of rings (size 3 to 8) (size 9 to 14) (size 15 to 20)
#    0.000    1.143    2.857    2.143    6.000    4.000 
#    0.000    0.000    0.000    0.000    0.000    0.000 
#    0.000    0.000    0.000    0.000    0.000    0.000 
#
# Total GULP energy -77987.569040 kJ/mol
# GULP energy per Si atom -5570.540646 kJ/mol
# Density = 2.020966 g / cm^3
# Si number density = 20.255767 Si / 1000 Ang^3
#
#
#
# Elastic Constant Matrix: (Units=GPa)
#
#
# Indices 1 2 3 4 5 6 
#
# 1 112.8954 38.5202 68.5737 18.9907 -23.9271 -5.8630
# 2 38.5202 83.5311 55.3819 -2.1900 -10.7033 10.4626
# 3 68.5737 55.3819 124.0065 6.8352 -22.4315 2.3221
# 4 18.9907 -2.1900 6.8352 40.4056 -1.2904 -5.3544
# 5 -23.9271 -10.7033 -22.4315 -1.2904 39.2966 2.6263
# 6 -5.8630 10.4626 2.3221 -5.3544 2.6263 33.8990
#
#
#
# Elastic Compliance Matrix: (Units=1/GPa)
#
#
# Indices 1 2 3 4 5 6 
#
# 1 0.015907 -0.003066 -0.006261 -0.006058 0.004891 0.002791
# 2 -0.003066 0.018526 -0.006668 0.002862 -0.000178 -0.005326
# 3 -0.006261 -0.006668 0.015043 0.000096 0.002980 -0.000271
# 4 -0.006058 0.002862 0.000096 0.028019 -0.002111 0.002652
# 5 0.004891 -0.000178 0.002980 -0.002111 0.030141 -0.001972
# 6 0.002791 -0.005326 -0.000271 0.002652 -0.001972 0.032216
#
#
# Mechanical properties :
#
#
# Convention : Reuss Voigt Hill
#
# Bulk Modulus (GPa) = 57.18910 71.70941 64.44925
# Shear Modulus (GPa) = 28.14175 33.25072 30.69624
#
# Velocity S-wave (km/s) = 3.73140 4.05599 3.89708
# Velocity P-wave (km/s) = 6.84538 7.57718 7.22056
#
# Compressibility (1/GPa) = 0.01748585
#
# Stress axis : x y z
#
# Youngs Moduli (GPa) = 62.86388 53.97766 66.47561
#
# Poissons Ratio (x) = 0.16552 0.41618
# Poissons Ratio (y) = 0.19277 0.44328
# Poissons Ratio (z) = 0.39357 0.35994
#
# Static dielectric constant tensor:
#      x y z
#    x 4.813790 2.190900 -3.142400 
#    y 2.190900 3.259150 -2.257930 
#    z -3.142400 -2.257930 4.970740 
# 
# From -- ./inp_files/333990.got.cif
#   From: 2010.05.17/outbox.cif.g08.bks.cpg/sg2_167_cif.got.tgz:333990.got - 2010.06.03 11:33:40.
