data_PCOD9037967
_publ_section_title
;
Structure prediction by ZEFSAII (Michael W. Deem and Ramdas Pophale) SiO2 
 PCOD9037967
Probable space group: P -1
;
_chemical_formula_sum "Si O2"
_cell_formula_units_Z 16
_cell_length_a 8.034859
_cell_length_b 9.739334
_cell_length_c 10.462265
_cell_angle_alpha 127.011850
_cell_angle_beta 82.107457
_cell_angle_gamma 98.073402
_cell_volume 645.830703
_symmetry_space_group_name_H-M "P -1"
_symmetry_group_IT_number 2
_symmetry_cell_setting 'triclinic'
loop_
_space_group_symop_operation_xyz
x,y,z
-x,-y,-z
loop_
_atom_site_type_symbol
_atom_site_label
_atom_site_fract_x
_atom_site_fract_y
_atom_site_fract_z
Si Si1 0.102577 0.550523 0.718307
Si Si2 0.269999 0.076725 0.682134
Si Si3 0.389066 0.732479 0.144475
Si Si4 0.362263 0.420955 0.145137
Si Si5 0.782424 0.930561 0.612602
Si Si6 0.933042 0.832911 0.994839
Si Si7 0.441562 0.383659 0.558266
Si Si8 0.100505 0.736966 0.548863
O O1 0.267845 0.452666 0.667748
O O2 0.948969 0.405777 0.632981
O O3 0.073767 0.695634 0.905903
O O4 0.116355 0.646636 0.633003
O O5 0.452858 0.177134 0.736693
O O6 0.197469 0.090220 0.554593
O O7 0.152861 0.137717 0.843421
O O8 0.259638 0.870592 0.585979
O O9 0.322059 0.545101 0.100088
O O10 0.253507 0.874970 0.239603
O O11 0.483495 0.688864 0.979088
O O12 0.217346 0.280306 0.125740
O O13 0.420067 0.560418 0.321788
O O14 0.613883 0.808116 0.588650
O O15 0.937154 0.852021 0.624418
O O16 0.000000 0.000000 0.000000
O O17 0.500000 0.500000 0.500000
#
# Coordination Sequence:
#
# PCOD9037967 Si02
#       8
#     2   2   2   2   2   2   2   2
#     4  10  24  44  65  94 134 181 221 274 346 388
#     4  11  22  41  66  99 134 171 227 273 330 401
#     4  10  23  44  70  95 137 179 215 281 339 397
#     4  10  24  45  66 101 134 176 227 268 339 405
#     4  11  24  41  65 104 131 174 229 278 331 398
#     4  11  24  43  69  96 136 182 220 274 333 404
#     4  11  26  42  68 101 135 173 231 278 330 401
#     4  10  23  41  65  93 133 171 227 271 332 395
#
# _framework density 24.774293
#
# number of rings (size 3 to 8) (size 9 to 14) (size 15 to 20)
#    0.000    1.500    2.500    0.750    8.750    1.000 
#    0.000    3.750    0.000    0.000    0.000    0.000 
#    0.000    0.000    0.000    0.000    0.000    0.000 
#
# Total GULP energy -89468.417772 kJ/mol
# GULP energy per Si atom -5591.776111 kJ/mol
# Density = 2.471791 g / cm^3
# Si number density = 24.774293 Si / 1000 Ang^3
#
#
#
# Elastic Constant Matrix: (Units=GPa)
#
#
# Indices 1 2 3 4 5 6 
#
# 1 97.4521 18.2668 13.1601 20.9353 2.4015 9.2801
# 2 18.2668 98.9732 23.3279 27.2166 -4.3107 31.8944
# 3 13.1601 23.3279 112.0909 29.4184 -13.6779 2.4240
# 4 20.9353 27.2166 29.4184 40.0137 1.1105 0.0240
# 5 2.4015 -4.3107 -13.6779 1.1105 49.0870 15.4326
# 6 9.2801 31.8944 2.4240 0.0240 15.4326 42.4617
#
#
#
# Elastic Compliance Matrix: (Units=1/GPa)
#
#
# Indices 1 2 3 4 5 6 
#
# 1 0.011902 0.000881 0.000509 -0.007224 0.000941 -0.003630
# 2 0.000881 0.020097 0.001071 -0.015132 0.008112 -0.018289
# 3 0.000509 0.001071 0.011855 -0.009837 0.004622 -0.003267
# 4 -0.007224 -0.015132 -0.009837 0.046568 -0.010170 0.017176
# 5 0.000941 0.008112 0.004622 -0.010170 0.027794 -0.016659
# 6 -0.003630 -0.018289 -0.003267 0.017176 -0.016659 0.044313
#
#
# Mechanical properties :
#
#
# Convention : Reuss Voigt Hill
#
# Bulk Modulus (GPa) = 20.50237 46.44731 33.47484
# Shear Modulus (GPa) = 28.75782 43.22990 35.99386
#
# Velocity S-wave (km/s) = 3.41074 4.18179 3.81579
# Velocity P-wave (km/s) = 4.87898 6.48887 5.74064
#
# Compressibility (1/GPa) = 0.04877484
#
# Stress axis : x y z
#
# Youngs Moduli (GPa) = 84.01884 49.75901 84.35201
#
# Poissons Ratio (x) = -0.04383 -0.04291
# Poissons Ratio (y) = -0.07400 -0.09033
# Poissons Ratio (z) = -0.04274 -0.05329
#
# Static dielectric constant tensor:
#      x y z
#    x 1.869950 -0.008940 -0.115510 
#    y -0.008940 1.953490 -0.023180 
#    z -0.115510 -0.023180 1.956040 
# 
# From -- ./inp_files/205260.got.cif
#   From: 2010.05.17/outbox.cif.g08.bks.cpg/sg2_103_cif.got.tgz:205260.got - 2010.06.03 11:33:40.
