data_PCOD9037933
_publ_section_title
;
Structure prediction by ZEFSAII (Michael W. Deem and Ramdas Pophale) SiO2 
 PCOD9037933
Probable space group: P -1
;
_chemical_formula_sum "Si O2"
_cell_formula_units_Z 14
_cell_length_a 25.452313
_cell_length_b 16.848220
_cell_length_c 4.972217
_cell_angle_alpha 51.401988
_cell_angle_beta 125.470360
_cell_angle_gamma 161.756234
_cell_volume 521.039168
_symmetry_space_group_name_H-M "P -1"
_symmetry_group_IT_number 2
_symmetry_cell_setting 'triclinic'
loop_
_space_group_symop_operation_xyz
x,y,z
-x,-y,-z
loop_
_atom_site_type_symbol
_atom_site_label
_atom_site_fract_x
_atom_site_fract_y
_atom_site_fract_z
Si Si1 0.909159 0.921145 0.639959
Si Si2 0.307198 0.746188 0.539522
Si Si3 0.842819 0.568952 0.732785
Si Si4 0.369312 0.310051 0.260794
Si Si5 0.312791 0.959509 0.455827
Si Si6 0.325940 0.466303 0.876485
Si Si7 0.166117 0.812933 0.847963
O O1 0.717350 0.610784 0.772071
O O2 0.000000 0.000000 0.500000
O O3 0.963411 0.116480 0.371688
O O4 0.000000 0.000000 0.000000
O O5 0.203148 0.583670 0.297818
O O6 0.300621 0.836489 0.515675
O O7 0.500000 0.000000 0.500000
O O8 0.220979 0.543392 0.920569
O O9 0.742647 0.524001 0.434546
O O10 0.500000 0.500000 0.500000
O O11 0.232221 0.019709 0.501649
O O12 0.500000 0.500000 0.000000
O O13 0.268517 0.270651 0.023762
O O14 0.289713 0.927014 0.773381
O O15 0.485850 0.256987 0.243401
O O16 0.181279 0.838865 0.162135
O O17 0.000000 0.500000 0.000000
#
# Coordination Sequence:
#
# PCOD9037933 Si02
#       7
#     2   2   2   2   2   2   2
#     4  10  23  41  64  98 137 176 220 278 344 412
#     4  12  25  40  68 103 141 182 234 283 341 430
#     4  11  24  43  65 103 146 180 228 285 348 415
#     4  12  25  45  72 108 134 182 244 296 349 421
#     4  12  26  44  75 101 136 192 237 288 357 419
#     4  11  24  43  73 100 139 187 232 286 352 410
#     4  12  27  51  73 105 144 181 239 308 360 413
#
# _framework density 26.869378000000001
#
# number of rings (size 3 to 8) (size 9 to 14) (size 15 to 20)
#    0.000    0.571    4.286    3.429    2.000    6.857 
#    0.000    0.000    0.000    0.000    0.000    0.000 
#    0.000    0.000    0.000    0.000    0.000    0.000 
#
# Total GULP energy -78117.954656 kJ/mol
# GULP energy per Si atom -5579.853904 kJ/mol
# Density = 2.680822 g / cm^3
# Si number density = 26.869378 Si / 1000 Ang^3
#
#
#
# Elastic Constant Matrix: (Units=GPa)
#
#
# Indices 1 2 3 4 5 6 
#
# 1 144.0960 -1.7701 40.3486 -3.3028 7.3110 -14.6734
# 2 -1.7701 76.3706 32.0791 -32.5541 -7.0957 -17.0766
# 3 40.3486 32.0791 154.5324 -31.3257 -21.8922 -3.2805
# 4 -3.3028 -32.5541 -31.3257 60.3039 -4.9583 -5.8586
# 5 7.3110 -7.0957 -21.8922 -4.9583 78.3014 -5.0515
# 6 -14.6734 -17.0766 -3.2805 -5.8586 -5.0515 38.5126
#
#
#
# Elastic Compliance Matrix: (Units=1/GPa)
#
#
# Indices 1 2 3 4 5 6 
#
# 1 0.008135 0.002323 -0.002519 0.000690 -0.000959 0.003894
# 2 0.002323 0.022664 -0.002018 0.012827 0.002930 0.013098
# 3 -0.002519 -0.002018 0.008618 0.003445 0.002664 -0.000247
# 4 0.000690 0.012827 0.003445 0.026760 0.004459 0.010900
# 5 -0.000959 0.002930 0.002664 0.004459 0.014394 0.003727
# 6 0.003894 0.013098 -0.000247 0.010900 0.003727 0.035383
#
#
# Mechanical properties :
#
#
# Convention : Reuss Voigt Hill
#
# Bulk Modulus (GPa) = 28.58116 57.36825 42.97471
# Shear Modulus (GPa) = 37.86560 55.71301 46.78930
#
# Velocity S-wave (km/s) = 3.75807 4.55848 4.17749
# Velocity P-wave (km/s) = 5.43055 7.00739 6.26875
#
# Compressibility (1/GPa) = 0.03498808
#
# Stress axis : x y z
#
# Youngs Moduli (GPa) = 122.92905 44.12218 116.03238
#
# Poissons Ratio (x) = -0.10248 0.29233
# Poissons Ratio (y) = -0.28551 0.23414
# Poissons Ratio (z) = 0.30971 0.08903
#
# Static dielectric constant tensor:
#      x y z
#    x 2.267060 0.055740 0.044290 
#    y 0.055740 2.434970 0.011690 
#    z 0.044290 0.011690 2.119760 
# 
# From -- ./inp_files/127375.got.cif
#   From: 2010.05.17/outbox.cif.g08.bks.cpg/sg2_64_cif.got.tgz:127375.got - 2010.06.03 11:33:40.
