data_PCOD9037211
_publ_section_title
;
Structure prediction by ZEFSAII (Michael W. Deem and Ramdas Pophale) SiO2 
 PCOD9037211
Probable space group: P -1
;
_chemical_formula_sum "Si O2"
_cell_formula_units_Z 14
_cell_length_a 12.126512
_cell_length_b 8.869624
_cell_length_c 18.001231
_cell_angle_alpha 131.224740
_cell_angle_beta 30.681172
_cell_angle_gamma 134.581487
_cell_volume 695.463048
_symmetry_space_group_name_H-M "P -1"
_symmetry_group_IT_number 2
_symmetry_cell_setting 'triclinic'
loop_
_space_group_symop_operation_xyz
x,y,z
-x,-y,-z
loop_
_atom_site_type_symbol
_atom_site_label
_atom_site_fract_x
_atom_site_fract_y
_atom_site_fract_z
Si Si1 0.685038 0.928905 0.741508
Si Si2 0.848073 0.380036 0.849374
Si Si3 0.488897 0.477623 0.182555
Si Si4 0.435045 0.759312 0.429599
Si Si5 0.902113 0.510839 0.689826
Si Si6 0.784366 0.022380 0.557134
Si Si7 0.326568 0.332383 0.601184
O O1 0.580292 0.716832 0.781177
O O2 0.962183 0.995243 0.595062
O O3 0.667060 0.138573 0.859462
O O4 0.622255 0.910477 0.684656
O O5 0.895355 0.490875 0.776667
O O6 0.079992 0.362236 0.745239
O O7 0.726298 0.496429 0.011838
O O8 0.498906 0.692850 0.290035
O O9 0.289612 0.415164 0.214456
O O10 0.159506 0.648060 0.560946
O O11 0.565618 0.650153 0.374820
O O12 0.500000 0.000000 0.500000
O O13 0.840669 0.271661 0.615999
O O14 0.686692 0.899176 0.498600
O O15 0.500000 0.500000 0.500000
#
# Coordination Sequence:
#
# PCOD9037211 Si02
#       7
#     2   2   2   2   2   2   2
#     4   9  18  34  62  94 116 149 205 256 295 348
#     4  10  23  40  63  94 122 160 204 249 316 361
#     4  12  23  39  64  92 127 157 203 264 301 355
#     4  12  26  40  62  93 122 162 208 254 306 361
#     4  11  22  42  64  88 121 164 210 250 302 366
#     4   9  18  36  63  91 114 160 212 248 289 358
#     4  11  21  40  65  88 126 162 201 249 300 379
#
# _framework density 20.130472000000001
#
# number of rings (size 3 to 8) (size 9 to 14) (size 15 to 20)
#    0.000    1.429    2.857    3.857    4.000    0.571 
#    0.000    0.714    3.143    0.000    0.000    0.000 
#    0.000    0.000    0.000    0.000    0.000    0.000 
#
# Total GULP energy -78092.498075 kJ/mol
# GULP energy per Si atom -5578.035577 kJ/mol
# Density = 2.008465 g / cm^3
# Si number density = 20.130472 Si / 1000 Ang^3
#
#
#
# Elastic Constant Matrix: (Units=GPa)
#
#
# Indices 1 2 3 4 5 6 
#
# 1 106.8116 6.1587 40.4075 -0.5940 -14.6891 -0.9357
# 2 6.1587 74.9063 40.6646 8.7142 5.2259 -0.5940
# 3 40.4075 40.6646 125.5347 11.1379 -3.6482 4.4821
# 4 -0.5940 8.7142 11.1379 14.0368 5.8411 -1.8398
# 5 -14.6891 5.2259 -3.6482 5.8411 20.3059 0.6837
# 6 -0.9357 -0.5940 4.4821 -1.8398 0.6837 16.2048
#
#
#
# Elastic Compliance Matrix: (Units=1/GPa)
#
#
# Indices 1 2 3 4 5 6 
#
# 1 0.011847 0.000570 -0.003849 0.000225 0.007618 0.001474
# 2 0.000570 0.017079 -0.005500 -0.004407 -0.003766 0.001839
# 3 -0.003849 -0.005500 0.011990 -0.008279 0.003329 -0.004821
# 4 0.000225 -0.004407 -0.008279 0.093903 -0.027673 0.013970
# 5 0.007618 -0.003766 0.003329 -0.027673 0.064503 -0.006482
# 6 0.001474 0.001839 -0.004821 0.013970 -0.006482 0.065056
#
#
# Mechanical properties :
#
#
# Convention : Reuss Voigt Hill
#
# Bulk Modulus (GPa) = 42.81326 53.52381 48.16853
# Shear Modulus (GPa) = 17.25790 24.77761 21.01775
#
# Velocity S-wave (km/s) = 2.93115 3.51215 3.23472
# Velocity P-wave (km/s) = 5.72447 6.56454 6.15884
#
# Compressibility (1/GPa) = 0.02335725
#
# Stress axis : x y z
#
# Youngs Moduli (GPa) = 84.40674 58.55205 83.40330
#
# Poissons Ratio (x) = -0.03335 0.32104
# Poissons Ratio (y) = -0.04808 0.45870
# Poissons Ratio (z) = 0.32490 0.32203
#
# Static dielectric constant tensor:
#      x y z
#    x 1.789170 -0.018030 0.005360 
#    y -0.018030 1.742450 0.043780 
#    z 0.005360 0.043780 1.698450 
# 
# From -- ./inp_files/566186.got.cif
#   From: 2010.05.17/outbox.cif.g08.bks.cpg/sg2_284_cif.got.tgz:566186.got - 2010.06.03 11:33:40.
