data_PCOD9037480
_publ_section_title
;
Structure prediction by ZEFSAII (Michael W. Deem and Ramdas Pophale) SiO2 
 PCOD9037480
Probable space group: P -1
;
_chemical_formula_sum "Si O2"
_cell_formula_units_Z 15
_cell_length_a 10.172201
_cell_length_b 8.116237
_cell_length_c 12.720732
_cell_angle_alpha 52.090663
_cell_angle_beta 96.173598
_cell_angle_gamma 60.440471
_cell_volume 577.494464
_symmetry_space_group_name_H-M "P -1"
_symmetry_group_IT_number 2
_symmetry_cell_setting 'triclinic'
loop_
_space_group_symop_operation_xyz
x,y,z
-x,-y,-z
loop_
_atom_site_type_symbol
_atom_site_label
_atom_site_fract_x
_atom_site_fract_y
_atom_site_fract_z
Si Si1 0.719604 0.576314 0.187000
Si Si2 0.890990 0.780304 0.082616
Si Si3 0.345297 0.335971 0.612641
Si Si4 0.514102 0.396155 0.290442
Si Si5 0.010996 0.980036 0.338612
Si Si6 0.143431 0.249716 0.476165
Si Si7 0.181096 0.693278 0.021873
Si Si8 0.500000 0.500000 0.500000
O O1 0.735222 0.777263 0.047562
O O2 0.675575 0.691752 0.257426
O O3 0.578684 0.538393 0.178963
O O4 0.924613 0.237157 0.315338
O O5 0.010480 0.544102 0.280178
O O6 0.037263 0.672468 0.047230
O O7 0.832753 0.074544 0.002870
O O8 0.253306 0.274617 0.555126
O O9 0.539747 0.202812 0.639688
O O10 0.238561 0.693936 0.448745
O O11 0.388746 0.405689 0.192854
O O12 0.440905 0.521670 0.352126
O O13 0.704286 0.050465 0.457947
O O14 0.964044 0.800877 0.443508
O O15 0.881711 0.174179 0.151502
#
# Coordination Sequence:
#
# PCOD9037480 Si02
#       8
#     2   2   2   2   2   2   2   1
#     4  10  23  40  67  98 130 169 229 274 324 382
#     4  11  23  41  66  98 130 178 220 274 322 403
#     4  11  20  39  65 101 124 173 220 281 310 390
#     4  10  25  45  66 100 135 174 215 282 327 400
#     4  11  22  40  71  98 129 174 224 277 322 395
#     4  11  22  41  74  97 124 175 240 259 317 400
#     4  11  25  43  64  97 142 173 215 270 344 387
#     4  10  24  38  62  96 138 168 208 270 340 376
#
# _framework density 25.974274000000001
#
# number of rings (size 3 to 8) (size 9 to 14) (size 15 to 20)
#    0.000    1.333    2.667    2.400    5.600    5.333 
#    0.000    4.000    0.000    0.000    0.000    0.000 
#    0.000    0.000    0.000    0.000    0.000    0.000 
#
# Total GULP energy -83547.930538 kJ/mol
# GULP energy per Si atom -5569.862036 kJ/mol
# Density = 2.591516 g / cm^3
# Si number density = 25.974274 Si / 1000 Ang^3
#
#
#
# Elastic Constant Matrix: (Units=GPa)
#
#
# Indices 1 2 3 4 5 6 
#
# 1 113.8662 29.4504 42.3921 12.4559 -25.6930 6.4746
# 2 29.4504 62.6500 11.2308 -2.0851 -4.6856 4.2083
# 3 42.3921 11.2308 109.3872 16.6288 0.7152 -17.5858
# 4 12.4559 -2.0851 16.6288 37.4894 1.5904 3.2130
# 5 -25.6930 -4.6856 0.7152 1.5904 52.0066 0.2765
# 6 6.4746 4.2083 -17.5858 3.2130 0.2765 32.3425
#
#
#
# Elastic Compliance Matrix: (Units=1/GPa)
#
#
# Indices 1 2 3 4 5 6 
#
# 1 0.014149 -0.004916 -0.005456 -0.002413 0.006722 -0.004977
# 2 -0.004916 0.018623 -0.000857 0.003275 -0.000827 -0.002223
# 3 -0.005456 -0.000857 0.013572 -0.004913 -0.002857 0.009096
# 4 -0.002413 0.003275 -0.004913 0.030392 -0.001729 -0.005619
# 5 0.006722 -0.000827 -0.002857 -0.001729 0.022582 -0.002813
# 6 -0.004977 -0.002223 0.009096 -0.005619 -0.002813 0.037733
#
#
# Mechanical properties :
#
#
# Convention : Reuss Voigt Hill
#
# Bulk Modulus (GPa) = 41.86479 50.22777 46.04628
# Shear Modulus (GPa) = 29.85620 37.88970 33.87295
#
# Velocity S-wave (km/s) = 3.39404 3.82349 3.61514
# Velocity P-wave (km/s) = 5.61356 6.23471 5.93227
#
# Compressibility (1/GPa) = 0.02388642
#
# Stress axis : x y z
#
# Youngs Moduli (GPa) = 70.67774 53.69799 73.68119
#
# Poissons Ratio (x) = 0.26399 0.40198
# Poissons Ratio (y) = 0.34747 0.06311
# Poissons Ratio (z) = 0.38560 0.04599
#
# Static dielectric constant tensor:
#      x y z
#    x 5.972840 -2.163120 -1.014370 
#    y -2.163120 3.245420 0.521870 
#    z -1.014370 0.521870 2.392550 
# 
# From -- ./inp_files/418914.got.cif
#   From: 2010.05.17/outbox.cif.g08.bks.cpg/sg2_210_cif.got.tgz:418914.got - 2010.06.03 11:33:40.
