data_PCOD9037093
_publ_section_title
;
Structure prediction by ZEFSAII (Michael W. Deem and Ramdas Pophale) SiO2 
 PCOD9037093
Probable space group: P -1
;
_chemical_formula_sum "Si O2"
_cell_formula_units_Z 12
_cell_length_a 10.817280
_cell_length_b 6.691483
_cell_length_c 7.312439
_cell_angle_alpha 104.229334
_cell_angle_beta 89.100193
_cell_angle_gamma 77.578578
_cell_volume 499.735573
_symmetry_space_group_name_H-M "P -1"
_symmetry_group_IT_number 2
_symmetry_cell_setting 'triclinic'
loop_
_space_group_symop_operation_xyz
x,y,z
-x,-y,-z
loop_
_atom_site_type_symbol
_atom_site_label
_atom_site_fract_x
_atom_site_fract_y
_atom_site_fract_z
Si Si1 0.884836 0.371251 0.848937
Si Si2 0.502857 0.063087 0.303743
Si Si3 0.305744 0.179921 0.033833
Si Si4 0.030524 0.652643 0.758797
Si Si5 0.133353 0.024556 0.419565
Si Si6 0.744330 0.150982 0.280446
O O1 0.784129 0.590400 0.936401
O O2 0.816502 0.200134 0.730823
O O3 0.992607 0.427403 0.724582
O O4 0.956001 0.289542 0.016233
O O5 0.369334 0.146189 0.224753
O O6 0.593272 0.231843 0.318495
O O7 0.500000 0.000000 0.500000
O O8 0.578465 0.869202 0.129119
O O9 0.237195 0.992568 0.934188
O O10 0.163050 0.687538 0.681607
O O11 0.912195 0.794152 0.686162
O O12 0.220367 0.018083 0.592113
O O13 0.000000 0.000000 0.500000
#
# Coordination Sequence:
#
# PCOD9037093 Si02
#       6
#     2   2   2   2   2   2
#     4  11  24  38  65  97 132 175 213 268 326 390
#     4   9  20  42  72  93 125 174 218 276 336 374
#     4   9  22  42  67  99 124 169 226 267 324 392
#     4  10  24  39  64  93 136 170 215 262 329 391
#     4  10  23  40  59  96 135 171 211 264 326 389
#     4   9  21  41  65  92 129 173 216 267 325 390
#
# _framework density 24.012698
#
# number of rings (size 3 to 8) (size 9 to 14) (size 15 to 20)
#    1.000    1.333    0.000    0.500   14.000    2.667 
#    6.000    1.667    0.000    0.000    0.000    0.000 
#    0.000    0.000    0.000    0.000    0.000    0.000 
#
# Total GULP energy -66908.965955 kJ/mol
# GULP energy per Si atom -5575.747163 kJ/mol
# Density = 2.395804 g / cm^3
# Si number density = 24.012698 Si / 1000 Ang^3
#
#
#
# Elastic Constant Matrix: (Units=GPa)
#
#
# Indices 1 2 3 4 5 6 
#
# 1 119.7632 30.3435 35.8079 -10.1457 20.0817 -2.4162
# 2 30.3435 59.3432 42.3371 -24.1721 2.5054 6.8184
# 3 35.8079 42.3371 120.9880 -34.9874 20.6231 -4.8204
# 4 -10.1457 -24.1721 -34.9874 37.8244 -7.7592 -0.4398
# 5 20.0817 2.5054 20.6231 -7.7592 43.3551 -4.1457
# 6 -2.4162 6.8184 -4.8204 -0.4398 -4.1457 31.8436
#
#
#
# Elastic Compliance Matrix: (Units=1/GPa)
#
#
# Indices 1 2 3 4 5 6 
#
# 1 0.010678 -0.005715 -0.001148 -0.002747 -0.004442 0.001244
# 2 -0.005715 0.030118 -0.006339 0.012912 0.005570 -0.006939
# 3 -0.001148 -0.006339 0.013841 0.007650 -0.004035 0.002946
# 4 -0.002747 0.012912 0.007650 0.041908 0.004323 -0.000674
# 5 -0.004442 0.005570 -0.004035 0.004323 0.027639 0.001518
# 6 0.001244 -0.006939 0.002946 -0.000674 0.001518 0.033618
#
#
# Mechanical properties :
#
#
# Convention : Reuss Voigt Hill
#
# Bulk Modulus (GPa) = 35.42171 57.45238 46.43705
# Shear Modulus (GPa) = 25.82405 35.37835 30.60120
#
# Velocity S-wave (km/s) = 3.28294 3.84255 3.57371
# Velocity P-wave (km/s) = 5.39940 6.60792 6.03399
#
# Compressibility (1/GPa) = 0.02823128
#
# Stress axis : x y z
#
# Youngs Moduli (GPa) = 93.64701 33.20299 72.25040
#
# Poissons Ratio (x) = 0.18977 0.08294
# Poissons Ratio (y) = 0.53523 0.45803
# Poissons Ratio (z) = 0.10751 0.21049
#
# Static dielectric constant tensor:
#      x y z
#    x 1.978760 0.016240 -0.035490 
#    y 0.016240 1.931580 -0.028540 
#    z -0.035490 -0.028540 2.014170 
# 
# From -- ./inp_files/229869.got.cif
#   From: 2010.05.17/outbox.cif.g08.bks.cpg/sg2_115_cif.got.tgz:229869.got - 2010.06.03 11:33:40.
