data_PCOD9037895
_publ_section_title
;
Structure prediction by ZEFSAII (Michael W. Deem and Ramdas Pophale) SiO2 
 PCOD9037895
Probable space group: P -1
;
_chemical_formula_sum "Si O2"
_cell_formula_units_Z 16
_cell_length_a 11.583954
_cell_length_b 5.278698
_cell_length_c 10.909234
_cell_angle_alpha 78.129361
_cell_angle_beta 71.582411
_cell_angle_gamma 82.418273
_cell_volume 617.764101
_symmetry_space_group_name_H-M "P -1"
_symmetry_group_IT_number 2
_symmetry_cell_setting 'triclinic'
loop_
_space_group_symop_operation_xyz
x,y,z
-x,-y,-z
loop_
_atom_site_type_symbol
_atom_site_label
_atom_site_fract_x
_atom_site_fract_y
_atom_site_fract_z
Si Si1 0.537814 0.173991 0.854713
Si Si2 0.158587 0.187263 0.930532
Si Si3 0.417870 0.537899 0.648906
Si Si4 0.875522 0.352675 0.946028
Si Si5 0.621966 0.866093 0.623231
Si Si6 0.011393 0.785886 0.415263
Si Si7 0.763691 0.428722 0.748382
Si Si8 0.764416 0.819449 0.350886
O O1 0.444778 0.336591 0.776295
O O2 0.635058 0.364616 0.855782
O O3 0.614710 0.015611 0.738357
O O4 0.500000 0.000000 0.000000
O O5 0.223632 0.066878 0.799650
O O6 0.016095 0.274333 0.939491
O O7 0.192485 0.459025 0.949851
O O8 0.171175 0.931683 0.035723
O O9 0.500000 0.500000 0.500000
O O10 0.485512 0.780423 0.657318
O O11 0.289600 0.456049 0.642601
O O12 0.852274 0.522706 0.814729
O O13 0.719059 0.623007 0.637360
O O14 0.677482 0.966408 0.467603
O O15 0.901103 0.818665 0.354066
O O16 0.000000 0.500000 0.500000
O O17 0.146779 0.793483 0.317495
O O18 0.000000 0.000000 0.500000
#
# Coordination Sequence:
#
# PCOD9037895 Si02
#       8
#     2   2   2   2   2   2   2   2
#     4  11  26  45  72 104 142 197 250 314 380 443
#     4  10  23  42  62 100 137 188 228 291 347 437
#     4   9  23  45  68 101 140 185 245 309 366 439
#     4  10  23  41  64  94 144 182 235 281 356 425
#     4  10  23  46  69 100 140 184 248 305 366 435
#     4  12  26  45  71 111 151 193 240 295 375 453
#     4  11  24  43  71 102 144 191 236 311 359 455
#     4  11  22  44  71 103 140 189 240 298 371 440
#
# _framework density 25.899851999999999
#
# number of rings (size 3 to 8) (size 9 to 14) (size 15 to 20)
#    0.000    1.500    2.500    0.750    3.500    6.000 
#    9.000    0.000    0.000    0.000    0.000    0.000 
#    0.000    0.000    0.000    0.000    0.000    0.000 
#
# Total GULP energy -89095.848803 kJ/mol
# GULP energy per Si atom -5568.490550 kJ/mol
# Density = 2.584090 g / cm^3
# Si number density = 25.899852 Si / 1000 Ang^3
#
#
#
# Elastic Constant Matrix: (Units=GPa)
#
#
# Indices 1 2 3 4 5 6 
#
# 1 142.3325 27.0727 10.0267 -3.6500 15.3824 -16.7208
# 2 27.0727 81.3439 32.8930 11.0117 2.8842 6.6704
# 3 10.0267 32.8930 136.6610 14.6898 7.2328 -21.8697
# 4 -3.6500 11.0117 14.6898 35.9639 -4.0423 -1.6928
# 5 15.3824 2.8842 7.2328 -4.0423 37.6233 -1.4943
# 6 -16.7208 6.6704 -21.8697 -1.6928 -1.4943 27.0139
#
#
#
# Elastic Compliance Matrix: (Units=1/GPa)
#
#
# Indices 1 2 3 4 5 6 
#
# 1 0.009087 -0.004470 0.001688 0.001619 -0.003205 0.008019
# 2 -0.004470 0.017410 -0.005309 -0.004092 0.000614 -0.011587
# 3 0.001688 -0.005309 0.010524 -0.002241 -0.002125 0.010618
# 4 0.001619 -0.004092 -0.002241 0.030637 0.003466 0.002310
# 5 -0.003205 0.000614 -0.002125 0.003466 0.028542 -0.002060
# 6 0.008019 -0.011587 0.010618 0.002310 -0.002060 0.053469
#
#
# Mechanical properties :
#
#
# Convention : Reuss Voigt Hill
#
# Bulk Modulus (GPa) = 47.98731 55.59137 51.78934
# Shear Modulus (GPa) = 28.93555 39.47655 34.20605
#
# Velocity S-wave (km/s) = 3.34609 3.90834 3.63809
# Velocity P-wave (km/s) = 5.78763 6.47127 6.13898
#
# Compressibility (1/GPa) = 0.02083884
#
# Stress axis : x y z
#
# Youngs Moduli (GPa) = 110.04696 57.43661 95.02156
#
# Poissons Ratio (x) = 0.25674 -0.16041
# Poissons Ratio (y) = 0.49191 0.50451
# Poissons Ratio (z) = -0.18577 0.30495
#
# Static dielectric constant tensor:
#      x y z
#    x 2.147660 0.013620 -0.064710 
#    y 0.013620 2.167830 -0.027300 
#    z -0.064710 -0.027300 2.122530 
# 
# From -- ./inp_files/410033.got.cif
#   From: 2010.05.17/outbox.cif.g08.bks.cpg/sg2_206_cif.got.tgz:410033.got - 2010.06.03 11:33:40.
