data_PCOD9037141
_publ_section_title
;
Structure prediction by ZEFSAII (Michael W. Deem and Ramdas Pophale) SiO2 
 PCOD9037141
Probable space group: P -1
;
_chemical_formula_sum "Si O2"
_cell_formula_units_Z 16
_cell_length_a 11.044862
_cell_length_b 7.910097
_cell_length_c 8.394727
_cell_angle_alpha 75.498007
_cell_angle_beta 71.615108
_cell_angle_gamma 110.700784
_cell_volume 594.483720
_symmetry_space_group_name_H-M "P -1"
_symmetry_group_IT_number 2
_symmetry_cell_setting 'triclinic'
loop_
_space_group_symop_operation_xyz
x,y,z
-x,-y,-z
loop_
_atom_site_type_symbol
_atom_site_label
_atom_site_fract_x
_atom_site_fract_y
_atom_site_fract_z
Si Si1 0.076576 0.938833 0.124136
Si Si2 0.307293 0.629487 0.804835
Si Si3 0.962747 0.487558 0.202869
Si Si4 0.668909 0.959935 0.199547
Si Si5 0.383832 0.835196 0.204721
Si Si6 0.660576 0.541221 0.869860
Si Si7 0.071802 0.742917 0.455194
Si Si8 0.403034 0.322081 0.453897
O O1 0.036346 0.899722 0.337501
O O2 0.049362 0.713025 0.167079
O O3 0.247729 0.059849 0.984389
O O4 0.000000 0.000000 0.000000
O O5 0.203910 0.554658 0.713348
O O6 0.473271 0.712560 0.673504
O O7 0.293476 0.816933 0.831731
O O8 0.264754 0.450206 0.992001
O O9 0.970565 0.306650 0.330186
O O10 0.000000 0.500000 0.000000
O O11 0.496058 0.837828 0.287158
O O12 0.706854 0.859542 0.352671
O O13 0.328803 0.644552 0.163656
O O14 0.245579 0.838682 0.335878
O O15 0.500000 0.000000 0.000000
O O16 0.684003 0.658844 0.667002
O O17 0.500000 0.500000 0.000000
O O18 0.000000 0.500000 0.500000
O O19 0.500000 0.500000 0.500000
#
# Coordination Sequence:
#
# PCOD9037141 Si02
#       8
#     2   2   2   2   2   2   2   2
#     4  11  25  44  67 100 137 177 227 290 344 417
#     4  11  23  44  66  91 136 181 228 283 338 418
#     4  11  24  46  68  95 130 181 236 278 342 414
#     4  12  23  42  67 100 134 177 235 280 346 406
#     4  12  21  40  75 101 132 178 236 285 334 419
#     4  10  23  40  61  99 134 176 217 283 351 401
#     4  10  24  44  72  99 132 185 234 272 346 423
#     4  11  24  38  63 101 135 171 218 286 355 405
#
# _framework density 26.914110000000001
#
# number of rings (size 3 to 8) (size 9 to 14) (size 15 to 20)
#    0.000    1.000    5.000    1.125    3.500    1.000 
#    0.000    0.625    0.000    0.000    0.000    0.000 
#    0.000    0.000    0.000    0.000    0.000    0.000 
#
# Total GULP energy -89122.670557 kJ/mol
# GULP energy per Si atom -5570.166910 kJ/mol
# Density = 2.685285 g / cm^3
# Si number density = 26.914110 Si / 1000 Ang^3
#
#
#
# Elastic Constant Matrix: (Units=GPa)
#
#
# Indices 1 2 3 4 5 6 
#
# 1 99.4165 4.4561 58.3323 -31.9092 26.7010 -0.0457
# 2 4.4561 52.0994 3.8806 -6.4303 4.2261 -10.7261
# 3 58.3323 3.8806 220.9188 -34.2862 51.5484 -26.4721
# 4 -31.9092 -6.4303 -34.2862 23.5347 -10.0454 4.7320
# 5 26.7010 4.2261 51.5484 -10.0454 69.0670 -11.3808
# 6 -0.0457 -10.7261 -26.4721 4.7320 -11.3808 31.1074
#
#
#
# Elastic Compliance Matrix: (Units=1/GPa)
#
#
# Indices 1 2 3 4 5 6 
#
# 1 0.019761 0.000540 -0.001131 0.024703 -0.004233 -0.006054
# 2 0.000540 0.021507 0.001607 0.007254 -0.000429 0.007524
# 3 -0.001131 0.001607 0.007188 0.007098 -0.003269 0.004393
# 4 0.024703 0.007254 0.007098 0.088042 -0.003490 -0.006092
# 5 -0.004233 -0.000429 -0.003269 -0.003490 0.018812 0.004477
# 6 -0.006054 0.007524 0.004393 -0.006092 0.004477 0.041035
#
#
# Mechanical properties :
#
#
# Convention : Reuss Voigt Hill
#
# Bulk Modulus (GPa) = 19.80657 56.19698 38.00178
# Shear Modulus (GPa) = 23.68073 45.12619 34.40346
#
# Velocity S-wave (km/s) = 2.96947 4.09916 3.57917
# Velocity P-wave (km/s) = 4.37403 6.58252 5.58846
#
# Compressibility (1/GPa) = 0.05048829
#
# Stress axis : x y z
#
# Youngs Moduli (GPa) = 50.60476 46.49586 139.12135
#
# Poissons Ratio (x) = -0.02511 0.15736
# Poissons Ratio (y) = -0.02733 -0.22359
# Poissons Ratio (z) = 0.05724 -0.07473
#
# Static dielectric constant tensor:
#      x y z
#    x 2.282770 0.051820 0.237920 
#    y 0.051820 1.932960 0.137010 
#    z 0.237920 0.137010 2.524610 
# 
# From -- ./inp_files/242955.got.cif
#   From: 2010.05.17/outbox.cif.g08.bks.cpg/sg2_122_cif.got.tgz:242955.got - 2010.06.03 11:33:40.
