data_PCOD9037136
_publ_section_title
;
Structure prediction by ZEFSAII (Michael W. Deem and Ramdas Pophale) SiO2 
 PCOD9037136
Probable space group: P -1
;
_chemical_formula_sum "Si O2"
_cell_formula_units_Z 16
_cell_length_a 19.484862
_cell_length_b 23.454606
_cell_length_c 8.729006
_cell_angle_alpha 121.789072
_cell_angle_beta 47.786352
_cell_angle_gamma 162.948811
_cell_volume 733.514402
_symmetry_space_group_name_H-M "P -1"
_symmetry_group_IT_number 2
_symmetry_cell_setting 'triclinic'
loop_
_space_group_symop_operation_xyz
x,y,z
-x,-y,-z
loop_
_atom_site_type_symbol
_atom_site_label
_atom_site_fract_x
_atom_site_fract_y
_atom_site_fract_z
Si Si1 0.457823 0.556687 0.360785
Si Si2 0.921403 0.690010 0.956815
Si Si3 0.218644 0.216243 0.493739
Si Si4 0.190772 0.840255 0.081219
Si Si5 0.697412 0.951041 0.328584
Si Si6 0.497606 0.329567 0.849754
Si Si7 0.719495 0.253064 0.109400
Si Si8 0.873800 0.800514 0.685597
O O1 0.722024 0.734640 0.346521
O O2 0.501261 0.640678 0.281685
O O3 0.409038 0.448069 0.218608
O O4 0.124211 0.347039 0.636747
O O5 0.811653 0.562805 0.807554
O O6 0.581893 0.468523 0.238729
O O7 0.085548 0.862359 0.858073
O O8 0.157621 0.829486 0.933706
O O9 0.043659 0.147443 0.545672
O O10 0.000000 0.000000 0.500000
O O11 0.484371 0.077858 0.067955
O O12 0.179416 0.752637 0.007439
O O13 0.555200 0.785664 0.233472
O O14 0.461152 0.840616 0.605351
O O15 0.879572 0.048942 0.343628
O O16 0.230490 0.194788 0.128063
O O17 0.000000 0.500000 0.000000
#
# Coordination Sequence:
#
# PCOD9037136 Si02
#       8
#     2   2   2   2   2   2   2   2
#     4  11  20  42  68  93 134 180 219 271 331 392
#     4  10  24  45  66  96 136 175 220 266 331 401
#     4  10  23  40  61  97 132 176 224 271 318 382
#     4  10  23  46  69  96 132 170 214 283 335 387
#     4  12  24  43  68  96 133 179 221 273 333 392
#     4  11  23  40  65  97 136 173 219 270 317 398
#     4  11  24  44  74 103 124 165 226 278 338 393
#     4  11  22  41  61  95 134 178 222 260 327 396
#
# _framework density 21.812795999999999
#
# number of rings (size 3 to 8) (size 9 to 14) (size 15 to 20)
#    0.000    1.250    2.500    2.625    1.750    4.500 
#    9.000    1.250    0.000    0.000    0.000    0.000 
#    0.000    0.000    0.000    0.000    0.000    0.000 
#
# Total GULP energy -89266.631527 kJ/mol
# GULP energy per Si atom -5579.164470 kJ/mol
# Density = 2.176315 g / cm^3
# Si number density = 21.812796 Si / 1000 Ang^3
#
#
#
# Elastic Constant Matrix: (Units=GPa)
#
#
# Indices 1 2 3 4 5 6 
#
# 1 152.1408 76.3167 57.5117 6.9233 22.1801 0.0301
# 2 76.3167 165.0614 56.0711 21.8088 15.8977 -26.9501
# 3 57.5117 56.0711 81.6699 6.2428 4.1896 -13.4713
# 4 6.9233 21.8088 6.2428 28.9168 -3.0305 2.8536
# 5 22.1801 15.8977 4.1896 -3.0305 33.1696 7.9654
# 6 0.0301 -26.9501 -13.4713 2.8536 7.9654 46.1494
#
#
#
# Elastic Compliance Matrix: (Units=1/GPa)
#
#
# Indices 1 2 3 4 5 6 
#
# 1 0.011014 -0.003321 -0.005824 0.000975 -0.004234 -0.002976
# 2 -0.003321 0.011605 -0.003515 -0.008477 -0.005404 0.007210
# 3 -0.005824 -0.003515 0.019166 -0.000152 0.002390 0.003143
# 4 0.000975 -0.008477 -0.000152 0.042693 0.009560 -0.009285
# 5 -0.004234 -0.005404 0.002390 0.009560 0.038467 -0.009686
# 6 -0.002976 0.007210 0.003143 -0.009285 -0.009686 0.029045
#
#
# Mechanical properties :
#
#
# Convention : Reuss Voigt Hill
#
# Bulk Modulus (GPa) = 60.73120 86.51902 73.62511
# Shear Modulus (GPa) = 27.35266 35.57867 31.46567
#
# Velocity S-wave (km/s) = 3.54499 4.04306 3.80219
# Velocity P-wave (km/s) = 6.68269 7.84510 7.28711
#
# Compressibility (1/GPa) = 0.01646600
#
# Stress axis : x y z
#
# Youngs Moduli (GPa) = 90.79634 86.16717 52.17467
#
# Poissons Ratio (x) = 0.28613 0.30387
# Poissons Ratio (y) = 0.30151 0.18339
# Poissons Ratio (z) = 0.52881 0.30287
#
# Static dielectric constant tensor:
#      x y z
#    x 1.825770 0.016760 0.024670 
#    y 0.016760 1.827550 0.023910 
#    z 0.024670 0.023910 1.894210 
# 
# From -- ./inp_files/337739.got.cif
#   From: 2010.05.17/outbox.cif.g08.bks.cpg/sg2_169_cif.got.tgz:337739.got - 2010.06.03 11:33:40.
