data_PCOD9037576
_publ_section_title
;
Structure prediction by ZEFSAII (Michael W. Deem and Ramdas Pophale) SiO2 
 PCOD9037576
Probable space group: P -1
;
_chemical_formula_sum "Si O2"
_cell_formula_units_Z 14
_cell_length_a 4.976866
_cell_length_b 19.144343
_cell_length_c 19.061269
_cell_angle_alpha 158.241899
_cell_angle_beta 114.506827
_cell_angle_gamma 74.683196
_cell_volume 571.732373
_symmetry_space_group_name_H-M "P -1"
_symmetry_group_IT_number 2
_symmetry_cell_setting 'triclinic'
loop_
_space_group_symop_operation_xyz
x,y,z
-x,-y,-z
loop_
_atom_site_type_symbol
_atom_site_label
_atom_site_fract_x
_atom_site_fract_y
_atom_site_fract_z
Si Si1 0.670116 0.408250 0.069041
Si Si2 0.629322 0.330558 0.444799
Si Si3 0.317266 0.087037 0.973215
Si Si4 0.341145 0.666536 0.204478
Si Si5 0.030223 0.268361 0.225318
Si Si6 0.663653 0.957564 0.387483
Si Si7 0.647137 0.561693 0.800904
O O1 0.582348 0.554280 0.141948
O O2 0.619008 0.477417 0.205775
O O3 0.020647 0.411472 0.101294
O O4 0.414106 0.181356 0.818839
O O5 0.299973 0.302670 0.343942
O O6 0.886663 0.522735 0.613305
O O7 0.593070 0.391203 0.577102
O O8 0.718394 0.133852 0.261526
O O9 0.074028 0.110668 0.026239
O O10 0.313806 0.232745 0.044558
O O11 0.672314 0.189233 0.139260
O O12 0.421790 0.809004 0.278163
O O13 0.366709 0.825621 0.418048
O O14 0.000000 0.500000 0.000000
O O15 0.000000 0.000000 0.500000
#
# Coordination Sequence:
#
# PCOD9037576 Si02
#       7
#     2   2   2   2   2   2   2
#     4  12  26  46  68  96 142 176 226 268 344 403
#     4  10  23  43  69  95 138 177 228 277 351 383
#     4  11  23  43  67  96 138 172 232 280 340 386
#     4  11  24  45  73 104 135 171 222 291 346 401
#     4  10  23  40  69 104 125 173 234 294 324 403
#     4  11  25  43  75 105 130 171 231 287 343 402
#     4  11  27  42  63  99 136 186 222 271 323 434
#
# _framework density 24.486982999999999
#
# number of rings (size 3 to 8) (size 9 to 14) (size 15 to 20)
#    0.000    1.143    1.429    3.857    4.000   12.000 
#    0.000    0.000    0.000    0.000    0.000    0.000 
#    0.000    0.000    0.000    0.000    0.000    0.000 
#
# Total GULP energy -78523.126264 kJ/mol
# GULP energy per Si atom -5608.794733 kJ/mol
# Density = 2.443125 g / cm^3
# Si number density = 24.486983 Si / 1000 Ang^3
#
#
#
# Elastic Constant Matrix: (Units=GPa)
#
#
# Indices 1 2 3 4 5 6 
#
# 1 87.2525 13.0054 26.7682 13.2879 -0.8856 -4.3365
# 2 13.0054 80.6141 33.0601 0.5001 -7.4679 -17.3674
# 3 26.7682 33.0601 161.6349 19.4082 -29.7380 -4.8742
# 4 13.2879 0.5001 19.4082 30.0746 1.4368 -11.3354
# 5 -0.8856 -7.4679 -29.7380 1.4368 49.8552 5.3584
# 6 -4.3365 -17.3674 -4.8742 -11.3354 5.3584 46.4566
#
#
#
# Elastic Compliance Matrix: (Units=1/GPa)
#
#
# Indices 1 2 3 4 5 6 
#
# 1 0.012844 -0.001725 -0.001294 -0.005067 -0.000576 -0.000752
# 2 -0.001725 0.015410 -0.003407 0.005216 -0.000612 0.006586
# 3 -0.001294 -0.003407 0.008707 -0.006210 0.005117 -0.002586
# 4 -0.005067 0.005216 -0.006210 0.044308 -0.005610 0.012283
# 5 -0.000576 -0.000612 0.005117 -0.005610 0.023582 -0.003835
# 6 -0.000752 0.006586 -0.002586 0.012283 -0.003835 0.027085
#
#
# Mechanical properties :
#
#
# Convention : Reuss Voigt Hill
#
# Bulk Modulus (GPa) = 41.47908 52.79654 47.13781
# Shear Modulus (GPa) = 32.71740 42.38848 37.55294
#
# Velocity S-wave (km/s) = 3.65925 4.16512 3.92035
# Velocity P-wave (km/s) = 5.90166 6.68871 6.30747
#
# Compressibility (1/GPa) = 0.02410854
#
# Stress axis : x y z
#
# Youngs Moduli (GPa) = 77.85968 64.89363 114.84972
#
# Poissons Ratio (x) = 0.11194 0.14866
# Poissons Ratio (y) = 0.13431 0.39124
# Poissons Ratio (z) = 0.10078 0.22106
#
# Static dielectric constant tensor:
#      x y z
#    x 1.947830 0.040880 -0.054990 
#    y 0.040880 1.949290 -0.033220 
#    z -0.054990 -0.033220 1.997520 
# 
# From -- ./inp_files/584240.got.cif
#   From: 2010.05.17/outbox.cif.g08.bks.cpg/sg2_293_cif.got.tgz:584240.got - 2010.06.03 11:33:40.
