data_PCOD9037431
_publ_section_title
;
Structure prediction by ZEFSAII (Michael W. Deem and Ramdas Pophale) SiO2 
 PCOD9037431
Probable space group: P -1
;
_chemical_formula_sum "Si O2"
_cell_formula_units_Z 16
_cell_length_a 10.519480
_cell_length_b 9.490604
_cell_length_c 14.538288
_cell_angle_alpha 61.375085
_cell_angle_beta 145.300509
_cell_angle_gamma 109.013671
_cell_volume 718.515725
_symmetry_space_group_name_H-M "P -1"
_symmetry_group_IT_number 2
_symmetry_cell_setting 'triclinic'
loop_
_space_group_symop_operation_xyz
x,y,z
-x,-y,-z
loop_
_atom_site_type_symbol
_atom_site_label
_atom_site_fract_x
_atom_site_fract_y
_atom_site_fract_z
Si Si1 0.271614 0.121601 0.435326
Si Si2 0.764116 0.435864 0.288151
Si Si3 0.672851 0.022577 0.830252
Si Si4 0.226395 0.532077 0.503077
Si Si5 0.062379 0.560176 0.874866
Si Si6 0.247918 0.870201 0.349788
Si Si7 0.712852 0.362770 0.826379
Si Si8 0.636094 0.687701 0.998727
O O1 0.411817 0.054895 0.629029
O O2 0.476342 0.174201 0.476611
O O3 0.083011 0.271738 0.294394
O O4 0.185844 0.981536 0.366513
O O5 0.734023 0.415463 0.384819
O O6 0.669603 0.621259 0.142911
O O7 0.027669 0.422380 0.425731
O O8 0.619422 0.320176 0.183439
O O9 0.799831 0.030967 0.804486
O O10 0.725792 0.173929 0.872978
O O11 0.293850 0.142510 0.042343
O O12 0.158428 0.698750 0.355371
O O13 0.457168 0.440112 0.630738
O O14 0.219567 0.455863 0.928642
O O15 0.882717 0.446045 0.838134
O O16 0.213495 0.600286 0.038418
#
# Coordination Sequence:
#
# PCOD9037431 Si02
#       8
#     2   2   2   2   2   2   2   2
#     4   9  20  36  63 101 125 174 196 263 348 377
#     4  10  25  41  71  85 128 188 228 249 308 393
#     4  10  23  40  67 100 136 161 217 273 335 392
#     4  11  21  45  66  96 129 176 226 262 309 408
#     4  11  24  39  66  96 144 163 208 280 336 389
#     4   9  20  36  69  96 136 162 213 267 337 387
#     4  11  24  37  65 103 131 168 209 281 343 366
#     4  11  24  46  66  98 130 174 221 266 323 394
#
# _framework density 22.268127
#
# number of rings (size 3 to 8) (size 9 to 14) (size 15 to 20)
#    0.750    1.000    2.500    0.750    7.000    2.500 
#    0.000    1.250   11.000    0.000    0.000    0.000 
#    0.000    0.000    0.000    0.000    0.000    0.000 
#
# Total GULP energy -89420.806679 kJ/mol
# GULP energy per Si atom -5588.800417 kJ/mol
# Density = 2.221744 g / cm^3
# Si number density = 22.268127 Si / 1000 Ang^3
#
#
#
# Elastic Constant Matrix: (Units=GPa)
#
#
# Indices 1 2 3 4 5 6 
#
# 1 43.6219 37.2089 16.2311 -3.0702 -5.8231 8.8022
# 2 37.2089 129.3467 35.1173 -18.6351 1.1712 0.3239
# 3 16.2311 35.1173 91.5298 -8.1468 -1.2333 4.3730
# 4 -3.0702 -18.6351 -8.1468 37.0072 4.0802 -6.6709
# 5 -5.8231 1.1712 -1.2333 4.0802 39.7392 -1.3622
# 6 8.8022 0.3239 4.3730 -6.6709 -1.3622 27.0826
#
#
#
# Elastic Compliance Matrix: (Units=1/GPa)
#
#
# Indices 1 2 3 4 5 6 
#
# 1 0.035420 -0.010440 -0.002118 -0.005589 0.005590 -0.012141
# 2 -0.010440 0.012307 -0.002615 0.005924 -0.002410 0.005006
# 3 -0.002118 -0.002615 0.012448 0.001061 0.000009 -0.001029
# 4 -0.005589 0.005924 0.001061 0.031870 -0.003917 0.009227
# 5 0.005590 -0.002410 0.000009 -0.003917 0.026408 -0.001426
# 6 -0.012141 0.005006 -0.001029 0.009227 -0.001426 0.043177
#
#
# Mechanical properties :
#
#
# Convention : Reuss Voigt Hill
#
# Bulk Modulus (GPa) = 33.52340 49.06811 41.29576
# Shear Modulus (GPa) = 24.76260 32.49520 28.62890
#
# Velocity S-wave (km/s) = 3.33831 3.82418 3.58948
# Velocity P-wave (km/s) = 5.47232 6.44842 5.98032
#
# Compressibility (1/GPa) = 0.02982991
#
# Stress axis : x y z
#
# Youngs Moduli (GPa) = 28.23291 81.25478 80.33440
#
# Poissons Ratio (x) = 0.84827 0.17013
# Poissons Ratio (y) = 0.29474 0.21007
# Poissons Ratio (z) = 0.05979 0.21248
#
# Static dielectric constant tensor:
#      x y z
#    x 1.827740 0.012120 -0.010020 
#    y 0.012120 1.785900 0.033090 
#    z -0.010020 0.033090 1.886920 
# 
# From -- ./inp_files/567369.got.cif
#   From: 2010.05.17/outbox.cif.g08.bks.cpg/sg2_284_cif.got.tgz:567369.got - 2010.06.03 11:33:40.
