data_PCOD9037323
_publ_section_title
;
Structure prediction by ZEFSAII (Michael W. Deem and Ramdas Pophale) SiO2 
 PCOD9037323
Probable space group: P -1
;
_chemical_formula_sum "Si O2"
_cell_formula_units_Z 16
_cell_length_a 14.762184
_cell_length_b 8.229674
_cell_length_c 19.338431
_cell_angle_alpha 53.210033
_cell_angle_beta 25.019361
_cell_angle_gamma 50.158134
_cell_volume 761.695263
_symmetry_space_group_name_H-M "P -1"
_symmetry_group_IT_number 2
_symmetry_cell_setting 'triclinic'
loop_
_space_group_symop_operation_xyz
x,y,z
-x,-y,-z
loop_
_atom_site_type_symbol
_atom_site_label
_atom_site_fract_x
_atom_site_fract_y
_atom_site_fract_z
Si Si1 0.160979 0.316530 0.392424
Si Si2 0.223002 0.205679 0.795461
Si Si3 0.169070 0.765633 0.442314
Si Si4 0.448597 0.211355 0.934584
Si Si5 0.002266 0.017743 0.877684
Si Si6 0.607016 0.407530 0.021668
Si Si7 0.014076 0.707889 0.828808
Si Si8 0.278496 0.851133 0.489278
O O1 0.000000 0.500000 0.500000
O O2 0.018506 0.353124 0.410285
O O3 0.178289 0.095098 0.474262
O O4 0.411478 0.323756 0.211047
O O5 0.093440 0.452537 0.837075
O O6 0.482899 0.181913 0.632168
O O7 0.169922 0.113070 0.782136
O O8 0.139532 0.069130 0.945420
O O9 0.341018 0.758760 0.262240
O O10 0.296127 0.722730 0.437752
O O11 0.000000 0.000000 0.500000
O O12 0.362513 0.409885 0.995228
O O13 0.254417 0.212969 0.013592
O O14 0.500000 0.000000 0.000000
O O15 0.831192 0.216891 0.907515
O O16 0.088054 0.825510 0.812966
O O17 0.500000 0.500000 0.000000
O O18 0.115324 0.782743 0.671475
#
# Coordination Sequence:
#
# PCOD9037323 Si02
#       8
#     2   2   2   2   2   2   2   2
#     4  11  23  43  63  98 136 179 228 272 348 414
#     4  11  24  49  72  96 142 181 239 285 345 418
#     4  10  23  40  65  92 134 181 217 280 340 404
#     4  12  24  42  65 101 139 183 236 284 347 416
#     4  11  25  47  71 103 137 182 232 292 343 410
#     4  12  26  41  69 102 139 179 226 290 345 410
#     4  12  26  44  70 103 136 183 237 285 350 410
#     4  11  25  45  67  97 141 179 229 290 344 417
#
# _framework density 21.005777999999999
#
# number of rings (size 3 to 8) (size 9 to 14) (size 15 to 20)
#    0.000    0.750    3.750    3.750    8.750    0.500 
#    2.250    0.000    0.000    0.000    0.000    0.000 
#    0.000    0.000    0.000    0.000    0.000    0.000 
#
# Total GULP energy -89328.482213 kJ/mol
# GULP energy per Si atom -5583.030138 kJ/mol
# Density = 2.095797 g / cm^3
# Si number density = 21.005778 Si / 1000 Ang^3
#
#
#
# Elastic Constant Matrix: (Units=GPa)
#
#
# Indices 1 2 3 4 5 6 
#
# 1 110.0373 30.4474 3.0417 0.1711 -24.0760 15.4178
# 2 30.4474 87.0687 -0.4309 -1.6395 -14.4547 4.8807
# 3 3.0417 -0.4309 45.5781 2.3858 -19.4951 -6.3648
# 4 0.1711 -1.6395 2.3858 25.3020 -2.6508 -1.1424
# 5 -24.0760 -14.4547 -19.4951 -2.6508 42.9012 -2.0730
# 6 15.4178 4.8807 -6.3648 -1.1424 -2.0730 40.6251
#
#
#
# Elastic Compliance Matrix: (Units=1/GPa)
#
#
# Indices 1 2 3 4 5 6 
#
# 1 0.011657 -0.002877 0.001245 0.000081 0.005970 -0.003576
# 2 -0.002877 0.013138 0.001855 0.001087 0.003723 0.000025
# 3 0.001245 0.001855 0.028785 -0.000871 0.014570 0.004533
# 4 0.000081 0.001087 -0.000871 0.039983 0.002533 0.000956
# 5 0.005970 0.003723 0.014570 0.002533 0.034760 0.001414
# 6 -0.003576 0.000025 0.004533 0.000956 0.001414 0.026779
#
#
# Mechanical properties :
#
#
# Convention : Reuss Voigt Hill
#
# Bulk Modulus (GPa) = 18.50950 34.31115 26.41032
# Shear Modulus (GPa) = 28.95800 35.74071 32.34935
#
# Velocity S-wave (km/s) = 3.71694 4.12936 3.92857
# Velocity P-wave (km/s) = 5.22031 6.25341 5.76007
#
# Compressibility (1/GPa) = 0.05402631
#
# Stress axis : x y z
#
# Youngs Moduli (GPa) = 85.78738 76.11712 34.73989
#
# Poissons Ratio (x) = 0.21899 -0.04325
# Poissons Ratio (y) = 0.24681 -0.06446
# Poissons Ratio (z) = -0.10680 -0.14123
#
# Static dielectric constant tensor:
#      x y z
#    x 1.797410 0.017280 -0.028500 
#    y 0.017280 1.746610 -0.030030 
#    z -0.028500 -0.030030 1.747860 
# 
# From -- ./inp_files/597316.got.cif
#   From: 2010.05.17/outbox.cif.g08.bks.cpg/sg2_299_cif.got.tgz:597316.got - 2010.06.03 11:33:40.
