data_PCOD9037713
_publ_section_title
;
Structure prediction by ZEFSAII (Michael W. Deem and Ramdas Pophale) SiO2 
 PCOD9037713
Probable space group: P -1
;
_chemical_formula_sum "Si O2"
_cell_formula_units_Z 16
_cell_length_a 20.692836
_cell_length_b 20.703830
_cell_length_c 12.073497
_cell_angle_alpha 149.089768
_cell_angle_beta 139.742432
_cell_angle_gamma 20.408489
_cell_volume 901.999700
_symmetry_space_group_name_H-M "P -1"
_symmetry_group_IT_number 2
_symmetry_cell_setting 'triclinic'
loop_
_space_group_symop_operation_xyz
x,y,z
-x,-y,-z
loop_
_atom_site_type_symbol
_atom_site_label
_atom_site_fract_x
_atom_site_fract_y
_atom_site_fract_z
Si Si1 0.691873 0.846280 0.971723
Si Si2 0.416909 0.542267 0.104018
Si Si3 0.513550 0.764045 0.877014
Si Si4 0.813861 0.975880 0.421573
Si Si5 0.184315 0.925633 0.678344
Si Si6 0.220644 0.725712 0.888432
Si Si7 0.203877 0.534494 0.403970
Si Si8 0.236526 0.609120 0.177395
O O1 0.817170 0.587305 0.761648
O O2 0.764126 0.884089 0.197622
O O3 0.500000 0.000000 0.000000
O O4 0.630811 0.969037 0.953503
O O5 0.640312 0.313506 0.034314
O O6 0.363475 0.523259 0.116063
O O7 0.345455 0.763053 0.351778
O O8 0.300099 0.616938 0.955639
O O9 0.637462 0.616751 0.708673
O O10 0.663608 0.610865 0.948520
O O11 0.371961 0.800071 0.774665
O O12 0.847843 0.994707 0.372142
O O13 0.003105 0.787218 0.461567
O O14 0.980239 0.174272 0.831542
O O15 0.221289 0.737829 0.438692
O O16 0.246865 0.577648 0.626312
O O17 0.000000 0.000000 0.000000
#
# Coordination Sequence:
#
# PCOD9037713 Si02
#       8
#     2   2   2   2   2   2   2   2
#     4   9  19  31  49  78 108 138 169 215 262 312
#     4  10  22  36  53  79 108 138 175 214 256 309
#     4  10  19  32  50  76 109 135 168 210 267 310
#     4  10  17  33  52  80 110 132 168 215 265 316
#     4   9  18  28  47  76 106 135 163 205 265 317
#     4  11  22  37  55  75 107 142 177 215 255 304
#     4  11  19  33  54  76 108 140 176 214 261 309
#     4  10  18  31  49  75 105 136 169 209 259 317
#
# _framework density 17.738365000000002
#
# number of rings (size 3 to 8) (size 9 to 14) (size 15 to 20)
#    0.000    2.000    2.500    3.750    0.000    1.000 
#    0.000    0.000    0.000    0.750    0.000    4.375 
#    0.000    0.000    0.000    0.000    0.000    0.000 
#
# Total GULP energy -89080.648547 kJ/mol
# GULP energy per Si atom -5567.540534 kJ/mol
# Density = 1.769799 g / cm^3
# Si number density = 17.738365 Si / 1000 Ang^3
#
#
#
# Elastic Constant Matrix: (Units=GPa)
#
#
# Indices 1 2 3 4 5 6 
#
# 1 48.3793 28.9640 19.5455 -1.8483 -11.3548 -4.6541
# 2 28.9640 99.3714 19.4499 4.7319 -7.0113 -5.2467
# 3 19.5455 19.4499 45.0595 -10.4608 -3.0797 7.9895
# 4 -1.8483 4.7319 -10.4608 25.0473 -4.2559 -3.1745
# 5 -11.3548 -7.0113 -3.0797 -4.2559 19.3181 -1.3311
# 6 -4.6541 -5.2467 7.9895 -3.1745 -1.3311 29.6803
#
#
#
# Elastic Compliance Matrix: (Units=1/GPa)
#
#
# Indices 1 2 3 4 5 6 
#
# 1 0.034025 -0.006070 -0.011856 0.002687 0.017084 0.008507
# 2 -0.006070 0.012993 -0.004424 -0.004565 -0.000423 0.002029
# 3 -0.011856 -0.004424 0.033960 0.012629 -0.001100 -0.010481
# 4 0.002687 -0.004565 0.012629 0.048687 0.012800 0.001996
# 5 0.017084 -0.000423 -0.001100 0.012800 0.064792 0.007175
# 6 0.008507 0.002029 -0.010481 0.001996 0.007175 0.038742
#
#
# Mechanical properties :
#
#
# Convention : Reuss Voigt Hill
#
# Bulk Modulus (GPa) = 27.56446 36.52545 32.04495
# Shear Modulus (GPa) = 17.24192 23.13252 20.18722
#
# Velocity S-wave (km/s) = 3.12109 3.61514 3.37717
# Velocity P-wave (km/s) = 5.34430 6.16941 5.77162
#
# Compressibility (1/GPa) = 0.03627860
#
# Stress axis : x y z
#
# Youngs Moduli (GPa) = 29.39042 76.96450 29.44628
#
# Poissons Ratio (x) = 0.46718 0.34911
# Poissons Ratio (y) = 0.17840 0.13026
# Poissons Ratio (z) = 0.34844 0.34047
#
# Static dielectric constant tensor:
#      x y z
#    x 1.624590 -0.019240 0.037410 
#    y -0.019240 1.666630 0.017270 
#    z 0.037410 0.017270 1.685210 
# 
# From -- ./inp_files/423295.got.cif
#   From: 2010.05.17/outbox.cif.g08.bks.cpg/sg2_212_cif.got.tgz:423295.got - 2010.06.03 11:33:40.
