data_PCOD9037907
_publ_section_title
;
Structure prediction by ZEFSAII (Michael W. Deem and Ramdas Pophale) SiO2 
 PCOD9037907
Probable space group: P -1
;
_chemical_formula_sum "Si O2"
_cell_formula_units_Z 14
_cell_length_a 8.708660
_cell_length_b 10.247776
_cell_length_c 9.923748
_cell_angle_alpha 76.535574
_cell_angle_beta 93.681719
_cell_angle_gamma 138.006368
_cell_volume 568.129825
_symmetry_space_group_name_H-M "P -1"
_symmetry_group_IT_number 2
_symmetry_cell_setting 'triclinic'
loop_
_space_group_symop_operation_xyz
x,y,z
-x,-y,-z
loop_
_atom_site_type_symbol
_atom_site_label
_atom_site_fract_x
_atom_site_fract_y
_atom_site_fract_z
Si Si1 0.333822 0.040211 0.820710
Si Si2 0.882131 0.674893 0.439180
Si Si3 0.004771 0.637913 0.057885
Si Si4 0.419469 0.579013 0.770001
Si Si5 0.084881 0.197448 0.306203
Si Si6 0.569511 0.981103 0.649866
Si Si7 0.811550 0.447993 0.728642
O O1 0.463799 0.011438 0.747014
O O2 0.150147 0.004149 0.729104
O O3 0.551609 0.274562 0.815522
O O4 0.197262 0.872138 0.969838
O O5 0.704274 0.569263 0.331629
O O6 0.875512 0.780846 0.535272
O O7 0.815621 0.494138 0.561422
O O8 0.152017 0.852279 0.370769
O O9 0.066355 0.609314 0.211705
O O10 0.758038 0.547663 0.085457
O O11 0.000000 0.500000 0.000000
O O12 0.679479 0.696019 0.773204
O O13 0.454567 0.760699 0.706083
O O14 0.057372 0.340257 0.249062
O O15 0.500000 0.000000 0.500000
#
# Coordination Sequence:
#
# PCOD9037907 Si02
#       7
#     2   2   2   2   2   2   2
#     4  12  23  43  67  94 130 168 212 265 315 372
#     4  10  23  41  64  96 130 162 211 259 317 376
#     4  12  22  45  66  93 127 168 217 265 309 375
#     4  12  25  41  67  93 131 171 210 259 321 376
#     4  10  24  43  62  96 131 168 205 264 319 379
#     4  12  22  39  66  96 122 168 213 258 317 371
#     4  10  23  43  67  91 131 163 211 267 315 369
#
# _framework density 24.642256
#
# number of rings (size 3 to 8) (size 9 to 14) (size 15 to 20)
#    0.857    0.000    4.286    3.429    0.000    4.000 
#    0.000    0.714    0.000    0.000    0.000    0.000 
#    0.000    0.000    0.000    0.000    0.000    0.000 
#
# Total GULP energy -78282.790244 kJ/mol
# GULP energy per Si atom -5591.627875 kJ/mol
# Density = 2.458617 g / cm^3
# Si number density = 24.642256 Si / 1000 Ang^3
#
#
#
# Elastic Constant Matrix: (Units=GPa)
#
#
# Indices 1 2 3 4 5 6 
#
# 1 56.4618 2.3185 19.3090 -6.7034 -11.9070 26.9871
# 2 2.3185 89.8598 6.9923 -17.6395 -2.4056 21.1291
# 3 19.3090 6.9923 82.3304 -29.4747 -10.2139 -2.7228
# 4 -6.7034 -17.6395 -29.4747 42.1868 5.9334 -10.3309
# 5 -11.9070 -2.4056 -10.2139 5.9334 46.9456 -16.7737
# 6 26.9871 21.1291 -2.7228 -10.3309 -16.7737 42.1550
#
#
#
# Elastic Compliance Matrix: (Units=1/GPa)
#
#
# Indices 1 2 3 4 5 6 
#
# 1 0.033432 0.005055 -0.012227 -0.007498 -0.002874 -0.027707
# 2 0.005055 0.014228 -0.001969 0.003109 -0.002667 -0.010794
# 3 -0.012227 -0.001969 0.022079 0.015887 0.005413 0.016288
# 4 -0.007498 0.003109 0.015887 0.038159 0.002049 0.014435
# 5 -0.002874 -0.002667 0.005413 0.002049 0.026571 0.014601
# 6 -0.027707 -0.010794 0.016288 0.014435 0.014601 0.057270
#
#
# Mechanical properties :
#
#
# Convention : Reuss Voigt Hill
#
# Bulk Modulus (GPa) = 19.43370 31.76574 25.59972
# Shear Modulus (GPa) = 22.00948 39.59295 30.80122
#
# Velocity S-wave (km/s) = 2.99182 4.01273 3.53928
# Velocity P-wave (km/s) = 4.45400 5.86413 5.20702
#
# Compressibility (1/GPa) = 0.05145702
#
# Stress axis : x y z
#
# Youngs Moduli (GPa) = 29.91129 70.28337 45.29176
#
# Poissons Ratio (x) = -0.35529 0.55380
# Poissons Ratio (y) = -0.15120 0.08917
# Poissons Ratio (z) = 0.36574 0.13838
#
# Static dielectric constant tensor:
#      x y z
#    x 1.941900 0.000240 0.029680 
#    y 0.000240 1.990270 0.037880 
#    z 0.029680 0.037880 2.026050 
# 
# From -- ./inp_files/390006.got.cif
#   From: 2010.05.17/outbox.cif.g08.bks.cpg/sg2_196_cif.got.tgz:390006.got - 2010.06.03 11:33:40.
