data_PCOD9037707
_publ_section_title
;
Structure prediction by ZEFSAII (Michael W. Deem and Ramdas Pophale) SiO2 
 PCOD9037707
Probable space group: P -1
;
_chemical_formula_sum "Si O2"
_cell_formula_units_Z 16
_cell_length_a 8.733430
_cell_length_b 20.418900
_cell_length_c 9.319677
_cell_angle_alpha 79.523272
_cell_angle_beta 47.789848
_cell_angle_gamma 115.576645
_cell_volume 786.028444
_symmetry_space_group_name_H-M "P -1"
_symmetry_group_IT_number 2
_symmetry_cell_setting 'triclinic'
loop_
_space_group_symop_operation_xyz
x,y,z
-x,-y,-z
loop_
_atom_site_type_symbol
_atom_site_label
_atom_site_fract_x
_atom_site_fract_y
_atom_site_fract_z
Si Si1 0.715462 0.403252 0.815418
Si Si2 0.892022 0.930064 0.237382
Si Si3 0.712929 0.767386 0.219065
Si Si4 0.950167 0.447822 0.194133
Si Si5 0.295598 0.038093 0.217954
Si Si6 0.652168 0.247857 0.788520
Si Si7 0.779065 0.613467 0.847615
Si Si8 0.429714 0.921206 0.680208
O O1 0.703396 0.321766 0.834502
O O2 0.000000 0.500000 0.500000
O O3 0.822394 0.456374 0.879499
O O4 0.384539 0.359472 0.004679
O O5 0.758438 0.828640 0.299314
O O6 0.623559 0.907148 0.497217
O O7 0.158531 0.980887 0.172660
O O8 0.000000 0.000000 0.000000
O O9 0.411996 0.645672 0.483220
O O10 0.620358 0.791624 0.132358
O O11 0.052254 0.816610 0.962368
O O12 0.059242 0.397280 0.137776
O O13 0.000000 0.500000 0.000000
O O14 0.449078 0.032800 0.252319
O O15 0.547616 0.156652 0.971309
O O16 0.000000 0.000000 0.500000
O O17 0.958936 0.310650 0.470626
O O18 0.500000 0.500000 0.000000
O O19 0.500000 0.000000 0.500000
#
# Coordination Sequence:
#
# PCOD9037707 Si02
#       8
#     2   2   2   2   2   2   2   2
#     4  11  20  41  67  89 122 167 211 255 314 374
#     4  11  21  42  65  88 128 162 202 261 316 365
#     4  11  22  40  63  90 125 162 205 258 314 367
#     4  10  23  41  60  92 132 160 207 266 305 370
#     4  10  23  42  63  93 126 162 211 259 307 380
#     4  11  21  40  66  91 123 165 208 260 314 375
#     4   9  19  37  65  89 122 161 205 252 312 367
#     4  11  23  41  64  91 126 165 209 258 311 374
#
# _framework density 20.355498000000001
#
# number of rings (size 3 to 8) (size 9 to 14) (size 15 to 20)
#    0.000    1.500    6.250    0.750    0.000    6.500 
#    0.000    0.625    0.000    0.000    0.000    0.000 
#    0.000    0.000    0.000    0.000    0.000    0.000 
#
# Total GULP energy -89254.978195 kJ/mol
# GULP energy per Si atom -5578.436137 kJ/mol
# Density = 2.030917 g / cm^3
# Si number density = 20.355498 Si / 1000 Ang^3
#
#
#
# Elastic Constant Matrix: (Units=GPa)
#
#
# Indices 1 2 3 4 5 6 
#
# 1 113.7115 26.8211 61.8813 4.6857 14.5312 21.1915
# 2 26.8211 90.0778 13.2196 5.4893 1.2612 4.3924
# 3 61.8813 13.2196 96.7546 8.5676 -11.5781 -11.8823
# 4 4.6857 5.4893 8.5676 33.6311 -3.8308 -3.5590
# 5 14.5312 1.2612 -11.5781 -3.8308 44.6327 4.5464
# 6 21.1915 4.3924 -11.8823 -3.5590 4.5464 31.5004
#
#
#
# Elastic Compliance Matrix: (Units=1/GPa)
#
#
# Indices 1 2 3 4 5 6 
#
# 1 0.027401 -0.003562 -0.021321 -0.001760 -0.012012 -0.024444
# 2 -0.003562 0.012064 0.000965 -0.001538 0.000858 0.000780
# 3 -0.021321 0.000965 0.028136 -0.000569 0.011816 0.023053
# 4 -0.001760 -0.001538 -0.000569 0.031140 0.002702 0.004312
# 5 -0.012012 0.000858 0.011816 0.002702 0.028715 0.008580
# 6 -0.024444 0.000780 0.023053 0.004312 0.008580 0.056026
#
#
# Mechanical properties :
#
#
# Convention : Reuss Voigt Hill
#
# Bulk Modulus (GPa) = 50.60136 56.04312 53.32224
# Shear Modulus (GPa) = 21.01664 35.19430 28.10547
#
# Velocity S-wave (km/s) = 3.21671 4.16261 3.71985
# Velocity P-wave (km/s) = 6.22166 7.12005 6.68596
#
# Compressibility (1/GPa) = 0.01976232
#
# Stress axis : x y z
#
# Youngs Moduli (GPa) = 36.49565 82.88930 35.54213
#
# Poissons Ratio (x) = 0.29526 0.75781
# Poissons Ratio (y) = 0.13000 -0.03428
# Poissons Ratio (z) = 0.77814 -0.07995
#
# Static dielectric constant tensor:
#      x y z
#    x 1.687470 -0.080200 -0.048690 
#    y -0.080200 1.640810 -0.003480 
#    z -0.048690 -0.003480 1.709150 
# 
# From -- ./inp_files/223579.got.cif
#   From: 2010.05.17/outbox.cif.g08.bks.cpg/sg2_112_cif.got.tgz:223579.got - 2010.06.03 11:33:40.
