data_PCOD9037013
_publ_section_title
;
Structure prediction by ZEFSAII (Michael W. Deem and Ramdas Pophale) SiO2 
 PCOD9037013
Probable space group: P -1
;
_chemical_formula_sum "Si O2"
_cell_formula_units_Z 16
_cell_length_a 11.595153
_cell_length_b 11.600204
_cell_length_c 17.716654
_cell_angle_alpha 60.904298
_cell_angle_beta 20.721603
_cell_angle_gamma 63.719629
_cell_volume 736.210028
_symmetry_space_group_name_H-M "P -1"
_symmetry_group_IT_number 2
_symmetry_cell_setting 'triclinic'
loop_
_space_group_symop_operation_xyz
x,y,z
-x,-y,-z
loop_
_atom_site_type_symbol
_atom_site_label
_atom_site_fract_x
_atom_site_fract_y
_atom_site_fract_z
Si Si1 0.946220 0.027242 0.914153
Si Si2 0.759523 0.910773 0.911584
Si Si3 0.891623 0.463217 0.686796
Si Si4 0.924515 0.257216 0.350452
Si Si5 0.811876 0.788274 0.176735
Si Si6 0.845720 0.455452 0.893325
Si Si7 0.813455 0.290038 0.649791
Si Si8 0.225872 0.127900 0.342823
O O1 0.593341 0.084478 0.133388
O O2 0.972332 0.890822 0.986917
O O3 0.196195 0.134196 0.762758
O O4 0.934391 0.993453 0.844438
O O5 0.002272 0.852038 0.721383
O O6 0.532776 0.788201 0.121183
O O7 0.500000 0.000000 0.000000
O O8 0.928343 0.431480 0.762168
O O9 0.879480 0.335939 0.680593
O O10 0.153539 0.573706 0.461260
O O11 0.540926 0.528976 0.869442
O O12 0.559383 0.243703 0.608828
O O13 0.991965 0.402563 0.230871
O O14 0.173564 0.232567 0.274330
O O15 0.015185 0.659556 0.105425
O O16 0.082750 0.192773 0.484311
O O17 0.000000 0.000000 0.500000
#
# Coordination Sequence:
#
# PCOD9037013 Si02
#       8
#     2   2   2   2   2   2   2   2
#     4  11  25  45  67  99 131 178 219 272 327 405
#     4  12  24  40  70 101 132 169 226 278 318 388
#     4  10  23  39  68  99 129 168 224 281 317 387
#     4  12  23  43  67 100 126 176 220 275 330 390
#     4  11  26  44  66  94 138 178 217 264 346 394
#     4  11  23  44  68  94 135 175 220 274 331 394
#     4  11  21  38  62 105 128 159 218 284 325 369
#     4  12  20  40  71  93 128 170 223 269 325 388
#
# _framework density 21.732928999999999
#
# number of rings (size 3 to 8) (size 9 to 14) (size 15 to 20)
#    0.000    0.750    6.250    1.125    3.500    0.500 
#    0.000    5.625    0.000    0.000    0.000    0.000 
#    0.000    0.000    0.000    0.000    0.000    0.000 
#
# Total GULP energy -89550.043967 kJ/mol
# GULP energy per Si atom -5596.877748 kJ/mol
# Density = 2.168346 g / cm^3
# Si number density = 21.732929 Si / 1000 Ang^3
#
#
#
# Elastic Constant Matrix: (Units=GPa)
#
#
# Indices 1 2 3 4 5 6 
#
# 1 83.3745 29.8678 -9.4573 24.4024 10.6488 8.4182
# 2 29.8678 111.7005 1.0517 11.8697 0.6286 -9.1548
# 3 -9.4573 1.0517 35.6291 5.6762 0.8107 -3.1425
# 4 24.4024 11.8697 5.6762 39.5391 13.6497 3.0776
# 5 10.6488 0.6286 0.8107 13.6497 26.4260 8.4276
# 6 8.4182 -9.1548 -3.1425 3.0776 8.4276 48.1096
#
#
#
# Elastic Compliance Matrix: (Units=1/GPa)
#
#
# Indices 1 2 3 4 5 6 
#
# 1 0.017345 -0.003854 0.006084 -0.009806 -0.001212 -0.002531
# 2 -0.003854 0.010310 -0.000951 -0.001172 0.001162 0.002446
# 3 0.006084 -0.000951 0.031113 -0.008188 0.000453 0.001231
# 4 -0.009806 -0.001172 -0.008188 0.038278 -0.015957 0.001305
# 5 -0.001212 0.001162 0.000453 -0.015957 0.048783 -0.007062
# 6 -0.002531 0.002446 0.001231 0.001305 -0.007062 0.022928
#
#
# Mechanical properties :
#
#
# Convention : Reuss Voigt Hill
#
# Bulk Modulus (GPa) = 16.30607 30.40316 23.35461
# Shear Modulus (GPa) = 26.78933 36.76439 31.77686
#
# Velocity S-wave (km/s) = 3.51474 4.11742 3.82796
# Velocity P-wave (km/s) = 4.89800 6.05178 5.50520
#
# Compressibility (1/GPa) = 0.06132686
#
# Stress axis : x y z
#
# Youngs Moduli (GPa) = 57.65234 96.98977 32.14102
#
# Poissons Ratio (x) = 0.37379 -0.19556
# Poissons Ratio (y) = 0.22219 0.03058
# Poissons Ratio (z) = -0.35078 0.09228
#
# Static dielectric constant tensor:
#      x y z
#    x 1.806580 0.014430 0.024630 
#    y 0.014430 1.809230 -0.037720 
#    z 0.024630 -0.037720 1.785380 
# 
# From -- ./inp_files/218855.got.cif
#   From: 2010.05.17/outbox.cif.g08.bks.cpg/sg2_110_cif.got.tgz:218855.got - 2010.06.03 11:33:40.
