data_PCOD9037614
_publ_section_title
;
Structure prediction by ZEFSAII (Michael W. Deem and Ramdas Pophale) SiO2 
 PCOD9037614
Probable space group: P -1
;
_chemical_formula_sum "Si O2"
_cell_formula_units_Z 16
_cell_length_a 15.181491
_cell_length_b 11.468099
_cell_length_c 9.712870
_cell_angle_alpha 106.062731
_cell_angle_beta 66.117470
_cell_angle_gamma 151.953969
_cell_volume 714.115449
_symmetry_space_group_name_H-M "P -1"
_symmetry_group_IT_number 2
_symmetry_cell_setting 'triclinic'
loop_
_space_group_symop_operation_xyz
x,y,z
-x,-y,-z
loop_
_atom_site_type_symbol
_atom_site_label
_atom_site_fract_x
_atom_site_fract_y
_atom_site_fract_z
Si Si1 0.805452 0.119740 0.965515
Si Si2 0.475207 0.592127 0.138233
Si Si3 0.773762 0.473780 0.808059
Si Si4 0.233937 0.660525 0.961233
Si Si5 0.990487 0.171550 0.625017
Si Si6 0.655037 0.613883 0.547451
Si Si7 0.533964 0.000371 0.637108
Si Si8 0.093355 0.735985 0.524669
O O1 0.890274 0.115342 0.805240
O O2 0.997110 0.378704 0.010461
O O3 0.728945 0.159602 0.954886
O O4 0.644010 0.875758 0.082199
O O5 0.272943 0.441334 0.178369
O O6 0.464984 0.550943 0.291556
O O7 0.500000 0.500000 0.000000
O O8 0.651308 0.241774 0.715673
O O9 0.006605 0.702076 0.705348
O O10 0.706161 0.370199 0.971644
O O11 0.340497 0.766538 0.780331
O O12 0.999705 0.290419 0.549125
O O13 0.205642 0.346766 0.571496
O O14 0.827450 0.900468 0.574055
O O15 0.500000 0.500000 0.500000
O O16 0.671537 0.031152 0.560130
O O17 0.500000 0.000000 0.500000
O O18 0.000000 0.500000 0.500000
#
# Coordination Sequence:
#
# PCOD9037614 Si02
#       8
#     2   2   2   2   2   2   2   2
#     4  11  25  44  74 101 149 184 238 298 365 439
#     4  12  25  48  74 102 139 193 245 299 362 426
#     4  11  24  44  68 103 148 186 238 298 355 438
#     4  11  26  44  69 109 145 189 233 290 375 441
#     4  11  24  48  72 108 144 192 242 310 360 439
#     4  11  27  49  76 103 140 194 256 306 363 423
#     4  11  25  40  69 107 146 190 237 285 367 447
#     4  10  23  40  70 103 145 182 229 292 369 428
#
# _framework density 22.405341
#
# number of rings (size 3 to 8) (size 9 to 14) (size 15 to 20)
#    0.000    1.000    3.750    1.875    8.750    4.000 
#    0.000    1.250    0.000    0.000    0.000    0.000 
#    0.000    0.000    0.000    0.000    0.000    0.000 
#
# Total GULP energy -89427.154104 kJ/mol
# GULP energy per Si atom -5589.197132 kJ/mol
# Density = 2.235434 g / cm^3
# Si number density = 22.405341 Si / 1000 Ang^3
#
#
#
# Elastic Constant Matrix: (Units=GPa)
#
#
# Indices 1 2 3 4 5 6 
#
# 1 165.0170 16.7727 70.3353 -5.2813 -1.8717 3.1316
# 2 16.7727 50.7216 3.8601 -13.8256 -6.8719 -4.2297
# 3 70.3353 3.8601 137.6466 -21.4892 -0.3578 5.4958
# 4 -5.2813 -13.8256 -21.4892 31.5988 3.7125 0.6343
# 5 -1.8717 -6.8719 -0.3578 3.7125 51.6173 -4.6151
# 6 3.1316 -4.2297 5.4958 0.6343 -4.6151 30.1766
#
#
#
# Elastic Compliance Matrix: (Units=1/GPa)
#
#
# Indices 1 2 3 4 5 6 
#
# 1 0.008266 -0.003281 -0.004613 -0.003186 0.000024 -0.000407
# 2 -0.003281 0.024390 0.002667 0.011560 0.002622 0.003431
# 3 -0.004613 0.002667 0.010823 0.007833 -0.000421 -0.001348
# 4 -0.003186 0.011560 0.007833 0.041696 -0.001574 -0.000593
# 5 0.000024 0.002622 -0.000421 -0.001574 0.020152 0.003557
# 6 -0.000407 0.003431 -0.001348 -0.000593 0.003557 0.034463
#
#
# Mechanical properties :
#
#
# Convention : Reuss Voigt Hill
#
# Bulk Modulus (GPa) = 30.28018 59.48017 44.88017
# Shear Modulus (GPa) = 31.00768 40.17301 35.59035
#
# Velocity S-wave (km/s) = 3.72417 4.23899 3.98989
# Velocity P-wave (km/s) = 5.66009 7.11081 6.42652
#
# Compressibility (1/GPa) = 0.03302491
#
# Stress axis : x y z
#
# Youngs Moduli (GPa) = 120.98382 41.00052 92.39850
#
# Poissons Ratio (x) = 0.13454 0.42620
# Poissons Ratio (y) = 0.39699 -0.24645
# Poissons Ratio (z) = 0.55805 -0.10936
#
# Static dielectric constant tensor:
#      x y z
#    x 1.871520 0.032350 -0.014400 
#    y 0.032350 1.875810 -0.021640 
#    z -0.014400 -0.021640 1.849350 
# 
# From -- ./inp_files/307689.got.cif
#   From: 2010.05.17/outbox.cif.g08.bks.cpg/sg2_154_cif.got.tgz:307689.got - 2010.06.03 11:33:40.
