data_PCOD9037381
_publ_section_title
;
Structure prediction by ZEFSAII (Michael W. Deem and Ramdas Pophale) SiO2 
 PCOD9037381
Probable space group: P -1
;
_chemical_formula_sum "Si O2"
_cell_formula_units_Z 14
_cell_length_a 20.663010
_cell_length_b 8.384910
_cell_length_c 7.855271
_cell_angle_alpha 57.705942
_cell_angle_beta 122.716902
_cell_angle_gamma 148.392249
_cell_volume 591.629943
_symmetry_space_group_name_H-M "P -1"
_symmetry_group_IT_number 2
_symmetry_cell_setting 'triclinic'
loop_
_space_group_symop_operation_xyz
x,y,z
-x,-y,-z
loop_
_atom_site_type_symbol
_atom_site_label
_atom_site_fract_x
_atom_site_fract_y
_atom_site_fract_z
Si Si1 0.751340 0.651609 0.957701
Si Si2 0.848103 0.467283 0.038398
Si Si3 0.493369 0.273159 0.682411
Si Si4 0.941521 0.365743 0.803235
Si Si5 0.360879 0.685524 0.655806
Si Si6 0.110280 0.324888 0.378851
Si Si7 0.569126 0.828594 0.950905
O O1 0.814739 0.573589 0.054081
O O2 0.630925 0.445019 0.782026
O O3 0.837504 0.001367 0.857321
O O4 0.699192 0.540321 0.138493
O O5 0.918736 0.700279 0.846134
O O6 0.940144 0.481042 0.226014
O O7 0.719037 0.128935 0.970808
O O8 0.500000 0.500000 0.500000
O O9 0.448201 0.170643 0.872190
O O10 0.400944 0.969892 0.611659
O O11 0.884954 0.463120 0.639659
O O12 0.000000 0.500000 0.000000
O O13 0.243918 0.477751 0.483516
O O14 0.490742 0.826730 0.728506
O O15 0.000000 0.000000 0.500000
O O16 0.500000 0.500000 0.000000
#
# Coordination Sequence:
#
# PCOD9037381 Si02
#       7
#     2   2   2   2   2   2   2
#     4  11  21  44  66  93 125 173 211 262 319 380
#     4  11  23  44  65  94 129 168 218 257 318 382
#     4  11  23  41  65  94 133 165 210 262 322 380
#     4  10  23  40  66  89 124 171 214 257 318 372
#     4  11  22  43  65  92 134 165 211 261 321 380
#     4  11  26  43  64  95 130 168 214 265 319 372
#     4  11  25  40  67  99 127 171 211 259 321 378
#
# _framework density 23.663440999999999
#
# number of rings (size 3 to 8) (size 9 to 14) (size 15 to 20)
#    0.000    1.143    2.857    3.857   12.000    1.714 
#    0.000    1.429    0.000    0.000    0.000    0.000 
#    0.000    0.000    0.000    0.000    0.000    0.000 
#
# Total GULP energy -78303.178831 kJ/mol
# GULP energy per Si atom -5593.084202 kJ/mol
# Density = 2.360958 g / cm^3
# Si number density = 23.663441 Si / 1000 Ang^3
#
#
#
# Elastic Constant Matrix: (Units=GPa)
#
#
# Indices 1 2 3 4 5 6 
#
# 1 70.5081 12.7445 3.9219 -5.4861 13.1592 8.0278
# 2 12.7445 135.4939 6.7762 -15.3009 9.6557 2.4340
# 3 3.9219 6.7762 64.5619 1.4616 18.2490 10.9655
# 4 -5.4861 -15.3009 1.4616 34.0386 -0.9924 8.6510
# 5 13.1592 9.6557 18.2490 -0.9924 36.1763 -1.1889
# 6 8.0278 2.4340 10.9655 8.6510 -1.1889 38.2635
#
#
#
# Elastic Compliance Matrix: (Units=1/GPa)
#
#
# Indices 1 2 3 4 5 6 
#
# 1 0.016255 -0.000685 0.001709 0.003265 -0.006660 -0.004802
# 2 -0.000685 0.008025 -0.000189 0.003764 -0.001734 -0.001218
# 3 0.001709 -0.000189 0.019470 0.000674 -0.010585 -0.006407
# 4 0.003265 0.003764 0.000674 0.033751 -0.001896 -0.008807
# 5 -0.006660 -0.001734 -0.010585 -0.001896 0.036016 0.006089
# 6 -0.004802 -0.001218 -0.006407 -0.008807 0.006089 0.031236
#
#
# Mechanical properties :
#
#
# Convention : Reuss Voigt Hill
#
# Bulk Modulus (GPa) = 22.01679 35.27211 28.64445
# Shear Modulus (GPa) = 31.60108 38.17042 34.88575
#
# Velocity S-wave (km/s) = 3.65833 4.02064 3.84376
# Velocity P-wave (km/s) = 5.21237 6.04088 5.64185
#
# Compressibility (1/GPa) = 0.04541987
#
# Stress axis : x y z
#
# Youngs Moduli (GPa) = 61.51849 124.61416 51.36121
#
# Poissons Ratio (x) = 0.08534 -0.08776
# Poissons Ratio (y) = 0.04213 0.00970
# Poissons Ratio (z) = -0.10511 0.02353
#
# Static dielectric constant tensor:
#      x y z
#    x 1.980740 0.056530 0.041080 
#    y 0.056530 1.887520 0.025450 
#    z 0.041080 0.025450 1.929680 
# 
# From -- ./inp_files/171822.got.cif
#   From: 2010.05.17/outbox.cif.g08.bks.cpg/sg2_86_cif.got.tgz:171822.got - 2010.06.03 11:33:40.
