data_PCOD9037399
_publ_section_title
;
Structure prediction by ZEFSAII (Michael W. Deem and Ramdas Pophale) SiO2 
 PCOD9037399
Probable space group: P -1
;
_chemical_formula_sum "Si O2"
_cell_formula_units_Z 14
_cell_length_a 8.738032
_cell_length_b 14.470343
_cell_length_c 14.562982
_cell_angle_alpha 152.050682
_cell_angle_beta 101.931195
_cell_angle_gamma 59.540945
_cell_volume 596.992969
_symmetry_space_group_name_H-M "P -1"
_symmetry_group_IT_number 2
_symmetry_cell_setting 'triclinic'
loop_
_space_group_symop_operation_xyz
x,y,z
-x,-y,-z
loop_
_atom_site_type_symbol
_atom_site_label
_atom_site_fract_x
_atom_site_fract_y
_atom_site_fract_z
Si Si1 0.295868 0.100823 0.933059
Si Si2 0.699161 0.563792 0.394600
Si Si3 0.825017 0.055358 0.657013
Si Si4 0.637437 0.596189 0.198686
Si Si5 0.960458 0.392449 0.548005
Si Si6 0.247769 0.752098 0.723707
Si Si7 0.975633 0.587423 0.176294
O O1 0.513110 0.829619 0.670656
O O2 0.193896 0.010114 0.898620
O O3 0.274083 0.308925 0.180998
O O4 0.144151 0.317107 0.022403
O O5 0.625649 0.598965 0.310496
O O6 0.753756 0.302219 0.216765
O O7 0.894748 0.549494 0.411205
O O8 0.995555 0.804913 0.384963
O O9 0.891939 0.851400 0.571000
O O10 0.592185 0.241353 0.738316
O O11 0.810005 0.282240 0.901239
O O12 0.737686 0.718146 0.292880
O O13 0.900693 0.285719 0.372240
O O14 0.500000 0.500000 0.500000
O O15 0.000000 0.500000 0.000000
#
# Coordination Sequence:
#
# PCOD9037399 Si02
#       7
#     2   2   2   2   2   2   2
#     4  10  23  44  65  99 136 175 221 278 331 393
#     4  11  23  43  71  99 134 181 222 277 334 394
#     4  10  23  40  66  95 133 173 219 271 328 401
#     4  11  22  43  63  99 136 173 222 270 331 402
#     4  11  23  44  68 101 132 177 228 275 335 399
#     4  10  24  46  67  99 137 175 227 278 332 401
#     4  11  22  39  66  94 135 176 216 274 330 392
#
# _framework density 23.450862999999998
#
# number of rings (size 3 to 8) (size 9 to 14) (size 15 to 20)
#    0.000    1.429    2.857    2.571    2.000    3.429 
#    7.714    2.857    0.000    0.000    0.000    0.000 
#    0.000    0.000    0.000    0.000    0.000    0.000 
#
# Total GULP energy -78078.319387 kJ/mol
# GULP energy per Si atom -5577.022813 kJ/mol
# Density = 2.339749 g / cm^3
# Si number density = 23.450863 Si / 1000 Ang^3
#
#
#
# Elastic Constant Matrix: (Units=GPa)
#
#
# Indices 1 2 3 4 5 6 
#
# 1 56.9805 33.5581 33.7555 -1.7907 12.4940 3.7985
# 2 33.5581 110.9424 38.1465 -6.3972 5.7494 16.1916
# 3 33.7555 38.1465 159.0126 -1.2851 21.2403 11.4058
# 4 -1.7907 -6.3972 -1.2851 37.7755 4.2602 0.1097
# 5 12.4940 5.7494 21.2403 4.2602 31.7716 5.3880
# 6 3.7985 16.1916 11.4058 0.1097 5.3880 33.8665
#
#
#
# Elastic Compliance Matrix: (Units=1/GPa)
#
#
# Indices 1 2 3 4 5 6 
#
# 1 0.024390 -0.006323 -0.002887 0.000772 -0.007023 0.002374
# 2 -0.006323 0.012132 -0.001457 0.001506 0.001896 -0.004907
# 3 -0.002887 -0.001457 0.007821 0.000302 -0.003696 -0.001026
# 4 0.000772 0.001506 0.000302 0.027269 -0.004384 -0.000299
# 5 -0.007023 0.001896 -0.003696 -0.004384 0.037778 -0.004870
# 6 0.002374 -0.004907 -0.001026 -0.000299 -0.004870 0.032729
#
#
# Mechanical properties :
#
#
# Convention : Reuss Voigt Hill
#
# Bulk Modulus (GPa) = 43.46091 59.76175 51.61133
# Shear Modulus (GPa) = 29.21883 35.44773 32.33328
#
# Velocity S-wave (km/s) = 3.53364 3.89212 3.71720
# Velocity P-wave (km/s) = 5.93480 6.76293 6.36235
#
# Compressibility (1/GPa) = 0.02300918
#
# Stress axis : x y z
#
# Youngs Moduli (GPa) = 41.00087 82.42617 127.86163
#
# Poissons Ratio (x) = 0.52118 0.36908
# Poissons Ratio (y) = 0.25925 0.18633
# Poissons Ratio (z) = 0.11835 0.12012
#
# Static dielectric constant tensor:
#      x y z
#    x 1.846550 0.006960 -0.041560 
#    y 0.006960 1.901500 0.034380 
#    z -0.041560 0.034380 2.063240 
# 
# From -- ./inp_files/504677.got.cif
#   From: 2010.05.17/outbox.cif.g08.bks.cpg/sg2_253_cif.got.tgz:504677.got - 2010.06.03 11:33:40.
