data_PCOD9037589
_publ_section_title
;
Structure prediction by ZEFSAII (Michael W. Deem and Ramdas Pophale) SiO2 
 PCOD9037589
Probable space group: P -1
;
_chemical_formula_sum "Si O2"
_cell_formula_units_Z 14
_cell_length_a 14.887064
_cell_length_b 15.672730
_cell_length_c 6.282991
_cell_angle_alpha 80.367187
_cell_angle_beta 72.813146
_cell_angle_gamma 26.409559
_cell_volume 606.361063
_symmetry_space_group_name_H-M "P -1"
_symmetry_group_IT_number 2
_symmetry_cell_setting 'triclinic'
loop_
_space_group_symop_operation_xyz
x,y,z
-x,-y,-z
loop_
_atom_site_type_symbol
_atom_site_label
_atom_site_fract_x
_atom_site_fract_y
_atom_site_fract_z
Si Si1 0.391054 0.539097 0.868484
Si Si2 0.192401 0.782656 0.537598
Si Si3 0.726829 0.544469 0.817288
Si Si4 0.979059 0.786081 0.563270
Si Si5 0.416344 0.888285 0.583645
Si Si6 0.247592 0.133289 0.975052
Si Si7 0.688416 0.728760 0.085282
O O1 0.217852 0.742682 0.786709
O O2 0.584180 0.363868 0.640011
O O3 0.500000 0.500000 0.000000
O O4 0.299968 0.523515 0.013854
O O5 0.144718 0.727042 0.498101
O O6 0.000000 0.000000 0.500000
O O7 0.912440 0.377439 0.585959
O O8 0.510719 0.744542 0.752073
O O9 0.772392 0.583612 0.934224
O O10 0.767402 0.992655 0.497841
O O11 0.916021 0.797603 0.828993
O O12 0.615192 0.755292 0.356254
O O13 0.312052 0.052057 0.726463
O O14 0.187351 0.283446 0.979921
O O15 0.462190 0.940937 0.043662
#
# Coordination Sequence:
#
# PCOD9037589 Si02
#       7
#     2   2   2   2   2   2   2
#     4  11  26  47  68  99 136 174 223 278 336 405
#     4  11  28  44  72  98 132 176 225 278 337 403
#     4  11  25  41  67  98 137 176 219 275 335 394
#     4  11  25  41  65 102 135 168 226 277 328 404
#     4  10  23  40  69  94 134 178 221 274 334 386
#     4   9  20  40  64  98 133 174 225 274 324 395
#     4   9  20  40  66  94 134 179 222 268 333 394
#
# _framework density 23.088554999999999
#
# number of rings (size 3 to 8) (size 9 to 14) (size 15 to 20)
#    0.000    1.714    1.429    0.429   12.000    2.286 
#    0.000    1.429    0.000    0.000    0.000    0.000 
#    0.000    0.000    0.000    0.000    0.000    0.000 
#
# Total GULP energy -78294.951219 kJ/mol
# GULP energy per Si atom -5592.496516 kJ/mol
# Density = 2.303600 g / cm^3
# Si number density = 23.088555 Si / 1000 Ang^3
#
#
#
# Elastic Constant Matrix: (Units=GPa)
#
#
# Indices 1 2 3 4 5 6 
#
# 1 65.2528 25.8881 31.2262 -15.0395 5.4090 -1.5332
# 2 25.8881 104.0248 17.6588 -24.3700 19.8650 -3.7414
# 3 31.2262 17.6588 91.1487 -6.0084 16.6594 8.2335
# 4 -15.0395 -24.3700 -6.0084 42.0495 -6.0923 13.4722
# 5 5.4090 19.8650 16.6594 -6.0923 22.7936 7.6515
# 6 -1.5332 -3.7414 8.2335 13.4722 7.6515 31.9879
#
#
#
# Elastic Compliance Matrix: (Units=1/GPa)
#
#
# Indices 1 2 3 4 5 6 
#
# 1 0.020944 -0.003812 -0.006933 0.005445 0.005283 -0.001214
# 2 -0.003812 0.013645 0.000794 0.004418 -0.011056 0.001993
# 3 -0.006933 0.000794 0.015057 -0.000832 -0.009797 -0.001421
# 4 0.005445 0.004418 -0.000832 0.034802 0.010172 -0.016099
# 5 0.005283 -0.011056 -0.009797 0.010172 0.068580 -0.019207
# 6 -0.001214 0.001993 -0.001421 -0.016099 -0.019207 0.043177
#
#
# Mechanical properties :
#
#
# Convention : Reuss Voigt Hill
#
# Bulk Modulus (GPa) = 33.62134 45.55252 39.58693
# Shear Modulus (GPa) = 22.12184 31.74308 26.93246
#
# Velocity S-wave (km/s) = 3.09873 3.71191 3.41909
# Velocity P-wave (km/s) = 5.23415 6.17603 5.72449
#
# Compressibility (1/GPa) = 0.02974302
#
# Stress axis : x y z
#
# Youngs Moduli (GPa) = 47.74653 73.28809 66.41609
#
# Poissons Ratio (x) = 0.27938 0.46049
# Poissons Ratio (y) = 0.18201 -0.05276
# Poissons Ratio (z) = 0.33105 -0.05822
#
# Static dielectric constant tensor:
#      x y z
#    x 1.819980 -0.019340 0.025160 
#    y -0.019340 1.909820 -0.021960 
#    z 0.025160 -0.021960 1.876310 
# 
# From -- ./inp_files/97869.got.cif
#   From: 2010.05.17/outbox.cif.g08.bks.cpg/sg2_49_cif.got.tgz:97869.got - 2010.06.03 11:33:40.
