data_PCOD9037177
_publ_section_title
;
Structure prediction by ZEFSAII (Michael W. Deem and Ramdas Pophale) SiO2 
 PCOD9037177
Probable space group: P -1
;
_chemical_formula_sum "Si O2"
_cell_formula_units_Z 14
_cell_length_a 11.644045
_cell_length_b 8.927121
_cell_length_c 7.900206
_cell_angle_alpha 49.952467
_cell_angle_beta 106.872942
_cell_angle_gamma 115.413357
_cell_volume 567.695317
_symmetry_space_group_name_H-M "P -1"
_symmetry_group_IT_number 2
_symmetry_cell_setting 'triclinic'
loop_
_space_group_symop_operation_xyz
x,y,z
-x,-y,-z
loop_
_atom_site_type_symbol
_atom_site_label
_atom_site_fract_x
_atom_site_fract_y
_atom_site_fract_z
Si Si1 0.664838 0.677216 0.280485
Si Si2 0.856426 0.440844 0.556411
Si Si3 0.941626 0.869039 0.809615
Si Si4 0.195884 0.563004 0.061365
Si Si5 0.430054 0.399366 0.218251
Si Si6 0.805981 0.997497 0.339277
Si Si7 0.726515 0.964700 0.796821
O O1 0.782157 0.594453 0.355794
O O2 0.541287 0.477518 0.346168
O O3 0.690385 0.796963 0.382837
O O4 0.657900 0.854620 0.017160
O O5 0.847055 0.443553 0.756133
O O6 0.000000 0.500000 0.500000
O O7 0.770212 0.210324 0.631534
O O8 0.908188 0.624718 0.943199
O O9 0.859238 0.915727 0.887183
O O10 0.090854 0.972318 0.790063
O O11 0.881197 0.957147 0.561506
O O12 0.323015 0.503048 0.138798
O O13 0.218082 0.785771 0.826015
O O14 0.359895 0.159950 0.305833
O O15 0.500000 0.500000 0.000000
#
# Coordination Sequence:
#
# PCOD9037177 Si02
#       7
#     2   2   2   2   2   2   2
#     4  11  23  44  68  95 137 176 221 278 326 393
#     4  12  26  40  68 106 134 171 230 267 333 409
#     4  10  23  40  62  98 135 171 222 268 334 401
#     4  11  23  44  66  97 134 178 219 273 333 394
#     4   9  23  47  69  95 130 176 231 274 327 394
#     4  11  22  39  66  97 132 176 217 274 334 394
#     4  10  23  44  66  96 136 174 220 277 333 385
#
# _framework density 24.661114999999999
#
# number of rings (size 3 to 8) (size 9 to 14) (size 15 to 20)
#    0.000    1.429    2.857    1.286    4.000    6.286 
#    0.000    0.000    0.000    0.000    0.000    0.000 
#    0.000    0.000    0.000    0.000    0.000    0.000 
#
# Total GULP energy -78306.452464 kJ/mol
# GULP energy per Si atom -5593.318033 kJ/mol
# Density = 2.460498 g / cm^3
# Si number density = 24.661115 Si / 1000 Ang^3
#
#
#
# Elastic Constant Matrix: (Units=GPa)
#
#
# Indices 1 2 3 4 5 6 
#
# 1 102.1337 37.7064 20.6717 -2.4601 -4.9234 10.7102
# 2 37.7064 161.0819 58.5158 -35.5416 15.1684 2.3538
# 3 20.6717 58.5158 101.5363 -20.2657 10.3230 -6.7784
# 4 -2.4601 -35.5416 -20.2657 50.1639 -3.1554 -4.5423
# 5 -4.9234 15.1684 10.3230 -3.1554 30.7457 3.7211
# 6 10.7102 2.3538 -6.7784 -4.5423 3.7211 42.3832
#
#
#
# Elastic Compliance Matrix: (Units=1/GPa)
#
#
# Indices 1 2 3 4 5 6 
#
# 1 0.011785 -0.002941 -0.001841 -0.002324 0.004168 -0.003724
# 2 -0.002941 0.009631 -0.003544 0.005068 -0.003573 0.000498
# 3 -0.001841 -0.003544 0.013396 0.002920 -0.003155 0.003394
# 4 -0.002324 0.005068 0.002920 0.024806 -0.001741 0.003584
# 5 0.004168 -0.003573 -0.003155 -0.001741 0.036410 -0.004743
# 6 -0.003724 0.000498 0.003394 0.003584 -0.004743 0.025851
#
#
# Mechanical properties :
#
#
# Convention : Reuss Voigt Hill
#
# Bulk Modulus (GPa) = 55.06215 66.50441 60.78328
# Shear Modulus (GPa) = 34.58216 41.18243 37.88229
#
# Velocity S-wave (km/s) = 3.74879 4.09092 3.92358
# Velocity P-wave (km/s) = 6.41201 7.02424 6.72510
#
# Compressibility (1/GPa) = 0.01816130
#
# Stress axis : x y z
#
# Youngs Moduli (GPa) = 84.85463 103.82946 74.65019
#
# Poissons Ratio (x) = 0.30535 0.13741
# Poissons Ratio (y) = 0.24955 0.26453
# Poissons Ratio (z) = 0.15620 0.36793
#
# Static dielectric constant tensor:
#      x y z
#    x 1.999000 0.006100 -0.073510 
#    y 0.006100 1.972260 0.041750 
#    z -0.073510 0.041750 1.997600 
# 
# From -- ./inp_files/225785.got.cif
#   From: 2010.05.17/outbox.cif.g08.bks.cpg/sg2_113_cif.got.tgz:225785.got - 2010.06.03 11:33:40.
