data_PCOD9037218
_publ_section_title
;
Structure prediction by ZEFSAII (Michael W. Deem and Ramdas Pophale) SiO2 
 PCOD9037218
Probable space group: P -1
;
_chemical_formula_sum "Si O2"
_cell_formula_units_Z 16
_cell_length_a 11.859290
_cell_length_b 31.208455
_cell_length_c 25.138300
_cell_angle_alpha 9.116733
_cell_angle_beta 26.538445
_cell_angle_gamma 25.025839
_cell_volume 623.616056
_symmetry_space_group_name_H-M "P -1"
_symmetry_group_IT_number 2
_symmetry_cell_setting 'triclinic'
loop_
_space_group_symop_operation_xyz
x,y,z
-x,-y,-z
loop_
_atom_site_type_symbol
_atom_site_label
_atom_site_fract_x
_atom_site_fract_y
_atom_site_fract_z
Si Si1 0.808493 0.175721 0.649322
Si Si2 0.448652 0.775491 0.106401
Si Si3 0.496777 0.392359 0.193399
Si Si4 0.872384 0.803411 0.346877
Si Si5 0.149311 0.323012 0.238666
Si Si6 0.337420 0.204532 0.193443
Si Si7 0.746795 0.394567 0.738332
Si Si8 0.494214 0.034561 0.039109
O O1 0.643300 0.518492 0.305398
O O2 0.721474 0.919115 0.972970
O O3 0.055370 0.178926 0.505132
O O4 0.758656 0.091498 0.834561
O O5 0.176187 0.705699 0.319919
O O6 0.340537 0.096827 0.733937
O O7 0.578193 0.805508 0.071333
O O8 0.211584 0.405197 0.322540
O O9 0.633247 0.054685 0.541050
O O10 0.500000 0.500000 0.000000
O O11 0.658099 0.518895 0.011327
O O12 0.810856 0.123159 0.005304
O O13 0.283786 0.130574 0.367154
O O14 0.896450 0.542767 0.045480
O O15 0.609632 0.287039 0.977064
O O16 0.532613 0.699902 0.440029
O O17 0.000000 0.500000 0.500000
#
# Coordination Sequence:
#
# PCOD9037218 Si02
#       8
#     2   2   2   2   2   2   2   2
#     4  11  24  42  61  98 131 161 213 263 322 388
#     4  11  22  40  66  93 126 165 208 267 318 378
#     4  11  26  45  64  96 135 174 213 273 328 385
#     4  10  23  40  63  95 127 161 220 256 316 390
#     4  11  24  45  70  91 132 179 220 268 316 390
#     4  10  24  45  69  99 126 173 233 259 320 393
#     4  11  20  41  68  96 128 164 208 276 319 378
#     4  11  23  39  64  97 128 163 206 265 332 375
#
# _framework density 25.656811999999999
#
# number of rings (size 3 to 8) (size 9 to 14) (size 15 to 20)
#    0.000    1.250    3.750    1.500    3.500    1.500 
#    4.500    0.000    0.000    0.000    0.000    0.000 
#    0.000    0.000    0.000    0.000    0.000    0.000 
#
# Total GULP energy -89262.980805 kJ/mol
# GULP energy per Si atom -5578.936300 kJ/mol
# Density = 2.559842 g / cm^3
# Si number density = 25.656812 Si / 1000 Ang^3
#
#
#
# Elastic Constant Matrix: (Units=GPa)
#
#
# Indices 1 2 3 4 5 6 
#
# 1 87.5954 20.2880 9.6305 1.4464 -28.0324 21.3715
# 2 20.2880 78.4748 4.0735 17.0616 -23.3222 20.6146
# 3 9.6305 4.0735 64.0929 19.2445 -21.9901 4.5831
# 4 1.4464 17.0616 19.2445 45.2495 9.1474 -0.0421
# 5 -28.0324 -23.3222 -21.9901 9.1474 27.7689 1.6272
# 6 21.3715 20.6146 4.5831 -0.0421 1.6272 30.7391
#
#
#
# Elastic Compliance Matrix: (Units=1/GPa)
#
#
# Indices 1 2 3 4 5 6 
#
# 1 0.003988 -0.016772 -0.016747 0.019493 -0.030483 0.012613
# 2 -0.016772 -0.005822 -0.020932 0.021070 -0.046579 0.021181
# 3 -0.016747 -0.020932 -0.004264 0.019566 -0.045994 0.028778
# 4 0.019493 0.021070 0.019566 -0.006328 0.056923 -0.033622
# 5 -0.030483 -0.046579 -0.045994 0.056923 -0.092821 0.064280
# 6 0.012613 0.021181 0.028778 -0.033622 0.064280 0.001819
#
#
# Mechanical properties :
#
#
# Convention : Reuss Voigt Hill
#
# Bulk Modulus (GPa) = -8.69561 33.12744 12.21592
# Shear Modulus (GPa) = -152.15348 33.82956 -59.16196
#
# Velocity S-wave (km/s) = -7.70922 3.63511 -4.80718
# Velocity P-wave (km/s) = 9.09062 5.52797 5.10298
#
# Compressibility (1/GPa) = -0.11500062
#
# Stress axis : x y z
#
# Youngs Moduli (GPa) = 250.77668 -171.75075 -234.50798
#
# Poissons Ratio (x) = -2.88063 -3.92721
# Poissons Ratio (y) = 4.20607 -4.90873
# Poissons Ratio (z) = 4.19965 -3.59509
#
# Static dielectric constant tensor:
#      x y z
#    x 2.247780 -0.129630 0.126120 
#    y -0.129630 2.095790 -0.024000 
#    z 0.126120 -0.024000 2.018610 
# 
# From -- ./inp_files/611043.got.cif
#   From: 2010.05.17/outbox.cif.g08.bks.cpg/sg2_306_cif.got.tgz:611043.got - 2010.06.03 11:33:40.
