data_PCOD9037160
_publ_section_title
;
Structure prediction by ZEFSAII (Michael W. Deem and Ramdas Pophale) SiO2 
 PCOD9037160
Probable space group: P -1
;
_chemical_formula_sum "Si O2"
_cell_formula_units_Z 14
_cell_length_a 20.272352
_cell_length_b 4.906848
_cell_length_c 21.515197
_cell_angle_alpha 121.906694
_cell_angle_beta 160.708750
_cell_angle_gamma 53.019011
_cell_volume 558.543028
_symmetry_space_group_name_H-M "P -1"
_symmetry_group_IT_number 2
_symmetry_cell_setting 'triclinic'
loop_
_space_group_symop_operation_xyz
x,y,z
-x,-y,-z
loop_
_atom_site_type_symbol
_atom_site_label
_atom_site_fract_x
_atom_site_fract_y
_atom_site_fract_z
Si Si1 0.333703 0.143021 0.925066
Si Si2 0.867779 0.575057 0.039258
Si Si3 0.201418 0.599572 0.423847
Si Si4 0.830995 0.417666 0.796854
Si Si5 0.356766 0.819981 0.290093
Si Si6 0.464031 0.762520 0.121045
Si Si7 0.136428 0.386568 0.468972
O O1 0.092234 0.301283 0.702668
O O2 0.383017 0.465749 0.034984
O O3 0.500000 0.000000 0.000000
O O4 0.387042 0.864425 0.994096
O O5 0.009124 0.480471 0.215868
O O6 0.031469 0.688492 0.155896
O O7 0.796518 0.291118 0.907231
O O8 0.652757 0.896870 0.901091
O O9 0.407867 0.452128 0.545806
O O10 0.265788 0.442650 0.530801
O O11 0.116179 0.013846 0.400667
O O12 0.739484 0.185091 0.727865
O O13 0.648731 0.797324 0.677274
O O14 0.000000 0.500000 0.000000
O O15 0.718237 0.632662 0.343681
#
# Coordination Sequence:
#
# PCOD9037160 Si02
#       7
#     2   2   2   2   2   2   2
#     4  12  27  49  75 109 142 173 224 283 344 419
#     4  11  23  42  69  96 131 184 232 278 341 401
#     4  12  25  40  70  99 136 180 234 290 330 405
#     4  10  23  40  62  93 135 180 228 289 346 392
#     4  11  24  42  62  95 136 180 231 289 342 394
#     4  12  26  45  76 103 138 189 224 275 349 406
#     4  12  25  46  69 107 139 176 232 280 340 413
#
# _framework density 25.065214999999998
#
# number of rings (size 3 to 8) (size 9 to 14) (size 15 to 20)
#    0.000    0.571    4.286    3.857    2.000    6.857 
#    0.000    0.000    0.000    0.000    0.000    0.000 
#    0.000    0.000    0.000    0.000    0.000    0.000 
#
# Total GULP energy -78407.793886 kJ/mol
# GULP energy per Si atom -5600.556706 kJ/mol
# Density = 2.500817 g / cm^3
# Si number density = 25.065215 Si / 1000 Ang^3
#
#
#
# Elastic Constant Matrix: (Units=GPa)
#
#
# Indices 1 2 3 4 5 6 
#
# 1 71.2379 3.0429 14.1461 -22.6606 6.1245 -6.8122
# 2 3.0429 50.3523 9.1675 -10.5963 -4.2856 9.3869
# 3 14.1461 9.1675 194.0087 -15.8285 2.1442 -5.9288
# 4 -22.6606 -10.5963 -15.8285 28.8434 0.9866 4.5015
# 5 6.1245 -4.2856 2.1442 0.9866 29.5706 -13.2403
# 6 -6.8122 9.3869 -5.9288 4.5015 -13.2403 27.3334
#
#
#
# Elastic Compliance Matrix: (Units=1/GPa)
#
#
# Indices 1 2 3 4 5 6 
#
# 1 0.019468 0.002023 -0.000164 0.016229 -0.004622 -0.000790
# 2 0.002023 0.024222 -0.000630 0.011928 -0.002171 -0.010967
# 3 -0.000164 -0.000630 0.005427 0.002486 -0.000142 0.000874
# 4 0.016229 0.011928 0.002486 0.055578 -0.009637 -0.013333
# 5 -0.004622 -0.002171 -0.000142 -0.009637 0.045085 0.022989
# 6 -0.000790 -0.010967 0.000874 -0.013333 0.022989 0.053676
#
#
# Mechanical properties :
#
#
# Convention : Reuss Voigt Hill
#
# Bulk Modulus (GPa) = 19.38935 40.92356 30.15645
# Shear Modulus (GPa) = 22.91566 36.43230 29.67398
#
# Velocity S-wave (km/s) = 3.02692 3.81662 3.44448
# Velocity P-wave (km/s) = 4.46864 5.98200 5.27982
#
# Compressibility (1/GPa) = 0.05157472
#
# Stress axis : x y z
#
# Youngs Moduli (GPa) = 51.36632 41.28408 184.25398
#
# Poissons Ratio (x) = -0.08350 0.03023
# Poissons Ratio (y) = -0.10389 0.11609
# Poissons Ratio (z) = 0.00843 0.02601
#
# Static dielectric constant tensor:
#      x y z
#    x 2.022530 -0.002730 -0.051050 
#    y -0.002730 1.942060 -0.029290 
#    z -0.051050 -0.029290 2.064830 
# 
# From -- ./inp_files/600823.got.cif
#   From: 2010.05.17/outbox.cif.g08.bks.cpg/sg2_301_cif.got.tgz:600823.got - 2010.06.03 11:33:40.
