data_PCOD9037091
_publ_section_title
;
Structure prediction by ZEFSAII (Michael W. Deem and Ramdas Pophale) SiO2 
 PCOD9037091
Probable space group: P -1
;
_chemical_formula_sum "Si O2"
_cell_formula_units_Z 16
_cell_length_a 8.279692
_cell_length_b 15.739569
_cell_length_c 15.564445
_cell_angle_alpha 155.059385
_cell_angle_beta 84.165088
_cell_angle_gamma 81.419209
_cell_volume 695.895027
_symmetry_space_group_name_H-M "P -1"
_symmetry_group_IT_number 2
_symmetry_cell_setting 'triclinic'
loop_
_space_group_symop_operation_xyz
x,y,z
-x,-y,-z
loop_
_atom_site_type_symbol
_atom_site_label
_atom_site_fract_x
_atom_site_fract_y
_atom_site_fract_z
Si Si1 0.206631 0.074397 0.910277
Si Si2 0.258559 0.975999 0.319860
Si Si3 0.418108 0.904596 0.067384
Si Si4 0.645901 0.617323 0.301988
Si Si5 0.867187 0.538234 0.460556
Si Si6 0.956374 0.891586 0.235760
Si Si7 0.367575 0.896849 0.425531
Si Si8 0.485313 0.447000 0.561372
O O1 0.384677 0.103438 0.943560
O O2 0.294865 0.801143 0.691228
O O3 0.168067 0.064402 0.802623
O O4 0.011419 0.310178 0.179673
O O5 0.377064 0.834112 0.097500
O O6 0.295893 0.187926 0.518541
O O7 0.334195 0.830607 0.272542
O O8 0.031313 0.068624 0.403735
O O9 0.230852 0.182948 0.312538
O O10 0.452611 0.706081 0.814352
O O11 0.475557 0.702808 0.318784
O O12 0.581646 0.598964 0.384037
O O13 0.840334 0.369846 0.030426
O O14 0.673144 0.535391 0.479595
O O15 0.000000 0.500000 0.500000
O O16 0.844180 0.902393 0.336777
O O17 0.500000 0.000000 0.500000
#
# Coordination Sequence:
#
# PCOD9037091 Si02
#       8
#     2   2   2   2   2   2   2   2
#     4  11  22  42  69  96 129 178 220 263 334 390
#     4  11  21  39  63  91 131 171 225 273 324 382
#     4  11  23  43  68  99 133 178 219 271 331 394
#     4  11  21  42  60  89 129 172 218 277 320 387
#     4  11  25  46  70  99 136 169 215 275 331 402
#     4  12  22  39  65  91 128 180 222 270 329 381
#     4  10  23  40  59  91 133 173 227 277 318 375
#     4  11  22  43  67  97 134 169 221 269 325 399
#
# _framework density 22.991970999999999
#
# number of rings (size 3 to 8) (size 9 to 14) (size 15 to 20)
#    0.000    1.000    6.250    1.125    0.000    8.000 
#    0.000    2.500    0.000    0.000    0.000    0.000 
#    0.000    0.000    0.000    0.000    0.000    0.000 
#
# Total GULP energy -89418.995093 kJ/mol
# GULP energy per Si atom -5588.687193 kJ/mol
# Density = 2.293964 g / cm^3
# Si number density = 22.991971 Si / 1000 Ang^3
#
#
#
# Elastic Constant Matrix: (Units=GPa)
#
#
# Indices 1 2 3 4 5 6 
#
# 1 69.7194 19.0545 33.7314 0.4954 16.5720 -25.3729
# 2 19.0545 116.9268 40.9279 -12.6489 6.2865 -24.6502
# 3 33.7314 40.9279 146.5246 -4.9347 -2.6456 -4.7231
# 4 0.4954 -12.6489 -4.9347 30.1180 -4.5700 -2.3463
# 5 16.5720 6.2865 -2.6456 -4.5700 42.2186 -5.3803
# 6 -25.3729 -24.6502 -4.7231 -2.3463 -5.3803 40.7032
#
#
#
# Elastic Compliance Matrix: (Units=1/GPa)
#
#
# Indices 1 2 3 4 5 6 
#
# 1 0.023611 0.001332 -0.005542 -0.000904 -0.008159 0.013751
# 2 0.001332 0.011626 -0.003163 0.004793 -0.000958 0.007654
# 3 -0.005542 -0.003163 0.008917 0.000331 0.002737 -0.003955
# 4 -0.000904 0.004793 0.000331 0.036319 0.004234 0.005031
# 5 -0.008159 -0.000958 0.002737 0.004234 0.027474 -0.001473
# 6 0.013751 0.007654 -0.003955 0.005031 -0.001473 0.037412
#
#
# Mechanical properties :
#
#
# Convention : Reuss Voigt Hill
#
# Bulk Modulus (GPa) = 34.00469 57.84428 45.92448
# Shear Modulus (GPa) = 29.42777 38.57177 33.99977
#
# Velocity S-wave (km/s) = 3.58147 4.10032 3.84965
# Velocity P-wave (km/s) = 5.65018 6.90144 6.30692
#
# Compressibility (1/GPa) = 0.02940771
#
# Stress axis : x y z
#
# Youngs Moduli (GPa) = 42.35391 86.01308 112.14189
#
# Poissons Ratio (x) = -0.11458 0.62149
# Poissons Ratio (y) = -0.05642 0.35474
# Poissons Ratio (z) = 0.23472 0.27208
#
# Static dielectric constant tensor:
#      x y z
#    x 1.905390 0.023770 0.045020 
#    y 0.023770 1.914520 0.030480 
#    z 0.045020 0.030480 1.886980 
# 
# From -- ./inp_files/505801.got.cif
#   From: 2010.05.17/outbox.cif.g08.bks.cpg/sg2_253_cif.got.tgz:505801.got - 2010.06.03 11:33:40.
