data_PCOD9037888
_publ_section_title
;
Structure prediction by ZEFSAII (Michael W. Deem and Ramdas Pophale) SiO2 
 PCOD9037888
Probable space group: P -1
;
_chemical_formula_sum "Si O2"
_cell_formula_units_Z 14
_cell_length_a 13.482640
_cell_length_b 10.759483
_cell_length_c 14.920118
_cell_angle_alpha 116.811960
_cell_angle_beta 150.767060
_cell_angle_gamma 43.485474
_cell_volume 611.397177
_symmetry_space_group_name_H-M "P -1"
_symmetry_group_IT_number 2
_symmetry_cell_setting 'triclinic'
loop_
_space_group_symop_operation_xyz
x,y,z
-x,-y,-z
loop_
_atom_site_type_symbol
_atom_site_label
_atom_site_fract_x
_atom_site_fract_y
_atom_site_fract_z
Si Si1 0.539870 0.039395 0.445546
Si Si2 0.074578 0.521338 0.212000
Si Si3 0.812477 0.430493 0.501851
Si Si4 0.315007 0.879090 0.154888
Si Si5 0.375124 0.426797 0.244751
Si Si6 0.244230 0.753387 0.876172
Si Si7 0.045263 0.058890 0.463122
O O1 0.363044 0.019510 0.238160
O O2 0.902967 0.861633 0.651738
O O3 0.500000 0.000000 0.500000
O O4 0.378444 0.272755 0.396233
O O5 0.980348 0.634580 0.269751
O O6 0.179220 0.564035 0.224893
O O7 0.834393 0.538578 0.984244
O O8 0.616030 0.651922 0.367794
O O9 0.553535 0.463054 0.353731
O O10 0.009419 0.238015 0.522593
O O11 0.291076 0.832145 0.020970
O O12 0.000000 0.000000 0.000000
O O13 0.627172 0.175021 0.387922
O O14 0.220218 0.833042 0.784760
O O15 0.500000 0.500000 0.000000
O O16 0.000000 0.000000 0.500000
#
# Coordination Sequence:
#
# PCOD9037888 Si02
#       7
#     2   2   2   2   2   2   2
#     4  12  24  42  69 101 140 173 227 282 333 415
#     4  11  22  41  66  95 130 170 226 279 331 390
#     4  11  22  41  66  92 131 174 222 271 337 400
#     4  12  24  41  70 102 135 183 224 278 351 404
#     4  10  23  41  64  93 130 174 224 279 328 397
#     4  12  25  46  70 100 140 184 226 286 344 400
#     4  10  23  46  66  95 136 175 226 278 335 411
#
# _framework density 22.898371999999998
#
# number of rings (size 3 to 8) (size 9 to 14) (size 15 to 20)
#    0.000    0.857    5.714    1.286    0.000    1.143 
#   10.286    0.000    0.000    0.000    0.000    0.000 
#    0.000    0.000    0.000    0.000    0.000    0.000 
#
# Total GULP energy -78266.609840 kJ/mol
# GULP energy per Si atom -5590.472131 kJ/mol
# Density = 2.284625 g / cm^3
# Si number density = 22.898372 Si / 1000 Ang^3
#
#
#
# Elastic Constant Matrix: (Units=GPa)
#
#
# Indices 1 2 3 4 5 6 
#
# 1 59.3720 -1.3539 14.8987 15.0189 -32.6089 -3.2429
# 2 -1.3539 72.3579 12.4055 11.0274 -16.9323 -15.6313
# 3 14.8987 12.4055 93.6438 13.7755 -30.5437 -9.0905
# 4 15.0189 11.0274 13.7755 50.0140 -7.2359 -12.4639
# 5 -32.6089 -16.9323 -30.5437 -7.2359 48.7667 18.5190
# 6 -3.2429 -15.6313 -9.0905 -12.4639 18.5190 27.6929
#
#
#
# Elastic Compliance Matrix: (Units=1/GPa)
#
#
# Indices 1 2 3 4 5 6 
#
# 1 0.038646 0.006054 0.005242 -0.014413 0.037372 -0.021816
# 2 0.006054 0.017095 0.000386 -0.003679 0.008480 0.003158
# 3 0.005242 0.000386 0.014658 -0.005190 0.014467 -0.006367
# 4 -0.014413 -0.003679 -0.005190 0.028807 -0.017075 0.018915
# 5 0.037372 0.008480 0.014467 -0.017075 0.070508 -0.040923
# 6 -0.021816 0.003158 -0.006367 0.018915 -0.040923 0.069128
#
#
# Mechanical properties :
#
#
# Convention : Reuss Voigt Hill
#
# Bulk Modulus (GPa) = 10.66544 30.80825 20.73685
# Shear Modulus (GPa) = 20.26488 38.58962 29.42725
#
# Velocity S-wave (km/s) = 2.97811 4.10964 3.58875
# Velocity P-wave (km/s) = 4.06120 6.00020 5.12327
#
# Compressibility (1/GPa) = 0.09376079
#
# Stress axis : x y z
#
# Youngs Moduli (GPa) = 25.87590 58.49799 68.22277
#
# Poissons Ratio (x) = -0.35413 -0.35759
# Poissons Ratio (y) = -0.15664 -0.02633
# Poissons Ratio (z) = -0.13563 -0.02258
#
# Static dielectric constant tensor:
#      x y z
#    x 1.949970 -0.015620 -0.022010 
#    y -0.015620 1.883270 0.005870 
#    z -0.022010 0.005870 1.851500 
# 
# From -- ./inp_files/109536.got.cif
#   From: 2010.05.17/outbox.cif.g08.bks.cpg/sg2_55_cif.got.tgz:109536.got - 2010.06.03 11:33:40.
