data_PCOD9037120
_publ_section_title
;
Structure prediction by ZEFSAII (Michael W. Deem and Ramdas Pophale) SiO2 
 PCOD9037120
Probable space group: P -1
;
_chemical_formula_sum "Si O2"
_cell_formula_units_Z 16
_cell_length_a 9.024170
_cell_length_b 21.719469
_cell_length_c 21.457934
_cell_angle_alpha 160.902823
_cell_angle_beta 39.577406
_cell_angle_gamma 131.317904
_cell_volume 828.560954
_symmetry_space_group_name_H-M "P -1"
_symmetry_group_IT_number 2
_symmetry_cell_setting 'triclinic'
loop_
_space_group_symop_operation_xyz
x,y,z
-x,-y,-z
loop_
_atom_site_type_symbol
_atom_site_label
_atom_site_fract_x
_atom_site_fract_y
_atom_site_fract_z
Si Si1 0.419984 0.430900 0.695529
Si Si2 0.816808 0.242810 0.489097
Si Si3 0.468532 0.417283 0.998605
Si Si4 0.062122 0.833628 0.226445
Si Si5 0.030924 0.246722 0.689482
Si Si6 0.113849 0.170881 0.860171
Si Si7 0.414831 0.505820 0.629638
Si Si8 0.357696 0.234527 0.277148
O O1 0.621974 0.295586 0.546680
O O2 0.174470 0.371281 0.726739
O O3 0.499962 0.417319 0.585281
O O4 0.323443 0.662672 0.967833
O O5 0.706785 0.406481 0.734530
O O6 0.071449 0.260659 0.399067
O O7 0.859750 0.026797 0.298344
O O8 0.500000 0.500000 0.000000
O O9 0.344797 0.246070 0.867948
O O10 0.738148 0.339539 0.866717
O O11 0.916829 0.769978 0.269338
O O12 0.922104 0.864668 0.235687
O O13 0.101834 0.032122 0.428986
O O14 0.866317 0.346424 0.129595
O O15 0.425787 0.332089 0.411062
O O16 0.569246 0.640669 0.682020
O O17 0.500000 0.000000 0.000000
#
# Coordination Sequence:
#
# PCOD9037120 Si02
#       8
#     2   2   2   2   2   2   2   2
#     4  11  25  42  65  95 133 174 217 265 322 387
#     4  12  26  41  66 101 132 169 219 275 321 386
#     4  12  25  40  63  97 137 176 222 268 314 379
#     4  10  23  40  61  88 129 181 217 258 314 378
#     4  11  24  40  61  91 136 182 215 263 316 380
#     4  11  24  40  66  98 126 171 224 265 319 388
#     4  10  23  44  71  94 124 167 215 268 330 402
#     4  11  23  46  73  97 125 164 214 275 340 383
#
# _framework density 19.310589
#
# number of rings (size 3 to 8) (size 9 to 14) (size 15 to 20)
#    0.000    1.000    3.750    2.625    7.000    1.500 
#    0.000    0.625    0.000    0.000    0.000    0.000 
#    0.000    0.000    0.000    0.000    0.000    0.000 
#
# Total GULP energy -89478.233037 kJ/mol
# GULP energy per Si atom -5592.389565 kJ/mol
# Density = 1.926664 g / cm^3
# Si number density = 19.310589 Si / 1000 Ang^3
#
#
#
# Elastic Constant Matrix: (Units=GPa)
#
#
# Indices 1 2 3 4 5 6 
#
# 1 106.3773 73.0792 42.8077 1.1774 -2.1053 -18.5534
# 2 73.0792 141.5987 41.7762 -7.6446 5.2342 3.7901
# 3 42.8077 41.7762 93.6264 3.9245 8.0290 -10.7043
# 4 1.1774 -7.6446 3.9245 29.1170 -0.6942 2.0488
# 5 -2.1053 5.2342 8.0290 -0.6942 30.9217 -5.1200
# 6 -18.5534 3.7901 -10.7043 2.0488 -5.1200 33.0323
#
#
#
# Elastic Compliance Matrix: (Units=1/GPa)
#
#
# Indices 1 2 3 4 5 6 
#
# 1 0.020095 -0.010049 -0.003643 -0.003691 0.005988 0.012416
# 2 -0.010049 0.013579 -0.002358 0.004823 -0.003727 -0.008843
# 3 -0.003643 -0.002358 0.014059 -0.002614 -0.003152 0.002454
# 4 -0.003691 0.004823 -0.002614 0.036509 -0.000533 -0.005821
# 5 0.005988 -0.003727 -0.003152 -0.000533 0.035562 0.008315
# 6 0.012416 -0.008843 0.002454 -0.005821 0.008315 0.040707
#
#
# Mechanical properties :
#
#
# Convention : Reuss Voigt Hill
#
# Bulk Modulus (GPa) = 63.96887 72.99207 68.48047
# Shear Modulus (GPa) = 25.27525 30.87682 28.07603
#
# Velocity S-wave (km/s) = 3.62177 4.00304 3.81717
# Velocity P-wave (km/s) = 7.11954 7.69719 7.41399
#
# Compressibility (1/GPa) = 0.01563260
#
# Stress axis : x y z
#
# Youngs Moduli (GPa) = 49.76344 73.64266 71.12879
#
# Poissons Ratio (x) = 0.74005 0.25913
# Poissons Ratio (y) = 0.50008 0.16772
# Poissons Ratio (z) = 0.18130 0.17365
#
# Static dielectric constant tensor:
#      x y z
#    x 1.678170 -0.014200 -0.005340 
#    y -0.014200 1.663670 0.009680 
#    z -0.005340 0.009680 1.676240 
# 
# From -- ./inp_files/216840.got.cif
#   From: 2010.05.17/outbox.cif.g08.bks.cpg/sg2_109_cif.got.tgz:216840.got - 2010.06.03 11:33:40.
