data_PCOD9037961
_publ_section_title
;
Structure prediction by ZEFSAII (Michael W. Deem and Ramdas Pophale) SiO2 
 PCOD9037961
Probable space group: P -1
;
_chemical_formula_sum "Si O2"
_cell_formula_units_Z 14
_cell_length_a 8.231431
_cell_length_b 11.547301
_cell_length_c 6.610505
_cell_angle_alpha 107.890127
_cell_angle_beta 87.168858
_cell_angle_gamma 79.997161
_cell_volume 585.312938
_symmetry_space_group_name_H-M "P -1"
_symmetry_group_IT_number 2
_symmetry_cell_setting 'triclinic'
loop_
_space_group_symop_operation_xyz
x,y,z
-x,-y,-z
loop_
_atom_site_type_symbol
_atom_site_label
_atom_site_fract_x
_atom_site_fract_y
_atom_site_fract_z
Si Si1 0.958646 0.864722 0.910447
Si Si2 0.891610 0.662634 0.058203
Si Si3 0.619632 0.956732 0.773715
Si Si4 0.298381 0.680228 0.660107
Si Si5 0.429689 0.819782 0.388011
Si Si6 0.439850 0.381020 0.040893
Si Si7 0.124169 0.487840 0.669384
O O1 0.795656 0.877253 0.788516
O O2 0.125770 0.772218 0.779200
O O3 0.900179 0.803429 0.083543
O O4 0.000000 0.000000 0.000000
O O5 0.755941 0.606074 0.904973
O O6 0.866710 0.639619 0.283034
O O7 0.062042 0.581943 0.911624
O O8 0.520483 0.883513 0.589662
O O9 0.656594 0.072900 0.702141
O O10 0.500000 0.000000 0.000000
O O11 0.330948 0.730717 0.466242
O O12 0.279521 0.536845 0.596418
O O13 0.444814 0.677874 0.812291
O O14 0.545655 0.725821 0.185473
O O15 0.500000 0.500000 0.000000
O O16 0.000000 0.500000 0.500000
#
# Coordination Sequence:
#
# PCOD9037961 Si02
#       7
#     2   2   2   2   2   2   2
#     4  11  23  42  72  98 138 180 222 288 350 410
#     4  10  23  43  64  94 134 178 227 283 342 398
#     4  11  24  48  72 105 139 181 234 286 353 418
#     4  11  25  43  63 105 134 176 237 281 343 417
#     4  11  25  42  73 101 139 183 232 292 348 415
#     4  12  25  44  70  99 141 190 235 288 343 413
#     4  10  23  41  65  92 132 178 223 281 343 407
#
# _framework density 23.91883
#
# number of rings (size 3 to 8) (size 9 to 14) (size 15 to 20)
#    0.000    1.143    1.429    4.286    2.000    6.857 
#    0.000    2.857    0.000    0.000    0.000    0.000 
#    0.000    0.000    0.000    0.000    0.000    0.000 
#
# Total GULP energy -78178.436432 kJ/mol
# GULP energy per Si atom -5584.174031 kJ/mol
# Density = 2.386439 g / cm^3
# Si number density = 23.918830 Si / 1000 Ang^3
#
#
#
# Elastic Constant Matrix: (Units=GPa)
#
#
# Indices 1 2 3 4 5 6 
#
# 1 75.9410 13.2110 22.9503 -27.1610 0.9668 -11.4093
# 2 13.2110 136.9790 42.5362 -54.3246 -6.9114 17.2810
# 3 22.9503 42.5362 103.4751 -26.3626 7.2749 -4.0003
# 4 -27.1610 -54.3246 -26.3626 58.8987 2.6658 -5.8511
# 5 0.9668 -6.9114 7.2749 2.6658 25.6003 -8.0518
# 6 -11.4093 17.2810 -4.0003 -5.8511 -8.0518 51.2093
#
#
#
# Elastic Compliance Matrix: (Units=1/GPa)
#
#
# Indices 1 2 3 4 5 6 
#
# 1 0.017495 0.002348 -0.002313 0.009570 0.000944 0.004167
# 2 0.002348 0.012971 -0.003253 0.011239 0.002397 -0.002447
# 3 -0.002313 -0.003253 0.012286 0.001727 -0.004119 0.001092
# 4 0.009570 0.011239 0.001727 0.032768 -0.000560 0.002130
# 5 0.000944 0.002397 -0.004119 -0.000560 0.042705 0.005730
# 6 0.004167 -0.002447 0.001092 0.002130 0.005730 0.022511
#
#
# Mechanical properties :
#
#
# Convention : Reuss Voigt Hill
#
# Bulk Modulus (GPa) = 27.53496 52.64333 40.08915
# Shear Modulus (GPa) = 31.39195 42.98817 37.19006
#
# Velocity S-wave (km/s) = 3.62669 4.24400 3.94743
# Velocity P-wave (km/s) = 5.39203 6.78766 6.12969
#
# Compressibility (1/GPa) = 0.03631747
#
# Stress axis : x y z
#
# Youngs Moduli (GPa) = 57.15839 77.09573 81.39284
#
# Poissons Ratio (x) = -0.18103 0.18825
# Poissons Ratio (y) = -0.13421 0.26474
# Poissons Ratio (z) = 0.13220 0.25076
#
# Static dielectric constant tensor:
#      x y z
#    x 1.998700 -0.001010 -0.052200 
#    y -0.001010 2.020460 0.001610 
#    z -0.052200 0.001610 1.944970 
# 
# From -- ./inp_files/28283.got.cif
#   From: 2010.05.17/outbox.cif.g08.bks.cpg/sg2_15_cif.got.tgz:28283.got - 2010.06.03 11:33:40.
