data_PCOD9037179
_publ_section_title
;
Structure prediction by ZEFSAII (Michael W. Deem and Ramdas Pophale) SiO2 
 PCOD9037179
Probable space group: P -1
;
_chemical_formula_sum "Si O2"
_cell_formula_units_Z 14
_cell_length_a 14.238110
_cell_length_b 11.703599
_cell_length_c 9.225920
_cell_angle_alpha 26.557773
_cell_angle_beta 61.682236
_cell_angle_gamma 52.194211
_cell_volume 531.048825
_symmetry_space_group_name_H-M "P -1"
_symmetry_group_IT_number 2
_symmetry_cell_setting 'triclinic'
loop_
_space_group_symop_operation_xyz
x,y,z
-x,-y,-z
loop_
_atom_site_type_symbol
_atom_site_label
_atom_site_fract_x
_atom_site_fract_y
_atom_site_fract_z
Si Si1 0.650515 0.295606 0.848487
Si Si2 0.187518 0.097345 0.387135
Si Si3 0.685014 0.336311 0.454249
Si Si4 0.238839 0.289321 0.429930
Si Si5 0.930905 0.300469 0.372203
Si Si6 0.434968 0.316423 0.108866
Si Si7 0.897199 0.327224 0.683441
O O1 0.621483 0.370486 0.616111
O O2 0.763708 0.345418 0.748557
O O3 0.533120 0.430989 0.887259
O O4 0.691667 0.954133 0.223036
O O5 0.231446 0.111600 0.499373
O O6 0.068589 0.049234 0.532802
O O7 0.291784 0.899480 0.422098
O O8 0.119647 0.432431 0.004498
O O9 0.825277 0.213615 0.539486
O O10 0.616863 0.638137 0.070496
O O11 0.309253 0.458448 0.128943
O O12 0.113689 0.496720 0.363259
O O13 0.921357 0.426474 0.398292
O O14 0.500000 0.000000 0.500000
O O15 0.000000 0.000000 0.000000
#
# Coordination Sequence:
#
# PCOD9037179 Si02
#       7
#     2   2   2   2   2   2   2
#     4  10  24  44  67  97 132 178 220 270 337 384
#     4  11  23  39  68  99 135 179 214 272 338 385
#     4  11  22  43  69  96 134 174 225 268 333 399
#     4  11  24  43  65  99 138 168 225 273 326 396
#     4  10  23  40  62  98 138 169 226 267 330 394
#     4  10  23  45  69  97 134 172 227 280 323 390
#     4  11  25  42  67  97 134 177 222 272 334 395
#
# _framework density 26.362925000000001
#
# number of rings (size 3 to 8) (size 9 to 14) (size 15 to 20)
#    0.000    1.429    1.429    2.571    4.000    7.429 
#    5.143    0.714    0.000    0.000    0.000    0.000 
#    0.000    0.000    0.000    0.000    0.000    0.000 
#
# Total GULP energy -78155.485595 kJ/mol
# GULP energy per Si atom -5582.534685 kJ/mol
# Density = 2.630292 g / cm^3
# Si number density = 26.362925 Si / 1000 Ang^3
#
#
#
# Elastic Constant Matrix: (Units=GPa)
#
#
# Indices 1 2 3 4 5 6 
#
# 1 127.2004 30.3069 17.6756 5.8276 17.5525 -8.4282
# 2 30.3069 109.8545 30.7124 22.8160 14.5697 16.6947
# 3 17.6756 30.7124 102.8151 31.3999 35.2129 13.5061
# 4 5.8276 22.8160 31.3999 49.7917 4.0303 2.9985
# 5 17.5525 14.5697 35.2129 4.0303 39.2959 6.8286
# 6 -8.4282 16.6947 13.5061 2.9985 6.8286 47.3768
#
#
#
# Elastic Compliance Matrix: (Units=1/GPa)
#
#
# Indices 1 2 3 4 5 6 
#
# 1 0.009172 -0.002545 -0.000023 0.000222 -0.003686 0.003052
# 2 -0.002545 0.011671 -0.000777 -0.004214 -0.001388 -0.003877
# 3 -0.000023 -0.000777 0.018299 -0.009858 -0.014705 -0.002203
# 4 0.000222 -0.004214 -0.009858 0.027529 0.007204 0.001554
# 5 -0.003686 -0.001388 -0.014705 0.007204 0.040440 -0.002259
# 6 0.003052 -0.003877 -0.002203 0.001554 -0.002259 0.023872
#
#
# Mechanical properties :
#
#
# Convention : Reuss Voigt Hill
#
# Bulk Modulus (GPa) = 30.81494 55.25106 43.03300
# Shear Modulus (GPa) = 33.67257 44.70455 39.18856
#
# Velocity S-wave (km/s) = 3.57777 4.12240 3.85970
# Velocity P-wave (km/s) = 5.36483 6.60774 6.01846
#
# Compressibility (1/GPa) = 0.03245180
#
# Stress axis : x y z
#
# Youngs Moduli (GPa) = 109.02920 85.68337 54.64907
#
# Poissons Ratio (x) = 0.21806 0.00125
# Poissons Ratio (y) = 0.27748 0.04246
# Poissons Ratio (z) = 0.00249 0.06657
#
# Static dielectric constant tensor:
#      x y z
#    x 2.270890 -0.026690 -0.079620 
#    y -0.026690 2.137470 -0.013140 
#    z -0.079620 -0.013140 2.067740 
# 
# From -- ./inp_files/306058.got.cif
#   From: 2010.05.17/outbox.cif.g08.bks.cpg/sg2_154_cif.got.tgz:306058.got - 2010.06.03 11:33:40.
