data_PCOD9037069
_publ_section_title
;
Structure prediction by ZEFSAII (Michael W. Deem and Ramdas Pophale) SiO2 
 PCOD9037069
Probable space group: P -1
;
_chemical_formula_sum "Si O2"
_cell_formula_units_Z 16
_cell_length_a 8.334397
_cell_length_b 12.744804
_cell_length_c 13.886043
_cell_angle_alpha 32.640247
_cell_angle_beta 106.841482
_cell_angle_gamma 119.041546
_cell_volume 672.989546
_symmetry_space_group_name_H-M "P -1"
_symmetry_group_IT_number 2
_symmetry_cell_setting 'triclinic'
loop_
_space_group_symop_operation_xyz
x,y,z
-x,-y,-z
loop_
_atom_site_type_symbol
_atom_site_label
_atom_site_fract_x
_atom_site_fract_y
_atom_site_fract_z
Si Si1 0.125575 0.186364 0.305307
Si Si2 0.155273 0.071819 0.180914
Si Si3 0.834166 0.261515 0.106767
Si Si4 0.407666 0.243630 0.596561
Si Si5 0.172863 0.621280 0.511214
Si Si6 0.465712 0.606582 0.082735
Si Si7 0.413415 0.681047 0.231971
Si Si8 0.942309 0.278007 0.896419
O O1 0.129529 0.093114 0.273087
O O2 0.333696 0.344995 0.260174
O O3 0.004873 0.317661 0.165959
O O4 0.000000 0.000000 0.500000
O O5 0.191217 0.864317 0.333752
O O6 0.335873 0.298305 0.007065
O O7 0.994067 0.080107 0.077906
O O8 0.724982 0.992895 0.286831
O O9 0.662534 0.310784 0.062487
O O10 0.916414 0.342226 0.951269
O O11 0.622458 0.351280 0.507586
O O12 0.325733 0.416555 0.436684
O O13 0.436731 0.219394 0.733762
O O14 0.000000 0.500000 0.500000
O O15 0.101077 0.474204 0.709226
O O16 0.488098 0.708560 0.114648
O O17 0.257382 0.764649 0.151919
#
# Coordination Sequence:
#
# PCOD9037069 Si02
#       8
#     2   2   2   2   2   2   2   2
#     4  11  25  43  73 100 135 183 235 293 346 406
#     4  11  26  46  69 100 145 184 231 287 351 421
#     4  10  23  41  68  99 135 181 234 280 352 412
#     4  11  22  42  67 103 140 183 232 281 349 415
#     4  12  25  43  67 103 143 186 228 284 346 413
#     4  11  22  45  68  98 141 180 234 286 348 412
#     4  10  23  39  72  99 139 180 232 288 335 414
#     4  10  24  41  66  99 140 182 227 282 342 407
#
# _framework density 23.774514
#
# number of rings (size 3 to 8) (size 9 to 14) (size 15 to 20)
#    0.000    1.250    2.500    2.250    7.000    3.500 
#    0.000    0.625    0.000    0.000    0.000    0.000 
#    0.000    0.000    0.000    0.000    0.000    0.000 
#
# Total GULP energy -89479.938136 kJ/mol
# GULP energy per Si atom -5592.496134 kJ/mol
# Density = 2.372040 g / cm^3
# Si number density = 23.774514 Si / 1000 Ang^3
#
#
#
# Elastic Constant Matrix: (Units=GPa)
#
#
# Indices 1 2 3 4 5 6 
#
# 1 86.0688 16.0013 44.9232 9.4023 -19.3229 6.6194
# 2 16.0013 51.2185 18.3505 1.2058 -15.4992 7.6792
# 3 44.9232 18.3505 124.3301 13.2204 -14.0421 -1.5287
# 4 9.4023 1.2058 13.2204 34.2640 2.1047 5.9804
# 5 -19.3229 -15.4992 -14.0421 2.1047 55.4770 -7.9193
# 6 6.6194 7.6792 -1.5287 5.9804 -7.9193 21.0673
#
#
#
# Elastic Compliance Matrix: (Units=1/GPa)
#
#
# Indices 1 2 3 4 5 6 
#
# 1 0.015670 -0.001650 -0.004839 -0.002102 0.003455 -0.002777
# 2 -0.001650 0.023265 -0.002622 0.001616 0.004196 -0.007033
# 3 -0.004839 -0.002622 0.010746 -0.003614 0.001110 0.004699
# 4 -0.002102 0.001616 -0.003614 0.033298 -0.004053 -0.011166
# 5 0.003455 0.004196 0.001110 -0.004053 0.021809 0.006814
# 6 -0.002777 -0.007033 0.004699 -0.011166 0.006814 0.056975
#
#
# Mechanical properties :
#
#
# Convention : Reuss Voigt Hill
#
# Bulk Modulus (GPa) = 31.78691 46.68527 39.23609
# Shear Modulus (GPa) = 26.25063 34.31783 30.28423
#
# Velocity S-wave (km/s) = 3.32648 3.80343 3.57292
# Velocity P-wave (km/s) = 5.30595 6.24239 5.79312
#
# Compressibility (1/GPa) = 0.03145949
#
# Stress axis : x y z
#
# Youngs Moduli (GPa) = 63.81636 42.98214 93.05890
#
# Poissons Ratio (x) = 0.07094 0.45028
# Poissons Ratio (y) = 0.10532 0.24399
# Poissons Ratio (z) = 0.30878 0.11270
#
# Static dielectric constant tensor:
#      x y z
#    x 1.933200 0.014800 0.041270 
#    y 0.014800 1.993330 -0.131130 
#    z 0.041270 -0.131130 2.055420 
# 
# From -- ./inp_files/505102.got.cif
#   From: 2010.05.17/outbox.cif.g08.bks.cpg/sg2_253_cif.got.tgz:505102.got - 2010.06.03 11:33:40.
