data_PCOD9037710
_publ_section_title
;
Structure prediction by ZEFSAII (Michael W. Deem and Ramdas Pophale) SiO2 
 PCOD9037710
Probable space group: P -1
;
_chemical_formula_sum "Si O2"
_cell_formula_units_Z 16
_cell_length_a 11.735169
_cell_length_b 8.589684
_cell_length_c 10.896516
_cell_angle_alpha 73.130167
_cell_angle_beta 127.034072
_cell_angle_gamma 79.659292
_cell_volume 743.390519
_symmetry_space_group_name_H-M "P -1"
_symmetry_group_IT_number 2
_symmetry_cell_setting 'triclinic'
loop_
_space_group_symop_operation_xyz
x,y,z
-x,-y,-z
loop_
_atom_site_type_symbol
_atom_site_label
_atom_site_fract_x
_atom_site_fract_y
_atom_site_fract_z
Si Si1 0.475304 0.024525 0.664544
Si Si2 0.874860 0.355374 0.962278
Si Si3 0.173121 0.663221 0.778626
Si Si4 0.765925 0.769515 0.753876
Si Si5 0.611592 0.620452 0.225467
Si Si6 0.329985 0.931943 0.831916
Si Si7 0.882205 0.690362 0.440090
Si Si8 0.573327 0.349504 0.687586
O O1 0.329843 0.108907 0.452320
O O2 0.537523 0.177912 0.684257
O O3 0.631182 0.848193 0.753950
O O4 0.406596 0.965448 0.750617
O O5 0.829344 0.389050 0.069631
O O6 0.066577 0.228572 0.107427
O O7 0.824077 0.553186 0.822359
O O8 0.762161 0.280196 0.845014
O O9 0.293655 0.503190 0.800922
O O10 0.232760 0.816989 0.775024
O O11 0.991096 0.730005 0.597211
O O12 0.736114 0.648341 0.388875
O O13 0.515825 0.548826 0.266875
O O14 0.475408 0.814139 0.043323
O O15 0.202082 0.135711 0.744595
O O16 0.000000 0.500000 0.500000
O O17 0.500000 0.500000 0.500000
#
# Coordination Sequence:
#
# PCOD9037710 Si02
#       8
#     2   2   2   2   2   2   2   2
#     4  11  24  42  67  96 134 172 224 265 335 391
#     4  11  23  44  69  95 134 171 224 271 331 386
#     4  11  24  41  68 102 132 172 224 273 334 397
#     4  10  24  43  67  97 130 178 215 275 324 396
#     4  11  24  41  67 100 134 176 217 275 333 393
#     4  12  22  40  67  96 133 172 219 278 321 399
#     4  10  23  41  60  95 136 172 213 268 340 385
#     4  12  25  43  68  95 134 177 220 272 332 397
#
# _framework density 21.523008000000001
#
# number of rings (size 3 to 8) (size 9 to 14) (size 15 to 20)
#    0.000    1.000    3.750    2.625    1.750    0.500 
#    0.000    2.500    0.000    0.000    0.000    0.000 
#    0.000    0.000    0.000    0.000    0.000    0.000 
#
# Total GULP energy -89314.729027 kJ/mol
# GULP energy per Si atom -5582.170564 kJ/mol
# Density = 2.147402 g / cm^3
# Si number density = 21.523008 Si / 1000 Ang^3
#
#
#
# Elastic Constant Matrix: (Units=GPa)
#
#
# Indices 1 2 3 4 5 6 
#
# 1 99.1437 14.1806 67.2520 -1.7746 13.3802 10.7274
# 2 14.1806 47.9619 29.6508 -2.9233 25.4630 14.3917
# 3 67.2520 29.6508 137.7295 0.3195 24.6760 8.1311
# 4 -1.7746 -2.9233 0.3195 32.2075 9.3947 14.8489
# 5 13.3802 25.4630 24.6760 9.3947 53.1921 6.3295
# 6 10.7274 14.3917 8.1311 14.8489 6.3295 37.7787
#
#
#
# Elastic Compliance Matrix: (Units=1/GPa)
#
#
# Indices 1 2 3 4 5 6 
#
# 1 0.015796 0.002963 -0.007702 0.004219 -0.001934 -0.005290
# 2 0.002963 0.039775 -0.005715 0.017715 -0.018038 -0.018705
# 3 -0.007702 -0.005715 0.012274 -0.002012 -0.000984 0.002678
# 4 0.004219 0.017715 -0.002012 0.048156 -0.014251 -0.024053
# 5 -0.001934 -0.018038 -0.000984 -0.014251 0.029916 0.008222
# 6 -0.005290 -0.018705 0.002678 -0.024053 0.008222 0.042598
#
#
# Mechanical properties :
#
#
# Convention : Reuss Voigt Hill
#
# Bulk Modulus (GPa) = 21.30460 56.33355 38.81907
# Shear Modulus (GPa) = 22.21538 36.21912 29.21725
#
# Velocity S-wave (km/s) = 3.21622 4.10666 3.68841
# Velocity P-wave (km/s) = 4.86951 6.97973 6.01784
#
# Compressibility (1/GPa) = 0.04693823
#
# Stress axis : x y z
#
# Youngs Moduli (GPa) = 63.30759 25.14115 81.46978
#
# Poissons Ratio (x) = -0.07448 0.62745
# Poissons Ratio (y) = -0.18756 0.46558
# Poissons Ratio (z) = 0.48757 0.14367
#
# Static dielectric constant tensor:
#      x y z
#    x 1.825940 -0.031880 0.033620 
#    y -0.031880 1.836000 0.024820 
#    z 0.033620 0.024820 1.773110 
# 
# From -- ./inp_files/419207.got.cif
#   From: 2010.05.17/outbox.cif.g08.bks.cpg/sg2_210_cif.got.tgz:419207.got - 2010.06.03 11:33:40.
