data_PCOD9037544
_publ_section_title
;
Structure prediction by ZEFSAII (Michael W. Deem and Ramdas Pophale) SiO2 
 PCOD9037544
Probable space group: P -1
;
_chemical_formula_sum "Si O2"
_cell_formula_units_Z 16
_cell_length_a 20.047023
_cell_length_b 8.872458
_cell_length_c 18.591555
_cell_angle_alpha 42.630516
_cell_angle_beta 21.201994
_cell_angle_gamma 55.528319
_cell_volume 706.220812
_symmetry_space_group_name_H-M "P -1"
_symmetry_group_IT_number 2
_symmetry_cell_setting 'triclinic'
loop_
_space_group_symop_operation_xyz
x,y,z
-x,-y,-z
loop_
_atom_site_type_symbol
_atom_site_label
_atom_site_fract_x
_atom_site_fract_y
_atom_site_fract_z
Si Si1 0.012449 0.449790 0.706125
Si Si2 0.718953 0.639457 0.274536
Si Si3 0.701716 0.000225 0.712932
Si Si4 0.338193 0.873599 0.447095
Si Si5 0.722121 0.010423 0.261542
Si Si6 0.169210 0.402809 0.290197
Si Si7 0.162579 0.074889 0.665168
Si Si8 0.702487 0.150922 0.894358
O O1 0.862504 0.431965 0.797653
O O2 0.140132 0.744137 0.495803
O O3 0.168644 0.344053 0.561963
O O4 0.879501 0.266506 0.969826
O O5 0.500000 0.500000 0.500000
O O6 0.775436 0.420106 0.315204
O O7 0.687730 0.774820 0.328494
O O8 0.927410 0.865730 0.948475
O O9 0.754609 0.062243 0.552606
O O10 0.724134 0.754224 0.792412
O O11 0.458607 0.938017 0.979182
O O12 0.330371 0.042796 0.459987
O O13 0.573155 0.945623 0.158223
O O14 0.500000 0.000000 0.500000
O O15 0.813609 0.989935 0.253577
O O16 0.278248 0.589194 0.182543
O O17 0.931916 0.203554 0.625237
#
# Coordination Sequence:
#
# PCOD9037544 Si02
#       8
#     2   2   2   2   2   2   2   2
#     4  11  25  43  66  96 135 170 220 271 341 393
#     4  11  23  40  67  98 135 172 229 271 323 405
#     4  10  23  44  67  97 136 170 224 276 328 403
#     4  10  23  40  68  96 129 177 220 269 332 391
#     4  11  25  44  64  98 136 177 218 274 332 401
#     4  11  23  43  70  98 131 173 222 282 333 396
#     4  11  24  42  69  94 136 180 215 275 336 392
#     4   9  25  41  68  96 134 165 232 268 335 391
#
# _framework density 22.655802000000001
#
# number of rings (size 3 to 8) (size 9 to 14) (size 15 to 20)
#    0.750    0.750    0.000    4.875    8.750    2.500 
#    0.000    0.000    0.000    0.000    0.000    0.000 
#    0.000    0.000    0.000    0.000    0.000    0.000 
#
# Total GULP energy -89413.037829 kJ/mol
# GULP energy per Si atom -5588.314864 kJ/mol
# Density = 2.260424 g / cm^3
# Si number density = 22.655802 Si / 1000 Ang^3
#
#
#
# Elastic Constant Matrix: (Units=GPa)
#
#
# Indices 1 2 3 4 5 6 
#
# 1 95.0246 7.4619 10.6277 -3.9588 -3.5116 -0.0978
# 2 7.4619 65.9055 -8.2140 -3.2468 1.6209 -9.9289
# 3 10.6277 -8.2140 55.9116 3.9292 -15.8125 10.0760
# 4 -3.9588 -3.2468 3.9292 26.7109 6.5666 -0.2934
# 5 -3.5116 1.6209 -15.8125 6.5666 37.8307 -0.1408
# 6 -0.0978 -9.9289 10.0760 -0.2934 -0.1408 31.1260
#
#
#
# Elastic Compliance Matrix: (Units=1/GPa)
#
#
# Indices 1 2 3 4 5 6 
#
# 1 0.010994 -0.001398 -0.002609 0.001933 -0.000344 0.000450
# 2 -0.001398 0.016332 0.001567 0.001711 -0.000454 0.004712
# 3 -0.002609 0.001567 0.023292 -0.006279 0.010490 -0.007060
# 4 0.001933 0.001711 -0.006279 0.041266 -0.009670 0.002930
# 5 -0.000344 -0.000454 0.010490 -0.009670 0.032471 -0.003486
# 6 0.000450 0.004712 -0.007060 0.002930 -0.003486 0.035929
#
#
# Mechanical properties :
#
#
# Convention : Reuss Voigt Hill
#
# Bulk Modulus (GPa) = 21.86415 26.28811 24.07613
# Shear Modulus (GPa) = 27.71468 32.93123 30.32295
#
# Velocity S-wave (km/s) = 3.50135 3.81667 3.66241
# Velocity P-wave (km/s) = 5.10074 5.57235 5.34175
#
# Compressibility (1/GPa) = 0.04573698
#
# Stress axis : x y z
#
# Youngs Moduli (GPa) = 90.96279 61.22853 42.93354
#
# Poissons Ratio (x) = 0.08563 0.11203
# Poissons Ratio (y) = 0.12721 -0.06730
# Poissons Ratio (z) = 0.23735 -0.09597
#
# Static dielectric constant tensor:
#      x y z
#    x 1.837470 0.010850 0.010850 
#    y 0.010850 1.810370 0.017540 
#    z 0.010850 0.017540 1.861540 
# 
# From -- ./inp_files/601104.got.cif
#   From: 2010.05.17/outbox.cif.g08.bks.cpg/sg2_301_cif.got.tgz:601104.got - 2010.06.03 11:33:40.
