data_PCOD9037100
_publ_section_title
;
Structure prediction by ZEFSAII (Michael W. Deem and Ramdas Pophale) SiO2 
 PCOD9037100
Probable space group: P -1
;
_chemical_formula_sum "Si O2"
_cell_formula_units_Z 16
_cell_length_a 23.305321
_cell_length_b 4.914442
_cell_length_c 4.983379
_cell_angle_alpha 88.352364
_cell_angle_beta 105.110659
_cell_angle_gamma 91.304369
_cell_volume 550.728336
_symmetry_space_group_name_H-M "P -1"
_symmetry_group_IT_number 2
_symmetry_cell_setting 'triclinic'
loop_
_space_group_symop_operation_xyz
x,y,z
-x,-y,-z
loop_
_atom_site_type_symbol
_atom_site_label
_atom_site_fract_x
_atom_site_fract_y
_atom_site_fract_z
Si Si1 0.803530 0.226429 0.251297
Si Si2 0.822075 0.708207 0.675855
Si Si3 0.617265 0.169006 0.909308
Si Si4 0.635883 0.574818 0.414618
Si Si5 0.720252 0.887949 0.847661
Si Si6 0.948583 0.808222 0.687811
Si Si7 0.490740 0.302988 0.744771
Si Si8 0.930548 0.317971 0.288619
O O1 0.803427 0.462317 0.465777
O O2 0.862302 0.260153 0.138189
O O3 0.808916 0.968166 0.464086
O O4 0.748301 0.170620 0.988285
O O5 0.893374 0.723616 0.810044
O O6 0.782819 0.730175 0.896492
O O7 0.629751 0.359347 0.659391
O O8 0.658819 0.905800 0.942921
O O9 0.546126 0.100834 0.821774
O O10 0.634374 0.366744 0.170584
O O11 0.578556 0.770722 0.337676
O O12 0.691698 0.772178 0.539984
O O13 0.938752 0.611675 0.422538
O O14 0.016875 0.754412 0.849897
O O15 0.941063 0.107695 0.553780
O O16 0.500000 0.500000 0.500000
O O17 0.500000 0.500000 0.000000
#
# Coordination Sequence:
#
# PCOD9037100 Si02
#       8
#     2   2   2   2   2   2   2   2
#     4  10  23  40  60  88 126 168 216 270 328 394
#     4  10  23  40  60  88 126 168 216 270 328 394
#     4  10  23  41  65  93 128 169 219 273 331 395
#     4  10  23  41  65  93 128 169 219 273 331 395
#     4  12  26  35  61  86 128 170 218 264 330 396
#     4   8  14  29  54  81 111 154 206 263 323 382
#     4   8  16  37  62  89 122 162 211 272 329 385
#     4   8  14  29  54  81 111 154 206 263 323 382
#
# _framework density 29.052434999999999
#
# number of rings (size 3 to 8) (size 9 to 14) (size 15 to 20)
#    0.000    2.500    0.000    0.750    7.000    0.500 
#    0.000    0.625    0.000    9.000    0.000   17.500 
#    0.000    0.000    0.000    0.000    0.000    0.000 
#
# Total GULP energy -89553.200725 kJ/mol
# GULP energy per Si atom -5597.075045 kJ/mol
# Density = 2.898631 g / cm^3
# Si number density = 29.052435 Si / 1000 Ang^3
#
#
#
# Elastic Constant Matrix: (Units=GPa)
#
#
# Indices 1 2 3 4 5 6 
#
# 1 234.2537 26.0793 44.2122 20.1408 26.7315 -49.3930
# 2 26.0793 131.7769 45.5799 21.4399 -5.2875 6.3487
# 3 44.2122 45.5799 156.6830 11.0233 -11.7466 -3.7246
# 4 20.1408 21.4399 11.0233 43.3566 1.0877 -6.4413
# 5 26.7315 -5.2875 -11.7466 1.0877 51.7031 9.9630
# 6 -49.3930 6.3487 -3.7246 -6.4413 9.9630 54.3932
#
#
#
# Elastic Compliance Matrix: (Units=1/GPa)
#
#
# Indices 1 2 3 4 5 6 
#
# 1 0.006981 -0.001167 -0.001802 -0.000993 -0.005513 0.007244
# 2 -0.001167 0.009422 -0.002063 -0.004100 0.001784 -0.003113
# 3 -0.001802 -0.002063 0.007690 -0.000377 0.002748 -0.001417
# 4 -0.000993 -0.004100 -0.000377 0.026098 -0.001088 0.002841
# 5 -0.005513 0.001784 0.002748 -0.001088 0.024893 -0.009714
# 6 0.007244 -0.003113 -0.001417 0.002841 -0.009714 0.027345
#
#
# Mechanical properties :
#
#
# Convention : Reuss Voigt Hill
#
# Bulk Modulus (GPa) = 71.28321 83.82849 77.55585
# Shear Modulus (GPa) = 42.67356 57.01339 49.84347
#
# Velocity S-wave (km/s) = 3.83671 4.43474 4.14652
# Velocity P-wave (km/s) = 6.64955 7.42559 7.04826
#
# Compressibility (1/GPa) = 0.01402855
#
# Stress axis : x y z
#
# Youngs Moduli (GPa) = 143.25224 106.13684 130.04205
#
# Poissons Ratio (x) = 0.12386 0.23427
# Poissons Ratio (y) = 0.16718 0.26832
# Poissons Ratio (z) = 0.25807 0.21900
#
# Static dielectric constant tensor:
#      x y z
#    x 2.331620 -0.038320 -0.025440 
#    y -0.038320 2.261330 -0.103570 
#    z -0.025440 -0.103570 2.157030 
# 
# From -- ./inp_files/14358.got.cif
#   From: 2010.05.17/outbox.cif.g08.bks.cpg/sg2_8_cif.got.tgz:14358.got - 2010.06.03 11:33:40.
