data_PCOD9037254
_publ_section_title
;
Structure prediction by ZEFSAII (Michael W. Deem and Ramdas Pophale) SiO2 
 PCOD9037254
Probable space group: P -1
;
_chemical_formula_sum "Si O2"
_cell_formula_units_Z 16
_cell_length_a 11.249644
_cell_length_b 13.849658
_cell_length_c 14.537465
_cell_angle_alpha 69.341897
_cell_angle_beta 28.970698
_cell_angle_gamma 88.823549
_cell_volume 792.416360
_symmetry_space_group_name_H-M "P -1"
_symmetry_group_IT_number 2
_symmetry_cell_setting 'triclinic'
loop_
_space_group_symop_operation_xyz
x,y,z
-x,-y,-z
loop_
_atom_site_type_symbol
_atom_site_label
_atom_site_fract_x
_atom_site_fract_y
_atom_site_fract_z
Si Si1 0.303498 0.854628 0.731309
Si Si2 0.371109 0.124709 0.210328
Si Si3 0.104565 0.231335 0.130347
Si Si4 0.419610 0.269287 0.309811
Si Si5 0.734143 0.158693 0.796111
Si Si6 0.382558 0.761493 0.330777
Si Si7 0.542063 0.991344 0.260288
Si Si8 0.272918 0.455249 0.078396
O O1 0.468109 0.794442 0.678833
O O2 0.062307 0.756319 0.847874
O O3 0.500000 0.000000 0.500000
O O4 0.209957 0.894600 0.873144
O O5 0.412464 0.219067 0.229179
O O6 0.543853 0.067563 0.147684
O O7 0.545843 0.192353 0.973568
O O8 0.000000 0.000000 0.500000
O O9 0.252736 0.345786 0.067777
O O10 0.813632 0.094188 0.424827
O O11 0.356426 0.228543 0.907707
O O12 0.067224 0.211683 0.593548
O O13 0.620194 0.426099 0.103577
O O14 0.789177 0.212294 0.637481
O O15 0.500000 0.000000 0.000000
O O16 0.550803 0.877648 0.255150
O O17 0.090577 0.620386 0.618289
O O18 0.500000 0.500000 0.000000
#
# Coordination Sequence:
#
# PCOD9037254 Si02
#       8
#     2   2   2   2   2   2   2   2
#     4   9  21  41  66  92 124 165 207 256 318 371
#     4  11  20  32  55  88 127 157 192 256 315 366
#     4  10  23  40  64  89 121 171 214 251 305 370
#     4  11  24  42  61  89 131 165 205 262 305 371
#     4  12  22  33  60  97 125 162 204 248 325 376
#     4  11  22  38  63  92 128 165 204 260 311 370
#     4   9  19  36  57  92 125 157 200 252 321 365
#     4  11  25  44  60  91 129 169 213 251 311 367
#
# _framework density 20.191405
#
# number of rings (size 3 to 8) (size 9 to 14) (size 15 to 20)
#    0.000    1.500    3.750    0.750    7.000    2.500 
#    0.000    6.875    0.000    0.000    0.000    0.000 
#    0.000    0.000    0.000    0.000    0.000    0.000 
#
# Total GULP energy -89121.115987 kJ/mol
# GULP energy per Si atom -5570.069749 kJ/mol
# Density = 2.014545 g / cm^3
# Si number density = 20.191405 Si / 1000 Ang^3
#
#
#
# Elastic Constant Matrix: (Units=GPa)
#
#
# Indices 1 2 3 4 5 6 
#
# 1 105.2158 23.0219 12.4936 -0.2375 2.7467 2.3630
# 2 23.0219 65.0529 33.8640 5.7519 -4.0836 9.2007
# 3 12.4936 33.8640 93.8768 12.2994 13.5092 -5.8086
# 4 -0.2375 5.7519 12.2994 36.9602 -1.4117 8.6605
# 5 2.7467 -4.0836 13.5092 -1.4117 19.7123 -3.5988
# 6 2.3630 9.2007 -5.8086 8.6605 -3.5988 41.1434
#
#
#
# Elastic Compliance Matrix: (Units=1/GPa)
#
#
# Indices 1 2 3 4 5 6 
#
# 1 0.010421 -0.004105 0.000402 0.000462 -0.002534 0.000057
# 2 -0.004105 0.023497 -0.010124 0.001472 0.011432 -0.005758
# 3 0.000402 -0.010124 0.017246 -0.005781 -0.013527 0.004709
# 4 0.000462 0.001472 -0.005781 0.030629 0.005086 -0.007174
# 5 -0.002534 0.011432 -0.013527 0.005086 0.063109 0.000129
# 6 0.000057 -0.005758 0.004709 -0.007174 0.000129 0.027776
#
#
# Mechanical properties :
#
#
# Convention : Reuss Voigt Hill
#
# Bulk Modulus (GPa) = 42.53637 44.76717 43.65177
# Shear Modulus (GPa) = 24.01906 32.54758 28.28332
#
# Velocity S-wave (km/s) = 3.45275 4.01927 3.74673
# Velocity P-wave (km/s) = 6.08339 6.61505 6.35478
#
# Compressibility (1/GPa) = 0.02350930
#
# Stress axis : x y z
#
# Youngs Moduli (GPa) = 95.96309 42.55922 57.98419
#
# Poissons Ratio (x) = 0.17470 -0.02329
# Poissons Ratio (y) = 0.39392 0.58702
# Poissons Ratio (z) = -0.03854 0.43086
#
# Static dielectric constant tensor:
#      x y z
#    x 1.796420 0.040890 0.000870 
#    y 0.040890 1.732460 0.024890 
#    z 0.000870 0.024890 1.724020 
# 
# From -- ./inp_files/521585.got.cif
#   From: 2010.05.17/outbox.cif.g08.bks.cpg/sg2_261_cif.got.tgz:521585.got - 2010.06.03 11:33:40.
