data_PCOD9037158
_publ_section_title
;
Structure prediction by ZEFSAII (Michael W. Deem and Ramdas Pophale) SiO2 
 PCOD9037158
Probable space group: P -1
;
_chemical_formula_sum "Si O2"
_cell_formula_units_Z 16
_cell_length_a 12.137883
_cell_length_b 13.694301
_cell_length_c 9.615024
_cell_angle_alpha 113.977743
_cell_angle_beta 36.857584
_cell_angle_gamma 127.477754
_cell_volume 749.828155
_symmetry_space_group_name_H-M "P -1"
_symmetry_group_IT_number 2
_symmetry_cell_setting 'triclinic'
loop_
_space_group_symop_operation_xyz
x,y,z
-x,-y,-z
loop_
_atom_site_type_symbol
_atom_site_label
_atom_site_fract_x
_atom_site_fract_y
_atom_site_fract_z
Si Si1 0.618414 0.611338 0.555287
Si Si2 0.883085 0.327133 0.319182
Si Si3 0.462664 0.788686 0.867390
Si Si4 0.347453 0.504804 0.044607
Si Si5 0.388678 0.886699 0.729637
Si Si6 0.451972 0.764730 0.177389
Si Si7 0.985188 0.563006 0.193458
Si Si8 0.247473 0.060392 0.828471
O O1 0.500000 0.500000 0.500000
O O2 0.604967 0.735587 0.623843
O O3 0.850348 0.629748 0.349011
O O4 0.486151 0.552629 0.794036
O O5 0.802809 0.245902 0.212607
O O6 0.723315 0.232384 0.543655
O O7 0.880398 0.452146 0.349970
O O8 0.123468 0.383076 0.162446
O O9 0.442852 0.879000 0.830472
O O10 0.520130 0.828511 0.993663
O O11 0.225020 0.667422 0.047259
O O12 0.324846 0.617779 0.189108
O O13 0.500000 0.500000 0.000000
O O14 0.600807 0.917015 0.444781
O O15 0.304306 0.978189 0.826052
O O16 0.654783 0.813144 0.104547
O O17 0.000000 0.500000 0.000000
O O18 0.000000 0.000000 0.000000
#
# Coordination Sequence:
#
# PCOD9037158 Si02
#       8
#     2   2   2   2   2   2   2   2
#     4  11  21  35  54  84 130 172 206 241 296 377
#     4  11  20  39  61  91 134 172 208 255 311 385
#     4  11  23  39  60  97 132 160 212 259 318 381
#     4  11  23  34  56  95 132 168 207 254 311 374
#     4  10  23  43  67  94 119 165 217 266 315 373
#     4  10  23  40  62  92 130 170 210 261 319 371
#     4  12  20  36  59  92 133 171 203 248 310 383
#     4  10  24  47  69  89 117 165 222 269 315 376
#
# _framework density 21.338221000000001
#
# number of rings (size 3 to 8) (size 9 to 14) (size 15 to 20)
#    0.000    1.250    5.000    1.125    3.500    2.500 
#    0.000    0.625    0.000    0.000    0.000    0.000 
#    0.000    0.000    0.000    0.000    0.000    0.000 
#
# Total GULP energy -89191.590240 kJ/mol
# GULP energy per Si atom -5574.474390 kJ/mol
# Density = 2.128965 g / cm^3
# Si number density = 21.338221 Si / 1000 Ang^3
#
#
#
# Elastic Constant Matrix: (Units=GPa)
#
#
# Indices 1 2 3 4 5 6 
#
# 1 125.0518 11.7013 47.5722 -3.6432 -3.8874 -0.1516
# 2 11.7013 37.5699 17.9336 -5.5641 -6.4977 2.9246
# 3 47.5722 17.9336 73.0492 2.2516 -4.0278 7.1856
# 4 -3.6432 -5.5641 2.2516 20.7903 4.1621 -1.4929
# 5 -3.8874 -6.4977 -4.0278 4.1621 54.4291 -5.6250
# 6 -0.1516 2.9246 7.1856 -1.4929 -5.6250 43.7117
#
#
#
# Elastic Compliance Matrix: (Units=1/GPa)
#
#
# Indices 1 2 3 4 5 6 
#
# 1 0.010859 0.000514 -0.007409 0.002898 0.000206 0.001347
# 2 0.000514 0.032259 -0.008381 0.009109 0.002557 -0.000139
# 3 -0.007409 -0.008381 0.021075 -0.006082 0.000173 -0.003115
# 4 0.002898 0.009109 -0.006082 0.052430 -0.002978 0.001808
# 5 0.000206 0.002557 0.000173 -0.002978 0.019157 0.002165
# 6 0.001347 -0.000139 -0.003115 0.001808 0.002165 0.023743
#
#
# Mechanical properties :
#
#
# Convention : Reuss Voigt Hill
#
# Bulk Modulus (GPa) = 29.72336 43.34279 36.53307
# Shear Modulus (GPa) = 24.83989 34.35048 29.59518
#
# Velocity S-wave (km/s) = 3.41560 4.01660 3.72823
# Velocity P-wave (km/s) = 5.43277 6.47048 5.97420
#
# Compressibility (1/GPa) = 0.03364357
#
# Stress axis : x y z
#
# Youngs Moduli (GPa) = 92.08531 30.99872 47.44920
#
# Poissons Ratio (x) = -0.01594 0.35154
# Poissons Ratio (y) = -0.04737 0.39766
# Poissons Ratio (z) = 0.68224 0.25979
#
# Static dielectric constant tensor:
#      x y z
#    x 1.858650 -0.060580 0.000540 
#    y -0.060580 1.874230 0.069150 
#    z 0.000540 0.069150 1.739540 
# 
# From -- ./inp_files/273565.got.cif
#   From: 2010.05.17/outbox.cif.g08.bks.cpg/sg2_137_cif.got.tgz:273565.got - 2010.06.03 11:33:40.
