data_PCOD9037524
_publ_section_title
;
Structure prediction by ZEFSAII (Michael W. Deem and Ramdas Pophale) SiO2 
 PCOD9037524
Probable space group: P -1
;
_chemical_formula_sum "Si O2"
_cell_formula_units_Z 14
_cell_length_a 9.920534
_cell_length_b 19.108402
_cell_length_c 8.965902
_cell_angle_alpha 48.014271
_cell_angle_beta 47.673481
_cell_angle_gamma 28.938985
_cell_volume 592.755635
_symmetry_space_group_name_H-M "P -1"
_symmetry_group_IT_number 2
_symmetry_cell_setting 'triclinic'
loop_
_space_group_symop_operation_xyz
x,y,z
-x,-y,-z
loop_
_atom_site_type_symbol
_atom_site_label
_atom_site_fract_x
_atom_site_fract_y
_atom_site_fract_z
Si Si1 0.917103 0.666256 0.022132
Si Si2 0.629168 0.318684 0.645834
Si Si3 0.831212 0.893896 0.886856
Si Si4 0.121851 0.700291 0.231177
Si Si5 0.346853 0.833761 0.390694
Si Si6 0.956474 0.372640 0.333432
Si Si7 0.273388 0.450373 0.308398
O O1 0.646723 0.751593 0.208321
O O2 0.192522 0.503435 0.120899
O O3 0.960466 0.760876 0.877753
O O4 0.863019 0.668948 0.883667
O O5 0.701362 0.300249 0.792597
O O6 0.770632 0.181207 0.638745
O O7 0.754620 0.368603 0.426689
O O8 0.285360 0.455804 0.683767
O O9 0.828158 0.001790 0.678448
O O10 0.966670 0.823786 0.047970
O O11 0.500000 0.000000 0.000000
O O12 0.921639 0.723061 0.470007
O O13 0.276639 0.551525 0.242680
O O14 0.452522 0.721502 0.604140
O O15 0.000000 0.500000 0.500000
#
# Coordination Sequence:
#
# PCOD9037524 Si02
#       7
#     2   2   2   2   2   2   2
#     4   9  19  32  55  79 100 132 179 215 246 298
#     4   9  18  32  55  74 107 136 165 206 272 299
#     4   9  19  34  53  75 103 140 172 206 256 308
#     4   9  17  34  54  72 101 144 166 200 263 313
#     4  10  17  33  52  76 106 136 171 210 252 306
#     4   9  17  34  54  78 104 132 171 211 259 302
#     4   9  16  30  51  76  98 133 169 209 253 289
#
# _framework density 23.618503
#
# number of rings (size 3 to 8) (size 9 to 14) (size 15 to 20)
#    0.857    2.000    1.429    0.857    0.000    1.143 
#    0.000   10.000    3.143    0.000    0.000    0.000 
#    0.000    0.000    0.000    0.000    0.000    0.000 
#
# Total GULP energy -77996.392690 kJ/mol
# GULP energy per Si atom -5571.170906 kJ/mol
# Density = 2.356475 g / cm^3
# Si number density = 23.618503 Si / 1000 Ang^3
#
#
#
# Elastic Constant Matrix: (Units=GPa)
#
#
# Indices 1 2 3 4 5 6 
#
# 1 75.2446 13.2257 16.2938 -19.3970 0.8592 14.2123
# 2 13.2257 58.0068 42.2599 -24.9280 7.5559 12.3300
# 3 16.2938 42.2599 129.8273 -15.0815 6.8469 5.0154
# 4 -19.3970 -24.9280 -15.0815 46.4376 6.3273 -4.7453
# 5 0.8592 7.5559 6.8469 6.3273 43.7818 -3.7295
# 6 14.2123 12.3300 5.0154 -4.7453 -3.7295 30.2275
#
#
#
# Elastic Compliance Matrix: (Units=1/GPa)
#
#
# Indices 1 2 3 4 5 6 
#
# 1 0.016535 0.002396 -0.001611 0.007187 -0.002174 -0.007625
# 2 0.002396 0.033142 -0.008376 0.015931 -0.007757 -0.011712
# 3 -0.001611 -0.008376 0.010342 -0.001621 0.000285 0.002239
# 4 0.007187 0.015931 -0.001621 0.033085 -0.007877 -0.005387
# 5 -0.002174 -0.007757 0.000285 -0.007877 0.025834 0.006090
# 6 -0.007625 -0.011712 0.002239 -0.005387 0.006090 0.040979
#
#
# Mechanical properties :
#
#
# Convention : Reuss Voigt Hill
#
# Bulk Modulus (GPa) = 22.30367 45.18195 33.74281
# Shear Modulus (GPa) = 26.30960 36.84267 31.57614
#
# Velocity S-wave (km/s) = 3.34120 3.95385 3.66036
# Velocity P-wave (km/s) = 4.93443 6.32577 5.67291
#
# Compressibility (1/GPa) = 0.04483567
#
# Stress axis : x y z
#
# Youngs Moduli (GPa) = 60.47632 30.17348 96.69747
#
# Poissons Ratio (x) = -0.07230 0.15579
# Poissons Ratio (y) = -0.14491 0.80998
# Poissons Ratio (z) = 0.09743 0.25275
#
# Static dielectric constant tensor:
#      x y z
#    x 1.952650 -0.016690 -0.054850 
#    y -0.016690 1.905120 0.018950 
#    z -0.054850 0.018950 1.935170 
# 
# From -- ./inp_files/154859.got.cif
#   From: 2010.05.17/outbox.cif.g08.bks.cpg/sg2_78_cif.got.tgz:154859.got - 2010.06.03 11:33:40.
