data_PCOD9037534
_publ_section_title
;
Structure prediction by ZEFSAII (Michael W. Deem and Ramdas Pophale) SiO2 
 PCOD9037534
Probable space group: P -1
;
_chemical_formula_sum "Si O2"
_cell_formula_units_Z 16
_cell_length_a 13.728899
_cell_length_b 14.445090
_cell_length_c 10.614415
_cell_angle_alpha 122.294389
_cell_angle_beta 144.164695
_cell_angle_gamma 32.721374
_cell_volume 589.078403
_symmetry_space_group_name_H-M "P -1"
_symmetry_group_IT_number 2
_symmetry_cell_setting 'triclinic'
loop_
_space_group_symop_operation_xyz
x,y,z
-x,-y,-z
loop_
_atom_site_type_symbol
_atom_site_label
_atom_site_fract_x
_atom_site_fract_y
_atom_site_fract_z
Si Si1 0.239932 0.446918 0.993698
Si Si2 0.172075 0.843651 0.454009
Si Si3 0.030139 0.938498 0.846163
Si Si4 0.070879 0.270843 0.916640
Si Si5 0.722133 0.385306 0.032744
Si Si6 0.661098 0.701110 0.336539
Si Si7 0.736729 0.506048 0.495281
Si Si8 0.331734 0.152776 0.760179
O O1 0.509654 0.340547 0.285650
O O2 0.970500 0.635704 0.934036
O O3 0.221923 0.530775 0.911189
O O4 0.321483 0.278270 0.913937
O O5 0.042131 0.794297 0.248680
O O6 0.000000 0.000000 0.500000
O O7 0.162721 0.917569 0.368085
O O8 0.003014 0.826266 0.773367
O O9 0.364290 0.794611 0.054092
O O10 0.000000 0.000000 0.000000
O O11 0.869581 0.439444 0.723739
O O12 0.413739 0.068468 0.093991
O O13 0.558764 0.402668 0.765777
O O14 0.500000 0.500000 0.000000
O O15 0.689157 0.644300 0.468931
O O16 0.599328 0.850509 0.314355
O O17 0.000000 0.500000 0.500000
O O18 0.999692 0.297328 0.547254
#
# Coordination Sequence:
#
# PCOD9037534 Si02
#       8
#     2   2   2   2   2   2   2   2
#     4  12  25  41  69  99 134 173 219 284 342 396
#     4  12  22  41  66  99 135 180 218 280 352 407
#     4  11  23  37  64 101 134 167 223 292 340 396
#     4  12  24  40  67  97 133 170 227 275 333 399
#     4  11  23  41  67 103 128 168 229 278 335 408
#     4   9  19  39  66  87 123 179 218 259 338 414
#     4  10  23  40  68  94 131 176 221 271 331 406
#     4  11  23  46  68  91 134 182 219 268 340 410
#
# _framework density 27.161069000000001
#
# number of rings (size 3 to 8) (size 9 to 14) (size 15 to 20)
#    0.000    1.000    3.750    3.750    3.500    0.500 
#    0.000    0.000    8.250    4.500    0.000    0.000 
#    0.000    0.000    0.000    0.000    0.000    0.000 
#
# Total GULP energy -89365.549708 kJ/mol
# GULP energy per Si atom -5585.346857 kJ/mol
# Density = 2.709925 g / cm^3
# Si number density = 27.161069 Si / 1000 Ang^3
#
#
#
# Elastic Constant Matrix: (Units=GPa)
#
#
# Indices 1 2 3 4 5 6 
#
# 1 147.4763 55.6337 25.5981 4.2283 -39.4832 13.4321
# 2 55.6337 125.0891 33.7435 8.6480 -12.0696 -5.7240
# 3 25.5981 33.7435 118.4248 3.8659 -12.8829 18.5975
# 4 4.2283 8.6480 3.8659 44.2706 5.8257 -9.4519
# 5 -39.4832 -12.0696 -12.8829 5.8257 55.6555 -6.1099
# 6 13.4321 -5.7240 18.5975 -9.4519 -6.1099 45.2019
#
#
#
# Elastic Compliance Matrix: (Units=1/GPa)
#
#
# Indices 1 2 3 4 5 6 
#
# 1 0.010300 -0.004042 0.000160 -0.001709 0.006301 -0.003144
# 2 -0.004042 0.010668 -0.002771 -0.000618 -0.000751 0.003461
# 3 0.000160 -0.002771 0.010152 -0.001562 0.001511 -0.004698
# 4 -0.001709 -0.000618 -0.001562 0.024718 -0.003664 0.005745
# 5 0.006301 -0.000751 0.001511 -0.003664 0.022981 -0.000249
# 6 -0.003144 0.003461 -0.004698 0.005745 -0.000249 0.026596
#
#
# Mechanical properties :
#
#
# Convention : Reuss Voigt Hill
#
# Bulk Modulus (GPa) = 56.13264 68.99341 62.56302
# Shear Modulus (GPa) = 40.10926 47.42657 43.76791
#
# Velocity S-wave (km/s) = 3.84698 4.18320 4.01861
# Velocity P-wave (km/s) = 6.35954 6.98491 6.67955
#
# Compressibility (1/GPa) = 0.01781495
#
# Stress axis : x y z
#
# Youngs Moduli (GPa) = 97.08638 93.73646 98.50054
#
# Poissons Ratio (x) = 0.37888 -0.01579
# Poissons Ratio (y) = 0.39242 0.27296
# Poissons Ratio (z) = -0.01556 0.25976
#
# Static dielectric constant tensor:
#      x y z
#    x 2.183990 -0.051270 0.022720 
#    y -0.051270 2.265860 0.032860 
#    z 0.022720 0.032860 2.237130 
# 
# From -- ./inp_files/455825.got.cif
#   From: 2010.05.17/outbox.cif.g08.bks.cpg/sg2_228_cif.got.tgz:455825.got - 2010.06.03 11:33:40.
