data_PCOD9037152
_publ_section_title
;
Structure prediction by ZEFSAII (Michael W. Deem and Ramdas Pophale) SiO2 
 PCOD9037152
Probable space group: P -1
;
_chemical_formula_sum "Si O2"
_cell_formula_units_Z 16
_cell_length_a 21.136640
_cell_length_b 8.008519
_cell_length_c 5.671662
_cell_angle_alpha 118.743463
_cell_angle_beta 100.254805
_cell_angle_gamma 119.320116
_cell_volume 617.291600
_symmetry_space_group_name_H-M "P -1"
_symmetry_group_IT_number 2
_symmetry_cell_setting 'triclinic'
loop_
_space_group_symop_operation_xyz
x,y,z
-x,-y,-z
loop_
_atom_site_type_symbol
_atom_site_label
_atom_site_fract_x
_atom_site_fract_y
_atom_site_fract_z
Si Si1 0.783066 0.678523 0.757751
Si Si2 0.796828 0.315417 0.259893
Si Si3 0.371179 0.124011 0.856655
Si Si4 0.373336 0.744985 0.314424
Si Si5 0.950672 0.889269 0.145752
Si Si6 0.529972 0.902832 0.768715
Si Si7 0.747524 0.948683 0.590141
Si Si8 0.910366 0.382347 0.733323
O O1 0.801187 0.547477 0.484809
O O2 0.716240 0.492477 0.792327
O O3 0.745979 0.785439 0.673794
O O4 0.876161 0.898271 0.082213
O O5 0.721621 0.096987 0.236707
O O6 0.883931 0.369355 0.429656
O O7 0.764047 0.182111 0.894272
O O8 0.393469 0.987779 0.616384
O O9 0.342485 0.233052 0.734872
O O10 0.439960 0.233521 0.184032
O O11 0.448785 0.743163 0.430146
O O12 0.386655 0.830340 0.112131
O O13 0.904304 0.593575 0.941447
O O14 0.000000 0.000000 0.500000
O O15 0.000000 0.000000 0.000000
O O16 0.500000 0.000000 0.000000
O O17 0.834860 0.103481 0.601721
O O18 0.000000 0.500000 0.000000
#
# Coordination Sequence:
#
# PCOD9037152 Si02
#       8
#     2   2   2   2   2   2   2   2
#     4  10  23  44  65  99 133 176 230 278 339 419
#     4   9  21  39  60  89 125 170 217 267 332 400
#     4   9  18  35  57  93 123 165 215 268 323 397
#     4   9  18  37  63  93 129 177 214 273 341 398
#     4  11  26  46  69 103 137 182 238 296 350 414
#     4   9  17  33  63  95 128 169 224 270 333 407
#     4  11  22  40  65  92 131 176 220 276 343 405
#     4  10  23  40  62  91 128 173 224 283 346 409
#
# _framework density 25.919678000000001
#
# number of rings (size 3 to 8) (size 9 to 14) (size 15 to 20)
#    0.000    2.250    0.000    2.250    5.250    0.500 
#    6.750    0.625    0.000   10.500    0.000   10.500 
#    0.000    0.000    0.000    0.000    0.000    0.000 
#
# Total GULP energy -89246.168607 kJ/mol
# GULP energy per Si atom -5577.885538 kJ/mol
# Density = 2.586068 g / cm^3
# Si number density = 25.919678 Si / 1000 Ang^3
#
#
#
# Elastic Constant Matrix: (Units=GPa)
#
#
# Indices 1 2 3 4 5 6 
#
# 1 129.9183 48.6114 53.6143 -17.2838 44.2365 -3.1618
# 2 48.6114 104.0107 38.1479 -23.9341 -1.4198 11.0490
# 3 53.6143 38.1479 131.4212 -14.7125 35.0423 -10.4760
# 4 -17.2838 -23.9341 -14.7125 32.1062 -12.3580 3.7425
# 5 44.2365 -1.4198 35.0423 -12.3580 57.3473 -11.8735
# 6 -3.1618 11.0490 -10.4760 3.7425 -11.8735 41.8273
#
#
#
# Elastic Compliance Matrix: (Units=1/GPa)
#
#
# Indices 1 2 3 4 5 6 
#
# 1 0.014128 -0.006783 -0.001157 -0.002133 -0.010887 -0.000330
# 2 -0.006783 0.017578 -0.003951 0.011904 0.009725 -0.004450
# 3 -0.001157 -0.003951 0.010768 -0.001025 -0.005557 0.002167
# 4 -0.002133 0.011904 -0.001025 0.043127 0.010968 -0.004308
# 5 -0.010887 0.009725 -0.005557 0.010968 0.032555 0.003476
# 6 -0.000330 -0.004450 0.002167 -0.004308 0.003476 0.026973
#
#
# Mechanical properties :
#
#
# Convention : Reuss Voigt Hill
#
# Bulk Modulus (GPa) = 53.49667 71.78860 62.64264
# Shear Modulus (GPa) = 28.54854 41.25462 34.90158
#
# Velocity S-wave (km/s) = 3.32237 3.99386 3.67349
# Velocity P-wave (km/s) = 5.94994 7.00175 6.49716
#
# Compressibility (1/GPa) = 0.01869275
#
# Stress axis : x y z
#
# Youngs Moduli (GPa) = 70.78373 56.88838 92.87160
#
# Poissons Ratio (x) = 0.38587 0.10743
# Poissons Ratio (y) = 0.48012 0.36689
# Poissons Ratio (z) = 0.08188 0.22474
#
# Static dielectric constant tensor:
#      x y z
#    x 2.072070 -0.015560 0.047940 
#    y -0.015560 2.040670 -0.057380 
#    z 0.047940 -0.057380 2.292600 
# 
# From -- ./inp_files/117251.got.cif
#   From: 2010.05.17/outbox.cif.g08.bks.cpg/sg2_59_cif.got.tgz:117251.got - 2010.06.03 11:33:40.
