data_PCOD9037207
_publ_section_title
;
Structure prediction by ZEFSAII (Michael W. Deem and Ramdas Pophale) SiO2 
 PCOD9037207
Probable space group: P -1
;
_chemical_formula_sum "Si O2"
_cell_formula_units_Z 10
_cell_length_a 14.361862
_cell_length_b 4.890838
_cell_length_c 6.816157
_cell_angle_alpha 114.323035
_cell_angle_beta 117.096738
_cell_angle_gamma 96.911311
_cell_volume 359.321749
_symmetry_space_group_name_H-M "P -1"
_symmetry_group_IT_number 2
_symmetry_cell_setting 'triclinic'
loop_
_space_group_symop_operation_xyz
x,y,z
-x,-y,-z
loop_
_atom_site_type_symbol
_atom_site_label
_atom_site_fract_x
_atom_site_fract_y
_atom_site_fract_z
Si Si1 0.019009 0.828941 0.737618
Si Si2 0.663061 0.807448 0.260478
Si Si3 0.445924 0.889093 0.201869
Si Si4 0.119611 0.720297 0.304480
Si Si5 0.744529 0.938085 0.804110
O O1 0.944330 0.029894 0.657829
O O2 0.000000 0.500000 0.500000
O O3 0.959286 0.640913 0.824345
O O4 0.149981 0.049944 0.960791
O O5 0.555342 0.910832 0.188867
O O6 0.772534 0.119119 0.404494
O O7 0.689160 0.725275 0.490790
O O8 0.634850 0.484418 0.015455
O O9 0.359384 0.071430 0.165599
O O10 0.500000 0.000000 0.500000
O O11 0.184445 0.743030 0.166062
#
# Coordination Sequence:
#
# PCOD9037207 Si02
#       5
#     2   2   2   2   2
#     4  12  23  40  64  94 129 169 211 257 315 376
#     4   8  18  33  61  92 127 161 212 258 311 376
#     4   9  15  33  61  95 121 168 206 263 314 371
#     4  10  23  40  63  93 130 165 210 260 312 376
#     4   9  20  35  61  91 129 166 208 259 312 375
#
# _framework density 27.830210000000001
#
# number of rings (size 3 to 8) (size 9 to 14) (size 15 to 20)
#    1.200    1.200    0.000    3.000    0.000    0.000 
#    0.000    0.000    0.000   18.000    0.000    0.000 
#    0.000    0.000    0.000    0.000    0.000    0.000 
#
# Total GULP energy -55770.150081 kJ/mol
# GULP energy per Si atom -5577.015008 kJ/mol
# Density = 2.776687 g / cm^3
# Si number density = 27.830210 Si / 1000 Ang^3
#
#
#
# Elastic Constant Matrix: (Units=GPa)
#
#
# Indices 1 2 3 4 5 6 
#
# 1 120.5516 29.8951 41.5792 1.6460 8.3114 -35.1416
# 2 29.8951 118.5237 31.9063 11.2477 12.6430 -25.7780
# 3 41.5792 31.9063 160.0900 13.5572 21.1691 -35.1927
# 4 1.6460 11.2477 13.5572 33.3984 -1.8391 4.3946
# 5 8.3114 12.6430 21.1691 -1.8391 64.2046 -7.9950
# 6 -35.1416 -25.7780 -35.1927 4.3946 -7.9950 37.9659
#
#
#
# Elastic Compliance Matrix: (Units=1/GPa)
#
#
# Indices 1 2 3 4 5 6 
#
# 1 0.011547 -0.000430 -0.000578 -0.001510 -0.000013 0.010032
# 2 -0.000430 0.010663 0.000147 -0.004655 -0.001325 0.007238
# 3 -0.000578 0.000147 0.008744 -0.004706 -0.002001 0.007793
# 4 -0.001510 -0.004655 -0.004706 0.035262 0.002110 -0.012558
# 5 -0.000013 -0.001325 -0.002001 0.002110 0.016619 0.000488
# 6 0.010032 0.007238 0.007793 -0.012558 0.000488 0.049320
#
#
# Mechanical properties :
#
#
# Convention : Reuss Voigt Hill
#
# Bulk Modulus (GPa) = 34.20996 67.32519 50.76757
# Shear Modulus (GPa) = 34.81353 46.83275 40.82314
#
# Velocity S-wave (km/s) = 3.54068 4.10665 3.83412
# Velocity P-wave (km/s) = 5.38835 6.83593 6.15485
#
# Compressibility (1/GPa) = 0.02923125
#
# Stress axis : x y z
#
# Youngs Moduli (GPa) = 86.60007 93.77908 114.36884
#
# Poissons Ratio (x) = 0.04035 0.06614
# Poissons Ratio (y) = 0.03726 -0.01682
# Poissons Ratio (z) = 0.05008 -0.01379
#
# Static dielectric constant tensor:
#      x y z
#    x 2.257050 0.053970 -0.083770 
#    y 0.053970 2.236770 -0.202870 
#    z -0.083770 -0.202870 2.455560 
# 
# From -- ./inp_files/288253.got.cif
#   From: 2010.05.17/outbox.cif.g08.bks.cpg/sg2_145_cif.got.tgz:288253.got - 2010.06.03 11:33:40.
