data_PCOD9037977
_publ_section_title
;
Structure prediction by ZEFSAII (Michael W. Deem and Ramdas Pophale) SiO2 
 PCOD9037977
Probable space group: P -1
;
_chemical_formula_sum "Si O2"
_cell_formula_units_Z 14
_cell_length_a 13.440952
_cell_length_b 15.709491
_cell_length_c 5.379154
_cell_angle_alpha 117.071705
_cell_angle_beta 68.705272
_cell_angle_gamma 147.215335
_cell_volume 547.193733
_symmetry_space_group_name_H-M "P -1"
_symmetry_group_IT_number 2
_symmetry_cell_setting 'triclinic'
loop_
_space_group_symop_operation_xyz
x,y,z
-x,-y,-z
loop_
_atom_site_type_symbol
_atom_site_label
_atom_site_fract_x
_atom_site_fract_y
_atom_site_fract_z
Si Si1 0.531583 0.626602 0.907215
Si Si2 0.747653 0.297737 0.601858
Si Si3 0.202544 0.307629 0.502804
Si Si4 0.189247 0.925775 0.402026
Si Si5 0.046385 0.658543 0.907995
Si Si6 0.720522 0.475648 0.642120
Si Si7 0.586481 0.878466 0.041455
O O1 0.367056 0.435629 0.721066
O O2 0.723170 0.715557 0.794284
O O3 0.468986 0.614449 0.219287
O O4 0.523601 0.721610 0.894739
O O5 0.800477 0.247069 0.317835
O O6 0.695905 0.343916 0.506719
O O7 0.587171 0.183354 0.797683
O O8 0.933646 0.477680 0.790258
O O9 0.207792 0.415536 0.511368
O O10 0.993888 0.143217 0.555349
O O11 0.274915 0.009650 0.702280
O O12 0.132575 0.772795 0.216258
O O13 0.320955 0.036024 0.192518
O O14 0.885060 0.608138 0.872948
#
# Coordination Sequence:
#
# PCOD9037977 Si02
#       7
#     2   2   2   2   2   2   2
#     4  10  23  41  65  95 122 169 218 276 309 386
#     4   8  19  41  69  98 122 170 215 273 311 384
#     4  11  22  40  69  92 123 168 225 262 324 374
#     4  12  25  42  65  93 138 177 205 267 323 394
#     4   9  18  41  69  96 124 166 222 263 321 373
#     4   9  17  38  67  94 121 160 210 277 313 374
#     4  11  26  43  64  95 139 171 211 263 330 384
#
# _framework density 25.585090000000001
#
# number of rings (size 3 to 8) (size 9 to 14) (size 15 to 20)
#    0.857    1.143    1.429    1.286    4.000    2.286 
#    0.000    2.143    0.000    0.000    0.000    0.000 
#    0.000    0.000    0.000    0.000    0.000    0.000 
#
# Total GULP energy -78208.780242 kJ/mol
# GULP energy per Si atom -5586.341446 kJ/mol
# Density = 2.552686 g / cm^3
# Si number density = 25.585090 Si / 1000 Ang^3
#
#
#
# Elastic Constant Matrix: (Units=GPa)
#
#
# Indices 1 2 3 4 5 6 
#
# 1 72.9353 19.6725 40.6409 -13.1230 -16.4371 13.3935
# 2 19.6725 81.8602 48.1671 -28.6875 -26.5945 29.7022
# 3 40.6409 48.1671 119.2869 -12.5275 -22.3504 29.5093
# 4 -13.1230 -28.6875 -12.5275 60.4243 18.0998 -6.8926
# 5 -16.4371 -26.5945 -22.3504 18.0998 33.4861 -12.6336
# 6 13.3935 29.7022 29.5093 -6.8926 -12.6336 37.3017
#
#
#
# Elastic Compliance Matrix: (Units=1/GPa)
#
#
# Indices 1 2 3 4 5 6 
#
# 1 0.017951 0.001627 -0.005258 0.001914 0.004978 -0.001542
# 2 0.001627 0.024287 -0.005150 0.006940 0.008488 -0.011692
# 3 -0.005258 -0.005150 0.013469 -0.001782 0.001602 -0.004453
# 4 0.001914 0.006940 -0.001782 0.021849 -0.007838 -0.003421
# 5 0.004978 0.008488 0.001602 -0.007838 0.045980 0.004311
# 6 -0.001542 -0.011692 -0.004453 -0.003421 0.004311 0.041023
#
#
# Mechanical properties :
#
#
# Convention : Reuss Voigt Hill
#
# Bulk Modulus (GPa) = 26.21472 54.56038 40.38755
# Shear Modulus (GPa) = 25.66280 37.28255 31.47267
#
# Velocity S-wave (km/s) = 3.17051 3.82147 3.51111
# Velocity P-wave (km/s) = 4.86531 6.39084 5.67953
#
# Compressibility (1/GPa) = 0.03814650
#
# Stress axis : x y z
#
# Youngs Moduli (GPa) = 55.70703 41.17408 74.24713
#
# Poissons Ratio (x) = -0.06701 0.39037
# Poissons Ratio (y) = -0.09066 0.38235
# Poissons Ratio (z) = 0.29289 0.21204
#
# Static dielectric constant tensor:
#      x y z
#    x 2.049400 -0.018160 0.003400 
#    y -0.018160 2.064640 0.030650 
#    z 0.003400 0.030650 2.025070 
# 
# From -- ./inp_files/99426.got.cif
#   From: 2010.05.17/outbox.cif.g08.bks.cpg/sg2_50_cif.got.tgz:99426.got - 2010.06.03 11:33:40.
