data_PCOD9037325
_publ_section_title
;
Structure prediction by ZEFSAII (Michael W. Deem and Ramdas Pophale) SiO2 
 PCOD9037325
Probable space group: P -1
;
_chemical_formula_sum "Si O2"
_cell_formula_units_Z 14
_cell_length_a 11.842700
_cell_length_b 19.077199
_cell_length_c 16.944492
_cell_angle_alpha 155.957529
_cell_angle_beta 156.965000
_cell_angle_gamma 35.777234
_cell_volume 600.008437
_symmetry_space_group_name_H-M "P -1"
_symmetry_group_IT_number 2
_symmetry_cell_setting 'triclinic'
loop_
_space_group_symop_operation_xyz
x,y,z
-x,-y,-z
loop_
_atom_site_type_symbol
_atom_site_label
_atom_site_fract_x
_atom_site_fract_y
_atom_site_fract_z
Si Si1 0.767361 0.125234 0.841051
Si Si2 0.830913 0.144846 0.212830
Si Si3 0.595828 0.162011 0.339339
Si Si4 0.952761 0.647617 0.289444
Si Si5 0.934166 0.689850 0.917867
Si Si6 0.065008 0.698703 0.719148
Si Si7 0.425450 0.702085 0.357288
O O1 0.500000 0.000000 0.500000
O O2 0.025249 0.011912 0.891279
O O3 0.887654 0.289080 0.028986
O O4 0.721974 0.190486 0.966242
O O5 0.044503 0.228927 0.506463
O O6 0.820744 0.276026 0.269811
O O7 0.513417 0.046556 0.937331
O O8 0.897549 0.235237 0.565020
O O9 0.345582 0.224170 0.188320
O O10 0.592701 0.250864 0.514629
O O11 0.144816 0.507515 0.303989
O O12 0.672026 0.507890 0.937006
O O13 0.177051 0.780149 0.229857
O O14 0.746995 0.757379 0.584212
O O15 0.000000 0.500000 0.500000
#
# Coordination Sequence:
#
# PCOD9037325 Si02
#       7
#     2   2   2   2   2   2   2
#     4  11  23  39  65  92 131 165 207 261 320 373
#     4  11  24  39  64  92 130 165 203 265 320 367
#     4  11  21  44  66  93 127 167 214 259 313 368
#     4  10  23  40  65  93 129 167 210 260 308 376
#     4   9  21  38  67  91 124 163 212 252 314 366
#     4  12  25  42  64  95 129 165 213 261 313 385
#     4  10  23  40  67  94 126 165 216 253 317 369
#
# _framework density 23.333006000000001
#
# number of rings (size 3 to 8) (size 9 to 14) (size 15 to 20)
#    0.857    0.571    2.857    3.429    4.000    0.571 
#    0.000    0.000    0.000    3.429    0.000    0.000 
#    0.000    0.000    0.000    0.000    0.000    0.000 
#
# Total GULP energy -78169.111910 kJ/mol
# GULP energy per Si atom -5583.507994 kJ/mol
# Density = 2.327990 g / cm^3
# Si number density = 23.333006 Si / 1000 Ang^3
#
#
#
# Elastic Constant Matrix: (Units=GPa)
#
#
# Indices 1 2 3 4 5 6 
#
# 1 89.1419 12.3480 44.3436 -0.1058 -7.3296 34.4450
# 2 12.3480 51.6025 13.7470 2.1797 0.0720 23.6107
# 3 44.3436 13.7470 141.3186 -10.8185 -17.9297 16.2873
# 4 -0.1058 2.1797 -10.8185 33.6749 5.9903 4.4672
# 5 -7.3296 0.0720 -17.9297 5.9903 41.4587 6.0842
# 6 34.4450 23.6107 16.2873 4.4672 6.0842 28.7682
#
#
#
# Elastic Compliance Matrix: (Units=1/GPa)
#
#
# Indices 1 2 3 4 5 6 
#
# 1 0.032942 0.018242 -0.004068 0.002834 0.011699 -0.055025
# 2 0.018242 0.041803 -0.001570 0.002646 0.010590 -0.057912
# 3 -0.004068 -0.001570 0.009049 0.002486 0.002830 0.000052
# 4 0.002834 0.002646 0.002486 0.032122 -0.001357 -0.011673
# 5 0.011699 0.010590 0.002830 -0.001357 0.032123 -0.030884
# 6 -0.055025 -0.057912 0.000052 -0.011673 -0.030884 0.156489
#
#
# Mechanical properties :
#
#
# Convention : Reuss Voigt Hill
#
# Bulk Modulus (GPa) = 9.17419 46.99336 28.08377
# Shear Modulus (GPa) = 15.84015 34.88866 25.36441
#
# Velocity S-wave (km/s) = 2.60835 3.87104 3.30064
# Velocity P-wave (km/s) = 3.60717 6.33750 5.15634
#
# Compressibility (1/GPa) = 0.10900149
#
# Stress axis : x y z
#
# Youngs Moduli (GPa) = 30.35611 23.92170 110.51129
#
# Poissons Ratio (x) = -0.43637 0.44959
# Poissons Ratio (y) = -0.55375 0.17348
# Poissons Ratio (z) = 0.12350 0.03755
#
# Static dielectric constant tensor:
#      x y z
#    x 1.889340 -0.011870 0.022530 
#    y -0.011870 1.927220 0.013060 
#    z 0.022530 0.013060 1.883870 
# 
# From -- ./inp_files/523491.got.cif
#   From: 2010.05.17/outbox.cif.g08.bks.cpg/sg2_262_cif.got.tgz:523491.got - 2010.06.03 11:33:40.
