data_PCOD9037494
_publ_section_title
;
Structure prediction by ZEFSAII (Michael W. Deem and Ramdas Pophale) SiO2 
 PCOD9037494
Probable space group: P -1
;
_chemical_formula_sum "Si O2"
_cell_formula_units_Z 16
_cell_length_a 10.642941
_cell_length_b 8.503194
_cell_length_c 19.495725
_cell_angle_alpha 138.269907
_cell_angle_beta 40.795904
_cell_angle_gamma 109.358622
_cell_volume 647.337474
_symmetry_space_group_name_H-M "P -1"
_symmetry_group_IT_number 2
_symmetry_cell_setting 'triclinic'
loop_
_space_group_symop_operation_xyz
x,y,z
-x,-y,-z
loop_
_atom_site_type_symbol
_atom_site_label
_atom_site_fract_x
_atom_site_fract_y
_atom_site_fract_z
Si Si1 0.254981 0.049397 0.634174
Si Si2 0.266795 0.796750 0.696192
Si Si3 0.020198 0.641434 0.969351
Si Si4 0.876610 0.703965 0.552871
Si Si5 0.798232 0.098760 0.531826
Si Si6 0.393951 0.674712 0.908629
Si Si7 0.007855 0.523895 0.710879
Si Si8 0.528503 0.075951 0.920937
O O1 0.091404 0.387664 0.805820
O O2 0.500000 0.000000 0.500000
O O3 0.240381 0.933968 0.676457
O O4 0.219634 0.877461 0.535267
O O5 0.500000 0.500000 0.500000
O O6 0.090113 0.716194 0.769448
O O7 0.208606 0.061342 0.854078
O O8 0.213573 0.700082 0.935208
O O9 0.000000 0.500000 0.000000
O O10 0.904532 0.507206 0.414288
O O11 0.000000 0.500000 0.500000
O O12 0.007154 0.844247 0.513279
O O13 0.640706 0.962495 0.763843
O O14 0.565439 0.344557 0.740662
O O15 0.856649 0.791958 0.422213
O O16 0.327831 0.832418 0.061213
O O17 0.528550 0.811406 0.866813
O O18 0.737112 0.673306 0.882480
#
# Coordination Sequence:
#
# PCOD9037494 Si02
#       8
#     2   2   2   2   2   2   2   2
#     4  11  23  43  70 100 131 184 238 276 348 418
#     4  11  25  46  70  98 140 182 230 295 350 412
#     4  10  23  40  67  99 136 181 231 280 344 414
#     4  12  24  43  72 101 133 184 234 280 352 415
#     4  12  25  43  68  98 144 180 228 292 345 416
#     4  11  21  43  70  98 141 180 226 293 342 416
#     4  12  26  47  66 104 146 178 227 294 353 406
#     4  11  24  42  72 103 135 186 233 282 353 414
#
# _framework density 24.716628
#
# number of rings (size 3 to 8) (size 9 to 14) (size 15 to 20)
#    0.000    0.750    5.000    2.625    5.250    0.500 
#    2.250    1.250    0.000    0.000    0.000    0.000 
#    0.000    0.000    0.000    0.000    0.000    0.000 
#
# Total GULP energy -89319.576542 kJ/mol
# GULP energy per Si atom -5582.473534 kJ/mol
# Density = 2.466037 g / cm^3
# Si number density = 24.716628 Si / 1000 Ang^3
#
#
#
# Elastic Constant Matrix: (Units=GPa)
#
#
# Indices 1 2 3 4 5 6 
#
# 1 36.7036 -3.7523 10.6756 5.9081 4.9501 12.6719
# 2 -3.7523 97.6543 20.7735 31.6663 -8.0269 1.9202
# 3 10.6756 20.7735 170.3766 34.5984 0.1686 -4.2395
# 4 5.9081 31.6663 34.5984 50.1994 -1.7202 4.2081
# 5 4.9501 -8.0269 0.1686 -1.7202 23.7622 5.6652
# 6 12.6719 1.9202 -4.2395 4.2081 5.6652 30.0663
#
#
#
# Elastic Compliance Matrix: (Units=1/GPa)
#
#
# Indices 1 2 3 4 5 6 
#
# 1 0.033824 0.002826 -0.002144 -0.003241 -0.003042 -0.013712
# 2 0.002826 0.013462 -0.000143 -0.008465 0.003725 -0.001588
# 3 -0.002144 -0.000143 0.007057 -0.004770 -0.000640 0.002696
# 4 -0.003241 -0.008465 -0.004770 0.029202 0.000674 -0.002980
# 5 -0.003042 0.003725 -0.000640 0.000674 0.045885 -0.007786
# 6 -0.013712 -0.001588 0.002696 -0.002980 -0.007786 0.041405
#
#
# Mechanical properties :
#
#
# Convention : Reuss Voigt Hill
#
# Bulk Modulus (GPa) = 18.04343 40.01422 29.02883
# Shear Modulus (GPa) = 26.56328 39.27475 32.91901
#
# Velocity S-wave (km/s) = 3.28184 3.99055 3.65342
# Velocity P-wave (km/s) = 4.65581 6.12021 5.43754
#
# Compressibility (1/GPa) = 0.05542185
#
# Stress axis : x y z
#
# Youngs Moduli (GPa) = 29.56511 74.28527 141.69551
#
# Poissons Ratio (x) = -0.20995 0.30380
# Poissons Ratio (y) = -0.08356 0.02020
# Poissons Ratio (z) = 0.06339 0.01059
#
# Static dielectric constant tensor:
#      x y z
#    x -1.666790 -0.957330 -1.790380 
#    y -0.957330 1.664260 -0.438420 
#    z -1.790380 -0.438420 1.104940 
# 
# From -- ./inp_files/398929.got.cif
#   From: 2010.05.17/outbox.cif.g08.bks.cpg/sg2_200_cif.got.tgz:398929.got - 2010.06.03 11:33:40.
