data_PCOD9037336
_publ_section_title
;
Structure prediction by ZEFSAII (Michael W. Deem and Ramdas Pophale) SiO2 
 PCOD9037336
Probable space group: P -1
;
_chemical_formula_sum "Si O2"
_cell_formula_units_Z 14
_cell_length_a 15.924339
_cell_length_b 5.282843
_cell_length_c 21.627487
_cell_angle_alpha 75.950792
_cell_angle_beta 159.597487
_cell_angle_gamma 108.429982
_cell_volume 593.803099
_symmetry_space_group_name_H-M "P -1"
_symmetry_group_IT_number 2
_symmetry_cell_setting 'triclinic'
loop_
_space_group_symop_operation_xyz
x,y,z
-x,-y,-z
loop_
_atom_site_type_symbol
_atom_site_label
_atom_site_fract_x
_atom_site_fract_y
_atom_site_fract_z
Si Si1 0.880946 0.678411 0.769095
Si Si2 0.728062 0.911814 0.063120
Si Si3 0.065770 0.810574 0.415214
Si Si4 0.424762 0.332538 0.835126
Si Si5 0.561803 0.166070 0.594884
Si Si6 0.376534 0.371145 0.652495
Si Si7 0.241331 0.205110 0.181344
O O1 0.839387 0.357519 0.763453
O O2 0.661993 0.690000 0.567296
O O3 0.819351 0.729128 0.794390
O O4 0.120153 0.893488 0.897493
O O5 0.921987 0.874777 0.251452
O O6 0.588126 0.617341 0.958243
O O7 0.540470 0.083264 0.947405
O O8 0.850208 0.720352 0.323586
O O9 0.189290 0.563515 0.504214
O O10 0.258016 0.079564 0.558380
O O11 0.418693 0.347494 0.755908
O O12 0.500000 0.000000 0.500000
O O13 0.560203 0.972503 0.662039
O O14 0.633490 0.529541 0.786605
O O15 0.000000 0.000000 0.000000
#
# Coordination Sequence:
#
# PCOD9037336 Si02
#       7
#     2   2   2   2   2   2   2
#     4  10  23  40  65  95 135 177 221 274 329 414
#     4  12  26  43  77 105 140 181 233 286 356 403
#     4  12  26  49  75 103 137 181 242 290 340 419
#     4  12  26  49  71 106 141 180 229 299 353 403
#     4   9  21  39  63  87 134 173 226 268 331 387
#     4  12  27  45  74 103 140 190 230 277 357 417
#     4  11  25  41  63  97 139 175 222 276 333 408
#
# _framework density 23.576840000000001
#
# number of rings (size 3 to 8) (size 9 to 14) (size 15 to 20)
#    0.000    0.857    0.000    6.000   14.000    0.571 
#    0.000    0.000    0.000    0.000    0.000    0.000 
#    0.000    0.000    0.000    0.000    0.000    0.000 
#
# Total GULP energy -78314.043114 kJ/mol
# GULP energy per Si atom -5593.860222 kJ/mol
# Density = 2.352318 g / cm^3
# Si number density = 23.576840 Si / 1000 Ang^3
#
#
#
# Elastic Constant Matrix: (Units=GPa)
#
#
# Indices 1 2 3 4 5 6 
#
# 1 108.6183 25.9543 36.1526 25.8846 -2.5877 24.3748
# 2 25.9543 86.6058 29.1815 14.5578 -23.5382 -9.7140
# 3 36.1526 29.1815 97.5880 33.8208 -16.6152 3.3030
# 4 25.8846 14.5578 33.8208 57.5651 -11.3793 -1.0378
# 5 -2.5877 -23.5382 -16.6152 -11.3793 29.1211 1.6429
# 6 24.3748 -9.7140 3.3030 -1.0378 1.6429 46.9410
#
#
#
# Elastic Compliance Matrix: (Units=1/GPa)
#
#
# Indices 1 2 3 4 5 6 
#
# 1 0.014130 -0.004958 -0.002821 -0.004725 -0.005753 -0.008068
# 2 -0.004958 0.017620 -0.001984 0.001609 0.012963 0.005942
# 3 -0.002821 -0.001984 0.014702 -0.006045 0.004187 -0.000261
# 4 -0.004725 0.001609 -0.006045 0.024012 0.006616 0.003511
# 5 -0.005753 0.012963 0.004187 0.006616 0.049066 0.003804
# 6 -0.008068 0.005942 -0.000261 0.003511 0.003804 0.026685
#
#
# Mechanical properties :
#
#
# Convention : Reuss Voigt Hill
#
# Bulk Modulus (GPa) = 37.13786 52.82098 44.97942
# Shear Modulus (GPa) = 28.61809 40.16035 34.38922
#
# Velocity S-wave (km/s) = 3.48777 4.13168 3.82331
# Velocity P-wave (km/s) = 5.65734 6.72410 6.21365
#
# Compressibility (1/GPa) = 0.02692670
#
# Stress axis : x y z
#
# Youngs Moduli (GPa) = 70.77391 56.75337 68.01860
#
# Poissons Ratio (x) = 0.28139 0.19186
# Poissons Ratio (y) = 0.35090 0.13492
# Poissons Ratio (z) = 0.19963 0.11258
#
# Static dielectric constant tensor:
#      x y z
#    x 1.952390 -0.077360 0.053350 
#    y -0.077360 2.017910 -0.051430 
#    z 0.053350 -0.051430 1.933100 
# 
# From -- ./inp_files/33723.got.cif
#   From: 2010.05.17/outbox.cif.g08.bks.cpg/sg2_17_cif.got.tgz:33723.got - 2010.06.03 11:33:40.
