data_PCOD9037402
_publ_section_title
;
Structure prediction by ZEFSAII (Michael W. Deem and Ramdas Pophale) SiO2 
 PCOD9037402
Probable space group: P -1
;
_chemical_formula_sum "Si O2"
_cell_formula_units_Z 16
_cell_length_a 8.137999
_cell_length_b 6.427205
_cell_length_c 13.488848
_cell_angle_alpha 97.636707
_cell_angle_beta 79.984382
_cell_angle_gamma 67.038650
_cell_volume 623.854310
_symmetry_space_group_name_H-M "P -1"
_symmetry_group_IT_number 2
_symmetry_cell_setting 'triclinic'
loop_
_space_group_symop_operation_xyz
x,y,z
-x,-y,-z
loop_
_atom_site_type_symbol
_atom_site_label
_atom_site_fract_x
_atom_site_fract_y
_atom_site_fract_z
Si Si1 0.280136 0.054661 0.270315
Si Si2 0.074552 0.179631 0.907750
Si Si3 0.419933 0.228224 0.927894
Si Si4 0.025179 0.897591 0.380376
Si Si5 0.407912 0.227426 0.451152
Si Si6 0.970476 0.516397 0.258350
Si Si7 0.304270 0.747340 0.942889
Si Si8 0.286500 0.643449 0.644202
O O1 0.286449 0.168304 0.382065
O O2 0.134583 0.262046 0.232703
O O3 0.466944 0.947433 0.181869
O O4 0.212947 0.859755 0.300739
O O5 0.210063 0.256113 0.964850
O O6 0.030985 0.333320 0.825610
O O7 0.214717 0.908337 0.867745
O O8 0.880635 0.200306 0.970166
O O9 0.401657 0.475445 0.905554
O O10 0.550405 0.184981 0.008234
O O11 0.985397 0.673022 0.358089
O O12 0.878120 0.113439 0.349888
O O13 0.000000 0.000000 0.500000
O O14 0.318762 0.458949 0.539742
O O15 0.543366 0.290809 0.370130
O O16 0.500000 0.000000 0.500000
O O17 0.782773 0.483243 0.274976
#
# Coordination Sequence:
#
# PCOD9037402 Si02
#       8
#     2   2   2   2   2   2   2   2
#     4  11  26  43  68 108 143 184 243 300 363 431
#     4  11  25  46  77 104 143 191 236 307 363 443
#     4  11  25  46  75 108 144 184 238 311 362 442
#     4  11  22  42  68  96 142 194 238 294 357 423
#     4  11  23  43  67 100 144 192 243 295 354 423
#     4  11  25  45  67 105 147 185 244 297 366 430
#     4  10  25  51  76 105 142 189 245 292 381 445
#     4  10  23  40  66  95 139 192 240 287 350 425
#
# _framework density 25.647016000000001
#
# number of rings (size 3 to 8) (size 9 to 14) (size 15 to 20)
#    0.000    1.250    0.000    4.500    3.500   11.000 
#    2.250    0.000    0.000    0.000    0.000    0.000 
#    0.000    0.000    0.000    0.000    0.000    0.000 
#
# Total GULP energy -89460.905539 kJ/mol
# GULP energy per Si atom -5591.306596 kJ/mol
# Density = 2.558864 g / cm^3
# Si number density = 25.647016 Si / 1000 Ang^3
#
#
#
# Elastic Constant Matrix: (Units=GPa)
#
#
# Indices 1 2 3 4 5 6 
#
# 1 136.1195 22.9695 32.9662 -6.1324 -3.3366 27.4203
# 2 22.9695 100.7357 20.8549 -5.2445 -1.0243 8.8347
# 3 32.9662 20.8549 68.2793 -8.2399 4.2219 -3.7421
# 4 -6.1324 -5.2445 -8.2399 50.1587 1.9092 2.9041
# 5 -3.3366 -1.0243 4.2219 1.9092 42.9013 -6.4055
# 6 27.4203 8.8347 -3.7421 2.9041 -6.4055 50.9054
#
#
#
# Elastic Compliance Matrix: (Units=1/GPa)
#
#
# Indices 1 2 3 4 5 6 
#
# 1 0.009754 -0.000728 -0.004732 0.000642 0.000362 -0.005467
# 2 -0.000728 0.010904 -0.003009 0.000649 0.000212 -0.001732
# 3 -0.004732 -0.003009 0.018417 0.001961 -0.001728 0.004095
# 4 0.000642 0.000649 0.001961 0.020550 -0.001288 -0.001649
# 5 0.000362 0.000212 -0.001728 -0.001288 0.023978 0.002732
# 6 -0.005467 -0.001732 0.004095 -0.001649 0.002732 0.023628
#
#
# Mechanical properties :
#
#
# Convention : Reuss Voigt Hill
#
# Bulk Modulus (GPa) = 45.17013 50.96839 48.06926
# Shear Modulus (GPa) = 38.00923 44.01599 41.01261
#
# Velocity S-wave (km/s) = 3.85387 4.14723 4.00324
# Velocity P-wave (km/s) = 6.11993 6.54590 6.33650
#
# Compressibility (1/GPa) = 0.02213852
#
# Stress axis : x y z
#
# Youngs Moduli (GPa) = 102.51886 91.71245 54.29722
#
# Poissons Ratio (x) = 0.06677 0.25692
# Poissons Ratio (y) = 0.07464 0.16336
# Poissons Ratio (z) = 0.48509 0.27592
#
# Static dielectric constant tensor:
#      x y z
#    x 2.162440 0.062780 -0.042090 
#    y 0.062780 2.001850 -0.007390 
#    z -0.042090 -0.007390 2.067690 
# 
# From -- ./inp_files/488546.got.cif
#   From: 2010.05.17/outbox.cif.g08.bks.cpg/sg2_245_cif.got.tgz:488546.got - 2010.06.03 11:33:40.
