data_PCOD9037558
_publ_section_title
;
Structure prediction by ZEFSAII (Michael W. Deem and Ramdas Pophale) SiO2 
 PCOD9037558
Probable space group: P -1
;
_chemical_formula_sum "Si O2"
_cell_formula_units_Z 14
_cell_length_a 5.052850
_cell_length_b 8.518950
_cell_length_c 30.009705
_cell_angle_alpha 28.778890
_cell_angle_beta 93.828082
_cell_angle_gamma 101.871442
_cell_volume 590.656473
_symmetry_space_group_name_H-M "P -1"
_symmetry_group_IT_number 2
_symmetry_cell_setting 'triclinic'
loop_
_space_group_symop_operation_xyz
x,y,z
-x,-y,-z
loop_
_atom_site_type_symbol
_atom_site_label
_atom_site_fract_x
_atom_site_fract_y
_atom_site_fract_z
Si Si1 0.192427 0.290006 0.034626
Si Si2 0.624579 0.303496 0.352888
Si Si3 0.277116 0.544748 0.520991
Si Si4 0.837007 0.465105 0.753240
Si Si5 0.623906 0.597221 0.813968
Si Si6 0.107140 0.475147 0.890849
Si Si7 0.091623 0.189756 0.697427
O O1 0.134419 0.911269 0.147183
O O2 0.500000 0.500000 0.000000
O O3 0.164503 0.291633 0.980631
O O4 0.000000 0.500000 0.000000
O O5 0.414801 0.521922 0.285038
O O6 0.812076 0.477604 0.353779
O O7 0.858368 0.311280 0.315974
O O8 0.414504 0.922574 0.449145
O O9 0.500000 0.500000 0.500000
O O10 0.216223 0.284421 0.626268
O O11 0.000000 0.500000 0.500000
O O12 0.730479 0.581686 0.769286
O O13 0.784559 0.381179 0.898034
O O14 0.300648 0.456285 0.855924
O O15 0.763700 0.988429 0.735499
O O16 0.180799 0.884733 0.797700
#
# Coordination Sequence:
#
# PCOD9037558 Si02
#       7
#     2   2   2   2   2   2   2
#     4  12  25  43  68 103 141 181 228 282 341 400
#     4  12  26  44  71 104 137 183 228 282 344 403
#     4  12  27  46  72 102 138 180 229 281 345 412
#     4  12  26  45  70 102 141 182 232 280 338 409
#     4  10  23  41  67  96 140 178 224 279 344 392
#     4  10  23  40  68  97 137 180 225 274 345 394
#     4  10  25  43  71  99 142 171 231 282 346 400
#
# _framework density 23.702439999999999
#
# number of rings (size 3 to 8) (size 9 to 14) (size 15 to 20)
#    0.857    0.000    0.000    7.286    8.000    1.143 
#    0.000    2.857    0.000    0.000    0.000    0.000 
#    0.000    0.000    0.000    0.000    0.000    0.000 
#
# Total GULP energy -78278.760783 kJ/mol
# GULP energy per Si atom -5591.340056 kJ/mol
# Density = 2.364849 g / cm^3
# Si number density = 23.702440 Si / 1000 Ang^3
#
#
#
# Elastic Constant Matrix: (Units=GPa)
#
#
# Indices 1 2 3 4 5 6 
#
# 1 117.6581 3.0943 5.7014 -5.4598 -12.4439 -6.4381
# 2 3.0943 76.0432 15.1674 -21.1422 0.2744 0.1758
# 3 5.7014 15.1674 81.0594 -7.9418 -6.0977 3.0144
# 4 -5.4598 -21.1422 -7.9418 38.5359 3.0573 -5.6739
# 5 -12.4439 0.2744 -6.0977 3.0573 25.2750 1.4268
# 6 -6.4381 0.1758 3.0144 -5.6739 1.4268 35.3647
#
#
#
# Elastic Compliance Matrix: (Units=1/GPa)
#
#
# Indices 1 2 3 4 5 6 
#
# 1 0.009101 -0.000017 -0.000274 0.001141 0.004181 0.001695
# 2 -0.000017 0.016041 -0.002349 0.008698 -0.001891 0.001589
# 3 -0.000274 -0.002349 0.013160 0.000980 0.003011 -0.001124
# 4 0.001141 0.008698 0.000980 0.032155 -0.003489 0.005381
# 5 0.004181 -0.001891 0.003011 -0.003489 0.042893 -0.001776
# 6 0.001695 0.001589 -0.001124 0.005381 -0.001776 0.029608
#
#
# Mechanical properties :
#
#
# Convention : Reuss Voigt Hill
#
# Bulk Modulus (GPa) = 30.28389 35.85411 33.06900
# Shear Modulus (GPa) = 31.39812 36.55496 33.97654
#
# Velocity S-wave (km/s) = 3.64356 3.93140 3.79022
# Velocity P-wave (km/s) = 5.52315 5.98059 5.75642
#
# Compressibility (1/GPa) = 0.03302086
#
# Stress axis : x y z
#
# Youngs Moduli (GPa) = 109.88021 62.33933 75.98915
#
# Poissons Ratio (x) = 0.00109 0.02078
# Poissons Ratio (y) = 0.00192 0.17854
# Poissons Ratio (z) = 0.03005 0.14647
#
# Static dielectric constant tensor:
#      x y z
#    x 1.838130 -0.001900 0.024490 
#    y -0.001900 1.940500 -0.020500 
#    z 0.024490 -0.020500 1.895140 
# 
# From -- ./inp_files/621636.got.cif
#   From: 2010.05.17/outbox.cif.g08.bks.cpg/sg2_311_cif.got.tgz:621636.got - 2010.06.03 11:33:40.
