data_PCOD9037873
_publ_section_title
;
Structure prediction by ZEFSAII (Michael W. Deem and Ramdas Pophale) SiO2 
 PCOD9037873
Probable space group: P -1
;
_chemical_formula_sum "Si O2"
_cell_formula_units_Z 16
_cell_length_a 8.478196
_cell_length_b 5.964115
_cell_length_c 22.544113
_cell_angle_alpha 72.400690
_cell_angle_beta 134.384629
_cell_angle_gamma 122.000942
_cell_volume 686.470125
_symmetry_space_group_name_H-M "P -1"
_symmetry_group_IT_number 2
_symmetry_cell_setting 'triclinic'
loop_
_space_group_symop_operation_xyz
x,y,z
-x,-y,-z
loop_
_atom_site_type_symbol
_atom_site_label
_atom_site_fract_x
_atom_site_fract_y
_atom_site_fract_z
Si Si1 0.098178 0.275509 0.900723
Si Si2 0.904321 0.176813 0.325477
Si Si3 0.517444 0.129485 0.056862
Si Si4 0.131070 0.553314 0.593690
Si Si5 0.261926 0.967034 0.403654
Si Si6 0.881920 0.310812 0.732650
Si Si7 0.780011 0.343594 0.906413
Si Si8 0.546456 0.406986 0.735433
O O1 0.233218 0.594154 0.898459
O O2 0.006318 0.173589 0.818549
O O3 0.881011 0.207945 0.895774
O O4 0.292908 0.205357 0.989863
O O5 0.889134 0.227891 0.387734
O O6 0.916459 0.419489 0.269271
O O7 0.665317 0.890632 0.277844
O O8 0.165060 0.180896 0.374936
O O9 0.454040 0.892038 0.104378
O O10 0.500000 0.000000 0.000000
O O11 0.401945 0.567061 0.663133
O O12 0.000000 0.500000 0.500000
O O13 0.963856 0.290820 0.607502
O O14 0.271343 0.889729 0.344266
O O15 0.500000 0.000000 0.500000
O O16 0.711271 0.377049 0.728145
O O17 0.701661 0.518777 0.828667
O O18 0.000000 0.500000 0.000000
#
# Coordination Sequence:
#
# PCOD9037873 Si02
#       8
#     2   2   2   2   2   2   2   2
#     4  10  23  42  61  95 122 167 214 261 317 375
#     4  10  23  43  62  91 129 166 204 264 315 372
#     4  11  22  39  66  90 127 168 206 265 318 372
#     4  10  24  41  65  96 126 164 210 260 319 379
#     4  10  24  40  63  94 122 166 210 259 319 378
#     4  10  23  41  64  91 126 161 219 256 310 381
#     4  11  22  44  63  93 131 165 214 263 315 379
#     4  10  24  42  65  94 125 169 213 258 318 376
#
# _framework density 23.307641
#
# number of rings (size 3 to 8) (size 9 to 14) (size 15 to 20)
#    0.000    1.750    1.250    1.125    5.250    6.000 
#    6.750    0.000    0.000    0.000    0.000    0.000 
#    0.000    0.000    0.000    0.000    0.000    0.000 
#
# Total GULP energy -89291.883870 kJ/mol
# GULP energy per Si atom -5580.742742 kJ/mol
# Density = 2.325459 g / cm^3
# Si number density = 23.307641 Si / 1000 Ang^3
#
#
#
# Elastic Constant Matrix: (Units=GPa)
#
#
# Indices 1 2 3 4 5 6 
#
# 1 102.5670 8.1442 36.1693 -6.1087 -16.5112 6.0929
# 2 8.1442 56.7930 14.7115 -4.5186 -12.1177 15.6189
# 3 36.1693 14.7115 161.5434 -1.3449 -34.0711 -9.0377
# 4 -6.1087 -4.5186 -1.3449 21.0560 3.1736 -4.1868
# 5 -16.5112 -12.1177 -34.0711 3.1736 43.4681 -0.7864
# 6 6.0929 15.6189 -9.0377 -4.1868 -0.7864 32.4893
#
#
#
# Elastic Compliance Matrix: (Units=1/GPa)
#
#
# Indices 1 2 3 4 5 6 
#
# 1 0.011154 0.000345 -0.002133 0.002309 0.002447 -0.002494
# 2 0.000345 0.022111 -0.001704 0.001889 0.004625 -0.010813
# 3 -0.002133 -0.001704 0.008107 -0.000545 0.005173 0.003530
# 4 0.002309 0.001889 -0.000545 0.049891 -0.002578 0.004874
# 5 0.002447 0.004625 0.005173 -0.002578 0.029451 -0.000863
# 6 -0.002494 -0.010813 0.003530 0.004874 -0.000863 0.038034
#
#
# Mechanical properties :
#
#
# Convention : Reuss Voigt Hill
#
# Bulk Modulus (GPa) = 29.08102 48.77263 38.92682
# Shear Modulus (GPa) = 28.21736 36.86123 32.53930
#
# Velocity S-wave (km/s) = 3.48321 3.98113 3.74047
# Velocity P-wave (km/s) = 5.35548 6.48873 5.94915
#
# Compressibility (1/GPa) = 0.03438669
#
# Stress axis : x y z
#
# Youngs Moduli (GPa) = 89.65259 45.22682 123.35064
#
# Poissons Ratio (x) = -0.01559 0.26310
# Poissons Ratio (y) = -0.03091 0.21025
# Poissons Ratio (z) = 0.19122 0.07709
#
# Static dielectric constant tensor:
#      x y z
#    x 1.941830 -0.079950 0.125970 
#    y -0.079950 1.978500 -0.027190 
#    z 0.125970 -0.027190 2.134360 
# 
# From -- ./inp_files/52680.got.cif
#   From: 2010.05.17/outbox.cif.g08.bks.cpg/sg2_27_cif.got.tgz:52680.got - 2010.06.03 11:33:40.
