data_PCOD9037892
_publ_section_title
;
Structure prediction by ZEFSAII (Michael W. Deem and Ramdas Pophale) SiO2 
 PCOD9037892
Probable space group: P -1
;
_chemical_formula_sum "Si O2"
_cell_formula_units_Z 16
_cell_length_a 8.271489
_cell_length_b 15.039280
_cell_length_c 16.400544
_cell_angle_alpha 149.221844
_cell_angle_beta 74.369028
_cell_angle_gamma 85.112561
_cell_volume 770.287832
_symmetry_space_group_name_H-M "P -1"
_symmetry_group_IT_number 2
_symmetry_cell_setting 'triclinic'
loop_
_space_group_symop_operation_xyz
x,y,z
-x,-y,-z
loop_
_atom_site_type_symbol
_atom_site_label
_atom_site_fract_x
_atom_site_fract_y
_atom_site_fract_z
Si Si1 0.839379 0.910703 0.131073
Si Si2 0.102858 0.321900 0.416583
Si Si3 0.468612 0.730275 0.685460
Si Si4 0.130091 0.943991 0.025698
Si Si5 0.008162 0.420748 0.689135
Si Si6 0.524450 0.893242 0.540856
Si Si7 0.164938 0.731162 0.277674
Si Si8 0.402752 0.333762 0.818752
O O1 0.077837 0.825754 0.003665
O O2 0.693714 0.102855 0.233335
O O3 0.699408 0.030960 0.327672
O O4 0.875452 0.681848 0.936636
O O5 0.332241 0.270304 0.354981
O O6 0.983344 0.410133 0.588374
O O7 0.000000 0.500000 0.500000
O O8 0.084005 0.142617 0.242064
O O9 0.500000 0.500000 0.500000
O O10 0.370083 0.819191 0.859118
O O11 0.000000 0.000000 0.000000
O O12 0.268765 0.254682 0.543024
O O13 0.914827 0.326928 0.681200
O O14 0.609485 0.737694 0.326050
O O15 0.469550 0.127652 0.705618
O O16 0.399189 0.661560 0.206773
O O17 0.196672 0.575983 0.075078
O O18 0.000000 0.000000 0.500000
#
# Coordination Sequence:
#
# PCOD9037892 Si02
#       8
#     2   2   2   2   2   2   2   2
#     4  11  23  44  66  99 140 176 230 291 344 422
#     4  12  24  43  69 101 137 181 234 285 353 421
#     4  11  22  44  71  94 137 183 225 289 355 413
#     4  10  23  41  64  94 131 179 228 283 342 406
#     4  12  25  43  68 102 137 183 230 291 354 421
#     4  11  23  44  70 101 137 182 230 289 352 421
#     4  11  23  44  69 100 144 180 230 293 349 423
#     4  10  24  44  70 100 136 183 229 283 360 422
#
# _framework density 20.771456000000001
#
# number of rings (size 3 to 8) (size 9 to 14) (size 15 to 20)
#    0.000    1.000    3.750    4.125    1.750    1.500 
#    0.000    0.000    0.000    0.000    0.000    0.000 
#    0.000    0.000    0.000    0.000    0.000    0.000 
#
# Total GULP energy -89152.522941 kJ/mol
# GULP energy per Si atom -5572.032684 kJ/mol
# Density = 2.072418 g / cm^3
# Si number density = 20.771456 Si / 1000 Ang^3
#
#
#
# Elastic Constant Matrix: (Units=GPa)
#
#
# Indices 1 2 3 4 5 6 
#
# 1 37.1493 23.2044 6.4293 -8.7604 6.7940 19.5768
# 2 23.2044 136.4217 61.9024 -9.7856 1.9981 24.3123
# 3 6.4293 61.9024 126.7677 -13.8898 12.0852 -2.5911
# 4 -8.7604 -9.7856 -13.8898 46.7367 10.6901 -6.2652
# 5 6.7940 1.9981 12.0852 10.6901 30.3351 -6.6906
# 6 19.5768 24.3123 -2.5911 -6.2652 -6.6906 37.8066
#
#
#
# Elastic Compliance Matrix: (Units=1/GPa)
#
#
# Indices 1 2 3 4 5 6 
#
# 1 0.047569 -0.003652 0.001891 0.010071 -0.020015 -0.024027
# 2 -0.003652 0.011539 -0.005835 -0.001128 0.001489 -0.005853
# 3 0.001891 -0.005835 0.011705 0.004312 -0.005490 0.003318
# 4 0.010071 -0.001128 0.004312 0.027237 -0.013972 -0.002153
# 5 -0.020015 0.001489 -0.005490 -0.013972 0.047808 0.015176
# 6 -0.024027 -0.005853 0.003318 -0.002153 0.015176 0.045212
#
#
# Mechanical properties :
#
#
# Convention : Reuss Voigt Hill
#
# Bulk Modulus (GPa) = 17.97813 53.71234 35.84523
# Shear Modulus (GPa) = 22.24173 36.89584 29.56879
#
# Velocity S-wave (km/s) = 3.27583 4.21916 3.77706
# Velocity P-wave (km/s) = 4.79397 7.04627 6.02628
#
# Compressibility (1/GPa) = 0.05562314
#
# Stress axis : x y z
#
# Youngs Moduli (GPa) = 21.02200 86.66053 85.43057
#
# Poissons Ratio (x) = 0.31646 -0.16156
# Poissons Ratio (y) = 0.07677 0.49846
# Poissons Ratio (z) = -0.03975 0.50564
#
# Static dielectric constant tensor:
#      x y z
#    x 1.783550 0.038290 -0.171500 
#    y 0.038290 1.776780 -0.084450 
#    z -0.171500 -0.084450 1.946520 
# 
# From -- ./inp_files/505755.got.cif
#   From: 2010.05.17/outbox.cif.g08.bks.cpg/sg2_253_cif.got.tgz:505755.got - 2010.06.03 11:33:40.
