data_PCOD9037447
_publ_section_title
;
Structure prediction by ZEFSAII (Michael W. Deem and Ramdas Pophale) SiO2 
 PCOD9037447
Probable space group: P -1
;
_chemical_formula_sum "Si O2"
_cell_formula_units_Z 14
_cell_length_a 7.268284
_cell_length_b 11.480241
_cell_length_c 14.060512
_cell_angle_alpha 48.237597
_cell_angle_beta 51.839757
_cell_angle_gamma 44.106553
_cell_volume 586.647676
_symmetry_space_group_name_H-M "P -1"
_symmetry_group_IT_number 2
_symmetry_cell_setting 'triclinic'
loop_
_space_group_symop_operation_xyz
x,y,z
-x,-y,-z
loop_
_atom_site_type_symbol
_atom_site_label
_atom_site_fract_x
_atom_site_fract_y
_atom_site_fract_z
Si Si1 0.827612 0.722950 0.944521
Si Si2 0.579986 0.744902 0.826462
Si Si3 0.626945 0.353750 0.656210
Si Si4 0.342355 0.328441 0.583937
Si Si5 0.759164 0.984653 0.535517
Si Si6 0.932834 0.036384 0.253482
Si Si7 0.907218 0.615478 0.175119
O O1 0.581186 0.785762 0.915331
O O2 0.971800 0.831347 0.806008
O O3 0.795330 0.762637 0.046078
O O4 0.000000 0.500000 0.000000
O O5 0.282084 0.847127 0.822260
O O6 0.774484 0.527475 0.866873
O O7 0.747231 0.816229 0.673405
O O8 0.592242 0.304482 0.585307
O O9 0.749568 0.483319 0.543357
O O10 0.307789 0.455782 0.734259
O O11 0.814986 0.160815 0.751756
O O12 0.470661 0.160778 0.564186
O O13 0.143178 0.329499 0.728083
O O14 0.794835 0.989351 0.409397
O O15 0.000000 0.000000 0.500000
#
# Coordination Sequence:
#
# PCOD9037447 Si02
#       7
#     2   2   2   2   2   2   2
#     4  10  23  40  67  86 123 167 208 245 305 366
#     4  11  23  41  63  95 122 157 212 253 301 364
#     4   9  18  36  61  90 123 157 199 250 312 355
#     4   9  18  33  65  86 120 161 198 246 307 363
#     4  12  19  37  66  92 122 161 204 251 309 364
#     4  12  24  39  64  96 121 159 206 260 303 358
#     4   9  19  39  62  86 121 166 199 245 306 365
#
# _framework density 23.864409999999999
#
# number of rings (size 3 to 8) (size 9 to 14) (size 15 to 20)
#    0.857    0.857    2.857    2.143    2.000    2.857 
#    0.000    3.571    0.000    0.000    0.000    0.000 
#    0.000    0.000    0.000    0.000    0.000    0.000 
#
# Total GULP energy -78073.946684 kJ/mol
# GULP energy per Si atom -5576.710477 kJ/mol
# Density = 2.381009 g / cm^3
# Si number density = 23.864410 Si / 1000 Ang^3
#
#
#
# Elastic Constant Matrix: (Units=GPa)
#
#
# Indices 1 2 3 4 5 6 
#
# 1 76.8339 30.6463 -0.2738 -10.4492 19.0782 -15.6543
# 2 30.6463 97.4912 14.5703 -13.9234 11.9979 -20.0134
# 3 -0.2738 14.5703 75.2967 -5.4617 8.6678 -1.0620
# 4 -10.4492 -13.9234 -5.4617 19.7158 -13.4988 4.6323
# 5 19.0782 11.9979 8.6678 -13.4988 24.5658 -9.8631
# 6 -15.6543 -20.0134 -1.0620 4.6323 -9.8631 24.7209
#
#
#
# Elastic Compliance Matrix: (Units=1/GPa)
#
#
# Indices 1 2 3 4 5 6 
#
# 1 0.018246 -0.004045 0.002203 -0.002098 -0.012628 0.003729
# 2 -0.004045 0.014501 -0.002704 0.009124 0.005928 0.009718
# 3 0.002203 -0.002704 0.014530 -0.000976 -0.007202 -0.002861
# 4 -0.002098 0.009124 -0.000976 0.087297 0.049219 0.009295
# 5 -0.012628 0.005928 -0.007202 0.049219 0.085846 0.021522
# 6 0.003729 0.009718 -0.002861 0.009295 0.021522 0.057403
#
#
# Mechanical properties :
#
#
# Convention : Reuss Voigt Hill
#
# Bulk Modulus (GPa) = 26.18811 37.72305 31.95558
# Shear Modulus (GPa) = 16.68645 27.44576 22.06610
#
# Velocity S-wave (km/s) = 2.64714 3.39495 3.04410
# Velocity P-wave (km/s) = 4.51007 5.58651 5.07690
#
# Compressibility (1/GPa) = 0.03818527
#
# Stress axis : x y z
#
# Youngs Moduli (GPa) = 54.80541 68.95851 68.82299
#
# Poissons Ratio (x) = 0.27894 -0.15163
# Poissons Ratio (y) = 0.22169 0.18613
# Poissons Ratio (z) = -0.12074 0.18649
#
# Static dielectric constant tensor:
#      x y z
#    x 1.923020 -0.015900 -0.014170 
#    y -0.015900 1.944280 -0.001480 
#    z -0.014170 -0.001480 1.988200 
# 
# From -- ./inp_files/502603.got.cif
#   From: 2010.05.17/outbox.cif.g08.bks.cpg/sg2_252_cif.got.tgz:502603.got - 2010.06.03 11:33:40.
