data_PCOD9037256
_publ_section_title
;
Structure prediction by ZEFSAII (Michael W. Deem and Ramdas Pophale) SiO2 
 PCOD9037256
Probable space group: P -1
;
_chemical_formula_sum "Si O2"
_cell_formula_units_Z 10
_cell_length_a 8.445838
_cell_length_b 5.860566
_cell_length_c 12.471827
_cell_angle_alpha 77.028731
_cell_angle_beta 41.989827
_cell_angle_gamma 79.759019
_cell_volume 402.393046
_symmetry_space_group_name_H-M "P -1"
_symmetry_group_IT_number 2
_symmetry_cell_setting 'triclinic'
loop_
_space_group_symop_operation_xyz
x,y,z
-x,-y,-z
loop_
_atom_site_type_symbol
_atom_site_label
_atom_site_fract_x
_atom_site_fract_y
_atom_site_fract_z
Si Si1 0.504841 0.148571 0.874411
Si Si2 0.027563 0.658027 0.309575
Si Si3 0.749501 0.920963 0.583327
Si Si4 0.001776 0.903757 0.889935
Si Si5 0.712473 0.319367 0.393338
O O1 0.713696 0.331753 0.768750
O O2 0.571446 0.964953 0.765649
O O3 0.240161 0.241944 0.980686
O O4 0.500000 0.000000 0.000000
O O5 0.953728 0.429804 0.307173
O O6 0.830903 0.695635 0.497838
O O7 0.010676 0.877436 0.211465
O O8 0.663601 0.099404 0.515697
O O9 0.000000 0.000000 0.500000
O O10 0.226054 0.753659 0.750939
O O11 0.000000 0.000000 0.000000
O O12 0.500000 0.500000 0.500000
#
# Coordination Sequence:
#
# PCOD9037256 Si02
#       5
#     2   2   2   2   2
#     4   9  19  39  63  91 118 166 211 258 311 368
#     4   9  21  41  63  89 129 163 213 262 309 376
#     4   9  20  40  66  89 126 170 212 251 318 378
#     4  10  23  40  64  90 129 169 206 260 324 373
#     4  11  25  40  62  99 129 165 214 258 318 380
#
# _framework density 24.851323000000001
#
# number of rings (size 3 to 8) (size 9 to 14) (size 15 to 20)
#    0.000    2.400    0.000    1.200    5.600    6.400 
#    0.000    0.000    0.000    0.000    0.000    0.000 
#    0.000    0.000    0.000    0.000    0.000    0.000 
#
# Total GULP energy -55896.889956 kJ/mol
# GULP energy per Si atom -5589.688996 kJ/mol
# Density = 2.479476 g / cm^3
# Si number density = 24.851323 Si / 1000 Ang^3
#
#
#
# Elastic Constant Matrix: (Units=GPa)
#
#
# Indices 1 2 3 4 5 6 
#
# 1 107.3023 20.0345 59.1758 17.6278 -1.8513 12.0969
# 2 20.0345 47.6855 46.3420 8.6631 0.3480 -7.3499
# 3 59.1758 46.3420 212.4492 39.4313 27.7115 -1.8772
# 4 17.6278 8.6631 39.4313 43.7301 6.2828 0.0513
# 5 -1.8513 0.3480 27.7115 6.2828 50.9469 5.6333
# 6 12.0969 -7.3499 -1.8772 0.0513 5.6333 40.0914
#
#
#
# Elastic Compliance Matrix: (Units=1/GPa)
#
#
# Indices 1 2 3 4 5 6 
#
# 1 0.012355 -0.002793 -0.002816 -0.002285 0.002808 -0.004764
# 2 -0.002793 0.028485 -0.005732 0.000333 0.002174 0.005491
# 3 -0.002816 -0.005732 0.008097 -0.004457 -0.004000 0.000746
# 4 -0.002285 0.000333 -0.004457 0.027910 -0.001177 0.000672
# 5 0.002808 0.002174 -0.004000 -0.001177 0.022456 -0.003790
# 6 -0.004764 0.005491 0.000746 0.000672 -0.003790 0.027954
#
#
# Mechanical properties :
#
#
# Convention : Reuss Voigt Hill
#
# Bulk Modulus (GPa) = 38.08996 68.72685 53.40841
# Shear Modulus (GPa) = 31.50759 43.07931 37.29345
#
# Velocity S-wave (km/s) = 3.56454 4.16803 3.87804
# Velocity P-wave (km/s) = 5.68346 7.13292 6.44904
#
# Compressibility (1/GPa) = 0.02625363
#
# Stress axis : x y z
#
# Youngs Moduli (GPa) = 80.93798 35.10615 123.49575
#
# Poissons Ratio (x) = 0.09807 0.34780
# Poissons Ratio (y) = 0.22610 0.70791
# Poissons Ratio (z) = 0.22795 0.20124
#
# Static dielectric constant tensor:
#      x y z
#    x 2.029120 0.015650 -0.029600 
#    y 0.015650 1.971120 0.006740 
#    z -0.029600 0.006740 1.963520 
# 
# From -- ./inp_files/371662.got.cif
#   From: 2010.05.17/outbox.cif.g08.bks.cpg/sg2_186_cif.got.tgz:371662.got - 2010.06.03 11:33:40.
