data_PCOD9037798
_publ_section_title
;
Structure prediction by ZEFSAII (Michael W. Deem and Ramdas Pophale) SiO2 
 PCOD9037798
Probable space group: P -1
;
_chemical_formula_sum "Si O2"
_cell_formula_units_Z 16
_cell_length_a 8.847165
_cell_length_b 10.445384
_cell_length_c 7.569875
_cell_angle_alpha 81.538575
_cell_angle_beta 118.463674
_cell_angle_gamma 83.986979
_cell_volume 595.862478
_symmetry_space_group_name_H-M "P -1"
_symmetry_group_IT_number 2
_symmetry_cell_setting 'triclinic'
loop_
_space_group_symop_operation_xyz
x,y,z
-x,-y,-z
loop_
_atom_site_type_symbol
_atom_site_label
_atom_site_fract_x
_atom_site_fract_y
_atom_site_fract_z
Si Si1 0.813579 0.032239 0.788941
Si Si2 0.895659 0.744869 0.739132
Si Si3 0.330782 0.936435 0.918292
Si Si4 0.447511 0.735448 0.713523
Si Si5 0.668472 0.506631 0.207031
Si Si6 0.004266 0.164898 0.594024
Si Si7 0.135282 0.350944 0.912162
Si Si8 0.579663 0.631826 0.472371
O O1 0.790461 0.888933 0.729627
O O2 0.844446 0.118135 0.617541
O O3 0.699010 0.089147 0.885147
O O4 0.000000 0.000000 0.000000
O O5 0.997340 0.788124 0.619644
O O6 0.980841 0.671831 0.979574
O O7 0.778186 0.641558 0.630527
O O8 0.373091 0.824422 0.818116
O O9 0.162712 0.037467 0.727771
O O10 0.500000 0.000000 0.000000
O O11 0.318986 0.629021 0.655723
O O12 0.657671 0.692487 0.901829
O O13 0.480288 0.748755 0.518933
O O14 0.597836 0.628846 0.273302
O O15 0.500000 0.500000 0.000000
O O16 0.842218 0.513829 0.195284
O O17 0.072572 0.268622 0.738002
O O18 0.500000 0.500000 0.500000
#
# Coordination Sequence:
#
# PCOD9037798 Si02
#       8
#     2   2   2   2   2   2   2   2
#     4  10  21  37  56  82 117 155 194 228 282 341
#     4  11  19  34  57  83 113 147 195 238 277 334
#     4  11  19  36  57  83 121 150 182 239 288 344
#     4   9  18  31  53  81 116 147 181 232 292 332
#     4   9  17  30  52  79 114 148 185 235 290 335
#     4  11  21  35  58  83 114 154 191 229 283 339
#     4  10  17  33  52  83 109 142 187 236 278 325
#     4   9  17  30  50  83 111 138 186 237 278 331
#
# _framework density 26.851834
#
# number of rings (size 3 to 8) (size 9 to 14) (size 15 to 20)
#    0.000    2.000    5.000    1.875    0.000    0.000 
#    0.000    8.125    0.000    0.750    0.000   14.875 
#    0.000    0.000    0.000    0.000    0.000    0.000 
#
# Total GULP energy -89146.480024 kJ/mol
# GULP energy per Si atom -5571.655002 kJ/mol
# Density = 2.679072 g / cm^3
# Si number density = 26.851834 Si / 1000 Ang^3
#
#
#
# Elastic Constant Matrix: (Units=GPa)
#
#
# Indices 1 2 3 4 5 6 
#
# 1 148.3059 46.4825 60.6112 8.4554 -44.8323 12.1043
# 2 46.4825 85.6006 59.4556 9.3417 -17.3910 30.7616
# 3 60.6112 59.4556 206.0324 18.6229 -67.1465 5.2244
# 4 8.4554 9.3417 18.6229 60.1780 7.5363 -11.3263
# 5 -44.8323 -17.3910 -67.1465 7.5363 56.4231 -1.0357
# 6 12.1043 30.7616 5.2244 -11.3263 -1.0357 53.1855
#
#
#
# Elastic Compliance Matrix: (Units=1/GPa)
#
#
# Indices 1 2 3 4 5 6 
#
# 1 0.010393 -0.004409 0.001270 -0.002310 0.008715 -0.000262
# 2 -0.004409 0.021744 -0.005424 -0.002896 -0.003084 -0.011717
# 3 0.001270 -0.005424 0.010317 -0.003814 0.012148 0.001259
# 4 -0.002310 -0.002896 -0.003814 0.021113 -0.009960 0.006878
# 5 0.008715 -0.003084 0.012148 -0.009960 0.039433 -0.002746
# 6 -0.000262 -0.011717 0.001259 0.006878 -0.002746 0.026926
#
#
# Mechanical properties :
#
#
# Convention : Reuss Voigt Hill
#
# Bulk Modulus (GPa) = 39.48180 85.89308 62.68744
# Shear Modulus (GPa) = 32.15546 52.18329 42.16937
#
# Velocity S-wave (km/s) = 3.46427 4.41316 3.96719
# Velocity P-wave (km/s) = 5.54410 7.61743 6.66191
#
# Compressibility (1/GPa) = 0.02532812
#
# Stress axis : x y z
#
# Youngs Moduli (GPa) = 96.21854 45.99016 96.92927
#
# Poissons Ratio (x) = 0.20279 -0.12315
# Poissons Ratio (y) = 0.42426 0.52573
# Poissons Ratio (z) = -0.12224 0.24945
#
# Static dielectric constant tensor:
#      x y z
#    x 2.170850 -0.178610 0.049730 
#    y -0.178610 2.494540 -0.155480 
#    z 0.049730 -0.155480 2.166990 
# 
# From -- ./inp_files/180350.got.cif
#   From: 2010.05.17/outbox.cif.g08.bks.cpg/sg2_91_cif.got.tgz:180350.got - 2010.06.03 11:33:40.
