data_PCOD9037176
_publ_section_title
;
Structure prediction by ZEFSAII (Michael W. Deem and Ramdas Pophale) SiO2 
 PCOD9037176
Probable space group: P -1
;
_chemical_formula_sum "Si O2"
_cell_formula_units_Z 14
_cell_length_a 8.595205
_cell_length_b 5.284935
_cell_length_c 13.416653
_cell_angle_alpha 79.454036
_cell_angle_beta 91.816069
_cell_angle_gamma 71.753576
_cell_volume 566.440787
_symmetry_space_group_name_H-M "P -1"
_symmetry_group_IT_number 2
_symmetry_cell_setting 'triclinic'
loop_
_space_group_symop_operation_xyz
x,y,z
-x,-y,-z
loop_
_atom_site_type_symbol
_atom_site_label
_atom_site_fract_x
_atom_site_fract_y
_atom_site_fract_z
Si Si1 0.455950 0.308003 0.434118
Si Si2 0.288334 0.846141 0.705725
Si Si3 0.273506 0.161702 0.885714
Si Si4 0.109094 0.605111 0.182779
Si Si5 0.581016 0.299989 0.926152
Si Si6 0.941114 0.905639 0.698559
Si Si7 0.851086 0.754010 0.508893
O O1 0.500000 0.500000 0.500000
O O2 0.542581 0.322012 0.331155
O O3 0.263801 0.384646 0.425379
O O4 0.500000 0.000000 0.500000
O O5 0.136227 0.731313 0.710635
O O6 0.300753 0.960514 0.805986
O O7 0.222275 0.090514 0.605043
O O8 0.416068 0.302037 0.862643
O O9 0.075243 0.311407 0.877722
O O10 0.329419 0.994841 0.001180
O O11 0.268826 0.623472 0.125777
O O12 0.143536 0.293184 0.237781
O O13 0.080871 0.830467 0.254181
O O14 0.500000 0.500000 0.000000
O O15 0.884386 0.951896 0.579317
O O16 0.000000 0.500000 0.500000
#
# Coordination Sequence:
#
# PCOD9037176 Si02
#       7
#     2   2   2   2   2   2   2
#     4  10  23  40  62  97 134 183 230 283 343 404
#     4  10  23  45  69 100 145 189 238 290 356 426
#     4  10  25  48  73 107 141 191 236 299 370 427
#     4  11  27  48  75 107 148 188 238 294 366 429
#     4  11  27  47  77 108 140 185 244 306 365 437
#     4  11  25  44  72 107 140 192 237 290 354 423
#     4  11  22  42  70 104 144 189 239 289 344 423
#
# _framework density 24.715734999999999
#
# number of rings (size 3 to 8) (size 9 to 14) (size 15 to 20)
#    0.000    1.429    0.000    3.429   10.000    6.286 
#    2.571    0.000    0.000    0.000    0.000    0.000 
#    0.000    0.000    0.000    0.000    0.000    0.000 
#
# Total GULP energy -78232.407479 kJ/mol
# GULP energy per Si atom -5588.029106 kJ/mol
# Density = 2.465948 g / cm^3
# Si number density = 24.715735 Si / 1000 Ang^3
#
#
#
# Elastic Constant Matrix: (Units=GPa)
#
#
# Indices 1 2 3 4 5 6 
#
# 1 198.6530 24.8336 57.5706 4.1237 -34.3650 7.7295
# 2 24.8336 72.7618 11.9525 -3.2617 1.7407 11.1490
# 3 57.5706 11.9525 76.3978 -4.9462 -9.0521 5.7426
# 4 4.1237 -3.2617 -4.9462 44.0052 4.4034 -2.8500
# 5 -34.3650 1.7407 -9.0521 4.4034 62.8521 2.3679
# 6 7.7295 11.1490 5.7426 -2.8500 2.3679 44.9034
#
#
#
# Elastic Compliance Matrix: (Units=1/GPa)
#
#
# Indices 1 2 3 4 5 6 
#
# 1 0.007342 -0.001786 -0.004916 -0.001754 0.003497 -0.000488
# 2 -0.001786 0.015069 -0.000875 0.001128 -0.001479 -0.003172
# 3 -0.004916 -0.000875 0.017113 0.002289 -0.000323 -0.000963
# 4 -0.001754 0.001128 0.002289 0.023554 -0.002362 0.001349
# 5 0.003497 -0.001479 -0.000323 -0.002362 0.018031 -0.001294
# 6 -0.000488 -0.003172 -0.000963 0.001349 -0.001294 0.023419
#
#
# Mechanical properties :
#
#
# Convention : Reuss Voigt Hill
#
# Bulk Modulus (GPa) = 41.03500 59.61399 50.32449
# Shear Modulus (GPa) = 39.12192 47.24920 43.18556
#
# Velocity S-wave (km/s) = 3.98285 4.37705 4.18459
# Velocity P-wave (km/s) = 6.14733 7.05102 6.61463
#
# Compressibility (1/GPa) = 0.02436944
#
# Stress axis : x y z
#
# Youngs Moduli (GPa) = 136.19888 66.36174 58.43461
#
# Poissons Ratio (x) = 0.11852 0.28726
# Poissons Ratio (y) = 0.24325 0.05116
# Poissons Ratio (z) = 0.66955 0.05810
#
# Static dielectric constant tensor:
#      x y z
#    x 2.110070 -0.014660 0.055060 
#    y -0.014660 1.947810 -0.086500 
#    z 0.055060 -0.086500 1.981660 
# 
# From -- ./inp_files/372947.got.cif
#   From: 2010.05.17/outbox.cif.g08.bks.cpg/sg2_187_cif.got.tgz:372947.got - 2010.06.03 11:33:40.
