data_PCOD9037858
_publ_section_title
;
Structure prediction by ZEFSAII (Michael W. Deem and Ramdas Pophale) SiO2 
 PCOD9037858
Probable space group: P -1
;
_chemical_formula_sum "Si O2"
_cell_formula_units_Z 16
_cell_length_a 8.909932
_cell_length_b 14.396508
_cell_length_c 8.954605
_cell_angle_alpha 38.458517
_cell_angle_beta 112.419205
_cell_angle_gamma 103.080480
_cell_volume 655.144140
_symmetry_space_group_name_H-M "P -1"
_symmetry_group_IT_number 2
_symmetry_cell_setting 'triclinic'
loop_
_space_group_symop_operation_xyz
x,y,z
-x,-y,-z
loop_
_atom_site_type_symbol
_atom_site_label
_atom_site_fract_x
_atom_site_fract_y
_atom_site_fract_z
Si Si1 0.914151 0.456004 0.325554
Si Si2 0.254082 0.761005 0.261687
Si Si3 0.410561 0.782128 0.990719
Si Si4 0.079769 0.034094 0.168959
Si Si5 0.867519 0.765677 0.806155
Si Si6 0.156596 0.730017 0.718991
Si Si7 0.411457 0.135250 0.632280
Si Si8 0.247594 0.242609 0.749668
O O1 0.811252 0.377447 0.506188
O O2 0.841374 0.424893 0.173449
O O3 0.099327 0.374016 0.503476
O O4 0.902567 0.634225 0.106530
O O5 0.410318 0.815753 0.334730
O O6 0.309318 0.720961 0.164264
O O7 0.105315 0.895538 0.020437
O O8 0.320273 0.755352 0.836597
O O9 0.414926 0.959613 0.809456
O O10 0.596066 0.706812 0.170386
O O11 0.122239 0.081626 0.292639
O O12 0.112731 0.855136 0.415350
O O13 0.186408 0.115310 0.991668
O O14 0.692818 0.774389 0.650376
O O15 0.008595 0.746267 0.760048
O O16 0.313714 0.174070 0.701561
#
# Coordination Sequence:
#
# PCOD9037858 Si02
#       8
#     2   2   2   2   2   2   2   2
#     4  11  27  43  69  95 136 177 219 265 326 401
#     4  10  23  41  64 101 129 176 210 272 326 391
#     4  11  23  43  67 101 135 167 218 280 333 377
#     4  11  24  42  72  97 131 169 229 273 317 390
#     4  12  24  47  65  96 138 178 215 264 339 391
#     4  12  24  41  69 100 125 175 223 273 321 382
#     4  11  23  41  71  96 138 170 215 273 340 379
#     4  10  24  41  66 101 131 171 215 273 327 385
#
# _framework density 24.422108000000001
#
# number of rings (size 3 to 8) (size 9 to 14) (size 15 to 20)
#    0.000    1.000    3.750    3.000    5.250    5.000 
#    0.000    1.875    0.000    0.000    0.000    0.000 
#    0.000    0.000    0.000    0.000    0.000    0.000 
#
# Total GULP energy -89745.493260 kJ/mol
# GULP energy per Si atom -5609.093329 kJ/mol
# Density = 2.436652 g / cm^3
# Si number density = 24.422108 Si / 1000 Ang^3
#
#
#
# Elastic Constant Matrix: (Units=GPa)
#
#
# Indices 1 2 3 4 5 6 
#
# 1 133.1638 21.4324 44.5914 13.6843 8.0340 14.1818
# 2 21.4324 78.2644 22.7616 20.1460 18.8123 14.3351
# 3 44.5914 22.7616 105.8836 11.9816 9.0354 13.3295
# 4 13.6843 20.1460 11.9816 41.3831 10.8719 11.9358
# 5 8.0340 18.8123 9.0354 10.8719 32.1453 13.9482
# 6 14.1818 14.3351 13.3295 11.9358 13.9482 28.2438
#
#
#
# Elastic Compliance Matrix: (Units=1/GPa)
#
#
# Indices 1 2 3 4 5 6 
#
# 1 0.009080 -0.000980 -0.003245 -0.001058 0.000609 -0.002384
# 2 -0.000980 0.016794 -0.001838 -0.005080 -0.006582 -0.001767
# 3 -0.003245 -0.001838 0.011612 -0.000627 -0.000018 -0.002644
# 4 -0.001058 -0.005080 -0.000627 0.030302 -0.003508 -0.007668
# 5 0.000609 -0.006582 -0.000018 -0.003508 0.043319 -0.016867
# 6 -0.002384 -0.001767 -0.002644 -0.007668 -0.016867 0.050317
#
#
# Mechanical properties :
#
#
# Convention : Reuss Voigt Hill
#
# Bulk Modulus (GPa) = 39.43617 54.98696 47.21156
# Shear Modulus (GPa) = 27.47207 35.58951 31.53079
#
# Velocity S-wave (km/s) = 3.35757 3.82156 3.59705
# Velocity P-wave (km/s) = 5.58693 6.48356 6.05187
#
# Compressibility (1/GPa) = 0.02535744
#
# Stress axis : x y z
#
# Youngs Moduli (GPa) = 110.13354 59.54658 86.12147
#
# Poissons Ratio (x) = 0.05835 0.27949
# Poissons Ratio (y) = 0.10793 0.15833
# Poissons Ratio (z) = 0.35742 0.10948
#
# Static dielectric constant tensor:
#      x y z
#    x 1.915150 -0.007010 -0.000130 
#    y -0.007010 1.935070 0.031280 
#    z -0.000130 0.031280 1.891870 
# 
# From -- ./inp_files/205385.got.cif
#   From: 2010.05.17/outbox.cif.g08.bks.cpg/sg2_103_cif.got.tgz:205385.got - 2010.06.03 11:33:40.
