data_PCOD9037011
_publ_section_title
;
Structure prediction by ZEFSAII (Michael W. Deem and Ramdas Pophale) SiO2 
 PCOD9037011
Probable space group: P -1
;
_chemical_formula_sum "Si O2"
_cell_formula_units_Z 16
_cell_length_a 29.444021
_cell_length_b 14.801052
_cell_length_c 5.128506
_cell_angle_alpha 109.359283
_cell_angle_beta 102.398782
_cell_angle_gamma 18.256534
_cell_volume 621.548301
_symmetry_space_group_name_H-M "P -1"
_symmetry_group_IT_number 2
_symmetry_cell_setting 'triclinic'
loop_
_space_group_symop_operation_xyz
x,y,z
-x,-y,-z
loop_
_atom_site_type_symbol
_atom_site_label
_atom_site_fract_x
_atom_site_fract_y
_atom_site_fract_z
Si Si1 0.350082 0.534316 0.288723
Si Si2 0.063973 0.796933 0.686388
Si Si3 0.894543 0.856314 0.662045
Si Si4 0.760107 0.652338 0.160155
Si Si5 0.755892 0.457194 0.716509
Si Si6 0.485604 0.732037 0.277044
Si Si7 0.898067 0.551675 0.965140
Si Si8 0.347429 0.831464 0.473307
O O1 0.356664 0.407893 0.229404
O O2 0.372314 0.541856 0.602994
O O3 0.193009 0.875968 0.284430
O O4 0.474156 0.321187 0.019225
O O5 0.102462 0.627253 0.729507
O O6 0.221222 0.534818 0.520915
O O7 0.923428 0.072958 0.574034
O O8 0.000000 0.000000 0.000000
O O9 0.970409 0.703452 0.892943
O O10 0.756022 0.051151 0.651586
O O11 0.026142 0.576001 0.340795
O O12 0.821881 0.595542 0.944506
O O13 0.625608 0.970972 0.445844
O O14 0.728041 0.606077 0.997680
O O15 0.404463 0.790013 0.274599
O O16 0.766050 0.884688 0.208430
O O17 0.500000 0.500000 0.500000
#
# Coordination Sequence:
#
# PCOD9037011 Si02
#       8
#     2   2   2   2   2   2   2   2
#     4  12  27  45  69 104 143 185 242 285 354 417
#     4   9  20  38  62  97 127 180 231 285 354 404
#     4  12  26  48  77 107 145 183 242 304 353 424
#     4  10  24  42  68  96 145 184 233 291 355 412
#     4  10  23  39  68  97 137 186 234 292 347 417
#     4  11  28  47  68 102 138 192 234 287 355 442
#     4  11  27  46  75 113 141 185 244 297 352 428
#     4  11  25  52  77 106 147 191 233 296 373 431
#
# _framework density 25.742167999999999
#
# number of rings (size 3 to 8) (size 9 to 14) (size 15 to 20)
#    0.000    1.250    1.250    2.250   12.250    5.500 
#    0.000    0.000    0.000    0.000    0.000    0.000 
#    0.000    0.000    0.000    0.000    0.000    0.000 
#
# Total GULP energy -89566.591719 kJ/mol
# GULP energy per Si atom -5597.911982 kJ/mol
# Density = 2.568358 g / cm^3
# Si number density = 25.742168 Si / 1000 Ang^3
#
#
#
# Elastic Constant Matrix: (Units=GPa)
#
#
# Indices 1 2 3 4 5 6 
#
# 1 171.9549 12.1344 28.0522 2.0739 -12.0975 -12.1185
# 2 12.1344 112.5613 9.7011 9.4402 10.9884 -0.7738
# 3 28.0522 9.7011 92.7797 -9.8084 -17.9648 -3.3879
# 4 2.0739 9.4402 -9.8084 39.3194 1.7823 6.6729
# 5 -12.0975 10.9884 -17.9648 1.7823 36.1613 6.2207
# 6 -12.1185 -0.7738 -3.3879 6.6729 6.2207 27.3581
#
#
#
# Elastic Compliance Matrix: (Units=1/GPa)
#
#
# Indices 1 2 3 4 5 6 
#
# 1 0.006405 -0.000535 -0.001698 -0.001130 0.001062 0.002646
# 2 -0.000535 0.009768 -0.001924 -0.002853 -0.004213 0.001455
# 3 -0.001698 -0.001924 0.013118 0.003797 0.006624 -0.001614
# 4 -0.001130 -0.002853 0.003797 0.028299 0.002276 -0.007531
# 5 0.001062 -0.004213 0.006624 0.002276 0.033679 -0.007042
# 6 0.002646 0.001455 -0.001614 -0.007531 -0.007042 0.041003
#
#
# Mechanical properties :
#
#
# Convention : Reuss Voigt Hill
#
# Bulk Modulus (GPa) = 47.66914 53.00793 50.33854
# Shear Modulus (GPa) = 33.88025 42.39498 38.13761
#
# Velocity S-wave (km/s) = 3.63180 4.06261 3.85323
# Velocity P-wave (km/s) = 6.01205 6.53016 6.27645
#
# Compressibility (1/GPa) = 0.02097793
#
# Stress axis : x y z
#
# Youngs Moduli (GPa) = 156.12714 102.37502 76.23222
#
# Poissons Ratio (x) = 0.05476 0.12943
# Poissons Ratio (y) = 0.08351 0.14665
# Poissons Ratio (z) = 0.26507 0.19695
#
# Static dielectric constant tensor:
#      x y z
#    x 2.080220 -0.067060 0.025570 
#    y -0.067060 2.171660 0.002040 
#    z 0.025570 0.002040 2.012360 
# 
# From -- ./inp_files/128551.got.cif
#   From: 2010.05.17/outbox.cif.g08.bks.cpg/sg2_65_cif.got.tgz:128551.got - 2010.06.03 11:33:40.
