data_PCOD9037569
_publ_section_title
;
Structure prediction by ZEFSAII (Michael W. Deem and Ramdas Pophale) SiO2 
 PCOD9037569
Probable space group: P -1
;
_chemical_formula_sum "Si O2"
_cell_formula_units_Z 14
_cell_length_a 14.000478
_cell_length_b 14.447120
_cell_length_c 9.696727
_cell_angle_alpha 49.077942
_cell_angle_beta 73.236787
_cell_angle_gamma 33.008259
_cell_volume 624.458895
_symmetry_space_group_name_H-M "P -1"
_symmetry_group_IT_number 2
_symmetry_cell_setting 'triclinic'
loop_
_space_group_symop_operation_xyz
x,y,z
-x,-y,-z
loop_
_atom_site_type_symbol
_atom_site_label
_atom_site_fract_x
_atom_site_fract_y
_atom_site_fract_z
Si Si1 0.633083 0.421419 0.290820
Si Si2 0.347640 0.097809 0.579688
Si Si3 0.870416 0.033193 0.095208
Si Si4 0.999596 0.170697 0.232789
Si Si5 0.035972 0.289308 0.840132
Si Si6 0.015138 0.262853 0.434607
Si Si7 0.525736 0.798008 0.081750
O O1 0.771827 0.159863 0.558635
O O2 0.575337 0.597751 0.243671
O O3 0.797431 0.300057 0.226362
O O4 0.394840 0.643744 0.111166
O O5 0.154856 0.402724 0.417367
O O6 0.208886 0.140993 0.523046
O O7 0.500000 0.000000 0.500000
O O8 0.490497 0.889234 0.852652
O O9 0.916983 0.858296 0.157900
O O10 0.948124 0.906924 0.337173
O O11 0.000000 0.000000 0.000000
O O12 0.028803 0.221863 0.306399
O O13 0.952281 0.304349 0.990557
O O14 0.280404 0.079559 0.978592
O O15 0.758187 0.592013 0.249868
#
# Coordination Sequence:
#
# PCOD9037569 Si02
#       7
#     2   2   2   2   2   2   2
#     4   9  20  42  63  93 142 173 216 273 341 392
#     4  12  25  47  71  96 140 180 225 279 336 401
#     4  11  26  42  67 101 140 176 223 279 337 403
#     4  10  23  40  69 100 131 182 223 273 340 401
#     4  11  25  44  70  97 137 181 223 277 346 388
#     4  11  25  46  66 103 135 178 231 272 335 404
#     4  10  23  44  68  98 136 177 222 286 330 395
#
# _framework density 22.419411
#
# number of rings (size 3 to 8) (size 9 to 14) (size 15 to 20)
#    0.000    1.429    2.857    2.143    8.000    5.714 
#    0.000    0.000    0.000    0.000    0.000    0.000 
#    0.000    0.000    0.000    0.000    0.000    0.000 
#
# Total GULP energy -78315.062666 kJ/mol
# GULP energy per Si atom -5593.933048 kJ/mol
# Density = 2.236838 g / cm^3
# Si number density = 22.419411 Si / 1000 Ang^3
#
#
#
# Elastic Constant Matrix: (Units=GPa)
#
#
# Indices 1 2 3 4 5 6 
#
# 1 74.7820 21.8612 32.2437 -9.8687 1.5790 -23.7615
# 2 21.8612 57.6769 7.1821 -14.7159 1.0484 -13.4578
# 3 32.2437 7.1821 80.7458 -23.9208 6.4070 -11.1141
# 4 -9.8687 -14.7159 -23.9208 50.9587 -1.5150 -0.2435
# 5 1.5790 1.0484 6.4070 -1.5150 30.7294 -12.6673
# 6 -23.7615 -13.4578 -11.1141 -0.2435 -12.6673 43.4200
#
#
#
# Elastic Compliance Matrix: (Units=1/GPa)
#
#
# Indices 1 2 3 4 5 6 
#
# 1 0.020630 -0.005027 -0.007045 -0.000591 0.004340 0.009191
# 2 -0.005027 0.021771 0.002622 0.006611 0.001403 0.005114
# 3 -0.007045 0.002622 0.017507 0.007533 -0.002723 0.000686
# 4 -0.000591 0.006611 0.007533 0.025009 0.001172 0.004136
# 5 0.004340 0.001403 -0.002723 0.001172 0.038387 0.013318
# 6 0.009191 0.005114 0.000686 0.004136 0.013318 0.033730
#
#
# Mechanical properties :
#
#
# Convention : Reuss Voigt Hill
#
# Bulk Modulus (GPa) = 24.38576 37.30874 30.84725
# Shear Modulus (GPa) = 26.37059 35.14947 30.76003
#
# Velocity S-wave (km/s) = 3.43335 3.96386 3.70811
# Velocity P-wave (km/s) = 5.15926 6.13408 5.66767
#
# Compressibility (1/GPa) = 0.04100754
#
# Stress axis : x y z
#
# Youngs Moduli (GPa) = 48.47213 45.93183 57.12039
#
# Poissons Ratio (x) = 0.23091 0.40243
# Poissons Ratio (y) = 0.24368 -0.14977
# Poissons Ratio (z) = 0.34150 -0.12043
#
# Static dielectric constant tensor:
#      x y z
#    x 1.860150 0.011430 0.010380 
#    y 0.011430 1.844730 -0.026420 
#    z 0.010380 -0.026420 1.794320 
# 
# From -- ./inp_files/314614.got.cif
#   From: 2010.05.17/outbox.cif.g08.bks.cpg/sg2_158_cif.got.tgz:314614.got - 2010.06.03 11:33:40.
