data_PCOD9037024
_publ_section_title
;
Structure prediction by ZEFSAII (Michael W. Deem and Ramdas Pophale) SiO2 
 PCOD9037024
Probable space group: P -1
;
_chemical_formula_sum "Si O2"
_cell_formula_units_Z 14
_cell_length_a 17.377271
_cell_length_b 4.916492
_cell_length_c 10.011084
_cell_angle_alpha 114.265458
_cell_angle_beta 45.870630
_cell_angle_gamma 125.823777
_cell_volume 497.760491
_symmetry_space_group_name_H-M "P -1"
_symmetry_group_IT_number 2
_symmetry_cell_setting 'triclinic'
loop_
_space_group_symop_operation_xyz
x,y,z
-x,-y,-z
loop_
_atom_site_type_symbol
_atom_site_label
_atom_site_fract_x
_atom_site_fract_y
_atom_site_fract_z
Si Si1 0.362315 0.347626 0.801144
Si Si2 0.763553 0.292125 0.583161
Si Si3 0.312565 0.411803 0.581517
Si Si4 0.070552 0.341383 0.799306
Si Si5 0.544503 0.365118 0.770419
Si Si6 0.096802 0.156428 0.296710
Si Si7 0.712944 0.126138 0.989533
O O1 0.372137 0.380736 0.638932
O O2 0.477787 0.539075 0.795939
O O3 0.272152 0.505492 0.974978
O O4 0.314131 0.972736 0.838613
O O5 0.851919 0.440492 0.378147
O O6 0.656719 0.403416 0.733002
O O7 0.837343 0.453837 0.660473
O O8 0.711823 0.894965 0.555306
O O9 0.175768 0.334281 0.759146
O O10 0.401326 0.730190 0.449698
O O11 0.978043 0.984036 0.777155
O O12 0.000000 0.500000 0.000000
O O13 0.422373 0.122128 0.951389
O O14 0.000000 0.000000 0.500000
O O15 0.184758 0.984244 0.177227
#
# Coordination Sequence:
#
# PCOD9037024 Si02
#       7
#     2   2   2   2   2   2   2
#     4  10  23  39  69 104 140 174 226 283 342 396
#     4  10  23  42  64  98 135 177 225 278 347 408
#     4  11  22  38  66  99 136 178 224 283 345 403
#     4  10  23  42  67  95 130 177 234 283 337 400
#     4   9  22  39  67  99 136 178 222 281 341 408
#     4  10  23  48  67  94 139 180 228 284 341 406
#     4  10  23  44  67 102 134 181 228 283 336 403
#
# _framework density 28.125979999999998
#
# number of rings (size 3 to 8) (size 9 to 14) (size 15 to 20)
#    0.857    1.143    0.000    2.143    6.000    2.857 
#   12.857    1.429    0.000    0.000    0.000    0.000 
#    0.000    0.000    0.000    0.000    0.000    0.000 
#
# Total GULP energy -78031.007369 kJ/mol
# GULP energy per Si atom -5573.643383 kJ/mol
# Density = 2.806196 g / cm^3
# Si number density = 28.125980 Si / 1000 Ang^3
#
#
#
# Elastic Constant Matrix: (Units=GPa)
#
#
# Indices 1 2 3 4 5 6 
#
# 1 119.7453 39.9247 44.9061 0.5478 -23.6868 12.5893
# 2 39.9247 67.3568 5.3558 11.3529 -23.1599 10.6837
# 3 44.9061 5.3558 161.1582 4.2790 -37.0873 22.3719
# 4 0.5478 11.3529 4.2790 28.6260 6.7090 -6.8664
# 5 -23.6868 -23.1599 -37.0873 6.7090 57.6130 0.1476
# 6 12.5893 10.6837 22.3719 -6.8664 0.1476 46.1048
#
#
#
# Elastic Compliance Matrix: (Units=1/GPa)
#
#
# Indices 1 2 3 4 5 6 
#
# 1 0.012039 -0.007999 -0.003546 0.003917 -0.001007 0.000873
# 2 -0.007999 0.028849 0.006589 -0.018227 0.014699 -0.010460
# 3 -0.003546 0.006589 0.010069 -0.007647 0.008580 -0.006611
# 4 0.003917 -0.018227 -0.007647 0.050579 -0.016566 0.014450
# 5 -0.001007 0.014699 0.008580 -0.016566 0.030330 -0.009859
# 6 0.000873 -0.010460 -0.006611 0.014450 -0.009859 0.029267
#
#
# Mechanical properties :
#
#
# Convention : Reuss Voigt Hill
#
# Bulk Modulus (GPa) = 24.36309 58.73705 41.55007
# Shear Modulus (GPa) = 27.06710 43.67367 35.37039
#
# Velocity S-wave (km/s) = 3.10555 3.94482 3.55007
# Velocity P-wave (km/s) = 4.64114 6.45582 5.62218
#
# Compressibility (1/GPa) = 0.04104570
#
# Stress axis : x y z
#
# Youngs Moduli (GPa) = 83.06496 34.66333 99.30990
#
# Poissons Ratio (x) = 0.27727 0.35212
# Poissons Ratio (y) = 0.66442 -0.65433
# Poissons Ratio (z) = 0.29452 -0.22839
#
# Static dielectric constant tensor:
#      x y z
#    x 2.161140 0.030590 0.014050 
#    y 0.030590 2.506210 -0.146240 
#    z 0.014050 -0.146240 2.325820 
# 
# From -- ./inp_files/459301.got.cif
#   From: 2010.05.17/outbox.cif.g08.bks.cpg/sg2_230_cif.got.tgz:459301.got - 2010.06.03 11:33:40.
