data_PCOD9037757
_publ_section_title
;
Structure prediction by ZEFSAII (Michael W. Deem and Ramdas Pophale) SiO2 
 PCOD9037757
Probable space group: P -1
;
_chemical_formula_sum "Si O2"
_cell_formula_units_Z 14
_cell_length_a 6.305864
_cell_length_b 4.950869
_cell_length_c 25.101403
_cell_angle_alpha 51.275575
_cell_angle_beta 114.767664
_cell_angle_gamma 102.924235
_cell_volume 554.322964
_symmetry_space_group_name_H-M "P -1"
_symmetry_group_IT_number 2
_symmetry_cell_setting 'triclinic'
loop_
_space_group_symop_operation_xyz
x,y,z
-x,-y,-z
loop_
_atom_site_type_symbol
_atom_site_label
_atom_site_fract_x
_atom_site_fract_y
_atom_site_fract_z
Si Si1 0.856297 0.602707 0.795712
Si Si2 0.854575 0.681084 0.508428
Si Si3 0.721418 0.229495 0.047823
Si Si4 0.458998 0.417027 0.433169
Si Si5 0.421499 0.711782 0.281411
Si Si6 0.340525 0.947961 0.824899
Si Si7 0.210624 0.585483 0.077272
O O1 0.669993 0.922055 0.748361
O O2 0.110802 0.749148 0.809735
O O3 0.797206 0.439639 0.753572
O O4 0.810107 0.331651 0.872479
O O5 0.608882 0.676862 0.451556
O O6 0.800818 0.499991 0.581315
O O7 0.000000 0.500000 0.500000
O O8 0.000000 0.000000 0.500000
O O9 0.964843 0.411798 0.061706
O O10 0.691393 0.963611 0.126322
O O11 0.500000 0.500000 0.000000
O O12 0.743661 0.135875 0.998800
O O13 0.499841 0.481860 0.367982
O O14 0.500000 0.000000 0.500000
O O15 0.612973 0.757009 0.249781
O O16 0.572667 0.692794 0.874060
#
# Coordination Sequence:
#
# PCOD9037757 Si02
#       7
#     2   2   2   2   2   2   2
#     4  10  23  41  62  93 130 175 220 274 331 400
#     4  11  24  44  70 101 135 172 218 278 343 412
#     4   8  13  27  59  93 129 173 221 273 329 389
#     4  11  26  45  72 103 139 177 231 288 348 417
#     4  11  26  42  66  93 133 170 221 271 337 399
#     4   9  19  38  60  90 129 174 222 271 334 395
#     4   8  15  31  58  92 130 171 222 276 326 388
#
# _framework density 25.256034
#
# number of rings (size 3 to 8) (size 9 to 14) (size 15 to 20)
#    0.000    2.286    1.429    0.000    4.000    4.571 
#    0.000    0.714    0.000   77.143    0.000    0.000 
#    0.000    0.000    0.000    0.000    0.000    0.000 
#
# Total GULP energy -78177.161819 kJ/mol
# GULP energy per Si atom -5584.082987 kJ/mol
# Density = 2.519855 g / cm^3
# Si number density = 25.256034 Si / 1000 Ang^3
#
#
#
# Elastic Constant Matrix: (Units=GPa)
#
#
# Indices 1 2 3 4 5 6 
#
# 1 118.7401 31.3851 49.9735 -12.0150 -27.7540 31.5469
# 2 31.3851 143.6683 56.5748 15.9599 -9.7426 5.4505
# 3 49.9735 56.5748 183.1502 12.4523 -52.6633 5.0427
# 4 -12.0150 15.9599 12.4523 27.6883 -0.8936 1.4215
# 5 -27.7540 -9.7426 -52.6633 -0.8936 40.4130 -5.2042
# 6 31.5469 5.4505 5.0427 1.4215 -5.2042 44.8740
#
#
#
# Elastic Compliance Matrix: (Units=1/GPa)
#
#
# Indices 1 2 3 4 5 6 
#
# 1 0.014854 -0.002822 -0.001796 0.009566 0.006170 -0.009485
# 2 -0.002822 0.008926 -0.002534 -0.005380 -0.003079 0.000998
# 3 -0.001796 -0.002534 0.010310 -0.003673 0.011753 0.001892
# 4 0.009566 -0.005380 -0.003673 0.045401 0.000584 -0.007029
# 5 0.006170 -0.003079 0.011753 0.000584 0.043536 -0.000254
# 6 -0.009485 0.000998 0.001892 -0.007029 -0.000254 0.028812
#
#
# Mechanical properties :
#
#
# Convention : Reuss Voigt Hill
#
# Bulk Modulus (GPa) = 50.54402 80.15836 65.35119
# Shear Modulus (GPa) = 28.94546 43.10341 36.02444
#
# Velocity S-wave (km/s) = 3.38905 4.13565 3.78083
# Velocity P-wave (km/s) = 5.94730 7.39000 6.70755
#
# Compressibility (1/GPa) = 0.01978473
#
# Stress axis : x y z
#
# Youngs Moduli (GPa) = 67.32269 112.03289 96.99130
#
# Poissons Ratio (x) = 0.31615 0.17424
# Poissons Ratio (y) = 0.18998 0.24580
# Poissons Ratio (z) = 0.12094 0.28392
#
# Static dielectric constant tensor:
#      x y z
#    x 1.960800 -0.088680 0.047070 
#    y -0.088680 1.948120 0.007970 
#    z 0.047070 0.007970 2.080350 
# 
# From -- ./inp_files/603070.got.cif
#   From: 2010.05.17/outbox.cif.g08.bks.cpg/sg2_302_cif.got.tgz:603070.got - 2010.06.03 11:33:40.
