data_PCOD9037910
_publ_section_title
;
Structure prediction by ZEFSAII (Michael W. Deem and Ramdas Pophale) SiO2 
 PCOD9037910
Probable space group: P -1
;
_chemical_formula_sum "Si O2"
_cell_formula_units_Z 14
_cell_length_a 25.566998
_cell_length_b 16.113775
_cell_length_c 6.782128
_cell_angle_alpha 124.325211
_cell_angle_beta 53.118670
_cell_angle_gamma 164.689820
_cell_volume 588.641952
_symmetry_space_group_name_H-M "P -1"
_symmetry_group_IT_number 2
_symmetry_cell_setting 'triclinic'
loop_
_space_group_symop_operation_xyz
x,y,z
-x,-y,-z
loop_
_atom_site_type_symbol
_atom_site_label
_atom_site_fract_x
_atom_site_fract_y
_atom_site_fract_z
Si Si1 0.049792 0.453482 0.642847
Si Si2 0.634306 0.728510 0.694773
Si Si3 0.876061 0.407185 0.897709
Si Si4 0.633553 0.546291 0.733838
Si Si5 0.451716 0.725853 0.766129
Si Si6 0.185850 0.218796 0.984359
Si Si7 0.093624 0.365032 0.113374
O O1 0.014973 0.510620 0.697646
O O2 0.162366 0.534425 0.366986
O O3 0.823090 0.076091 0.682424
O O4 0.153977 0.624557 0.844079
O O5 0.500000 0.500000 0.500000
O O6 0.707571 0.736026 0.660427
O O7 0.499658 0.591571 0.981257
O O8 0.967466 0.643850 0.926558
O O9 0.660368 0.077881 0.838559
O O10 0.521944 0.300255 0.526496
O O11 0.799376 0.735791 0.755891
O O12 0.376356 0.540141 0.861514
O O13 0.273993 0.550314 0.901639
O O14 0.109252 0.992393 0.850397
O O15 0.000000 0.000000 0.000000
#
# Coordination Sequence:
#
# PCOD9037910 Si02
#       7
#     2   2   2   2   2   2   2
#     4  11  24  42  66  93 130 174 218 273 327 382
#     4  11  23  41  67 101 133 171 220 272 327 390
#     4  11  25  43  63  94 132 174 223 264 322 395
#     4  11  22  39  68  97 133 172 214 270 333 387
#     4  11  25  43  66  98 132 172 219 269 328 395
#     4  10  23  41  64  96 131 168 214 269 324 390
#     4  11  24  42  66  95 130 169 215 272 329 389
#
# _framework density 23.783557999999999
#
# number of rings (size 3 to 8) (size 9 to 14) (size 15 to 20)
#    0.000    1.143    0.000    6.000    0.000   12.000 
#    0.000    0.000    0.000    0.000    0.000    0.000 
#    0.000    0.000    0.000    0.000    0.000    0.000 
#
# Total GULP energy -78303.914104 kJ/mol
# GULP energy per Si atom -5593.136722 kJ/mol
# Density = 2.372943 g / cm^3
# Si number density = 23.783558 Si / 1000 Ang^3
#
#
#
# Elastic Constant Matrix: (Units=GPa)
#
#
# Indices 1 2 3 4 5 6 
#
# 1 150.2910 49.6409 41.0418 4.6210 20.0210 -27.9105
# 2 49.6409 88.9225 33.3653 9.8938 4.2109 -3.2634
# 3 41.0418 33.3653 139.9925 22.6588 13.5456 1.6246
# 4 4.6210 9.8938 22.6588 31.1315 8.0321 7.5305
# 5 20.0210 4.2109 13.5456 8.0321 48.4377 6.1584
# 6 -27.9105 -3.2634 1.6246 7.5305 6.1584 35.8171
#
#
#
# Elastic Compliance Matrix: (Units=1/GPa)
#
#
# Indices 1 2 3 4 5 6 
#
# 1 0.011107 -0.005016 -0.001740 0.000277 -0.004865 0.009055
# 2 -0.005016 0.014838 -0.001810 -0.002625 0.002013 -0.002269
# 3 -0.001740 -0.001810 0.009032 -0.005404 -0.000667 -0.000680
# 4 0.000277 -0.002625 -0.005404 0.039680 -0.004010 -0.007432
# 5 -0.004865 0.002013 -0.000667 -0.004010 0.024209 -0.006897
# 6 0.009055 -0.002269 -0.000680 -0.007432 -0.006897 0.037549
#
#
# Mechanical properties :
#
#
# Convention : Reuss Voigt Hill
#
# Bulk Modulus (GPa) = 56.03378 69.70023 62.86701
# Shear Modulus (GPa) = 31.34910 40.08779 35.71845
#
# Velocity S-wave (km/s) = 3.63450 4.10997 3.87953
# Velocity P-wave (km/s) = 6.42058 7.20362 6.82334
#
# Compressibility (1/GPa) = 0.01784638
#
# Stress axis : x y z
#
# Youngs Moduli (GPa) = 90.03440 67.39379 110.72126
#
# Poissons Ratio (x) = 0.33802 0.19264
# Poissons Ratio (y) = 0.45158 0.20037
# Poissons Ratio (z) = 0.15665 0.12196
#
# Static dielectric constant tensor:
#      x y z
#    x 1.998820 0.023340 -0.013780 
#    y 0.023340 1.905170 -0.031160 
#    z -0.013780 -0.031160 1.942840 
# 
# From -- ./inp_files/124378.got.cif
#   From: 2010.05.17/outbox.cif.g08.bks.cpg/sg2_63_cif.got.tgz:124378.got - 2010.06.03 11:33:40.
