data_PCOD9037216
_publ_section_title
;
Structure prediction by ZEFSAII (Michael W. Deem and Ramdas Pophale) SiO2 
 PCOD9037216
Probable space group: P -1
;
_chemical_formula_sum "Si O2"
_cell_formula_units_Z 16
_cell_length_a 12.635862
_cell_length_b 7.731908
_cell_length_c 11.791173
_cell_angle_alpha 119.072942
_cell_angle_beta 135.504137
_cell_angle_gamma 78.717935
_cell_volume 683.884844
_symmetry_space_group_name_H-M "P -1"
_symmetry_group_IT_number 2
_symmetry_cell_setting 'triclinic'
loop_
_space_group_symop_operation_xyz
x,y,z
-x,-y,-z
loop_
_atom_site_type_symbol
_atom_site_label
_atom_site_fract_x
_atom_site_fract_y
_atom_site_fract_z
Si Si1 0.091726 0.088325 0.214574
Si Si2 0.705740 0.150872 0.253461
Si Si3 0.594548 0.920408 0.879987
Si Si4 0.682002 0.615543 0.680781
Si Si5 0.026874 0.275232 0.458918
Si Si6 0.277047 0.785348 0.335499
Si Si7 0.451330 0.829487 0.263650
Si Si8 0.633222 0.550527 0.212313
O O1 0.240414 0.251902 0.325373
O O2 0.016404 0.186916 0.293082
O O3 0.145988 0.907435 0.262554
O O4 0.000000 0.000000 0.000000
O O5 0.594815 0.132738 0.271313
O O6 0.672087 0.350991 0.231139
O O7 0.888719 0.169264 0.404397
O O8 0.646560 0.962707 0.062136
O O9 0.678189 0.767815 0.831728
O O10 0.630875 0.127390 0.900697
O O11 0.500000 0.500000 0.500000
O O12 0.764029 0.430609 0.702578
O O13 0.201181 0.299809 0.646296
O O14 0.000000 0.500000 0.500000
O O15 0.321478 0.743592 0.228170
O O16 0.437065 0.948077 0.548716
O O17 0.558428 0.674444 0.285062
O O18 0.500000 0.500000 0.000000
#
# Coordination Sequence:
#
# PCOD9037216 Si02
#       8
#     2   2   2   2   2   2   2   2
#     4  12  26  46  72  99 144 190 230 293 359 421
#     4  10  23  40  63  94 132 183 229 276 347 421
#     4  11  21  39  67  95 134 178 231 285 341 420
#     4  12  24  40  72 105 131 177 237 290 349 410
#     4  10  24  41  66  94 138 182 228 279 355 420
#     4  11  23  39  67 100 135 176 228 294 346 416
#     4  11  20  39  63  99 136 168 228 294 348 399
#     4  11  21  37  66  92 126 176 232 281 344 415
#
# _framework density 23.395752000000002
#
# number of rings (size 3 to 8) (size 9 to 14) (size 15 to 20)
#    0.000    1.000    5.000    2.250    3.500    0.500 
#    0.000    0.625    5.500    0.000    0.000    0.000 
#    0.000    0.000    0.000    0.000    0.000    0.000 
#
# Total GULP energy -89312.855373 kJ/mol
# GULP energy per Si atom -5582.053461 kJ/mol
# Density = 2.334250 g / cm^3
# Si number density = 23.395752 Si / 1000 Ang^3
#
#
#
# Elastic Constant Matrix: (Units=GPa)
#
#
# Indices 1 2 3 4 5 6 
#
# 1 104.6886 30.1045 21.1480 5.6859 -3.0160 -13.9960
# 2 30.1045 95.5410 21.3449 8.6743 -19.1397 -22.6790
# 3 21.1480 21.3449 64.8646 -4.6405 4.2591 1.5420
# 4 5.6859 8.6743 -4.6405 23.7113 -4.4020 -6.5203
# 5 -3.0160 -19.1397 4.2591 -4.4020 30.5708 5.3475
# 6 -13.9960 -22.6790 1.5420 -6.5203 5.3475 42.5463
#
#
#
# Elastic Compliance Matrix: (Units=1/GPa)
#
#
# Indices 1 2 3 4 5 6 
#
# 1 0.011222 -0.002210 -0.003091 -0.001929 -0.000543 0.002398
# 2 -0.002210 0.015985 -0.005495 -0.002959 0.009009 0.006407
# 3 -0.003091 -0.005495 0.018979 0.004607 -0.005152 -0.003280
# 4 -0.001929 -0.002959 0.004607 0.046412 0.003242 0.004327
# 5 -0.000543 0.009009 -0.005152 0.003242 0.039420 0.000352
# 6 0.002398 0.006407 -0.003280 0.004327 0.000352 0.028446
#
#
# Mechanical properties :
#
#
# Convention : Reuss Voigt Hill
#
# Bulk Modulus (GPa) = 40.66084 45.58766 43.12425
# Shear Modulus (GPa) = 26.28079 32.19879 29.23979
#
# Velocity S-wave (km/s) = 3.35522 3.71383 3.53907
# Velocity P-wave (km/s) = 5.69450 6.15774 5.93065
#
# Compressibility (1/GPa) = 0.02459369
#
# Stress axis : x y z
#
# Youngs Moduli (GPa) = 89.11305 62.55899 52.69086
#
# Poissons Ratio (x) = 0.13824 0.16286
# Poissons Ratio (y) = 0.19692 0.28955
# Poissons Ratio (z) = 0.27543 0.34377
#
# Static dielectric constant tensor:
#      x y z
#    x 1.900160 0.010500 0.061260 
#    y 0.010500 1.873010 0.002130 
#    z 0.061260 0.002130 1.819460 
# 
# From -- ./inp_files/419825.got.cif
#   From: 2010.05.17/outbox.cif.g08.bks.cpg/sg2_210_cif.got.tgz:419825.got - 2010.06.03 11:33:40.
