data_PCOD9037694
_publ_section_title
;
Structure prediction by ZEFSAII (Michael W. Deem and Ramdas Pophale) SiO2 
 PCOD9037694
Probable space group: P -1
;
_chemical_formula_sum "Si O2"
_cell_formula_units_Z 8
_cell_length_a 7.201510
_cell_length_b 17.023776
_cell_length_c 11.197564
_cell_angle_alpha 164.197606
_cell_angle_beta 127.411458
_cell_angle_gamma 55.763807
_cell_volume 295.401434
_symmetry_space_group_name_H-M "P -1"
_symmetry_group_IT_number 2
_symmetry_cell_setting 'triclinic'
loop_
_space_group_symop_operation_xyz
x,y,z
-x,-y,-z
loop_
_atom_site_type_symbol
_atom_site_label
_atom_site_fract_x
_atom_site_fract_y
_atom_site_fract_z
Si Si1 0.876238 0.353019 0.392906
Si Si2 0.381546 0.591348 0.968272
Si Si3 0.064266 0.949954 0.255826
Si Si4 0.308382 0.722901 0.524311
O O1 0.810189 0.121793 0.925292
O O2 0.765019 0.326007 0.438983
O O3 0.156936 0.351025 0.514662
O O4 0.869939 0.672828 0.802479
O O5 0.253413 0.886609 0.339123
O O6 0.570823 0.548100 0.877128
O O7 0.500000 0.500000 0.000000
O O8 0.907274 0.205780 0.541892
O O9 0.500000 0.000000 0.000000
#
# Coordination Sequence:
#
# PCOD9037694 Si02
#       4
#     2   2   2   2
#     4   9  20  41  58  91 120 138 209 246 265 363
#     4  10  23  41  56  87 126 151 189 244 293 341
#     4   9  20  40  59  89 117 148 200 242 278 351
#     4  12  21  36  69  86 111 162 193 237 299 332
#
# _framework density 27.081790000000002
#
# number of rings (size 3 to 8) (size 9 to 14) (size 15 to 20)
#    1.500    0.500    2.500    0.750    0.000    6.000 
#    0.000    1.250    0.000    0.000    0.000    0.000 
#    0.000    0.000    0.000    0.000    0.000    0.000 
#
# Total GULP energy -44732.807883 kJ/mol
# GULP energy per Si atom -5591.600985 kJ/mol
# Density = 2.702015 g / cm^3
# Si number density = 27.081790 Si / 1000 Ang^3
#
#
#
# Elastic Constant Matrix: (Units=GPa)
#
#
# Indices 1 2 3 4 5 6 
#
# 1 169.4707 57.8557 13.6303 17.5902 -1.1625 23.2515
# 2 57.8557 208.4360 42.7959 7.5148 6.7567 -8.0551
# 3 13.6303 42.7959 81.0918 31.6550 1.1825 -6.6770
# 4 17.5902 7.5148 31.6550 33.5373 -1.9671 1.9157
# 5 -1.1625 6.7567 1.1825 -1.9671 19.8762 4.7333
# 6 23.2515 -8.0551 -6.6770 1.9157 4.7333 59.8997
#
#
#
# Elastic Compliance Matrix: (Units=1/GPa)
#
#
# Indices 1 2 3 4 5 6 
#
# 1 0.007494 -0.002390 0.001514 -0.004568 0.001430 -0.003029
# 2 -0.002390 0.006309 -0.004195 0.003604 -0.002000 0.001351
# 3 0.001514 -0.004195 0.023077 -0.021920 -0.002582 0.002325
# 4 -0.004568 0.003604 -0.021920 0.052554 0.005562 -0.002306
# 5 0.001430 -0.002000 -0.002582 0.005562 0.053085 -0.005484
# 6 -0.003029 0.001351 0.002325 -0.002306 -0.005484 0.018818
#
#
# Mechanical properties :
#
#
# Convention : Reuss Voigt Hill
#
# Bulk Modulus (GPa) = 37.39682 76.39582 56.89632
# Shear Modulus (GPa) = 27.71766 45.64376 36.68071
#
# Velocity S-wave (km/s) = 3.20266 4.10982 3.68427
# Velocity P-wave (km/s) = 5.24546 7.12681 6.25724
#
# Compressibility (1/GPa) = 0.02674024
#
# Stress axis : x y z
#
# Youngs Moduli (GPa) = 133.43627 158.49573 43.33373
#
# Poissons Ratio (x) = 0.37878 -0.06563
# Poissons Ratio (y) = 0.31889 0.18177
# Poissons Ratio (z) = -0.20208 0.66483
#
# Static dielectric constant tensor:
#      x y z
#    x 2.074090 -0.007050 0.048250 
#    y -0.007050 2.090670 -0.049190 
#    z 0.048250 -0.049190 2.257030 
# 
# From -- ./inp_files/15416.got.cif
#   From: 2010.05.17/outbox.cif.g08.bks.cpg/sg2_8_cif.got.tgz:15416.got - 2010.06.03 11:33:40.
