data_PCOD9037761
_publ_section_title
;
Structure prediction by ZEFSAII (Michael W. Deem and Ramdas Pophale) SiO2 
 PCOD9037761
Probable space group: P -1
;
_chemical_formula_sum "Si O2"
_cell_formula_units_Z 16
_cell_length_a 11.828110
_cell_length_b 27.647566
_cell_length_c 9.402830
_cell_angle_alpha 30.234407
_cell_angle_beta 142.976274
_cell_angle_gamma 152.720581
_cell_volume 703.421463
_symmetry_space_group_name_H-M "P -1"
_symmetry_group_IT_number 2
_symmetry_cell_setting 'triclinic'
loop_
_space_group_symop_operation_xyz
x,y,z
-x,-y,-z
loop_
_atom_site_type_symbol
_atom_site_label
_atom_site_fract_x
_atom_site_fract_y
_atom_site_fract_z
Si Si1 0.199815 0.498711 0.781653
Si Si2 0.187219 0.359465 0.643134
Si Si3 0.835171 0.073129 0.044888
Si Si4 0.412282 0.910955 0.505759
Si Si5 0.475402 0.371828 0.632816
Si Si6 0.922502 0.374148 0.100779
Si Si7 0.848306 0.003816 0.529242
Si Si8 0.250854 0.293073 0.307333
O O1 0.480317 0.626535 0.704345
O O2 0.000000 0.500000 0.500000
O O3 0.174577 0.379789 0.005376
O O4 0.125179 0.474190 0.935304
O O5 0.332912 0.349313 0.692359
O O6 0.377249 0.478710 0.632079
O O7 0.039230 0.393369 0.323318
O O8 0.996645 0.221563 0.869337
O O9 0.724245 0.995059 0.277508
O O10 0.664543 0.046674 0.809873
O O11 0.013939 0.049177 0.228128
O O12 0.184597 0.767047 0.686169
O O13 0.500000 0.000000 0.500000
O O14 0.638914 0.924201 0.639750
O O15 0.304842 0.289646 0.536944
O O16 0.685394 0.362868 0.886642
O O17 0.047935 0.151300 0.403299
#
# Coordination Sequence:
#
# PCOD9037761 Si02
#       8
#     2   2   2   2   2   2   2   2
#     4  11  23  41  63  94 135 165 216 269 331 394
#     4  10  23  41  62  93 135 171 219 273 328 403
#     4  10  25  45  68  97 131 185 221 276 338 393
#     4  11  25  43  70  99 134 177 226 279 332 394
#     4  11  22  39  65  93 133 170 217 272 334 387
#     4  11  22  41  63  96 128 171 219 267 332 394
#     4  11  25  46  69  98 138 175 229 274 332 402
#     4  11  25  39  67  99 129 175 216 275 330 390
#
# _framework density 22.745965000000002
#
# number of rings (size 3 to 8) (size 9 to 14) (size 15 to 20)
#    0.000    1.250    2.500    2.250    7.000    1.500 
#    0.000    5.000    0.000    0.000    0.000    0.000 
#    0.000    0.000    0.000    0.000    0.000    0.000 
#
# Total GULP energy -89544.415087 kJ/mol
# GULP energy per Si atom -5596.525943 kJ/mol
# Density = 2.269419 g / cm^3
# Si number density = 22.745965 Si / 1000 Ang^3
#
#
#
# Elastic Constant Matrix: (Units=GPa)
#
#
# Indices 1 2 3 4 5 6 
#
# 1 84.5733 1.8844 34.3895 15.8001 -5.1328 14.5014
# 2 1.8844 77.3870 18.2273 1.6057 -1.8234 -14.4290
# 3 34.3895 18.2273 76.8750 13.0952 18.8142 2.1995
# 4 15.8001 1.6057 13.0952 30.4138 13.8634 1.8732
# 5 -5.1328 -1.8234 18.8142 13.8634 29.3443 4.4234
# 6 14.5014 -14.4290 2.1995 1.8732 4.4234 40.5589
#
#
#
# Elastic Compliance Matrix: (Units=1/GPa)
#
#
# Indices 1 2 3 4 5 6 
#
# 1 0.022417 0.001686 -0.012636 -0.015142 0.020528 -0.008269
# 2 0.001686 0.015159 -0.005350 -0.001870 0.004852 0.004637
# 3 -0.012636 -0.005350 0.024020 0.005999 -0.021284 0.003356
# 4 -0.015142 -0.001870 0.005999 0.052653 -0.032318 0.005516
# 5 0.020528 0.004852 -0.021284 -0.032318 0.068457 -0.010433
# 6 -0.008269 0.004637 0.003356 0.005516 -0.010433 0.029963
#
#
# Mechanical properties :
#
#
# Convention : Reuss Voigt Hill
#
# Bulk Modulus (GPa) = 34.48660 38.64861 36.56760
# Shear Modulus (GPa) = 19.61287 32.35234 25.98261
#
# Velocity S-wave (km/s) = 2.93961 3.77547 3.38345
# Velocity P-wave (km/s) = 5.16878 6.00283 5.60135
#
# Compressibility (1/GPa) = 0.02899677
#
# Stress axis : x y z
#
# Youngs Moduli (GPa) = 44.60885 65.96789 41.63168
#
# Poissons Ratio (x) = -0.11124 0.52605
# Poissons Ratio (y) = -0.07523 0.22273
# Poissons Ratio (z) = 0.56367 0.35294
#
# Static dielectric constant tensor:
#      x y z
#    x 1.779690 -0.003400 -0.074950 
#    y -0.003400 1.844080 -0.016070 
#    z -0.074950 -0.016070 1.764820 
# 
# From -- ./inp_files/285782.got.cif
#   From: 2010.05.17/outbox.cif.g08.bks.cpg/sg2_143_cif.got.tgz:285782.got - 2010.06.03 11:33:40.
