data_PCOD9037872
_publ_section_title
;
Structure prediction by ZEFSAII (Michael W. Deem and Ramdas Pophale) SiO2 
 PCOD9037872
Probable space group: P -1
;
_chemical_formula_sum "Si O2"
_cell_formula_units_Z 12
_cell_length_a 9.369910
_cell_length_b 11.555250
_cell_length_c 12.009797
_cell_angle_alpha 142.887148
_cell_angle_beta 54.218748
_cell_angle_gamma 130.368005
_cell_volume 591.171560
_symmetry_space_group_name_H-M "P -1"
_symmetry_group_IT_number 2
_symmetry_cell_setting 'triclinic'
loop_
_space_group_symop_operation_xyz
x,y,z
-x,-y,-z
loop_
_atom_site_type_symbol
_atom_site_label
_atom_site_fract_x
_atom_site_fract_y
_atom_site_fract_z
Si Si1 0.175250 0.664076 0.479202
Si Si2 0.506788 0.740385 0.552486
Si Si3 0.438936 0.802647 0.081131
Si Si4 0.839708 0.920899 0.107309
Si Si5 0.120170 0.474518 0.114638
Si Si6 0.307533 0.583937 0.756476
O O1 0.371157 0.680196 0.460616
O O2 0.164831 0.594831 0.304255
O O3 0.000000 0.500000 0.500000
O O4 0.159434 0.885388 0.672541
O O5 0.651961 0.623480 0.398145
O O6 0.370990 0.655511 0.656651
O O7 0.594183 0.986838 0.714914
O O8 0.434363 0.756935 0.917208
O O9 0.639101 0.829938 0.065666
O O10 0.275595 0.607094 0.058692
O O11 0.000000 0.000000 0.000000
O O12 0.909977 0.448441 0.154777
O O13 0.870948 0.747473 0.034722
#
# Coordination Sequence:
#
# PCOD9037872 Si02
#       6
#     2   2   2   2   2   2
#     4  11  21  41  66  89 122 156 211 257 297 364
#     4  10  23  41  64  91 118 168 208 252 303 358
#     4  11  25  41  61  93 130 158 205 255 308 366
#     4  11  23  40  67  91 119 164 208 253 306 359
#     4  12  24  40  63  95 125 163 200 256 314 358
#     4  11  23  41  64  87 129 164 207 247 303 371
#
# _framework density 20.298674999999999
#
# number of rings (size 3 to 8) (size 9 to 14) (size 15 to 20)
#    0.000    1.000    3.333    3.500    0.000    6.000 
#    0.000    0.000    0.000    0.000    0.000    0.000 
#    0.000    0.000    0.000    0.000    0.000    0.000 
#
# Total GULP energy -67161.879204 kJ/mol
# GULP energy per Si atom -5596.823267 kJ/mol
# Density = 2.025247 g / cm^3
# Si number density = 20.298675 Si / 1000 Ang^3
#
#
#
# Elastic Constant Matrix: (Units=GPa)
#
#
# Indices 1 2 3 4 5 6 
#
# 1 89.5826 38.9083 40.8353 19.6317 -27.1266 0.5962
# 2 38.9083 95.6486 17.5803 21.2355 -33.6929 -4.4146
# 3 40.8353 17.5803 53.8265 15.6838 -9.1720 -2.7473
# 4 19.6317 21.2355 15.6838 28.1252 -10.9871 -2.8153
# 5 -27.1266 -33.6929 -9.1720 -10.9871 33.1194 -0.0359
# 6 0.5962 -4.4146 -2.7473 -2.8153 -0.0359 23.3602
#
#
#
# Elastic Compliance Matrix: (Units=1/GPa)
#
#
# Indices 1 2 3 4 5 6 
#
# 1 0.022407 -0.002140 -0.013870 -0.002018 0.011662 -0.002833
# 2 -0.002140 0.017877 0.000190 -0.006198 0.014433 0.002731
# 3 -0.013870 0.000190 0.031036 -0.009751 -0.005803 0.002856
# 4 -0.002018 -0.006198 -0.009751 0.049739 0.005846 0.003737
# 5 0.011662 0.014433 -0.005803 0.005846 0.054763 0.002536
# 6 -0.002833 0.002731 0.002856 0.003737 0.002536 0.044186
#
#
# Mechanical properties :
#
#
# Convention : Reuss Voigt Hill
#
# Bulk Modulus (GPa) = 25.20173 48.18949 36.69561
# Shear Modulus (GPa) = 18.87679 26.36987 22.62333
#
# Velocity S-wave (km/s) = 3.05282 3.60820 3.34207
# Velocity P-wave (km/s) = 4.98685 6.41487 5.74540
#
# Compressibility (1/GPa) = 0.03967981
#
# Stress axis : x y z
#
# Youngs Moduli (GPa) = 44.62850 55.93827 32.22039
#
# Poissons Ratio (x) = 0.11973 0.44688
# Poissons Ratio (y) = 0.09552 -0.00611
# Poissons Ratio (z) = 0.61898 -0.01061
#
# Static dielectric constant tensor:
#      x y z
#    x 1.693090 -0.010380 0.000490 
#    y -0.010380 1.700160 -0.000440 
#    z 0.000490 -0.000440 1.708850 
# 
# From -- ./inp_files/337020.got.cif
#   From: 2010.05.17/outbox.cif.g08.bks.cpg/sg2_169_cif.got.tgz:337020.got - 2010.06.03 11:33:40.
