data_PCOD9037347
_publ_section_title
;
Structure prediction by ZEFSAII (Michael W. Deem and Ramdas Pophale) SiO2 
 PCOD9037347
Probable space group: P -1
;
_chemical_formula_sum "Si O2"
_cell_formula_units_Z 12
_cell_length_a 9.920435
_cell_length_b 10.980001
_cell_length_c 12.941283
_cell_angle_alpha 33.856009
_cell_angle_beta 94.993681
_cell_angle_gamma 71.034241
_cell_volume 546.278574
_symmetry_space_group_name_H-M "P -1"
_symmetry_group_IT_number 2
_symmetry_cell_setting 'triclinic'
loop_
_space_group_symop_operation_xyz
x,y,z
-x,-y,-z
loop_
_atom_site_type_symbol
_atom_site_label
_atom_site_fract_x
_atom_site_fract_y
_atom_site_fract_z
Si Si1 0.945009 0.803656 0.313043
Si Si2 0.685173 0.748379 0.614368
Si Si3 0.702240 0.354289 0.499440
Si Si4 0.981442 0.269149 0.136028
Si Si5 0.702937 0.323012 0.770143
Si Si6 0.724321 0.174793 0.231621
O O1 0.000000 0.500000 0.500000
O O2 0.135180 0.650972 0.499042
O O3 0.768600 0.048190 0.206786
O O4 0.885112 0.006064 0.063855
O O5 0.655509 0.621233 0.603013
O O6 0.500000 0.000000 0.500000
O O7 0.757811 0.909957 0.481567
O O8 0.847596 0.428953 0.912737
O O9 0.711856 0.313124 0.653360
O O10 0.482798 0.619636 0.262256
O O11 0.802696 0.048838 0.655397
O O12 0.865299 0.221330 0.229981
O O13 0.000000 0.500000 0.000000
O O14 0.500000 0.500000 0.000000
#
# Coordination Sequence:
#
# PCOD9037347 Si02
#       6
#     2   2   2   2   2   2
#     4  11  23  41  66  98 139 172 229 284 336 410
#     4  12  22  41  71  94 134 181 218 285 341 400
#     4  10  23  40  65  97 131 177 227 274 342 406
#     4  11  24  43  65  99 138 172 230 285 336 409
#     4  11  22  42  67  97 134 181 222 279 348 398
#     4  11  23  41  66 103 128 182 230 269 350 409
#
# _framework density 21.966813999999999
#
# number of rings (size 3 to 8) (size 9 to 14) (size 15 to 20)
#    0.000    1.000    5.000    2.500    2.333    1.333 
#    0.000    1.667    0.000    0.000    0.000    0.000 
#    0.000    0.000    0.000    0.000    0.000    0.000 
#
# Total GULP energy -66838.406381 kJ/mol
# GULP energy per Si atom -5569.867198 kJ/mol
# Density = 2.191682 g / cm^3
# Si number density = 21.966814 Si / 1000 Ang^3
#
#
#
# Elastic Constant Matrix: (Units=GPa)
#
#
# Indices 1 2 3 4 5 6 
#
# 1 119.3773 43.6895 40.4021 -10.4215 -10.0185 8.8258
# 2 43.6895 68.0530 0.7699 -25.2269 -16.8808 -0.8350
# 3 40.4021 0.7699 65.0740 -6.3803 -10.0605 0.3441
# 4 -10.4215 -25.2269 -6.3803 39.8796 2.9452 -7.8856
# 5 -10.0185 -16.8808 -10.0605 2.9452 47.6961 -5.8085
# 6 8.8258 -0.8350 0.3441 -7.8856 -5.8085 38.6302
#
#
#
# Elastic Compliance Matrix: (Units=1/GPa)
#
#
# Indices 1 2 3 4 5 6 
#
# 1 0.017457 -0.015242 -0.012114 -0.007970 -0.004586 -0.006526
# 2 -0.015242 0.035487 0.012974 0.021704 0.012018 0.010371
# 3 -0.012114 0.012974 0.024792 0.009629 0.007401 0.005906
# 4 -0.007970 0.021704 0.009629 0.040006 0.006959 0.011417
# 5 -0.004586 0.012018 0.007401 0.006959 0.026191 0.006600
# 6 -0.006526 0.010371 0.005906 0.011417 0.006600 0.030872
#
#
# Mechanical properties :
#
#
# Convention : Reuss Voigt Hill
#
# Bulk Modulus (GPa) = 20.41964 46.91414 33.66689
# Shear Modulus (GPa) = 22.73850 36.41737 29.57793
#
# Velocity S-wave (km/s) = 3.22083 4.07607 3.67343
# Velocity P-wave (km/s) = 4.81119 6.59967 5.77508
#
# Compressibility (1/GPa) = 0.04897246
#
# Stress axis : x y z
#
# Youngs Moduli (GPa) = 57.28469 28.17973 40.33607
#
# Poissons Ratio (x) = 0.42951 0.48862
# Poissons Ratio (y) = 0.87312 -0.52333
# Poissons Ratio (z) = 0.69393 -0.36561
#
# Static dielectric constant tensor:
#      x y z
#    x 1.887490 0.330070 -0.449300 
#    y 0.330070 0.898200 1.007400 
#    z -0.449300 1.007400 0.859040 
# 
# From -- ./inp_files/265332.got.cif
#   From: 2010.05.17/outbox.cif.g08.bks.cpg/sg2_133_cif.got.tgz:265332.got - 2010.06.03 11:33:40.
