data_PCOD9037620
_publ_section_title
;
Structure prediction by ZEFSAII (Michael W. Deem and Ramdas Pophale) SiO2 
 PCOD9037620
Probable space group: P -1
;
_chemical_formula_sum "Si O2"
_cell_formula_units_Z 14
_cell_length_a 11.882574
_cell_length_b 10.638577
_cell_length_c 14.937593
_cell_angle_alpha 73.358307
_cell_angle_beta 145.042578
_cell_angle_gamma 131.498147
_cell_volume 649.439962
_symmetry_space_group_name_H-M "P -1"
_symmetry_group_IT_number 2
_symmetry_cell_setting 'triclinic'
loop_
_space_group_symop_operation_xyz
x,y,z
-x,-y,-z
loop_
_atom_site_type_symbol
_atom_site_label
_atom_site_fract_x
_atom_site_fract_y
_atom_site_fract_z
Si Si1 0.790284 0.018690 0.852460
Si Si2 0.634701 0.511440 0.856927
Si Si3 0.269096 0.771382 0.435449
Si Si4 0.649237 0.906712 0.972906
Si Si5 0.201428 0.481544 0.676369
Si Si6 0.204162 0.652498 0.897715
Si Si7 0.790106 0.649543 0.725404
O O1 0.515756 0.828058 0.648689
O O2 0.642294 0.984509 0.858683
O O3 0.036970 0.258197 0.936669
O O4 0.000000 0.000000 0.000000
O O5 0.343725 0.451536 0.707060
O O6 0.679939 0.546407 0.772740
O O7 0.614571 0.357759 0.919362
O O8 0.016295 0.699323 0.354148
O O9 0.081100 0.573732 0.291064
O O10 0.500000 0.000000 0.500000
O O11 0.499115 0.693982 0.882069
O O12 0.429719 0.823863 0.931051
O O13 0.015249 0.111972 0.193493
O O14 0.000000 0.500000 0.500000
O O15 0.049261 0.683810 0.849849
O O16 0.500000 0.500000 0.500000
#
# Coordination Sequence:
#
# PCOD9037620 Si02
#       7
#     2   2   2   2   2   2   2
#     4  11  20  37  63  96 130 169 207 262 325 387
#     4  11  24  43  65  95 133 168 212 273 334 374
#     4  11  23  38  64 100 132 163 211 268 332 382
#     4  10  23  40  70  92 133 169 218 264 328 379
#     4  11  22  40  69 100 128 166 215 269 325 392
#     4  11  25  44  65  95 137 170 216 271 324 389
#     4  11  27  44  70  91 127 180 228 260 314 395
#
# _framework density 21.557036
#
# number of rings (size 3 to 8) (size 9 to 14) (size 15 to 20)
#    0.000    1.143    4.286    0.857    8.000    3.429 
#    0.000    0.714    0.000    0.000    0.000    0.000 
#    0.000    0.000    0.000    0.000    0.000    0.000 
#
# Total GULP energy -78048.274761 kJ/mol
# GULP energy per Si atom -5574.876769 kJ/mol
# Density = 2.150797 g / cm^3
# Si number density = 21.557036 Si / 1000 Ang^3
#
#
#
# Elastic Constant Matrix: (Units=GPa)
#
#
# Indices 1 2 3 4 5 6 
#
# 1 169.9451 47.7866 31.3392 -7.8582 17.9158 24.2827
# 2 47.7866 85.3124 33.8882 11.4802 17.2996 21.9086
# 3 31.3392 33.8882 124.4906 9.4726 -9.9870 1.5486
# 4 -7.8582 11.4802 9.4726 31.2416 -3.7345 10.7294
# 5 17.9158 17.2996 -9.9870 -3.7345 31.2796 6.3869
# 6 24.2827 21.9086 1.5486 10.7294 6.3869 26.1267
#
#
#
# Elastic Compliance Matrix: (Units=1/GPa)
#
#
# Indices 1 2 3 4 5 6 
#
# 1 0.008533 -0.002412 -0.002008 0.006113 -0.001863 -0.007843
# 2 -0.002412 0.020448 -0.005317 -0.004108 -0.009979 -0.010463
# 3 -0.002008 -0.005317 0.010624 -0.002912 0.006029 0.005418
# 4 0.006113 -0.004108 -0.002912 0.044486 0.007688 -0.022212
# 5 -0.001863 -0.009979 0.006029 0.007688 0.042158 -0.003721
# 6 -0.007843 -0.010463 0.005418 -0.022212 -0.003721 0.064049
#
#
# Mechanical properties :
#
#
# Convention : Reuss Voigt Hill
#
# Bulk Modulus (GPa) = 49.67849 67.30847 58.49348
# Shear Modulus (GPa) = 23.09659 35.51186 29.30423
#
# Velocity S-wave (km/s) = 3.27680 4.06315 3.69098
# Velocity P-wave (km/s) = 6.11651 7.30092 6.73481
#
# Compressibility (1/GPa) = 0.02012944
#
# Stress axis : x y z
#
# Youngs Moduli (GPa) = 117.19680 48.90428 94.13082
#
# Poissons Ratio (x) = 0.11797 0.18905
# Poissons Ratio (y) = 0.28270 0.50048
# Poissons Ratio (z) = 0.23537 0.26002
#
# Static dielectric constant tensor:
#      x y z
#    x 1.826960 0.047640 -0.036480 
#    y 0.047640 1.892480 -0.039240 
#    z -0.036480 -0.039240 1.851250 
# 
# From -- ./inp_files/517902.got.cif
#   From: 2010.05.17/outbox.cif.g08.bks.cpg/sg2_259_cif.got.tgz:517902.got - 2010.06.03 11:33:40.
