data_PCOD9037482
_publ_section_title
;
Structure prediction by ZEFSAII (Michael W. Deem and Ramdas Pophale) SiO2 
 PCOD9037482
Probable space group: P -1
;
_chemical_formula_sum "Si O2"
_cell_formula_units_Z 12
_cell_length_a 8.770813
_cell_length_b 13.582750
_cell_length_c 8.894694
_cell_angle_alpha 67.427128
_cell_angle_beta 46.691604
_cell_angle_gamma 39.429453
_cell_volume 464.665789
_symmetry_space_group_name_H-M "P -1"
_symmetry_group_IT_number 2
_symmetry_cell_setting 'triclinic'
loop_
_space_group_symop_operation_xyz
x,y,z
-x,-y,-z
loop_
_atom_site_type_symbol
_atom_site_label
_atom_site_fract_x
_atom_site_fract_y
_atom_site_fract_z
Si Si1 0.556048 0.768577 0.354920
Si Si2 0.212269 0.023985 0.855649
Si Si3 0.179378 0.502564 0.252439
Si Si4 0.734190 0.318284 0.214514
Si Si5 0.160519 0.122658 0.492544
Si Si6 0.585531 0.603019 0.173419
O O1 0.400168 0.727358 0.570235
O O2 0.657311 0.677250 0.183359
O O3 0.871042 0.681757 0.286407
O O4 0.310997 0.960847 0.403793
O O5 0.172072 0.091536 0.679681
O O6 0.597033 0.873207 0.705432
O O7 0.058853 0.149578 0.021185
O O8 0.000000 0.000000 0.000000
O O9 0.474285 0.436876 0.185898
O O10 0.000000 0.500000 0.500000
O O11 0.338955 0.398639 0.050851
O O12 0.754875 0.426550 0.209638
O O13 0.790918 0.277235 0.616290
#
# Coordination Sequence:
#
# PCOD9037482 Si02
#       6
#     2   2   2   2   2   2
#     4  11  24  44  67 102 146 184 225 284 354 415
#     4  11  23  43  70 101 137 180 236 293 335 409
#     4  10  23  40  67  98 131 183 236 284 336 404
#     4  11  23  42  67  99 137 183 238 281 337 411
#     4  11  25  41  72 101 138 185 230 284 354 405
#     4  12  24  43  68 104 144 182 229 289 349 416
#
# _framework density 25.825011
#
# number of rings (size 3 to 8) (size 9 to 14) (size 15 to 20)
#    0.000    1.000    3.333    3.000    4.667    1.333 
#    0.000    0.833    0.000    0.000    0.000    0.000 
#    0.000    0.000    0.000    0.000    0.000    0.000 
#
# Total GULP energy -67157.995368 kJ/mol
# GULP energy per Si atom -5596.499614 kJ/mol
# Density = 2.576623 g / cm^3
# Si number density = 25.825011 Si / 1000 Ang^3
#
#
#
# Elastic Constant Matrix: (Units=GPa)
#
#
# Indices 1 2 3 4 5 6 
#
# 1 82.3869 25.1507 53.4728 1.6903 -21.3284 17.7437
# 2 25.1507 95.0473 59.0532 15.8153 -7.8015 36.2126
# 3 53.4728 59.0532 160.8037 2.8933 -21.5562 20.7419
# 4 1.6903 15.8153 2.8933 45.8608 5.0351 4.7849
# 5 -21.3284 -7.8015 -21.5562 5.0351 62.0945 13.8542
# 6 17.7437 36.2126 20.7419 4.7849 13.8542 33.5331
#
#
#
# Elastic Compliance Matrix: (Units=1/GPa)
#
#
# Indices 1 2 3 4 5 6 
#
# 1 0.020046 0.005486 -0.005132 -0.001587 0.009750 -0.017159
# 2 0.005486 0.027002 -0.006062 -0.007004 0.010833 -0.031789
# 3 -0.005132 -0.006062 0.009750 0.001342 0.000081 0.003005
# 4 -0.001587 -0.007004 0.001342 0.024044 -0.004222 0.005887
# 5 0.009750 0.010833 0.000081 -0.004222 0.027344 -0.027603
# 6 -0.017159 -0.031789 0.003005 0.005887 -0.027603 0.081935
#
#
# Mechanical properties :
#
#
# Convention : Reuss Voigt Hill
#
# Bulk Modulus (GPa) = 22.03459 68.17683 45.10571
# Shear Modulus (GPa) = 23.07727 41.66843 32.37285
#
# Velocity S-wave (km/s) = 2.99256 4.02119 3.54439
# Velocity P-wave (km/s) = 4.52674 6.92941 5.85270
#
# Compressibility (1/GPa) = 0.04538320
#
# Stress axis : x y z
#
# Youngs Moduli (GPa) = 49.88474 37.03490 102.55975
#
# Poissons Ratio (x) = -0.20317 0.52631
# Poissons Ratio (y) = -0.27366 0.62168
# Poissons Ratio (z) = 0.25599 0.22449
#
# Static dielectric constant tensor:
#      x y z
#    x 2.077530 0.026090 -0.021590 
#    y 0.026090 2.030070 0.013460 
#    z -0.021590 0.013460 2.050060 
# 
# From -- ./inp_files/186280.got.cif
#   From: 2010.05.17/outbox.cif.g08.bks.cpg/sg2_94_cif.got.tgz:186280.got - 2010.06.03 11:33:40.
