data_PCOD9037547
_publ_section_title
;
Structure prediction by ZEFSAII (Michael W. Deem and Ramdas Pophale) SiO2 
 PCOD9037547
Probable space group: P -1
;
_chemical_formula_sum "Si O2"
_cell_formula_units_Z 14
_cell_length_a 10.793157
_cell_length_b 21.726501
_cell_length_c 18.963066
_cell_angle_alpha 17.426036
_cell_angle_beta 27.479187
_cell_angle_gamma 32.998173
_cell_volume 613.508765
_symmetry_space_group_name_H-M "P -1"
_symmetry_group_IT_number 2
_symmetry_cell_setting 'triclinic'
loop_
_space_group_symop_operation_xyz
x,y,z
-x,-y,-z
loop_
_atom_site_type_symbol
_atom_site_label
_atom_site_fract_x
_atom_site_fract_y
_atom_site_fract_z
Si Si1 0.422615 0.927735 0.323108
Si Si2 0.894110 0.673716 0.313383
Si Si3 0.467223 0.780561 0.848152
Si Si4 0.547748 0.616158 0.214397
Si Si5 0.321554 0.097065 0.043390
Si Si6 0.739204 0.208837 0.210134
Si Si7 0.843900 0.429118 0.058493
O O1 0.709846 0.831275 0.273662
O O2 0.290345 0.945673 0.292447
O O3 0.244917 0.775426 0.628669
O O4 0.468991 0.168891 0.056023
O O5 0.692883 0.549391 0.496987
O O6 0.000000 0.500000 0.500000
O O7 0.164946 0.776860 0.032773
O O8 0.431868 0.733525 0.833717
O O9 0.598715 0.008576 0.536685
O O10 0.654146 0.613219 0.970855
O O11 0.835579 0.532019 0.140558
O O12 0.552896 0.700665 0.200084
O O13 0.032167 0.143217 0.109809
O O14 0.500000 0.000000 0.000000
O O15 0.789826 0.375879 0.062182
#
# Coordination Sequence:
#
# PCOD9037547 Si02
#       7
#     2   2   2   2   2   2   2
#     4  10  23  40  68  96 133 173 223 271 331 389
#     4  12  25  43  64 104 136 172 221 273 338 399
#     4  11  25  43  65  97 135 178 221 274 334 397
#     4   9  25  40  69  99 129 179 220 270 336 390
#     4   9  20  44  67  95 128 175 223 269 328 392
#     4  10  24  44  66  92 133 181 221 272 336 391
#     4  11  22  43  68  98 130 174 230 275 320 403
#
# _framework density 22.819559000000002
#
# number of rings (size 3 to 8) (size 9 to 14) (size 15 to 20)
#    0.857    0.857    1.429    1.714    4.000    2.286 
#    5.143    2.143    0.000    0.000    0.000    0.000 
#    0.000    0.000    0.000    0.000    0.000    0.000 
#
# Total GULP energy -78259.253242 kJ/mol
# GULP energy per Si atom -5589.946660 kJ/mol
# Density = 2.276762 g / cm^3
# Si number density = 22.819559 Si / 1000 Ang^3
#
#
#
# Elastic Constant Matrix: (Units=GPa)
#
#
# Indices 1 2 3 4 5 6 
#
# 1 67.4952 26.2905 13.4819 1.3007 -8.2558 -9.9081
# 2 26.2905 125.2897 41.9040 20.1180 -20.8494 -15.8524
# 3 13.4819 41.9040 84.4236 23.8124 -26.3357 2.3648
# 4 1.3007 20.1180 23.8124 23.1452 -7.4253 7.8992
# 5 -8.2558 -20.8494 -26.3357 -7.4253 36.1306 1.3599
# 6 -9.9081 -15.8524 2.3648 7.8992 1.3599 33.8161
#
#
#
# Elastic Compliance Matrix: (Units=1/GPa)
#
#
# Indices 1 2 3 4 5 6 
#
# 1 0.016803 -0.002746 -0.001687 0.002584 0.001440 0.003092
# 2 -0.002746 0.012234 -0.002304 -0.009804 0.002464 0.007283
# 3 -0.001687 -0.002304 0.021082 -0.016429 0.010262 0.000377
# 4 0.002584 -0.009804 -0.016429 0.075108 -0.000847 -0.020201
# 5 0.001440 0.002464 0.010262 -0.000847 0.036750 -0.000421
# 6 0.003092 0.007283 0.000377 -0.020201 -0.000421 0.038601
#
#
# Mechanical properties :
#
#
# Convention : Reuss Voigt Hill
#
# Bulk Modulus (GPa) = 27.28778 48.95126 38.11952
# Shear Modulus (GPa) = 22.09788 31.65385 26.87587
#
# Velocity S-wave (km/s) = 3.11525 3.72847 3.43557
# Velocity P-wave (km/s) = 4.99237 6.32719 5.69899
#
# Compressibility (1/GPa) = 0.03664644
#
# Stress axis : x y z
#
# Youngs Moduli (GPa) = 59.51462 81.73931 47.43280
#
# Poissons Ratio (x) = 0.22443 0.08000
# Poissons Ratio (y) = 0.16341 0.10928
# Poissons Ratio (z) = 0.10038 0.18832
#
# Static dielectric constant tensor:
#      x y z
#    x 1.890490 0.008440 0.026950 
#    y 0.008440 1.844620 -0.001880 
#    z 0.026950 -0.001880 1.821460 
# 
# From -- ./inp_files/596352.got.cif
#   From: 2010.05.17/outbox.cif.g08.bks.cpg/sg2_299_cif.got.tgz:596352.got - 2010.06.03 11:33:40.
