data_PCOD9037741
_publ_section_title
;
Structure prediction by ZEFSAII (Michael W. Deem and Ramdas Pophale) SiO2 
 PCOD9037741
Probable space group: P -1
;
_chemical_formula_sum "Si O2"
_cell_formula_units_Z 10
_cell_length_a 8.342207
_cell_length_b 10.032934
_cell_length_c 9.603450
_cell_angle_alpha 41.057779
_cell_angle_beta 81.049878
_cell_angle_gamma 106.023237
_cell_volume 414.749446
_symmetry_space_group_name_H-M "P -1"
_symmetry_group_IT_number 2
_symmetry_cell_setting 'triclinic'
loop_
_space_group_symop_operation_xyz
x,y,z
-x,-y,-z
loop_
_atom_site_type_symbol
_atom_site_label
_atom_site_fract_x
_atom_site_fract_y
_atom_site_fract_z
Si Si1 0.759080 0.366631 0.297514
Si Si2 0.012355 0.766771 0.182562
Si Si3 0.566430 0.861674 0.273972
Si Si4 0.705246 0.520630 0.627760
Si Si5 0.890601 0.695966 0.755453
O O1 0.551864 0.129566 0.585597
O O2 0.845261 0.560382 0.262274
O O3 0.917121 0.310440 0.282788
O O4 0.768125 0.531988 0.038754
O O5 0.935485 0.651652 0.436483
O O6 0.229151 0.869004 0.012199
O O7 0.000000 0.000000 0.000000
O O8 0.636507 0.695696 0.454410
O O9 0.445861 0.729202 0.249730
O O10 0.732730 0.547733 0.766759
O O11 0.000000 0.000000 0.500000
#
# Coordination Sequence:
#
# PCOD9037741 Si02
#       5
#     2   2   2   2   2
#     4  10  23  41  62  90 122 159 206 246 296 365
#     4   9  17  36  63  89 120 154 191 248 304 349
#     4   9  18  37  63  92 120 152 201 254 296 356
#     4   9  19  35  60  89 120 157 198 244 303 360
#     4  11  23  42  62  85 125 167 199 249 304 351
#
# _framework density 24.110945000000001
#
# number of rings (size 3 to 8) (size 9 to 14) (size 15 to 20)
#    0.000    2.400    0.000    3.600    0.000    4.000 
#    0.000   17.000    0.000    0.000    0.000    0.000 
#    0.000    0.000    0.000    0.000    0.000    0.000 
#
# Total GULP energy -55846.971154 kJ/mol
# GULP energy per Si atom -5584.697115 kJ/mol
# Density = 2.405607 g / cm^3
# Si number density = 24.110945 Si / 1000 Ang^3
#
#
#
# Elastic Constant Matrix: (Units=GPa)
#
#
# Indices 1 2 3 4 5 6 
#
# 1 72.6601 8.8171 23.7699 11.8187 5.6052 -0.0834
# 2 8.8171 82.5015 52.1322 27.9533 18.6095 8.0960
# 3 23.7699 52.1322 110.2192 17.3447 -6.9464 18.3760
# 4 11.8187 27.9533 17.3447 41.5389 -6.7896 15.5028
# 5 5.6052 18.6095 -6.9464 -6.7896 51.0131 4.8891
# 6 -0.0834 8.0960 18.3760 15.5028 4.8891 38.7638
#
#
#
# Elastic Compliance Matrix: (Units=1/GPa)
#
#
# Indices 1 2 3 4 5 6 
#
# 1 0.017688 0.007613 -0.007398 -0.011123 -0.007918 0.007402
# 2 0.007613 0.035040 -0.017694 -0.027267 -0.021061 0.014647
# 3 -0.007398 -0.017694 0.019955 0.012383 0.012816 -0.012349
# 4 -0.011123 -0.027267 0.012383 0.053100 0.022246 -0.024242
# 5 -0.007918 -0.021061 0.012816 0.022246 0.034291 -0.014916
# 6 0.007402 0.014647 -0.012349 -0.024242 -0.014916 0.040184
#
#
# Mechanical properties :
#
#
# Convention : Reuss Voigt Hill
#
# Bulk Modulus (GPa) = 26.50761 48.31322 37.41041
# Shear Modulus (GPa) = 20.17828 38.30725 29.24276
#
# Velocity S-wave (km/s) = 2.89605 3.99029 3.48637
# Velocity P-wave (km/s) = 4.71176 6.42738 5.63524
#
# Compressibility (1/GPa) = 0.03772502
#
# Stress axis : x y z
#
# Youngs Moduli (GPa) = 56.53643 28.53904 50.11258
#
# Poissons Ratio (x) = -0.21727 0.37074
# Poissons Ratio (y) = -0.43041 0.88667
# Poissons Ratio (z) = 0.41826 0.50496
#
# Static dielectric constant tensor:
#      x y z
#    x 1.696420 0.074410 0.056560 
#    y 0.074410 1.816600 -0.035120 
#    z 0.056560 -0.035120 1.941370 
# 
# From -- ./inp_files/152668.got.cif
#   From: 2010.05.17/outbox.cif.g08.bks.cpg/sg2_77_cif.got.tgz:152668.got - 2010.06.03 11:33:40.
