data_PCOD9037056
_publ_section_title
;
Structure prediction by ZEFSAII (Michael W. Deem and Ramdas Pophale) SiO2 
 PCOD9037056
Probable space group: P -1
;
_chemical_formula_sum "Si O2"
_cell_formula_units_Z 12
_cell_length_a 17.952029
_cell_length_b 9.313959
_cell_length_c 7.742416
_cell_angle_alpha 47.594520
_cell_angle_beta 141.578419
_cell_angle_gamma 141.804172
_cell_volume 491.634520
_symmetry_space_group_name_H-M "P -1"
_symmetry_group_IT_number 2
_symmetry_cell_setting 'triclinic'
loop_
_space_group_symop_operation_xyz
x,y,z
-x,-y,-z
loop_
_atom_site_type_symbol
_atom_site_label
_atom_site_fract_x
_atom_site_fract_y
_atom_site_fract_z
Si Si1 0.077822 0.472970 0.499018
Si Si2 0.182883 0.973637 0.789981
Si Si3 0.494336 0.156370 0.711107
Si Si4 0.691367 0.588821 0.115840
Si Si5 0.296555 0.781807 0.383878
Si Si6 0.624486 0.632530 0.443006
O O1 0.213048 0.455140 0.804993
O O2 0.153875 0.686108 0.325355
O O3 0.000000 0.500000 0.500000
O O4 0.970586 0.242327 0.377247
O O5 0.216736 0.140890 0.880533
O O6 0.269872 0.857868 0.092040
O O7 0.249114 0.161705 0.605834
O O8 0.628052 0.414605 0.689551
O O9 0.427143 0.997147 0.550250
O O10 0.389025 0.229574 0.534026
O O11 0.500000 0.000000 0.000000
O O12 0.681934 0.429847 0.390197
O O13 0.528307 0.479637 0.848284
#
# Coordination Sequence:
#
# PCOD9037056 Si02
#       6
#     2   2   2   2   2   2
#     4  10  23  46  68  95 135 185 227 271 338 398
#     4  12  23  43  68 100 141 172 225 279 335 402
#     4  11  21  42  65  96 140 175 222 275 329 400
#     4  10  23  41  66 100 134 174 226 272 338 391
#     4  10  23  39  71  93 139 174 230 272 332 392
#     4  11  24  38  70 100 135 177 222 273 344 393
#
# _framework density 24.408373000000001
#
# number of rings (size 3 to 8) (size 9 to 14) (size 15 to 20)
#    1.000    0.333    3.333    2.500    0.000    2.000 
#    0.000    2.500    0.000    0.000    0.000    0.000 
#    0.000    0.000    0.000    0.000    0.000    0.000 
#
# Total GULP energy -66980.592744 kJ/mol
# GULP energy per Si atom -5581.716062 kJ/mol
# Density = 2.435282 g / cm^3
# Si number density = 24.408373 Si / 1000 Ang^3
#
#
#
# Elastic Constant Matrix: (Units=GPa)
#
#
# Indices 1 2 3 4 5 6 
#
# 1 52.7509 4.5872 -17.3885 -4.4560 9.7947 1.5763
# 2 4.5872 156.8247 53.5792 -14.9803 3.6164 7.5377
# 3 -17.3885 53.5792 99.6566 -12.8608 -6.9523 9.0397
# 4 -4.4560 -14.9803 -12.8608 54.3301 3.0714 -4.3901
# 5 9.7947 3.6164 -6.9523 3.0714 29.3931 -9.8548
# 6 1.5763 7.5377 9.0397 -4.3901 -9.8548 40.4731
#
#
#
# Elastic Compliance Matrix: (Units=1/GPa)
#
#
# Indices 1 2 3 4 5 6 
#
# 1 0.022461 -0.001782 0.004995 0.002697 -0.007430 -0.003175
# 2 -0.001782 0.008196 -0.004643 0.001059 -0.001879 -0.000763
# 3 0.004995 -0.004643 0.013951 0.002204 0.001346 -0.001879
# 4 0.002697 0.001059 0.002204 0.019634 -0.002299 0.000775
# 5 -0.007430 -0.001879 0.001346 -0.002299 0.040635 0.009983
# 6 -0.003175 -0.000763 -0.001879 0.000775 0.009983 0.027908
#
#
# Mechanical properties :
#
#
# Convention : Reuss Voigt Hill
#
# Bulk Modulus (GPa) = 23.95325 43.42089 33.68707
# Shear Modulus (GPa) = 33.43150 42.73619 38.08385
#
# Velocity S-wave (km/s) = 3.70492 4.18889 3.95432
# Velocity P-wave (km/s) = 5.30441 6.42057 5.88900
#
# Compressibility (1/GPa) = 0.04174799
#
# Stress axis : x y z
#
# Youngs Moduli (GPa) = 44.52212 122.01078 71.68062
#
# Poissons Ratio (x) = 0.21741 -0.35802
# Poissons Ratio (y) = 0.07933 0.33278
# Poissons Ratio (z) = -0.22238 0.56645
#
# Static dielectric constant tensor:
#      x y z
#    x 2.102640 0.015550 -0.036630 
#    y 0.015550 1.896410 -0.043600 
#    z -0.036630 -0.043600 1.974260 
# 
# From -- ./inp_files/224556.got.cif
#   From: 2010.05.17/outbox.cif.g08.bks.cpg/sg2_113_cif.got.tgz:224556.got - 2010.06.03 11:33:40.
