data_PCOD9037566
_publ_section_title
;
Structure prediction by ZEFSAII (Michael W. Deem and Ramdas Pophale) SiO2 
 PCOD9037566
Probable space group: P -1
;
_chemical_formula_sum "Si O2"
_cell_formula_units_Z 16
_cell_length_a 18.275675
_cell_length_b 21.372072
_cell_length_c 9.553790
_cell_angle_alpha 38.636711
_cell_angle_beta 141.527374
_cell_angle_gamma 159.224447
_cell_volume 802.824039
_symmetry_space_group_name_H-M "P -1"
_symmetry_group_IT_number 2
_symmetry_cell_setting 'triclinic'
loop_
_space_group_symop_operation_xyz
x,y,z
-x,-y,-z
loop_
_atom_site_type_symbol
_atom_site_label
_atom_site_fract_x
_atom_site_fract_y
_atom_site_fract_z
Si Si1 0.250918 0.429225 0.149201
Si Si2 0.325410 0.888723 0.550578
Si Si3 0.192224 0.193395 0.013215
Si Si4 0.922734 0.483473 0.258393
Si Si5 0.608564 0.146137 0.791622
Si Si6 0.587471 0.364480 0.425347
Si Si7 0.053641 0.264176 0.861628
Si Si8 0.623707 0.539715 0.415188
O O1 0.439611 0.489945 0.267723
O O2 0.245030 0.393691 0.365061
O O3 0.254285 0.553492 0.932885
O O4 0.064657 0.280509 0.016581
O O5 0.180892 0.684288 0.687142
O O6 0.170573 0.868202 0.308031
O O7 0.500000 0.000000 0.500000
O O8 0.460301 0.015732 0.664940
O O9 0.386432 0.260828 0.220019
O O10 0.129311 0.207968 0.032180
O O11 0.250505 0.315173 0.770999
O O12 0.000000 0.000000 0.000000
O O13 0.000000 0.500000 0.500000
O O14 0.137954 0.682445 0.163233
O O15 0.591124 0.248611 0.634466
O O16 0.500000 0.000000 0.000000
O O17 0.783122 0.545263 0.307922
O O18 0.567151 0.398209 0.491773
#
# Coordination Sequence:
#
# PCOD9037566 Si02
#       8
#     2   2   2   2   2   2   2   2
#     4  11  21  40  69  95 133 169 230 277 348 406
#     4  12  25  43  70 103 134 187 242 277 350 421
#     4  11  22  38  65  95 129 178 230 280 335 413
#     4  12  24  45  72  99 140 188 226 289 347 413
#     4  12  28  45  69 106 141 180 235 294 345 412
#     4  11  21  44  66  94 138 177 231 277 347 414
#     4  11  20  41  69  96 132 180 229 282 339 418
#     4  10  23  40  68  99 125 179 222 285 351 398
#
# _framework density 19.929648
#
# number of rings (size 3 to 8) (size 9 to 14) (size 15 to 20)
#    0.000    0.750    6.250    1.500    1.750    4.500 
#    0.000    0.625    0.000    0.000    0.000    0.000 
#    0.000    0.000    0.000    0.000    0.000    0.000 
#
# Total GULP energy -89170.989297 kJ/mol
# GULP energy per Si atom -5573.186831 kJ/mol
# Density = 1.988429 g / cm^3
# Si number density = 19.929648 Si / 1000 Ang^3
#
#
#
# Elastic Constant Matrix: (Units=GPa)
#
#
# Indices 1 2 3 4 5 6 
#
# 1 107.0681 35.0336 45.6045 2.4367 5.6219 -12.8495
# 2 35.0336 89.4093 9.6515 7.2795 3.0884 3.7249
# 3 45.6045 9.6515 71.1795 11.0445 5.5275 3.9771
# 4 2.4367 7.2795 11.0445 25.4750 -8.4428 4.7296
# 5 5.6219 3.0884 5.5275 -8.4428 39.9942 1.1137
# 6 -12.8495 3.7249 3.9771 4.7296 1.1137 31.8729
#
#
#
# Elastic Compliance Matrix: (Units=1/GPa)
#
#
# Indices 1 2 3 4 5 6 
#
# 1 0.016965 -0.006083 -0.011045 0.003369 0.000088 0.008425
# 2 -0.006083 0.013811 0.003043 -0.004480 -0.001474 -0.003730
# 3 -0.011045 0.003043 0.022871 -0.009845 -0.003753 -0.006070
# 4 0.003369 -0.004480 -0.009845 0.049231 0.011754 -0.004606
# 5 0.000088 -0.001474 -0.003753 0.011754 0.028162 -0.002052
# 6 0.008425 -0.003730 -0.006070 -0.004606 -0.002052 0.036720
#
#
# Mechanical properties :
#
#
# Convention : Reuss Voigt Hill
#
# Bulk Modulus (GPa) = 39.25269 49.80401 44.52835
# Shear Modulus (GPa) = 24.45931 31.29292 27.87611
#
# Velocity S-wave (km/s) = 3.50706 3.96683 3.74401
# Velocity P-wave (km/s) = 6.01146 6.78419 6.40948
#
# Compressibility (1/GPa) = 0.02547596
#
# Stress axis : x y z
#
# Youngs Moduli (GPa) = 58.94638 72.40725 43.72380
#
# Poissons Ratio (x) = 0.44048 0.48291
# Poissons Ratio (y) = 0.35860 -0.13305
# Poissons Ratio (z) = 0.65104 -0.22033
#
# Static dielectric constant tensor:
#      x y z
#    x 1.790050 -0.016090 -0.003100 
#    y -0.016090 1.691070 -0.031420 
#    z -0.003100 -0.031420 1.683100 
# 
# From -- ./inp_files/338096.got.cif
#   From: 2010.05.17/outbox.cif.g08.bks.cpg/sg2_170_cif.got.tgz:338096.got - 2010.06.03 11:33:40.
