data_PCOD9037917
_publ_section_title
;
Structure prediction by ZEFSAII (Michael W. Deem and Ramdas Pophale) SiO2 
 PCOD9037917
Probable space group: P -1
;
_chemical_formula_sum "Si O2"
_cell_formula_units_Z 15
_cell_length_a 15.077485
_cell_length_b 8.539279
_cell_length_c 5.669170
_cell_angle_alpha 123.512662
_cell_angle_beta 81.542184
_cell_angle_gamma 102.384210
_cell_volume 594.043837
_symmetry_space_group_name_H-M "P -1"
_symmetry_group_IT_number 2
_symmetry_cell_setting 'triclinic'
loop_
_space_group_symop_operation_xyz
x,y,z
-x,-y,-z
loop_
_atom_site_type_symbol
_atom_site_label
_atom_site_fract_x
_atom_site_fract_y
_atom_site_fract_z
Si Si1 0.670892 0.352232 0.352694
Si Si2 0.656999 0.014468 0.778002
Si Si3 0.195645 0.753127 0.430775
Si Si4 0.223771 0.298651 0.537454
Si Si5 0.923637 0.936835 0.285447
Si Si6 0.456798 0.416235 0.193106
Si Si7 0.500000 0.000000 0.000000
Si Si8 0.080313 0.397098 0.289348
O O1 0.754539 0.270963 0.364395
O O2 0.707746 0.508488 0.272386
O O3 0.633649 0.483450 0.669649
O O4 0.614332 0.155700 0.107142
O O5 0.726380 0.149879 0.697317
O O6 0.715784 0.857030 0.702787
O O7 0.555707 0.934276 0.676913
O O8 0.138558 0.549326 0.216722
O O9 0.120753 0.884212 0.618784
O O10 0.163842 0.199388 0.687381
O O11 0.151538 0.348079 0.415744
O O12 0.960699 0.803846 0.972554
O O13 0.000000 0.000000 0.500000
O O14 0.500000 0.500000 0.500000
O O15 0.500000 0.500000 0.000000
O O16 0.457353 0.190853 0.027809
O O17 0.000000 0.500000 0.500000
#
# Coordination Sequence:
#
# PCOD9037917 Si02
#       8
#     2   2   2   2   2   2   1   2
#     4  11  22  42  67  94 135 184 234 301 365 444
#     4  11  22  42  66  96 136 181 237 295 367 436
#     4  10  24  42  65  97 136 182 235 299 377 443
#     4  10  23  41  64  96 135 177 230 286 363 435
#     4  11  24  42  66  99 135 180 233 296 365 452
#     4  12  27  49  75 111 153 201 258 324 389 461
#     4  12  24  46  72 112 146 202 254 314 384 460
#     4  11  24  42  67  97 133 181 233 292 366 447
#
# _framework density 25.250658999999999
#
# number of rings (size 3 to 8) (size 9 to 14) (size 15 to 20)
#    0.000    1.067    2.667    3.200    0.000    9.067 
#    2.400    0.000    0.000    0.000    0.000    0.000 
#    0.000    0.000    0.000    0.000    0.000    0.000 
#
# Total GULP energy -83515.951374 kJ/mol
# GULP energy per Si atom -5567.730092 kJ/mol
# Density = 2.519319 g / cm^3
# Si number density = 25.250659 Si / 1000 Ang^3
#
#
#
# Elastic Constant Matrix: (Units=GPa)
#
#
# Indices 1 2 3 4 5 6 
#
# 1 104.6302 31.4562 35.5152 10.3742 -37.6794 -10.6871
# 2 31.4562 167.3634 44.6238 28.0312 -14.8892 10.9281
# 3 35.5152 44.6238 98.9042 28.7255 -25.9843 0.5819
# 4 10.3742 28.0312 28.7255 41.6073 4.1789 -10.3731
# 5 -37.6794 -14.8892 -25.9843 4.1789 56.3552 5.0524
# 6 -10.6871 10.9281 0.5819 -10.3731 5.0524 51.2932
#
#
#
# Elastic Compliance Matrix: (Units=1/GPa)
#
#
# Indices 1 2 3 4 5 6 
#
# 1 0.013805 -0.001258 -0.001832 -0.001621 0.007989 0.002050
# 2 -0.001258 0.007663 -0.001256 -0.004849 0.001231 -0.002982
# 3 -0.001832 -0.001256 0.016718 -0.011828 0.007335 -0.003418
# 4 -0.001621 -0.004849 -0.011828 0.039526 -0.011643 0.009970
# 5 0.007989 0.001231 0.007335 -0.011643 0.027997 -0.003793
# 6 0.002050 -0.002982 -0.003418 0.009970 -0.003793 0.022987
#
#
# Mechanical properties :
#
#
# Convention : Reuss Voigt Hill
#
# Bulk Modulus (GPa) = 33.90613 66.00979 49.95796
# Shear Modulus (GPa) = 33.96328 47.13799 40.55063
#
# Velocity S-wave (km/s) = 3.67146 4.32534 4.01175
# Velocity P-wave (km/s) = 5.60623 7.15145 6.42546
#
# Compressibility (1/GPa) = 0.02949319
#
# Stress axis : x y z
#
# Youngs Moduli (GPa) = 72.43926 130.50160 59.81644
#
# Poissons Ratio (x) = 0.16414 0.10957
# Poissons Ratio (y) = 0.09111 0.07516
# Poissons Ratio (z) = 0.13269 0.16397
#
# Static dielectric constant tensor:
#      x y z
#    x 2.110970 0.053380 -0.073890 
#    y 0.053380 2.123680 -0.001240 
#    z -0.073890 -0.001240 2.121630 
# 
# From -- ./inp_files/105905.got.cif
#   From: 2010.05.17/outbox.cif.g08.bks.cpg/sg2_53_cif.got.tgz:105905.got - 2010.06.03 11:33:40.
