data_PCOD9037145
_publ_section_title
;
Structure prediction by ZEFSAII (Michael W. Deem and Ramdas Pophale) SiO2 
 PCOD9037145
Probable space group: P -1
;
_chemical_formula_sum "Si O2"
_cell_formula_units_Z 16
_cell_length_a 19.483796
_cell_length_b 6.562517
_cell_length_c 4.895641
_cell_angle_alpha 107.784232
_cell_angle_beta 112.706068
_cell_angle_gamma 90.560391
_cell_volume 544.021579
_symmetry_space_group_name_H-M "P -1"
_symmetry_group_IT_number 2
_symmetry_cell_setting 'triclinic'
loop_
_space_group_symop_operation_xyz
x,y,z
-x,-y,-z
loop_
_atom_site_type_symbol
_atom_site_label
_atom_site_fract_x
_atom_site_fract_y
_atom_site_fract_z
Si Si1 0.600997 0.572545 0.772775
Si Si2 0.359672 0.926323 0.035833
Si Si3 0.890106 0.294765 0.798050
Si Si4 0.965974 0.660794 0.717823
Si Si5 0.795888 0.020538 0.105981
Si Si6 0.193578 0.268768 0.500996
Si Si7 0.483652 0.742517 0.944779
Si Si8 0.269671 0.634559 0.350056
O O1 0.561283 0.636859 0.025513
O O2 0.553833 0.404933 0.420944
O O3 0.681647 0.491852 0.827503
O O4 0.609468 0.821895 0.772267
O O5 0.424966 0.775423 0.113440
O O6 0.325841 0.833311 0.652708
O O7 0.281803 0.896088 0.066605
O O8 0.928381 0.532885 0.871129
O O9 0.813513 0.320032 0.848210
O O10 0.859705 0.182821 0.422549
O O11 0.958050 0.193409 0.999343
O O12 0.889277 0.718089 0.497181
O O13 0.000000 0.500000 0.500000
O O14 0.770709 0.855909 0.253269
O O15 0.822499 0.894527 0.843860
O O16 0.242988 0.471887 0.506951
O O17 0.500000 0.000000 0.000000
#
# Coordination Sequence:
#
# PCOD9037145 Si02
#       8
#     2   2   2   2   2   2   2   2
#     4   9  14  27  55  85 131 163 215 259 315 372
#     4   9  17  33  57  87 127 166 214 258 320 372
#     4   9  22  40  60  89 125 165 215 260 328 378
#     4  10  23  40  62  86 125 172 207 267 324 384
#     4  11  24  42  64  95 125 164 217 267 313 384
#     4  11  25  41  65  90 126 166 213 266 323 377
#     4   8  15  25  49  95 125 173 207 262 312 379
#     4   9  18  36  56  86 120 168 208 266 314 383
#
# _framework density 29.410596999999999
#
# number of rings (size 3 to 8) (size 9 to 14) (size 15 to 20)
#    0.000    2.500    1.250    0.000    7.000    1.000 
#    0.000    0.000    0.000    0.750    0.000   12.250 
#    0.000    0.000    0.000    0.000    0.000    0.000 
#
# Total GULP energy -89304.546528 kJ/mol
# GULP energy per Si atom -5581.534158 kJ/mol
# Density = 2.934366 g / cm^3
# Si number density = 29.410597 Si / 1000 Ang^3
#
#
#
# Elastic Constant Matrix: (Units=GPa)
#
#
# Indices 1 2 3 4 5 6 
#
# 1 221.0326 59.7530 45.9005 22.4635 -32.5390 -29.4400
# 2 59.7530 121.6288 49.8709 23.3650 11.6651 -46.0709
# 3 45.9005 49.8709 157.2838 34.0114 -6.0968 7.2308
# 4 22.4635 23.3650 34.0114 49.0673 8.5377 -2.5927
# 5 -32.5390 11.6651 -6.0968 8.5377 42.4590 13.7876
# 6 -29.4400 -46.0709 7.2308 -2.5927 13.7876 66.5879
#
#
#
# Elastic Compliance Matrix: (Units=1/GPa)
#
#
# Indices 1 2 3 4 5 6 
#
# 1 0.006772 -0.004307 0.000337 -0.002677 0.007505 -0.001681
# 2 -0.004307 0.020674 -0.006706 0.000299 -0.015299 0.016307
# 3 0.000337 -0.006706 0.010219 -0.005659 0.007071 -0.007285
# 4 -0.002677 0.000299 -0.005659 0.027134 -0.009250 0.002610
# 5 0.007505 -0.015299 0.007071 -0.009250 0.041928 -0.017076
# 6 -0.001681 0.016307 -0.007285 0.002610 -0.017076 0.029986
#
#
# Mechanical properties :
#
#
# Convention : Reuss Voigt Hill
#
# Bulk Modulus (GPa) = 61.30351 90.11047 75.70699
# Shear Modulus (GPa) = 30.58074 54.58423 42.58248
#
# Velocity S-wave (km/s) = 3.22807 4.31273 3.80921
# Velocity P-wave (km/s) = 5.89773 7.45016 6.71893
#
# Compressibility (1/GPa) = 0.01631228
#
# Stress axis : x y z
#
# Youngs Moduli (GPa) = 147.67164 48.37006 97.85929
#
# Poissons Ratio (x) = 0.20833 -0.03294
# Poissons Ratio (y) = 0.63602 0.65621
# Poissons Ratio (z) = -0.04970 0.32435
#
# Static dielectric constant tensor:
#      x y z
#    x 2.481160 0.065310 0.123530 
#    y 0.065310 2.520280 -0.070990 
#    z 0.123530 -0.070990 2.215630 
# 
# From -- ./inp_files/116456.got.cif
#   From: 2010.05.17/outbox.cif.g08.bks.cpg/sg2_59_cif.got.tgz:116456.got - 2010.06.03 11:33:40.
