data_PCOD9037611
_publ_section_title
;
Structure prediction by ZEFSAII (Michael W. Deem and Ramdas Pophale) SiO2 
 PCOD9037611
Probable space group: P -1
;
_chemical_formula_sum "Si O2"
_cell_formula_units_Z 12
_cell_length_a 11.685220
_cell_length_b 5.901796
_cell_length_c 9.534149
_cell_angle_alpha 81.309978
_cell_angle_beta 97.930222
_cell_angle_gamma 57.600684
_cell_volume 529.571662
_symmetry_space_group_name_H-M "P -1"
_symmetry_group_IT_number 2
_symmetry_cell_setting 'triclinic'
loop_
_space_group_symop_operation_xyz
x,y,z
-x,-y,-z
loop_
_atom_site_type_symbol
_atom_site_label
_atom_site_fract_x
_atom_site_fract_y
_atom_site_fract_z
Si Si1 0.454094 0.285906 0.547714
Si Si2 0.687710 0.021471 0.830746
Si Si3 0.606420 0.704521 0.968045
Si Si4 0.671140 0.188160 0.133039
Si Si5 0.832475 0.189525 0.618795
Si Si6 0.915183 0.808506 0.395799
O O1 0.500000 0.500000 0.500000
O O2 0.532783 0.179774 0.719715
O O3 0.288479 0.493149 0.473837
O O4 0.500000 0.000000 0.500000
O O5 0.780325 0.071973 0.739576
O O6 0.715159 0.719538 0.889311
O O7 0.696367 0.110025 0.980373
O O8 0.489554 0.690159 0.865156
O O9 0.682134 0.450922 0.113744
O O10 0.500000 0.000000 0.000000
O O11 0.778561 0.924042 0.267554
O O12 0.975153 0.163051 0.677428
O O13 0.861554 0.011827 0.500572
O O14 0.000000 0.500000 0.500000
#
# Coordination Sequence:
#
# PCOD9037611 Si02
#       6
#     2   2   2   2   2   2
#     4  10  24  41  71 108 146 179 233 308 365 426
#     4  10  23  40  70 103 130 175 230 302 357 413
#     4   9  21  37  65  98 139 171 222 297 365 418
#     4  10  23  42  65 102 134 179 238 289 362 426
#     4  10  26  44  64 104 137 189 245 281 362 433
#     4  11  27  46  69  91 146 197 236 290 350 442
#
# _framework density 22.659821000000001
#
# number of rings (size 3 to 8) (size 9 to 14) (size 15 to 20)
#    0.000    2.000    0.000    0.000   18.667    4.667 
#    0.000    1.667    0.000    0.000    0.000    0.000 
#    0.000    0.000    0.000    0.000    0.000    0.000 
#
# Total GULP energy -66861.683474 kJ/mol
# GULP energy per Si atom -5571.806956 kJ/mol
# Density = 2.260825 g / cm^3
# Si number density = 22.659821 Si / 1000 Ang^3
#
#
#
# Elastic Constant Matrix: (Units=GPa)
#
#
# Indices 1 2 3 4 5 6 
#
# 1 95.7459 20.9289 27.0882 -7.1658 -30.6364 5.0650
# 2 20.9289 134.3205 35.8821 -20.9465 -1.6105 3.5645
# 3 27.0882 35.8821 89.0947 -13.1296 -8.2253 7.4674
# 4 -7.1658 -20.9465 -13.1296 36.4867 4.7982 -2.3102
# 5 -30.6364 -1.6105 -8.2253 4.7982 40.7689 -9.8849
# 6 5.0650 3.5645 7.4674 -2.3102 -9.8849 28.0946
#
#
#
# Elastic Compliance Matrix: (Units=1/GPa)
#
#
# Indices 1 2 3 4 5 6 
#
# 1 0.015129 -0.001483 -0.003206 -0.000372 0.011251 0.002241
# 2 -0.001483 0.009037 -0.002714 0.004140 -0.001911 -0.000490
# 3 -0.003206 -0.002714 0.013860 0.002717 -0.000717 -0.002790
# 4 -0.000372 0.004140 0.002717 0.031122 -0.003166 0.000265
# 5 0.011251 -0.001911 -0.000717 -0.003166 0.035734 0.010717
# 6 0.002241 -0.000490 -0.002790 0.000265 0.010717 0.039786
#
#
# Mechanical properties :
#
#
# Convention : Reuss Voigt Hill
#
# Bulk Modulus (GPa) = 43.06807 54.10661 48.58734
# Shear Modulus (GPa) = 29.90163 36.75417 33.32790
#
# Velocity S-wave (km/s) = 3.63655 4.03177 3.83925
# Velocity P-wave (km/s) = 6.05643 6.75301 6.41418
#
# Compressibility (1/GPa) = 0.02321906
#
# Stress axis : x y z
#
# Youngs Moduli (GPa) = 66.09692 110.66011 72.15030
#
# Poissons Ratio (x) = 0.16414 0.23134
# Poissons Ratio (y) = 0.09804 0.19579
# Poissons Ratio (z) = 0.21193 0.30030
#
# Static dielectric constant tensor:
#      x y z
#    x 2.077670 0.120920 0.073940 
#    y 0.120920 1.978210 0.001240 
#    z 0.073940 0.001240 1.932320 
# 
# From -- ./inp_files/59622.got.cif
#   From: 2010.05.17/outbox.cif.g08.bks.cpg/sg2_30_cif.got.tgz:59622.got - 2010.06.03 11:33:40.
