data_PCOD9037927
_publ_section_title
;
Structure prediction by ZEFSAII (Michael W. Deem and Ramdas Pophale) SiO2 
 PCOD9037927
Probable space group: P -1
;
_chemical_formula_sum "Si O2"
_cell_formula_units_Z 16
_cell_length_a 9.114740
_cell_length_b 16.460750
_cell_length_c 19.157293
_cell_angle_alpha 20.469963
_cell_angle_beta 136.493310
_cell_angle_gamma 126.027705
_cell_volume 640.294832
_symmetry_space_group_name_H-M "P -1"
_symmetry_group_IT_number 2
_symmetry_cell_setting 'triclinic'
loop_
_space_group_symop_operation_xyz
x,y,z
-x,-y,-z
loop_
_atom_site_type_symbol
_atom_site_label
_atom_site_fract_x
_atom_site_fract_y
_atom_site_fract_z
Si Si1 0.310392 0.222222 0.844665
Si Si2 0.122337 0.279411 0.881473
Si Si3 0.397508 0.917144 0.738925
Si Si4 0.245074 0.520959 0.059054
Si Si5 0.427912 0.275868 0.181877
Si Si6 0.808283 0.825927 0.316409
Si Si7 0.994497 0.829981 0.932914
Si Si8 0.437756 0.434349 0.350385
O O1 0.159003 0.215010 0.864772
O O2 0.229626 0.173590 0.780466
O O3 0.339498 0.490678 0.631924
O O4 0.565408 0.006987 0.118098
O O5 0.912526 0.543452 0.605104
O O6 0.081501 0.099847 0.070065
O O7 0.362301 0.290964 0.981634
O O8 0.410224 0.938555 0.642033
O O9 0.412686 0.171497 0.569113
O O10 0.217192 0.796655 0.796957
O O11 0.405638 0.311089 0.228747
O O12 0.352488 0.496021 0.192184
O O13 0.000000 0.500000 0.000000
O O14 0.500000 0.500000 0.000000
O O15 0.173691 0.294035 0.056864
O O16 0.002693 0.943529 0.296221
O O17 0.255777 0.635999 0.175539
#
# Coordination Sequence:
#
# PCOD9037927 Si02
#       8
#     2   2   2   2   2   2   2   2
#     4  10  23  46  68  99 131 172 220 272 324 393
#     4  11  23  41  68  95 130 176 214 261 333 388
#     4  10  24  40  63  97 132 172 212 271 330 389
#     4  11  21  41  65  91 127 177 224 265 333 388
#     4   9  20  40  59  89 131 161 221 264 314 396
#     4  10  24  46  68  96 135 170 221 272 322 390
#     4  10  23  41  64  98 130 171 216 272 325 388
#     4  11  23  42  65  96 136 168 219 276 325 389
#
# _framework density 24.988489000000001
#
# number of rings (size 3 to 8) (size 9 to 14) (size 15 to 20)
#    0.000    1.750    2.500    0.375    5.250    1.500 
#    2.250    4.375    0.000    0.000    0.000    0.000 
#    0.000    0.000    0.000    0.000    0.000    0.000 
#
# Total GULP energy -89345.745848 kJ/mol
# GULP energy per Si atom -5584.109116 kJ/mol
# Density = 2.493161 g / cm^3
# Si number density = 24.988489 Si / 1000 Ang^3
#
#
#
# Elastic Constant Matrix: (Units=GPa)
#
#
# Indices 1 2 3 4 5 6 
#
# 1 119.3068 21.6905 18.0940 2.6976 -8.3532 -20.3699
# 2 21.6905 77.9855 6.0529 -9.2984 -4.4080 -9.3557
# 3 18.0940 6.0529 66.8110 -10.7249 0.6022 0.9097
# 4 2.6976 -9.2984 -10.7249 29.3641 -3.4725 2.3366
# 5 -8.3532 -4.4080 0.6022 -3.4725 28.3449 -0.6725
# 6 -20.3699 -9.3557 0.9097 2.3366 -0.6725 34.5203
#
#
#
# Elastic Compliance Matrix: (Units=1/GPa)
#
#
# Indices 1 2 3 4 5 6 
#
# 1 0.010539 -0.002174 -0.003245 -0.003008 0.002610 0.005970
# 2 -0.002174 0.014413 0.000009 0.004847 0.002250 0.002339
# 3 -0.003245 0.000009 0.016957 0.006652 -0.000567 -0.002821
# 4 -0.003008 0.004847 0.006652 0.039075 0.004437 -0.003195
# 5 0.002610 0.002250 -0.000567 0.004437 0.037016 0.002585
# 6 0.005970 0.002339 -0.002821 -0.003195 0.002585 0.033466
#
#
# Mechanical properties :
#
#
# Convention : Reuss Voigt Hill
#
# Bulk Modulus (GPa) = 32.16683 39.53091 35.84887
# Shear Modulus (GPa) = 28.96060 32.99691 30.97875
#
# Velocity S-wave (km/s) = 3.40804 3.63779 3.52479
# Velocity P-wave (km/s) = 5.32794 5.78780 5.56262
#
# Compressibility (1/GPa) = 0.03108792
#
# Stress axis : x y z
#
# Youngs Moduli (GPa) = 94.88392 69.38370 58.97313
#
# Poissons Ratio (x) = 0.15087 0.19137
# Poissons Ratio (y) = 0.20632 -0.00054
# Poissons Ratio (z) = 0.30790 -0.00063
#
# Static dielectric constant tensor:
#      x y z
#    x 1.982430 0.004790 0.007320 
#    y 0.004790 1.978050 -0.049390 
#    z 0.007320 -0.049390 2.053780 
# 
# From -- ./inp_files/590919.got.cif
#   From: 2010.05.17/outbox.cif.g08.bks.cpg/sg2_296_cif.got.tgz:590919.got - 2010.06.03 11:33:40.
