data_PCOD9037605
_publ_section_title
;
Structure prediction by ZEFSAII (Michael W. Deem and Ramdas Pophale) SiO2 
 PCOD9037605
Probable space group: P -1
;
_chemical_formula_sum "Si O2"
_cell_formula_units_Z 14
_cell_length_a 12.816363
_cell_length_b 20.227444
_cell_length_c 20.184393
_cell_angle_alpha 15.676252
_cell_angle_beta 31.806478
_cell_angle_gamma 24.684550
_cell_volume 575.800722
_symmetry_space_group_name_H-M "P -1"
_symmetry_group_IT_number 2
_symmetry_cell_setting 'triclinic'
loop_
_space_group_symop_operation_xyz
x,y,z
-x,-y,-z
loop_
_atom_site_type_symbol
_atom_site_label
_atom_site_fract_x
_atom_site_fract_y
_atom_site_fract_z
Si Si1 0.909610 0.632435 0.346528
Si Si2 0.137233 0.717609 0.526219
Si Si3 0.546468 0.635330 0.087447
Si Si4 0.271469 0.981782 0.647950
Si Si5 0.481878 0.671268 0.479871
Si Si6 0.043967 0.322087 0.048319
Si Si7 0.361287 0.582008 0.100168
O O1 0.758548 0.531026 0.491085
O O2 0.000000 0.500000 0.500000
O O3 0.139886 0.552856 0.254086
O O4 0.697537 0.011404 0.102868
O O5 0.426313 0.557953 0.552149
O O6 0.007222 0.762997 0.481666
O O7 0.012225 0.072782 0.275506
O O8 0.065520 0.528394 0.787321
O O9 0.628717 0.400351 0.330740
O O10 0.446706 0.564389 0.145694
O O11 0.802232 0.563875 0.991482
O O12 0.401504 0.678204 0.822448
O O13 0.500000 0.000000 0.500000
O O14 0.256987 0.898285 0.811449
O O15 0.320054 0.049576 0.194465
#
# Coordination Sequence:
#
# PCOD9037605 Si02
#       7
#     2   2   2   2   2   2   2
#     4  12  27  41  68 103 150 191 230 287 366 440
#     4  10  23  44  66 105 137 182 238 300 347 416
#     4  12  23  42  69 102 147 186 232 297 361 428
#     4  11  25  44  75  95 138 187 243 304 346 417
#     4  10  24  41  67 102 142 189 231 294 356 426
#     4  10  23  40  70 101 143 174 243 288 355 415
#     4  11  25  44  63 107 137 184 243 288 359 425
#
# _framework density 24.313967000000002
#
# number of rings (size 3 to 8) (size 9 to 14) (size 15 to 20)
#    0.857    0.286    2.857    2.571    8.000    1.143 
#    0.000    0.714    0.000    2.571    0.000    0.000 
#    0.000    0.000    0.000    0.000    0.000    0.000 
#
# Total GULP energy -78067.295355 kJ/mol
# GULP energy per Si atom -5576.235382 kJ/mol
# Density = 2.425863 g / cm^3
# Si number density = 24.313967 Si / 1000 Ang^3
#
#
#
# Elastic Constant Matrix: (Units=GPa)
#
#
# Indices 1 2 3 4 5 6 
#
# 1 123.1604 30.5207 73.1621 5.5124 87.8934 4.6118
# 2 30.5207 50.4836 4.5441 6.1184 3.6779 -20.6399
# 3 73.1621 4.5441 64.0188 35.4289 -45.8366 -21.5520
# 4 5.5124 6.1184 35.4289 29.3600 24.9865 2.6379
# 5 87.8934 3.6779 -45.8366 24.9865 -37.1660 -28.5561
# 6 4.6118 -20.6399 -21.5520 2.6379 -28.5561 38.3627
#
#
#
# Elastic Compliance Matrix: (Units=1/GPa)
#
#
# Indices 1 2 3 4 5 6 
#
# 1 0.005024 -0.001648 0.001393 -0.005908 0.003982 0.002662
# 2 -0.001648 0.024696 -0.001478 0.000897 -0.005537 0.008472
# 3 0.001393 -0.001478 0.009067 -0.003331 -0.008667 -0.002091
# 4 -0.005908 0.000897 -0.003331 0.031375 0.008586 0.003555
# 5 0.003982 -0.005537 -0.008667 0.008586 0.003356 -0.006419
# 6 0.002662 0.008472 -0.002091 0.003555 -0.006419 0.024107
#
#
# Mechanical properties :
#
#
# Convention : Reuss Voigt Hill
#
# Bulk Modulus (GPa) = 28.31259 50.45738 39.38499
# Shear Modulus (GPa) = 44.30047 14.74041 29.52044
#
# Velocity S-wave (km/s) = 4.27314 2.46489 3.48822
# Velocity P-wave (km/s) = 6.00135 5.37572 5.69713
#
# Compressibility (1/GPa) = 0.03531998
#
# Stress axis : x y z
#
# Youngs Moduli (GPa) = 199.05958 40.49223 110.28788
#
# Poissons Ratio (x) = 0.06674 -0.15361
# Poissons Ratio (y) = 0.32807 0.16302
# Poissons Ratio (z) = -0.27725 0.05985
#
# Static dielectric constant tensor:
#      x y z
#    x 2.078110 -0.027960 -0.111070 
#    y -0.027960 1.935640 -0.085220 
#    z -0.111070 -0.085220 2.099610 
# 
# From -- ./inp_files/570295.got.cif
#   From: 2010.05.17/outbox.cif.g08.bks.cpg/sg2_286_cif.got.tgz:570295.got - 2010.06.03 11:33:40.
