data_PCOD9037577
_publ_section_title
;
Structure prediction by ZEFSAII (Michael W. Deem and Ramdas Pophale) SiO2 
 PCOD9037577
Probable space group: P -1
;
_chemical_formula_sum "Si O2"
_cell_formula_units_Z 16
_cell_length_a 13.266259
_cell_length_b 12.884024
_cell_length_c 10.097915
_cell_angle_alpha 142.776203
_cell_angle_beta 60.401021
_cell_angle_gamma 92.498811
_cell_volume 678.132595
_symmetry_space_group_name_H-M "P -1"
_symmetry_group_IT_number 2
_symmetry_cell_setting 'triclinic'
loop_
_space_group_symop_operation_xyz
x,y,z
-x,-y,-z
loop_
_atom_site_type_symbol
_atom_site_label
_atom_site_fract_x
_atom_site_fract_y
_atom_site_fract_z
Si Si1 0.447113 0.233048 0.396407
Si Si2 0.424890 0.614217 0.809392
Si Si3 0.203877 0.352257 0.183547
Si Si4 0.154468 0.448469 0.629014
Si Si5 0.530978 0.114090 0.784983
Si Si6 0.954557 0.148827 0.311605
Si Si7 0.787985 0.969906 0.787225
Si Si8 0.842916 0.916602 0.239148
O O1 0.422833 0.432776 0.695835
O O2 0.308736 0.369210 0.517350
O O3 0.436355 0.072064 0.323846
O O4 0.620950 0.072776 0.060430
O O5 0.500000 0.500000 0.500000
O O6 0.517897 0.664664 0.880508
O O7 0.260793 0.863991 0.135159
O O8 0.183932 0.385929 0.389547
O O9 0.117285 0.595419 0.415763
O O10 0.385227 0.199280 0.880934
O O11 0.152399 0.215664 0.026849
O O12 0.124400 0.294472 0.561896
O O13 0.002930 0.714993 0.005899
O O14 0.687995 0.008025 0.503162
O O15 0.840772 0.122249 0.426280
O O16 0.108490 0.026321 0.174225
O O17 0.000000 0.000000 0.000000
#
# Coordination Sequence:
#
# PCOD9037577 Si02
#       8
#     2   2   2   2   2   2   2   2
#     4  11  24  42  74 104 139 178 227 294 348 404
#     4  10  23  40  69 104 133 178 231 280 340 408
#     4  12  25  45  72 101 135 191 239 282 341 414
#     4  12  21  44  74 102 137 177 243 283 339 415
#     4  12  27  46  70 103 147 182 229 288 354 417
#     4  12  26  42  71 104 140 181 236 293 336 405
#     4  11  21  42  70 104 136 173 239 288 334 402
#     4  12  28  47  68 105 143 187 228 288 356 411
#
# _framework density 23.594206
#
# number of rings (size 3 to 8) (size 9 to 14) (size 15 to 20)
#    0.000    0.500    5.000    4.125    3.500    2.000 
#    0.000    1.250    0.000    0.000    0.000    0.000 
#    0.000    0.000    0.000    0.000    0.000    0.000 
#
# Total GULP energy -89496.194666 kJ/mol
# GULP energy per Si atom -5593.512167 kJ/mol
# Density = 2.354051 g / cm^3
# Si number density = 23.594206 Si / 1000 Ang^3
#
#
#
# Elastic Constant Matrix: (Units=GPa)
#
#
# Indices 1 2 3 4 5 6 
#
# 1 150.2814 20.7508 17.6558 1.4666 -16.8693 18.2289
# 2 20.7508 69.8570 29.3449 10.4598 -2.8611 29.4849
# 3 17.6558 29.3449 65.7560 2.3280 -11.0805 8.3232
# 4 1.4666 10.4598 2.3280 36.6706 15.0437 -2.0178
# 5 -16.8693 -2.8611 -11.0805 15.0437 46.1517 11.1117
# 6 18.2289 29.4849 8.3232 -2.0178 11.1117 34.6397
#
#
#
# Elastic Compliance Matrix: (Units=1/GPa)
#
#
# Indices 1 2 3 4 5 6 
#
# 1 0.008177 0.002288 -0.001009 -0.003880 0.006128 -0.008200
# 2 0.002288 0.035491 -0.008799 -0.017837 0.015218 -0.035220
# 3 -0.001009 -0.008799 0.019658 0.000104 0.003226 0.002268
# 4 -0.003880 -0.017837 0.000104 0.043535 -0.023236 0.027189
# 5 0.006128 0.015218 0.003226 -0.023236 0.040754 -0.031379
# 6 -0.008200 -0.035220 0.002268 0.027189 -0.031379 0.074267
#
#
# Mechanical properties :
#
#
# Convention : Reuss Voigt Hill
#
# Bulk Modulus (GPa) = 20.70994 46.82194 33.76594
# Shear Modulus (GPa) = 19.76150 38.03527 28.89838
#
# Velocity S-wave (km/s) = 2.89720 4.01940 3.50352
# Velocity P-wave (km/s) = 4.47083 6.43650 5.54152
#
# Compressibility (1/GPa) = 0.04828599
#
# Stress axis : x y z
#
# Youngs Moduli (GPa) = 122.29259 28.17618 50.86981
#
# Poissons Ratio (x) = -0.06445 0.05131
# Poissons Ratio (y) = -0.27975 0.44760
# Poissons Ratio (z) = 0.12335 0.24792
#
# Static dielectric constant tensor:
#      x y z
#    x 1.903730 0.002590 0.040040 
#    y 0.002590 1.968530 -0.018710 
#    z 0.040040 -0.018710 1.960260 
# 
# From -- ./inp_files/434350.got.cif
#   From: 2010.05.17/outbox.cif.g08.bks.cpg/sg2_218_cif.got.tgz:434350.got - 2010.06.03 11:33:40.
