data_PCOD9037653
_publ_section_title
;
Structure prediction by ZEFSAII (Michael W. Deem and Ramdas Pophale) SiO2 
 PCOD9037653
Probable space group: P -1
;
_chemical_formula_sum "Si O2"
_cell_formula_units_Z 14
_cell_length_a 20.570433
_cell_length_b 5.319615
_cell_length_c 8.761809
_cell_angle_alpha 57.600344
_cell_angle_beta 133.621433
_cell_angle_gamma 116.603886
_cell_volume 581.215029
_symmetry_space_group_name_H-M "P -1"
_symmetry_group_IT_number 2
_symmetry_cell_setting 'triclinic'
loop_
_space_group_symop_operation_xyz
x,y,z
-x,-y,-z
loop_
_atom_site_type_symbol
_atom_site_label
_atom_site_fract_x
_atom_site_fract_y
_atom_site_fract_z
Si Si1 0.629067 0.207179 0.175563
Si Si2 0.187830 0.470049 0.509220
Si Si3 0.828692 0.764559 0.957093
Si Si4 0.526070 0.648201 0.333969
Si Si5 0.707406 0.677836 0.521010
Si Si6 0.139946 0.883706 0.793898
Si Si7 0.998664 0.414826 0.844636
O O1 0.715537 0.430642 0.291319
O O2 0.568965 0.004116 0.273235
O O3 0.676224 0.928512 0.274286
O O4 0.560584 0.362394 0.911582
O O5 0.213678 0.484282 0.368421
O O6 0.105433 0.653766 0.352036
O O7 0.150910 0.129913 0.601623
O O8 0.751916 0.837392 0.692023
O O9 0.808617 0.403255 0.066432
O O10 0.829455 0.939051 0.058941
O O11 0.929006 0.800185 0.028178
O O12 0.500000 0.500000 0.500000
O O13 0.611782 0.491121 0.465033
O O14 0.040162 0.716798 0.722907
O O15 0.000000 0.500000 0.000000
#
# Coordination Sequence:
#
# PCOD9037653 Si02
#       7
#     2   2   2   2   2   2   2
#     4   9  24  41  68 101 136 176 239 292 360 426
#     4  12  23  42  68 101 139 186 231 305 346 422
#     4  10  24  44  68 102 140 187 245 282 349 427
#     4   9  21  46  70  98 140 182 229 303 366 437
#     4  10  23  40  71  96 139 179 234 292 362 414
#     4  10  26  42  67 102 144 187 249 282 357 409
#     4  10  23  43  63  99 142 188 238 289 346 420
#
# _framework density 24.087471000000001
#
# number of rings (size 3 to 8) (size 9 to 14) (size 15 to 20)
#    1.714    0.286    1.429    0.429    8.000    2.857 
#    0.000    0.714    0.000    0.000    0.000    0.000 
#    0.000    0.000    0.000    0.000    0.000    0.000 
#
# Total GULP energy -78001.799908 kJ/mol
# GULP energy per Si atom -5571.557136 kJ/mol
# Density = 2.403265 g / cm^3
# Si number density = 24.087471 Si / 1000 Ang^3
#
#
#
# Elastic Constant Matrix: (Units=GPa)
#
#
# Indices 1 2 3 4 5 6 
#
# 1 74.3699 30.5182 39.2247 -4.8608 1.2290 9.2183
# 2 30.5182 90.6056 33.5374 -5.4084 4.5271 5.4361
# 3 39.2247 33.5374 94.8414 -1.1841 19.4923 17.9804
# 4 -4.8608 -5.4084 -1.1841 46.6480 15.1367 -4.0264
# 5 1.2290 4.5271 19.4923 15.1367 30.9259 0.8063
# 6 9.2183 5.4361 17.9804 -4.0264 0.8063 39.1483
#
#
#
# Elastic Compliance Matrix: (Units=1/GPa)
#
#
# Indices 1 2 3 4 5 6 
#
# 1 0.018838 -0.003868 -0.007212 -0.000179 0.004469 -0.000697
# 2 -0.003868 0.013593 -0.003219 0.001295 -0.000458 0.000644
# 3 -0.007212 -0.003219 0.018227 0.002710 -0.011908 -0.005702
# 4 -0.000179 0.001295 0.002710 0.026640 -0.014973 0.001666
# 5 0.004469 -0.000458 -0.011908 -0.014973 0.047008 0.001973
# 6 -0.000697 0.000644 -0.005702 0.001666 0.001973 0.028368
#
#
# Mechanical properties :
#
#
# Convention : Reuss Voigt Hill
#
# Bulk Modulus (GPa) = 45.32893 51.81972 48.57432
# Shear Modulus (GPa) = 26.50774 33.78024 30.14399
#
# Velocity S-wave (km/s) = 3.32094 3.74892 3.54141
# Velocity P-wave (km/s) = 5.79346 6.34816 6.07714
#
# Compressibility (1/GPa) = 0.02206097
#
# Stress axis : x y z
#
# Youngs Moduli (GPa) = 53.08392 73.56966 54.86298
#
# Poissons Ratio (x) = 0.28455 0.39567
# Poissons Ratio (y) = 0.20532 0.17659
# Poissons Ratio (z) = 0.38284 0.23680
#
# Static dielectric constant tensor:
#      x y z
#    x 1.998570 -0.063730 0.007430 
#    y -0.063730 2.070170 -0.049050 
#    z 0.007430 -0.049050 1.956290 
# 
# From -- ./inp_files/339637.got.cif
#   From: 2010.05.17/outbox.cif.g08.bks.cpg/sg2_170_cif.got.tgz:339637.got - 2010.06.03 11:33:40.
