data_PCOD9037520
_publ_section_title
;
Structure prediction by ZEFSAII (Michael W. Deem and Ramdas Pophale) SiO2 
 PCOD9037520
Probable space group: P -1
;
_chemical_formula_sum "Si O2"
_cell_formula_units_Z 12
_cell_length_a 5.085975
_cell_length_b 12.272397
_cell_length_c 13.670596
_cell_angle_alpha 135.816092
_cell_angle_beta 57.835340
_cell_angle_gamma 121.657888
_cell_volume 488.399795
_symmetry_space_group_name_H-M "P -1"
_symmetry_group_IT_number 2
_symmetry_cell_setting 'triclinic'
loop_
_space_group_symop_operation_xyz
x,y,z
-x,-y,-z
loop_
_atom_site_type_symbol
_atom_site_label
_atom_site_fract_x
_atom_site_fract_y
_atom_site_fract_z
Si Si1 0.717813 0.532216 0.644125
Si Si2 0.110281 0.837080 0.854702
Si Si3 0.984152 0.636702 0.368236
Si Si4 0.193637 0.057178 0.309018
Si Si5 0.909339 0.763394 0.052303
Si Si6 0.814053 0.278668 0.835000
O O1 0.837548 0.716867 0.769787
O O2 0.959240 0.806880 0.528765
O O3 0.749545 0.427326 0.666695
O O4 0.375092 0.476065 0.625887
O O5 0.113145 0.760801 0.913401
O O6 0.451057 0.868685 0.754723
O O7 0.000000 0.000000 0.000000
O O8 0.000000 0.500000 0.500000
O O9 0.064389 0.649026 0.245966
O O10 0.990599 0.949499 0.193613
O O11 0.206277 0.914614 0.291174
O O12 0.540830 0.705896 0.063480
O O13 0.986427 0.670636 0.072809
#
# Coordination Sequence:
#
# PCOD9037520 Si02
#       6
#     2   2   2   2   2   2
#     4  12  29  47  72 105 143 185 233 290 362 405
#     4  12  24  48  75 104 141 184 243 291 346 415
#     4  12  26  47  71 104 149 183 229 294 351 423
#     4  10  24  39  77 102 143 180 243 283 347 405
#     4  10  23  40  68 107 133 182 239 277 345 403
#     4  10  23  43  68 109 138 187 234 281 348 417
#
# _framework density 24.570036000000002
#
# number of rings (size 3 to 8) (size 9 to 14) (size 15 to 20)
#    1.000    0.000    3.333    2.500    4.667    3.333 
#    0.000    5.000    0.000    0.000    0.000    0.000 
#    0.000    0.000    0.000    0.000    0.000    0.000 
#
# Total GULP energy -67229.300634 kJ/mol
# GULP energy per Si atom -5602.441719 kJ/mol
# Density = 2.451411 g / cm^3
# Si number density = 24.570036 Si / 1000 Ang^3
#
#
#
# Elastic Constant Matrix: (Units=GPa)
#
#
# Indices 1 2 3 4 5 6 
#
# 1 59.4384 -15.1399 -6.8071 18.0044 1.6005 -8.3745
# 2 -15.1399 68.8594 21.0300 -4.7898 -3.3098 -9.6691
# 3 -6.8071 21.0300 96.5968 10.5833 5.0929 2.5668
# 4 18.0044 -4.7898 10.5833 43.3510 2.3745 1.2600
# 5 1.6005 -3.3098 5.0929 2.3745 34.1932 -0.3548
# 6 -8.3745 -9.6691 2.5668 1.2600 -0.3548 35.9778
#
#
#
# Elastic Compliance Matrix: (Units=1/GPa)
#
#
# Indices 1 2 3 4 5 6 
#
# 1 0.021844 0.004680 0.001344 -0.009070 -0.000072 0.006563
# 2 0.004680 0.017745 -0.003880 0.000671 0.002094 0.006132
# 3 0.001344 -0.003880 0.011842 -0.003728 -0.001959 -0.001464
# 4 -0.009070 0.000671 -0.003728 0.027946 -0.000923 -0.002653
# 5 -0.000072 0.002094 -0.001959 -0.000923 0.029818 0.001012
# 6 0.006563 0.006132 -0.001464 -0.002653 0.001012 0.031178
#
#
# Mechanical properties :
#
#
# Convention : Reuss Voigt Hill
#
# Bulk Modulus (GPa) = 17.94779 24.78449 21.36614
# Shear Modulus (GPa) = 32.32902 37.75851 35.04376
#
# Velocity S-wave (km/s) = 3.63132 3.92442 3.78071
# Velocity P-wave (km/s) = 4.99025 5.53570 5.27003
#
# Compressibility (1/GPa) = 0.05571718
#
# Stress axis : x y z
#
# Youngs Moduli (GPa) = 45.77909 56.35480 84.44249
#
# Poissons Ratio (x) = -0.26372 -0.11346
# Poissons Ratio (y) = -0.21423 0.32766
# Poissons Ratio (z) = -0.06151 0.21867
#
# Static dielectric constant tensor:
#      x y z
#    x 1.874840 -0.036110 0.023360 
#    y -0.036110 2.058700 0.017540 
#    z 0.023360 0.017540 1.892250 
# 
# From -- ./inp_files/287687.got.cif
#   From: 2010.05.17/outbox.cif.g08.bks.cpg/sg2_144_cif.got.tgz:287687.got - 2010.06.03 11:33:40.
