data_PCOD9037842
_publ_section_title
;
Structure prediction by ZEFSAII (Michael W. Deem and Ramdas Pophale) SiO2 
 PCOD9037842
Probable space group: P -1
;
_chemical_formula_sum "Si O2"
_cell_formula_units_Z 16
_cell_length_a 7.994620
_cell_length_b 19.130304
_cell_length_c 6.487317
_cell_angle_alpha 117.999801
_cell_angle_beta 114.466965
_cell_angle_gamma 57.345739
_cell_volume 720.094674
_symmetry_space_group_name_H-M "P -1"
_symmetry_group_IT_number 2
_symmetry_cell_setting 'triclinic'
loop_
_space_group_symop_operation_xyz
x,y,z
-x,-y,-z
loop_
_atom_site_type_symbol
_atom_site_label
_atom_site_fract_x
_atom_site_fract_y
_atom_site_fract_z
Si Si1 0.340392 0.249009 0.577719
Si Si2 0.342372 0.119273 0.739757
Si Si3 0.912927 0.978143 0.626392
Si Si4 0.369135 0.703484 0.002185
Si Si5 0.434441 0.496299 0.214840
Si Si6 0.016269 0.402924 0.899301
Si Si7 0.075377 0.274908 0.088403
Si Si8 0.274391 0.871463 0.934718
O O1 0.378506 0.163706 0.613474
O O2 0.544145 0.263869 0.712000
O O3 0.166161 0.333067 0.720079
O O4 0.244399 0.245440 0.308789
O O5 0.277650 0.043177 0.546138
O O6 0.536335 0.102925 0.961095
O O7 0.147375 0.195760 0.853709
O O8 0.847575 0.063015 0.853348
O O9 0.000000 0.000000 0.500000
O O10 0.102196 0.896063 0.709350
O O11 0.148052 0.706061 0.919810
O O12 0.359434 0.771273 0.911887
O O13 0.529643 0.604564 0.905350
O O14 0.500000 0.500000 0.500000
O O15 0.217169 0.579015 0.222011
O O16 0.500000 0.500000 0.000000
O O17 0.076240 0.359841 0.094776
O O18 0.000000 0.500000 0.000000
#
# Coordination Sequence:
#
# PCOD9037842 Si02
#       8
#     2   2   2   2   2   2   2   2
#     4  10  23  42  65  94 131 179 227 284 345 413
#     4  10  23  41  63  97 131 167 220 274 341 411
#     4  11  23  42  68  96 129 170 217 274 342 424
#     4  11  22  45  67  97 133 180 232 287 349 419
#     4  12  26  46  70 106 142 192 246 298 362 426
#     4  11  23  41  60  93 137 174 233 286 350 410
#     4  11  23  40  64  94 132 176 229 281 345 413
#     4  10  24  43  65  97 130 171 220 277 346 410
#
# _framework density 22.219301000000002
#
# number of rings (size 3 to 8) (size 9 to 14) (size 15 to 20)
#    0.000    1.250    2.500    2.625    0.000    7.000 
#    2.250    0.000    0.000    0.000    0.000    0.000 
#    0.000    0.000    0.000    0.000    0.000    0.000 
#
# Total GULP energy -89144.317020 kJ/mol
# GULP energy per Si atom -5571.519814 kJ/mol
# Density = 2.216873 g / cm^3
# Si number density = 22.219301 Si / 1000 Ang^3
#
#
#
# Elastic Constant Matrix: (Units=GPa)
#
#
# Indices 1 2 3 4 5 6 
#
# 1 60.3599 17.8373 43.7389 -10.4914 7.0791 1.9203
# 2 17.8373 87.5978 22.2660 2.6000 -2.0963 2.4430
# 3 43.7389 22.2660 99.0633 -6.6837 7.9005 13.6687
# 4 -10.4914 2.6000 -6.6837 20.9092 -3.7661 13.5929
# 5 7.0791 -2.0963 7.9005 -3.7661 21.6527 -2.4741
# 6 1.9203 2.4430 13.6687 13.5929 -2.4741 33.4936
#
#
#
# Elastic Compliance Matrix: (Units=1/GPa)
#
#
# Indices 1 2 3 4 5 6 
#
# 1 0.027306 -0.003435 -0.009847 0.011831 -0.003881 -0.002385
# 2 -0.003435 0.012838 -0.002268 -0.005197 0.002573 0.002485
# 3 -0.009847 -0.002268 0.016795 0.005813 -0.003113 -0.008713
# 4 0.011831 -0.005197 0.005813 0.079394 0.003358 -0.034644
# 5 -0.003881 0.002573 -0.003113 0.003358 0.049835 0.003623
# 6 -0.002385 0.002485 -0.008713 -0.034644 0.003623 0.047695
#
#
# Mechanical properties :
#
#
# Convention : Reuss Voigt Hill
#
# Bulk Modulus (GPa) = 38.70126 46.07837 42.38982
# Shear Modulus (GPa) = 18.27649 26.08970 22.18310
#
# Velocity S-wave (km/s) = 2.87113 3.43036 3.16313
# Velocity P-wave (km/s) = 5.33356 6.03928 5.69735
#
# Compressibility (1/GPa) = 0.02583895
#
# Stress axis : x y z
#
# Youngs Moduli (GPa) = 36.62263 77.89278 59.54248
#
# Poissons Ratio (x) = 0.26754 0.58633
# Poissons Ratio (y) = 0.12579 0.13503
# Poissons Ratio (z) = 0.36063 0.17665
#
# Static dielectric constant tensor:
#      x y z
#    x 1.801550 0.120730 -0.102710 
#    y 0.120730 1.657510 0.120180 
#    z -0.102710 0.120180 1.724980 
# 
# From -- ./inp_files/38499.got.cif
#   From: 2010.05.17/outbox.cif.g08.bks.cpg/sg2_20_cif.got.tgz:38499.got - 2010.06.03 11:33:40.
