data_PCOD9037896
_publ_section_title
;
Structure prediction by ZEFSAII (Michael W. Deem and Ramdas Pophale) SiO2 
 PCOD9037896
Probable space group: P -1
;
_chemical_formula_sum "Si O2"
_cell_formula_units_Z 14
_cell_length_a 9.370843
_cell_length_b 13.836993
_cell_length_c 11.643934
_cell_angle_alpha 30.454580
_cell_angle_beta 120.362031
_cell_angle_gamma 127.598644
_cell_volume 605.522195
_symmetry_space_group_name_H-M "P -1"
_symmetry_group_IT_number 2
_symmetry_cell_setting 'triclinic'
loop_
_space_group_symop_operation_xyz
x,y,z
-x,-y,-z
loop_
_atom_site_type_symbol
_atom_site_label
_atom_site_fract_x
_atom_site_fract_y
_atom_site_fract_z
Si Si1 0.127301 0.921696 0.273196
Si Si2 0.736099 0.299864 0.608147
Si Si3 0.235763 0.406985 0.183296
Si Si4 0.241408 0.023386 0.883911
Si Si5 0.619251 0.675376 0.177094
Si Si6 0.665951 0.951453 0.369789
Si Si7 0.862527 0.291813 0.273675
O O1 0.114102 0.731003 0.379426
O O2 0.181147 0.854476 0.484911
O O3 0.943964 0.955818 0.179715
O O4 0.267356 0.133201 0.056225
O O5 0.717495 0.516510 0.392076
O O6 0.548823 0.155821 0.615154
O O7 0.748453 0.184918 0.848005
O O8 0.423964 0.544937 0.178764
O O9 0.252478 0.192252 0.383482
O O10 0.070533 0.363741 0.248429
O O11 0.189267 0.509755 0.946649
O O12 0.388112 0.217410 0.814179
O O13 0.269218 0.034239 0.749304
O O14 0.745010 0.167434 0.245321
#
# Coordination Sequence:
#
# PCOD9037896 Si02
#       7
#     2   2   2   2   2   2   2
#     4  11  24  42  64  95 130 170 204 260 320 376
#     4  10  23  41  65  97 126 166 212 257 324 369
#     4  10  23  41  64  95 122 168 213 261 307 372
#     4  11  23  41  67  94 129 166 212 258 318 373
#     4  10  23  43  66  93 130 160 215 265 312 373
#     4  11  23  42  66  95 128 168 210 262 312 377
#     4  11  23  43  66  91 133 165 213 257 316 374
#
# _framework density 23.120539999999998
#
# number of rings (size 3 to 8) (size 9 to 14) (size 15 to 20)
#    0.000    1.429    1.429    4.286    0.000    9.143 
#    2.571    2.857    0.000    0.000    0.000    0.000 
#    0.000    0.000    0.000    0.000    0.000    0.000 
#
# Total GULP energy -78338.720043 kJ/mol
# GULP energy per Si atom -5595.622860 kJ/mol
# Density = 2.306792 g / cm^3
# Si number density = 23.120540 Si / 1000 Ang^3
#
#
#
# Elastic Constant Matrix: (Units=GPa)
#
#
# Indices 1 2 3 4 5 6 
#
# 1 81.3246 14.6292 51.7047 11.2603 22.4279 5.2090
# 2 14.6292 35.6994 23.2215 7.0906 -14.1132 1.5177
# 3 51.7047 23.2215 168.2872 8.4109 43.1790 -9.7682
# 4 11.2603 7.0906 8.4109 11.7315 6.3547 10.5008
# 5 22.4279 -14.1132 43.1790 6.3547 39.4916 3.2559
# 6 5.2090 1.5177 -9.7682 10.5008 3.2559 25.8106
#
#
#
# Elastic Compliance Matrix: (Units=1/GPa)
#
#
# Indices 1 2 3 4 5 6 
#
# 1 0.019315 -0.014023 0.000079 -0.000935 -0.015862 -0.000662
# 2 -0.014023 0.103107 -0.027619 -0.085758 0.087975 0.010107
# 3 0.000079 -0.027619 0.017469 0.016534 -0.032133 0.005546
# 4 -0.000935 -0.085758 0.016534 0.236155 -0.080053 -0.074491
# 5 -0.015862 0.087975 -0.032133 -0.080053 0.113445 0.004125
# 6 -0.000662 0.010107 0.005546 -0.074491 0.004125 0.070168
#
#
# Mechanical properties :
#
#
# Convention : Reuss Voigt Hill
#
# Bulk Modulus (GPa) = 17.61660 51.60242 34.60951
# Shear Modulus (GPa) = 7.55620 28.45712 18.00666
#
# Velocity S-wave (km/s) = 1.80977 3.51210 2.79376
# Velocity P-wave (km/s) = 3.46454 6.23007 5.04068
#
# Compressibility (1/GPa) = 0.05676464
#
# Stress axis : x y z
#
# Youngs Moduli (GPa) = 51.77227 9.69870 57.24322
#
# Poissons Ratio (x) = 0.13601 -0.00451
# Poissons Ratio (y) = 0.72602 1.58098
# Poissons Ratio (z) = -0.00408 0.26787
#
# Static dielectric constant tensor:
#      x y z
#    x 1.851220 0.028190 0.005440 
#    y 0.028190 1.839740 -0.008770 
#    z 0.005440 -0.008770 1.879330 
# 
# From -- ./inp_files/306804.got.cif
#   From: 2010.05.17/outbox.cif.g08.bks.cpg/sg2_154_cif.got.tgz:306804.got - 2010.06.03 11:33:40.
