data_PCOD9037634
_publ_section_title
;
Structure prediction by ZEFSAII (Michael W. Deem and Ramdas Pophale) SiO2 
 PCOD9037634
Probable space group: P -1
;
_chemical_formula_sum "Si O2"
_cell_formula_units_Z 14
_cell_length_a 8.054486
_cell_length_b 16.415418
_cell_length_c 9.645731
_cell_angle_alpha 51.046954
_cell_angle_beta 116.481047
_cell_angle_gamma 138.531331
_cell_volume 655.981554
_symmetry_space_group_name_H-M "P -1"
_symmetry_group_IT_number 2
_symmetry_cell_setting 'triclinic'
loop_
_space_group_symop_operation_xyz
x,y,z
-x,-y,-z
loop_
_atom_site_type_symbol
_atom_site_label
_atom_site_fract_x
_atom_site_fract_y
_atom_site_fract_z
Si Si1 0.490774 0.103027 0.474213
Si Si2 0.842600 0.515957 0.525079
Si Si3 0.760721 0.037589 0.078431
Si Si4 0.006160 0.823978 0.701853
Si Si5 0.050703 0.805266 0.287937
Si Si6 0.904444 0.369058 0.201086
Si Si7 0.701163 0.775704 0.412706
O O1 0.690181 0.154526 0.615655
O O2 0.612336 0.242261 0.278739
O O3 0.500000 0.000000 0.500000
O O4 0.208199 0.987552 0.545964
O O5 0.558856 0.371061 0.575717
O O6 0.000000 0.500000 0.500000
O O7 0.870139 0.644242 0.341703
O O8 0.947281 0.561975 0.672043
O O9 0.704291 0.898810 0.251276
O O10 0.935260 0.155649 0.135538
O O11 0.500000 0.000000 0.000000
O O12 0.896615 0.093524 0.921341
O O13 0.044998 0.722063 0.761814
O O14 0.747114 0.764850 0.602324
O O15 0.925609 0.809829 0.370248
O O16 0.000000 0.500000 0.000000
#
# Coordination Sequence:
#
# PCOD9037634 Si02
#       7
#     2   2   2   2   2   2   2
#     4   9  17  38  68  90 135 175 221 268 339 398
#     4  11  25  45  70  98 137 183 229 275 352 405
#     4  12  26  42  70 104 137 174 238 285 332 407
#     4  11  23  45  66 101 141 181 224 282 341 406
#     4  11  22  43  66 101 134 180 226 283 335 403
#     4  10  23  40  70  99 133 180 228 274 334 410
#     4  12  25  45  71  96 138 185 225 285 348 405
#
# _framework density 21.342064000000001
#
# number of rings (size 3 to 8) (size 9 to 14) (size 15 to 20)
#    0.000    1.143    5.714    2.143    6.000    0.000 
#    2.571    0.714    0.000    0.000    0.000    0.000 
#    0.000    0.000    0.000    0.000    0.000    0.000 
#
# Total GULP energy -78132.580056 kJ/mol
# GULP energy per Si atom -5580.898575 kJ/mol
# Density = 2.129349 g / cm^3
# Si number density = 21.342064 Si / 1000 Ang^3
#
#
#
# Elastic Constant Matrix: (Units=GPa)
#
#
# Indices 1 2 3 4 5 6 
#
# 1 53.0142 20.3943 8.6235 -3.7534 7.0780 -6.8432
# 2 20.3943 135.9992 51.8677 -3.8153 -0.1548 -8.0005
# 3 8.6235 51.8677 104.5743 -10.7020 0.8403 3.3924
# 4 -3.7534 -3.8153 -10.7020 38.7167 -6.9214 0.1214
# 5 7.0780 -0.1548 0.8403 -6.9214 30.0548 -6.8496
# 6 -6.8432 -8.0005 3.3924 0.1214 -6.8496 26.6346
#
#
#
# Elastic Compliance Matrix: (Units=1/GPa)
#
#
# Indices 1 2 3 4 5 6 
#
# 1 0.021048 -0.002794 -0.000337 0.000960 -0.003921 0.003599
# 2 -0.002794 0.009771 -0.004770 -0.000371 0.001488 0.003209
# 3 -0.000337 -0.004770 0.012355 0.002858 -0.000362 -0.003199
# 4 0.000960 -0.000371 0.002858 0.027814 0.006391 0.001288
# 5 -0.003921 0.001488 -0.000362 0.006391 0.037776 0.009171
# 6 0.003599 0.003209 -0.003199 0.001288 0.009171 0.042194
#
#
# Mechanical properties :
#
#
# Convention : Reuss Voigt Hill
#
# Bulk Modulus (GPa) = 36.53172 50.59542 43.56357
# Shear Modulus (GPa) = 28.42776 33.26135 30.84455
#
# Velocity S-wave (km/s) = 3.65363 3.95205 3.80576
# Velocity P-wave (km/s) = 5.91211 6.67707 6.30620
#
# Compressibility (1/GPa) = 0.02737347
#
# Stress axis : x y z
#
# Youngs Moduli (GPa) = 47.50956 102.34151 80.93608
#
# Poissons Ratio (x) = 0.28591 0.02728
# Poissons Ratio (y) = 0.13272 0.38607
# Poissons Ratio (z) = 0.01602 0.48817
#
# Static dielectric constant tensor:
#      x y z
#    x 1.839890 0.012230 -0.030290 
#    y 0.012230 1.806650 0.018030 
#    z -0.030290 0.018030 1.789370 
# 
# From -- ./inp_files/214571.got.cif
#   From: 2010.05.17/outbox.cif.g08.bks.cpg/sg2_108_cif.got.tgz:214571.got - 2010.06.03 11:33:40.
