data_PCOD9037164
_publ_section_title
;
Structure prediction by ZEFSAII (Michael W. Deem and Ramdas Pophale) SiO2 
 PCOD9037164
Probable space group: P -1
;
_chemical_formula_sum "Si O2"
_cell_formula_units_Z 12
_cell_length_a 5.308516
_cell_length_b 13.027418
_cell_length_c 9.281546
_cell_angle_alpha 55.075206
_cell_angle_beta 108.208959
_cell_angle_gamma 86.190867
_cell_volume 474.474471
_symmetry_space_group_name_H-M "P -1"
_symmetry_group_IT_number 2
_symmetry_cell_setting 'triclinic'
loop_
_space_group_symop_operation_xyz
x,y,z
-x,-y,-z
loop_
_atom_site_type_symbol
_atom_site_label
_atom_site_fract_x
_atom_site_fract_y
_atom_site_fract_z
Si Si1 0.543253 0.992132 0.342680
Si Si2 0.491528 0.426429 0.408416
Si Si3 0.532671 0.131876 0.968191
Si Si4 0.046081 0.189228 0.980692
Si Si5 0.988544 0.712320 0.566091
Si Si6 0.848804 0.392811 0.022975
O O1 0.362865 0.899042 0.821245
O O2 0.768452 0.857534 0.439423
O O3 0.500000 0.000000 0.500000
O O4 0.227119 0.039646 0.181861
O O5 0.500000 0.500000 0.500000
O O6 0.225253 0.372973 0.415291
O O7 0.420241 0.535059 0.178564
O O8 0.776047 0.318656 0.490536
O O9 0.222613 0.227406 0.856154
O O10 0.500000 0.000000 0.000000
O O11 0.034914 0.281696 0.039189
O O12 0.744858 0.188270 0.882551
O O13 0.172045 0.673659 0.776397
O O14 0.000000 0.500000 0.000000
#
# Coordination Sequence:
#
# PCOD9037164 Si02
#       6
#     2   2   2   2   2   2
#     4  10  23  41  65 100 129 164 218 266 328 384
#     4  11  26  43  66  95 130 172 219 269 324 383
#     4  10  23  40  62  94 133 169 212 254 330 388
#     4  10  23  40  68  95 130 170 211 271 320 386
#     4  11  23  43  69  95 128 173 216 273 320 390
#     4  10  23  45  68  96 131 171 226 265 326 384
#
# _framework density 25.291141
#
# number of rings (size 3 to 8) (size 9 to 14) (size 15 to 20)
#    1.000    0.667    1.667    1.500    2.333   10.000 
#    0.000    0.000    0.000    0.000    0.000    0.000 
#    0.000    0.000    0.000    0.000    0.000    0.000 
#
# Total GULP energy -66961.088232 kJ/mol
# GULP energy per Si atom -5580.090686 kJ/mol
# Density = 2.523358 g / cm^3
# Si number density = 25.291141 Si / 1000 Ang^3
#
#
#
# Elastic Constant Matrix: (Units=GPa)
#
#
# Indices 1 2 3 4 5 6 
#
# 1 186.2945 61.3016 33.1035 21.8624 -4.9654 -28.5885
# 2 61.3016 127.8415 31.8058 26.3063 -3.7231 -32.5135
# 3 33.1035 31.8058 148.6748 1.8563 1.9714 -18.1339
# 4 21.8624 26.3063 1.8563 34.1997 -0.5181 -1.6971
# 5 -4.9654 -3.7231 1.9714 -0.5181 18.4001 7.4779
# 6 -28.5885 -32.5135 -18.1339 -1.6971 7.4779 48.5734
#
#
#
# Elastic Compliance Matrix: (Units=1/GPa)
#
#
# Indices 1 2 3 4 5 6 
#
# 1 0.006823 -0.001924 -0.000807 -0.002718 0.000549 0.002247
# 2 -0.001924 0.012308 -0.001309 -0.007857 -0.000733 0.006456
# 3 -0.000807 -0.001309 0.007412 0.001178 -0.001958 0.001758
# 4 -0.002718 -0.007857 0.001178 0.036707 0.000716 -0.005247
# 5 0.000549 -0.000733 -0.001958 0.000716 0.058599 -0.009895
# 6 0.002247 0.006456 0.001758 -0.005247 -0.009895 0.028228
#
#
# Mechanical properties :
#
#
# Convention : Reuss Voigt Hill
#
# Bulk Modulus (GPa) = 54.16684 79.47030 66.81857
# Shear Modulus (GPa) = 30.43032 42.67464 36.55248
#
# Velocity S-wave (km/s) = 3.47248 4.11218 3.80579
# Velocity P-wave (km/s) = 6.12710 7.35099 6.76677
#
# Compressibility (1/GPa) = 0.01846148
#
# Stress axis : x y z
#
# Youngs Moduli (GPa) = 146.56825 81.24960 134.92464
#
# Poissons Ratio (x) = 0.15634 0.10885
# Poissons Ratio (y) = 0.28202 0.17666
# Poissons Ratio (z) = 0.11825 0.10638
#
# Static dielectric constant tensor:
#      x y z
#    x 2.118640 -0.029200 -0.005990 
#    y -0.029200 1.980710 -0.034890 
#    z -0.005990 -0.034890 2.086550 
# 
# From -- ./inp_files/135048.got.cif
#   From: 2010.05.17/outbox.cif.g08.bks.cpg/sg2_68_cif.got.tgz:135048.got - 2010.06.03 11:33:40.
