data_PCOD9037151
_publ_section_title
;
Structure prediction by ZEFSAII (Michael W. Deem and Ramdas Pophale) SiO2 
 PCOD9037151
Probable space group: P -1
;
_chemical_formula_sum "Si O2"
_cell_formula_units_Z 16
_cell_length_a 17.367581
_cell_length_b 15.479250
_cell_length_c 15.806675
_cell_angle_alpha 25.898207
_cell_angle_beta 155.759811
_cell_angle_gamma 156.933896
_cell_volume 633.116253
_symmetry_space_group_name_H-M "P -1"
_symmetry_group_IT_number 2
_symmetry_cell_setting 'triclinic'
loop_
_space_group_symop_operation_xyz
x,y,z
-x,-y,-z
loop_
_atom_site_type_symbol
_atom_site_label
_atom_site_fract_x
_atom_site_fract_y
_atom_site_fract_z
Si Si1 0.561674 0.760572 0.299109
Si Si2 0.973550 0.665921 0.392410
Si Si3 0.611933 0.710075 0.048784
Si Si4 0.506535 0.507435 0.302826
Si Si5 0.133703 0.544056 0.349165
Si Si6 0.157200 0.787895 0.902226
Si Si7 0.971591 0.830127 0.849213
Si Si8 0.444317 0.992337 0.548597
O O1 0.500000 0.500000 0.500000
O O2 0.505169 0.689584 0.205447
O O3 0.791820 0.026944 0.286445
O O4 0.395091 0.815041 0.129902
O O5 0.191952 0.927383 0.360954
O O6 0.000000 0.500000 0.500000
O O7 0.727033 0.621010 0.179250
O O8 0.988985 0.613462 0.552754
O O9 0.490330 0.551611 0.148724
O O10 0.841323 0.942695 0.111451
O O11 0.459930 0.785765 0.788157
O O12 0.749854 0.542894 0.521008
O O13 0.286021 0.251183 0.332620
O O14 0.358221 0.775047 0.411537
O O15 0.983708 0.616180 0.088693
O O16 0.058196 0.859751 0.815284
O O17 0.000000 0.500000 0.000000
O O18 0.500000 0.000000 0.500000
#
# Coordination Sequence:
#
# PCOD9037151 Si02
#       8
#     2   2   2   2   2   2   2   2
#     4  11  24  42  67 100 137 176 225 284 341 406
#     4  11  22  41  59  91 126 163 215 273 327 398
#     4  10  24  40  64  89 127 172 216 269 335 400
#     4  11  21  42  65  92 128 171 218 272 329 404
#     4  10  23  40  62  91 126 164 220 267 329 402
#     4  11  23  43  67  97 137 174 224 281 340 405
#     4  11  21  42  66  92 126 174 216 272 334 396
#     4  11  22  41  60  91 125 165 214 274 330 393
#
# _framework density 25.271820000000002
#
# number of rings (size 3 to 8) (size 9 to 14) (size 15 to 20)
#    0.000    1.250    3.750    2.250    0.000    1.500 
#    2.250    0.000    0.000    0.000    0.000    0.000 
#    0.000    0.000    0.000    0.000    0.000    0.000 
#
# Total GULP energy -89353.492724 kJ/mol
# GULP energy per Si atom -5584.593295 kJ/mol
# Density = 2.521430 g / cm^3
# Si number density = 25.271820 Si / 1000 Ang^3
#
#
#
# Elastic Constant Matrix: (Units=GPa)
#
#
# Indices 1 2 3 4 5 6 
#
# 1 122.0820 37.4786 29.6406 1.6784 21.5415 32.9792
# 2 37.4786 117.7497 10.3286 -5.3107 0.8675 18.3126
# 3 29.6406 10.3286 97.8139 -16.8969 -0.5103 15.9314
# 4 1.6784 -5.3107 -16.8969 37.3252 8.4813 2.8061
# 5 21.5415 0.8675 -0.5103 8.4813 35.2717 -6.9177
# 6 32.9792 18.3126 15.9314 2.8061 -6.9177 55.5697
#
#
#
# Elastic Compliance Matrix: (Units=1/GPa)
#
#
# Indices 1 2 3 4 5 6 
#
# 1 0.013416 -0.002769 -0.002468 0.000688 -0.009817 -0.007599
# 2 -0.002769 0.009663 0.000369 0.001619 0.000748 -0.001636
# 3 -0.002468 0.000369 0.012386 0.006023 -0.000270 -0.002546
# 4 0.000688 0.001619 0.006023 0.032214 -0.009185 -0.005439
# 5 -0.009817 0.000748 -0.000270 -0.009185 0.038678 0.010936
# 6 -0.007599 -0.001636 -0.002546 -0.005439 0.010936 0.025410
#
#
# Mechanical properties :
#
#
# Convention : Reuss Voigt Hill
#
# Bulk Modulus (GPa) = 38.86559 54.72679 46.79619
# Shear Modulus (GPa) = 33.31582 42.97984 38.14783
#
# Velocity S-wave (km/s) = 3.63478 4.12843 3.88944
# Velocity P-wave (km/s) = 5.74699 6.66540 6.22316
#
# Compressibility (1/GPa) = 0.02572970
#
# Stress axis : x y z
#
# Youngs Moduli (GPa) = 74.53919 103.48364 80.73550
#
# Poissons Ratio (x) = 0.28650 0.19924
# Poissons Ratio (y) = 0.20636 -0.02976
# Poissons Ratio (z) = 0.18395 -0.03814
#
# Static dielectric constant tensor:
#      x y z
#    x 2.018770 -0.062430 0.036500 
#    y -0.062430 2.075450 -0.069310 
#    z 0.036500 -0.069310 2.035270 
# 
# From -- ./inp_files/534195.got.cif
#   From: 2010.05.17/outbox.cif.g08.bks.cpg/sg2_268_cif.got.tgz:534195.got - 2010.06.03 11:33:40.
