data_PCOD9037261
_publ_section_title
;
Structure prediction by ZEFSAII (Michael W. Deem and Ramdas Pophale) SiO2 
 PCOD9037261
Probable space group: P -1
;
_chemical_formula_sum "Si O2"
_cell_formula_units_Z 12
_cell_length_a 14.210133
_cell_length_b 5.138726
_cell_length_c 14.682113
_cell_angle_alpha 118.465418
_cell_angle_beta 150.687541
_cell_angle_gamma 72.434663
_cell_volume 444.998250
_symmetry_space_group_name_H-M "P -1"
_symmetry_group_IT_number 2
_symmetry_cell_setting 'triclinic'
loop_
_space_group_symop_operation_xyz
x,y,z
-x,-y,-z
loop_
_atom_site_type_symbol
_atom_site_label
_atom_site_fract_x
_atom_site_fract_y
_atom_site_fract_z
Si Si1 0.431830 0.271825 0.800639
Si Si2 0.115973 0.639243 0.769934
Si Si3 0.323324 0.134565 0.304877
Si Si4 0.301534 0.757131 0.456874
Si Si5 0.980264 0.881073 0.101106
Si Si6 0.777586 0.181398 0.310050
O O1 0.335248 0.544909 0.738050
O O2 0.344863 0.973214 0.615569
O O3 0.359943 0.129188 0.815556
O O4 0.669696 0.364339 0.010851
O O5 0.160665 0.835209 0.745799
O O6 0.014082 0.808299 0.786468
O O7 0.972609 0.319969 0.560107
O O8 0.350089 0.432367 0.440408
O O9 0.529009 0.060563 0.441666
O O10 0.139924 0.895100 0.157073
O O11 0.230878 0.211206 0.142375
O O12 0.073238 0.700086 0.223860
#
# Coordination Sequence:
#
# PCOD9037261 Si02
#       6
#     2   2   2   2   2   2
#     4  12  25  48  72 107 141 188 231 290 352 420
#     4  11  24  45  71 105 139 189 234 289 353 415
#     4  10  23  40  64  93 132 173 229 278 351 402
#     4  11  22  40  65  93 134 175 225 284 346 409
#     4  11  21  43  62  97 129 175 227 284 341 414
#     4  11  27  47  73 103 147 182 236 290 348 419
#
# _framework density 26.966396
#
# number of rings (size 3 to 8) (size 9 to 14) (size 15 to 20)
#    0.000    1.000    3.333    3.000    0.000    4.000 
#    6.000    0.000    0.000    0.000    0.000    0.000 
#    0.000    0.000    0.000    0.000    0.000    0.000 
#
# Total GULP energy -67193.642077 kJ/mol
# GULP energy per Si atom -5599.470173 kJ/mol
# Density = 2.690502 g / cm^3
# Si number density = 26.966396 Si / 1000 Ang^3
#
#
#
# Elastic Constant Matrix: (Units=GPa)
#
#
# Indices 1 2 3 4 5 6 
#
# 1 102.4276 8.4538 6.9085 -3.6279 0.1035 -22.6391
# 2 8.4538 93.0682 27.4576 -17.8535 -15.6953 -10.4711
# 3 6.9085 27.4576 170.6617 -13.4577 0.0781 -19.9124
# 4 -3.6279 -17.8535 -13.4577 34.6012 -14.7851 -5.8216
# 5 0.1035 -15.6953 0.0781 -14.7851 39.4162 17.1664
# 6 -22.6391 -10.4711 -19.9124 -5.8216 17.1664 29.7309
#
#
#
# Elastic Compliance Matrix: (Units=1/GPa)
#
#
# Indices 1 2 3 4 5 6 
#
# 1 0.012935 -0.000740 0.001365 0.001321 -0.006042 0.014250
# 2 -0.000740 0.015264 -0.001501 0.011686 0.010436 0.000070
# 3 0.001365 -0.001501 0.007076 0.002055 -0.003081 0.007432
# 4 0.001321 0.011686 0.002055 0.044997 0.019848 0.003849
# 5 -0.006042 0.010436 -0.003081 0.019848 0.048898 -0.027336
# 6 0.014250 0.000070 0.007432 0.003849 -0.027336 0.066025
#
#
# Mechanical properties :
#
#
# Convention : Reuss Voigt Hill
#
# Bulk Modulus (GPa) = 29.82972 50.19969 40.01471
# Shear Modulus (GPa) = 24.02452 42.30550 33.16501
#
# Velocity S-wave (km/s) = 2.98804 3.96513 3.51075
# Velocity P-wave (km/s) = 4.79483 6.29437 5.59506
#
# Compressibility (1/GPa) = 0.03352361
#
# Stress axis : x y z
#
# Youngs Moduli (GPa) = 77.31257 65.51186 141.31663
#
# Poissons Ratio (x) = 0.04847 -0.19290
# Poissons Ratio (y) = 0.05720 0.21212
# Poissons Ratio (z) = -0.10554 0.09834
#
# Static dielectric constant tensor:
#      x y z
#    x 2.206640 0.148510 -0.021290 
#    y 0.148510 2.151640 -0.058660 
#    z -0.021290 -0.058660 2.136950 
# 
# From -- ./inp_files/37077.got.cif
#   From: 2010.05.17/outbox.cif.g08.bks.cpg/sg2_19_cif.got.tgz:37077.got - 2010.06.03 11:33:40.
