data_PCOD9037294
_publ_section_title
;
Structure prediction by ZEFSAII (Michael W. Deem and Ramdas Pophale) SiO2 
 PCOD9037294
Probable space group: P -1
;
_chemical_formula_sum "Si O2"
_cell_formula_units_Z 16
_cell_length_a 14.667556
_cell_length_b 11.527123
_cell_length_c 9.113796
_cell_angle_alpha 110.190069
_cell_angle_beta 134.061336
_cell_angle_gamma 43.348862
_cell_volume 718.690163
_symmetry_space_group_name_H-M "P -1"
_symmetry_group_IT_number 2
_symmetry_cell_setting 'triclinic'
loop_
_space_group_symop_operation_xyz
x,y,z
-x,-y,-z
loop_
_atom_site_type_symbol
_atom_site_label
_atom_site_fract_x
_atom_site_fract_y
_atom_site_fract_z
Si Si1 0.441375 0.285520 0.037868
Si Si2 0.572781 0.841823 0.332531
Si Si3 0.146463 0.501913 0.015833
Si Si4 0.583830 0.446281 0.231769
Si Si5 0.710639 0.985118 0.427544
Si Si6 0.472876 0.298660 0.514908
Si Si7 0.994674 0.855529 0.446810
Si Si8 0.161259 0.210442 0.005599
O O1 0.235203 0.454935 0.935678
O O2 0.561320 0.323541 0.212769
O O3 0.541394 0.112141 0.175076
O O4 0.441021 0.245904 0.853027
O O5 0.713030 0.847935 0.440812
O O6 0.603355 0.748722 0.476126
O O7 0.373412 0.045623 0.208776
O O8 0.309318 0.434375 0.276211
O O9 0.965970 0.698581 0.952936
O O10 0.125655 0.369136 0.960608
O O11 0.486320 0.609529 0.303740
O O12 0.795243 0.335277 0.406529
O O13 0.500000 0.500000 0.000000
O O14 0.888737 0.894157 0.493992
O O15 0.646077 0.123954 0.543592
O O16 0.893789 0.858379 0.199860
O O17 0.000000 0.000000 0.500000
#
# Coordination Sequence:
#
# PCOD9037294 Si02
#       8
#     2   2   2   2   2   2   2   2
#     4  11  21  40  67  91 125 172 220 259 311 383
#     4  12  21  41  68  95 135 170 205 268 326 380
#     4  10  23  40  65 100 123 166 221 266 317 375
#     4  12  25  46  64  89 134 173 212 261 331 380
#     4  11  23  40  67 101 123 167 225 260 314 385
#     4  11  24  42  64  96 133 173 206 263 332 375
#     4  12  24  42  67  96 126 172 220 265 313 383
#     4  11  21  39  66  95 132 160 215 263 317 377
#
# _framework density 22.262723000000001
#
# number of rings (size 3 to 8) (size 9 to 14) (size 15 to 20)
#    0.000    0.750    7.500    1.500    0.000    3.000 
#    2.250    1.250    0.000    0.000    0.000    0.000 
#    0.000    0.000    0.000    0.000    0.000    0.000 
#
# Total GULP energy -89536.430504 kJ/mol
# GULP energy per Si atom -5596.026906 kJ/mol
# Density = 2.221205 g / cm^3
# Si number density = 22.262723 Si / 1000 Ang^3
#
#
#
# Elastic Constant Matrix: (Units=GPa)
#
#
# Indices 1 2 3 4 5 6 
#
# 1 93.6800 41.2905 -6.9727 -4.1151 5.0528 -33.6093
# 2 41.2905 92.5232 14.2095 35.8307 2.3513 -17.1061
# 3 -6.9727 14.2095 48.4065 22.3091 -2.3208 1.1603
# 4 -4.1151 35.8307 22.3091 38.6930 -0.9180 0.9666
# 5 5.0528 2.3513 -2.3208 -0.9180 30.5464 0.0486
# 6 -33.6093 -17.1061 1.1603 0.9666 0.0486 42.7203
#
#
#
# Elastic Compliance Matrix: (Units=1/GPa)
#
#
# Indices 1 2 3 4 5 6 
#
# 1 0.020792 -0.012293 0.000166 0.013171 -0.002102 0.011135
# 2 -0.012293 0.027112 0.003266 -0.028356 -0.000660 0.001738
# 3 0.000166 0.003266 0.028796 -0.019605 0.001318 0.001098
# 4 0.013171 -0.028356 -0.019605 0.064866 0.000467 -0.001927
# 5 -0.002102 -0.000660 0.001318 0.000467 0.033253 -0.002003
# 6 0.011135 0.001738 0.001098 -0.001927 -0.002003 0.032881
#
#
# Mechanical properties :
#
#
# Convention : Reuss Voigt Hill
#
# Bulk Modulus (GPa) = 16.95601 36.85160 26.90380
# Shear Modulus (GPa) = 20.40128 34.79743 27.59935
#
# Velocity S-wave (km/s) = 3.03047 3.95781 3.52477
# Velocity P-wave (km/s) = 4.45846 6.12166 5.35502
#
# Compressibility (1/GPa) = 0.05897613
#
# Stress axis : x y z
#
# Youngs Moduli (GPa) = 48.09492 36.88426 34.72704
#
# Poissons Ratio (x) = 0.45342 -0.00575
# Poissons Ratio (y) = 0.59123 -0.11340
# Poissons Ratio (z) = -0.00796 -0.12045
#
# Static dielectric constant tensor:
#      x y z
#    x 1.849690 0.015510 0.003260 
#    y 0.015510 1.845220 -0.008260 
#    z 0.003260 -0.008260 1.804330 
# 
# From -- ./inp_files/227727.got.cif
#   From: 2010.05.17/outbox.cif.g08.bks.cpg/sg2_114_cif.got.tgz:227727.got - 2010.06.03 11:33:40.
