data_PCOD9037474
_publ_section_title
;
Structure prediction by ZEFSAII (Michael W. Deem and Ramdas Pophale) SiO2 
 PCOD9037474
Probable space group: P -1
;
_chemical_formula_sum "Si O2"
_cell_formula_units_Z 12
_cell_length_a 9.201272
_cell_length_b 11.892281
_cell_length_c 10.197005
_cell_angle_alpha 48.136525
_cell_angle_beta 45.180682
_cell_angle_gamma 55.385258
_cell_volume 579.280565
_symmetry_space_group_name_H-M "P -1"
_symmetry_group_IT_number 2
_symmetry_cell_setting 'triclinic'
loop_
_space_group_symop_operation_xyz
x,y,z
-x,-y,-z
loop_
_atom_site_type_symbol
_atom_site_label
_atom_site_fract_x
_atom_site_fract_y
_atom_site_fract_z
Si Si1 0.469418 0.637828 0.814374
Si Si2 0.899882 0.753517 0.426770
Si Si3 0.040617 0.779226 0.028819
Si Si4 0.104045 0.963644 0.603572
Si Si5 0.834129 0.492563 0.375262
Si Si6 0.374892 0.665473 0.581876
O O1 0.685756 0.689644 0.605540
O O2 0.379016 0.579420 0.783811
O O3 0.500000 0.500000 0.000000
O O4 0.289759 0.769580 0.883684
O O5 0.947523 0.817674 0.203261
O O6 0.085181 0.616225 0.466540
O O7 0.868324 0.884218 0.455929
O O8 0.993255 0.608326 0.167871
O O9 0.979529 0.879484 0.857961
O O10 0.313334 0.842301 0.527416
O O11 0.000000 0.000000 0.500000
O O12 0.609117 0.607674 0.428998
O O13 0.797245 0.377396 0.372448
#
# Coordination Sequence:
#
# PCOD9037474 Si02
#       6
#     2   2   2   2   2   2
#     4  11  22  39  69 104 134 172 232 273 337 398
#     4  12  23  45  73  99 139 175 222 284 335 399
#     4  11  24  41  71 102 134 178 228 276 337 396
#     4  11  25  46  65  98 141 181 222 274 344 404
#     4  11  21  42  72  96 134 173 227 278 327 398
#     4  10  23  40  67  97 135 175 221 273 338 387
#
# _framework density 20.715351999999999
#
# number of rings (size 3 to 8) (size 9 to 14) (size 15 to 20)
#    0.000    1.000    5.000    2.000    0.000    6.667 
#    3.000    0.833    0.000    0.000    0.000    0.000 
#    0.000    0.000    0.000    0.000    0.000    0.000 
#
# Total GULP energy -66846.670651 kJ/mol
# GULP energy per Si atom -5570.555888 kJ/mol
# Density = 2.066820 g / cm^3
# Si number density = 20.715352 Si / 1000 Ang^3
#
#
#
# Elastic Constant Matrix: (Units=GPa)
#
#
# Indices 1 2 3 4 5 6 
#
# 1 111.4008 41.6159 50.4383 9.8076 26.5678 7.9904
# 2 41.6159 98.4041 22.5390 7.1908 -0.5057 6.6677
# 3 50.4383 22.5390 94.6998 9.0326 34.2032 2.5316
# 4 9.8076 7.1908 9.0326 31.6302 -6.0184 3.5771
# 5 26.5678 -0.5057 34.2032 -6.0184 35.9796 -0.2825
# 6 7.9904 6.6677 2.5316 3.5771 -0.2825 34.0203
#
#
#
# Elastic Compliance Matrix: (Units=1/GPa)
#
#
# Indices 1 2 3 4 5 6 
#
# 1 0.014926 -0.005232 -0.003064 -0.004037 -0.008873 -0.001902
# 2 -0.005232 0.013084 -0.002892 0.000926 0.006943 -0.001160
# 3 -0.003064 -0.002892 0.020196 -0.007683 -0.018258 0.000440
# 4 -0.004037 0.000926 -0.007683 0.038314 0.016687 -0.002552
# 5 -0.008873 0.006943 -0.018258 0.016687 0.054597 0.000781
# 6 -0.001902 -0.001160 0.000440 -0.002552 0.000781 0.030310
#
#
# Mechanical properties :
#
#
# Convention : Reuss Voigt Hill
#
# Bulk Modulus (GPa) = 38.71649 59.29901 49.00775
# Shear Modulus (GPa) = 24.70176 32.98678 28.84427
#
# Velocity S-wave (km/s) = 3.45691 3.99480 3.73555
# Velocity P-wave (km/s) = 5.88761 7.06864 6.50498
#
# Compressibility (1/GPa) = 0.02582879
#
# Stress axis : x y z
#
# Youngs Moduli (GPa) = 66.99503 76.42905 49.51580
#
# Poissons Ratio (x) = 0.39991 0.15173
# Poissons Ratio (y) = 0.35055 0.14320
# Poissons Ratio (z) = 0.20528 0.22103
#
# Static dielectric constant tensor:
#      x y z
#    x 1.772770 -0.034380 0.023660 
#    y -0.034380 1.836150 0.031900 
#    z 0.023660 0.031900 1.747280 
# 
# From -- ./inp_files/173927.got.cif
#   From: 2010.05.17/outbox.cif.g08.bks.cpg/sg2_87_cif.got.tgz:173927.got - 2010.06.03 11:33:40.
