data_PCOD9037150
_publ_section_title
;
Structure prediction by ZEFSAII (Michael W. Deem and Ramdas Pophale) SiO2 
 PCOD9037150
Probable space group: P -1
;
_chemical_formula_sum "Si O2"
_cell_formula_units_Z 12
_cell_length_a 17.038448
_cell_length_b 5.315594
_cell_length_c 7.571797
_cell_angle_alpha 112.643486
_cell_angle_beta 116.421464
_cell_angle_gamma 83.005517
_cell_volume 565.783204
_symmetry_space_group_name_H-M "P -1"
_symmetry_group_IT_number 2
_symmetry_cell_setting 'triclinic'
loop_
_space_group_symop_operation_xyz
x,y,z
-x,-y,-z
loop_
_atom_site_type_symbol
_atom_site_label
_atom_site_fract_x
_atom_site_fract_y
_atom_site_fract_z
Si Si1 0.626212 0.671148 0.726546
Si Si2 0.203618 0.579902 0.238638
Si Si3 0.558984 0.761397 0.063449
Si Si4 0.907030 0.645697 0.242988
Si Si5 0.114341 0.729158 0.548026
Si Si6 0.629278 0.073944 0.550730
O O1 0.728131 0.656806 0.770550
O O2 0.615763 0.691912 0.930744
O O3 0.594060 0.922349 0.650396
O O4 0.613768 0.878089 0.316287
O O5 0.173290 0.643555 0.421327
O O6 0.267723 0.832657 0.304271
O O7 0.124029 0.498901 0.007773
O O8 0.411818 0.633603 0.446856
O O9 0.500000 0.500000 0.000000
O O10 0.500000 0.000000 0.000000
O O11 0.871583 0.456967 0.317982
O O12 0.012409 0.674850 0.373617
O O13 0.873649 0.950028 0.308694
#
# Coordination Sequence:
#
# PCOD9037150 Si02
#       6
#     2   2   2   2   2   2
#     4  10  25  42  63  95 122 159 203 254 305 364
#     4  10  25  38  68  88 130 160 206 254 304 362
#     4  12  26  44  68  90 123 164 201 252 308 372
#     4  10  23  40  62  91 125 166 208 251 301 358
#     4  10  23  40  62  91 125 166 208 251 301 358
#     4  10  25  42  63  95 122 159 203 254 305 364
#
# _framework density 21.209536
#
# number of rings (size 3 to 8) (size 9 to 14) (size 15 to 20)
#    1.000    0.667    0.000    2.500    7.000    4.000 
#    0.000    5.000    0.000    0.000    0.000    0.000 
#    0.000    0.000    0.000    0.000    0.000    0.000 
#
# Total GULP energy -67008.079642 kJ/mol
# GULP energy per Si atom -5584.006637 kJ/mol
# Density = 2.116126 g / cm^3
# Si number density = 21.209536 Si / 1000 Ang^3
#
#
#
# Elastic Constant Matrix: (Units=GPa)
#
#
# Indices 1 2 3 4 5 6 
#
# 1 48.3323 20.2188 -3.7061 -2.7711 -23.0928 -0.3363
# 2 20.2188 144.6878 26.1248 -12.2057 -6.0032 21.5439
# 3 -3.7061 26.1248 68.7304 16.9820 -6.6394 11.8619
# 4 -2.7711 -12.2057 16.9820 32.5943 5.7768 -6.4877
# 5 -23.0928 -6.0032 -6.6394 5.7768 34.8223 4.2339
# 6 -0.3363 21.5439 11.8619 -6.4877 4.2339 19.1239
#
#
#
# Elastic Compliance Matrix: (Units=1/GPa)
#
#
# Indices 1 2 3 4 5 6 
#
# 1 0.037239 -0.005524 0.012088 -0.012723 0.029554 -0.011479
# 2 -0.005524 0.009648 -0.004382 0.004745 -0.002894 -0.005997
# 3 0.012088 -0.004382 0.029348 -0.024608 0.020081 -0.025849
# 4 -0.012723 0.004745 -0.024608 0.055564 -0.025691 0.034231
# 5 0.029554 -0.002894 0.020081 -0.025691 0.059628 -0.030593
# 6 -0.011479 -0.005997 -0.025849 0.034231 -0.030593 0.093264
#
#
# Mechanical properties :
#
#
# Convention : Reuss Voigt Hill
#
# Bulk Modulus (GPa) = 12.40727 38.55837 25.48282
# Shear Modulus (GPa) = 16.27632 31.91564 24.09598
#
# Velocity S-wave (km/s) = 2.77321 3.88336 3.37425
# Velocity P-wave (km/s) = 4.01458 6.19084 5.21744
#
# Compressibility (1/GPa) = 0.08059788
#
# Stress axis : x y z
#
# Youngs Moduli (GPa) = 26.85322 103.64962 34.07360
#
# Poissons Ratio (x) = 0.57259 -0.41187
# Poissons Ratio (y) = 0.14835 0.14931
# Poissons Ratio (z) = -0.32459 0.45420
#
# Static dielectric constant tensor:
#      x y z
#    x 1.795320 -0.022460 0.042300 
#    y -0.022460 1.763040 -0.010650 
#    z 0.042300 -0.010650 1.741590 
# 
# From -- ./inp_files/8552.got.cif
#   From: 2010.05.17/outbox.cif.g08.bks.cpg/sg2_5_cif.got.tgz:8552.got - 2010.06.03 11:33:40.
