data_PCOD9037839
_publ_section_title
;
Structure prediction by ZEFSAII (Michael W. Deem and Ramdas Pophale) SiO2 
 PCOD9037839
Probable space group: P -1
;
_chemical_formula_sum "Si O2"
_cell_formula_units_Z 16
_cell_length_a 11.121548
_cell_length_b 11.921156
_cell_length_c 14.414452
_cell_angle_alpha 28.445018
_cell_angle_beta 101.925091
_cell_angle_gamma 118.389694
_cell_volume 691.390617
_symmetry_space_group_name_H-M "P -1"
_symmetry_group_IT_number 2
_symmetry_cell_setting 'triclinic'
loop_
_space_group_symop_operation_xyz
x,y,z
-x,-y,-z
loop_
_atom_site_type_symbol
_atom_site_label
_atom_site_fract_x
_atom_site_fract_y
_atom_site_fract_z
Si Si1 0.944303 0.169780 0.423074
Si Si2 0.569191 0.229029 0.427120
Si Si3 0.574365 0.827330 0.141034
Si Si4 0.827330 0.139181 0.104568
Si Si5 0.904311 0.907572 0.805122
Si Si6 0.313060 0.712158 0.888043
Si Si7 0.632231 0.618994 0.710876
Si Si8 0.830074 0.856659 0.034669
O O1 0.923794 0.095979 0.582102
O O2 0.769095 0.973070 0.495604
O O3 0.000000 0.000000 0.500000
O O4 0.063763 0.527551 0.168344
O O5 0.521002 0.434192 0.238292
O O6 0.749127 0.496729 0.281962
O O7 0.500000 0.000000 0.500000
O O8 0.475474 0.016962 0.654960
O O9 0.420712 0.498778 0.317098
O O10 0.722251 0.912111 0.037148
O O11 0.658788 0.902479 0.199038
O O12 0.500000 0.000000 0.000000
O O13 0.798352 0.215199 0.145308
O O14 0.930255 0.029537 0.201911
O O15 0.775345 0.555847 0.006939
O O16 0.855682 0.961477 0.855398
O O17 0.338240 0.575035 0.081919
O O18 0.000000 0.000000 0.000000
#
# Coordination Sequence:
#
# PCOD9037839 Si02
#       8
#     2   2   2   2   2   2   2   2
#     4  11  22  40  66 105 135 181 234 285 344 410
#     4  11  24  42  68  95 134 181 227 280 350 410
#     4  11  22  46  69  96 143 187 221 292 347 408
#     4  12  23  41  72  98 142 179 236 288 341 416
#     4  11  23  42  69 103 141 182 227 295 346 411
#     4  11  22  41  68 106 131 181 234 285 350 407
#     4  10  23  41  63  96 140 167 228 287 336 405
#     4  11  24  47  69 102 145 183 232 291 348 418
#
# _framework density 23.141764999999999
#
# number of rings (size 3 to 8) (size 9 to 14) (size 15 to 20)
#    0.000    1.000    6.250    1.125    1.750    0.500 
#    4.500    3.125    0.000    0.000    0.000    0.000 
#    0.000    0.000    0.000    0.000    0.000    0.000 
#
# Total GULP energy -89217.150727 kJ/mol
# GULP energy per Si atom -5576.071920 kJ/mol
# Density = 2.308909 g / cm^3
# Si number density = 23.141765 Si / 1000 Ang^3
#
#
#
# Elastic Constant Matrix: (Units=GPa)
#
#
# Indices 1 2 3 4 5 6 
#
# 1 62.9504 31.5175 14.6453 -0.3471 2.3872 1.1456
# 2 31.5175 125.7992 40.8925 -0.1912 -11.3321 7.1932
# 3 14.6453 40.8925 96.2930 10.7813 -20.0635 8.6948
# 4 -0.3471 -0.1912 10.7813 45.3590 -1.4721 -12.4911
# 5 2.3872 -11.3321 -20.0635 -1.4721 29.7831 -5.2133
# 6 1.1456 7.1932 8.6948 -12.4911 -5.2133 49.3462
#
#
#
# Elastic Compliance Matrix: (Units=1/GPa)
#
#
# Indices 1 2 3 4 5 6 
#
# 1 0.018749 -0.004475 -0.001957 0.000505 -0.004460 0.000218
# 2 -0.004475 0.010365 -0.003350 0.000757 0.002011 -0.000413
# 3 -0.001957 -0.003350 0.014389 -0.003769 0.008020 -0.002108
# 4 0.000505 0.000757 -0.003769 0.024838 0.000134 0.006844
# 5 -0.004460 0.002011 0.008020 0.000134 0.040584 0.002719
# 6 0.000218 -0.000413 -0.002108 0.006844 0.002719 0.022711
#
#
# Mechanical properties :
#
#
# Convention : Reuss Voigt Hill
#
# Bulk Modulus (GPa) = 41.77102 51.01701 46.39402
# Shear Modulus (GPa) = 31.41126 38.09684 34.75405
#
# Velocity S-wave (km/s) = 3.68821 4.06179 3.87950
# Velocity P-wave (km/s) = 6.01884 6.64009 6.33708
#
# Compressibility (1/GPa) = 0.02394004
#
# Stress axis : x y z
#
# Youngs Moduli (GPa) = 53.33579 96.47846 69.49992
#
# Poissons Ratio (x) = 0.43172 0.13601
# Poissons Ratio (y) = 0.23867 0.23280
# Poissons Ratio (z) = 0.10438 0.32316
#
# Static dielectric constant tensor:
#      x y z
#    x 1.882660 0.088790 -0.116420 
#    y 0.088790 1.953560 -0.066120 
#    z -0.116420 -0.066120 1.932480 
# 
# From -- ./inp_files/519496.got.cif
#   From: 2010.05.17/outbox.cif.g08.bks.cpg/sg2_260_cif.got.tgz:519496.got - 2010.06.03 11:33:40.
