data_PCOD9037232
_publ_section_title
;
Structure prediction by ZEFSAII (Michael W. Deem and Ramdas Pophale) SiO2 
 PCOD9037232
Probable space group: P -1
;
_chemical_formula_sum "Si O2"
_cell_formula_units_Z 14
_cell_length_a 9.751654
_cell_length_b 11.611901
_cell_length_c 18.951452
_cell_angle_alpha 30.379211
_cell_angle_beta 31.028467
_cell_angle_gamma 46.521027
_cell_volume 548.531872
_symmetry_space_group_name_H-M "P -1"
_symmetry_group_IT_number 2
_symmetry_cell_setting 'triclinic'
loop_
_space_group_symop_operation_xyz
x,y,z
-x,-y,-z
loop_
_atom_site_type_symbol
_atom_site_label
_atom_site_fract_x
_atom_site_fract_y
_atom_site_fract_z
Si Si1 0.141366 0.890291 0.671302
Si Si2 0.789772 0.945633 0.923618
Si Si3 0.841297 0.534199 0.897757
Si Si4 0.742214 0.378569 0.439385
Si Si5 0.372548 0.129464 0.299340
Si Si6 0.030014 0.604567 0.325750
Si Si7 0.535879 0.544012 0.685053
O O1 0.212000 0.041869 0.488607
O O2 0.604224 0.233811 0.359703
O O3 0.017885 0.008641 0.728575
O O4 0.892675 0.682219 0.867536
O O5 0.884583 0.114104 0.858990
O O6 0.711210 0.670772 0.106827
O O7 0.500000 0.000000 0.000000
O O8 0.733207 0.697925 0.800211
O O9 0.128176 0.526167 0.741356
O O10 0.657858 0.281880 0.117312
O O11 0.500000 0.500000 0.500000
O O12 0.962558 0.471550 0.353107
O O13 0.639320 0.104736 0.617043
O O14 0.278093 0.513510 0.301694
O O15 0.752180 0.555776 0.519518
#
# Coordination Sequence:
#
# PCOD9037232 Si02
#       7
#     2   2   2   2   2   2   2
#     4  11  22  42  68  99 134 169 228 284 330 404
#     4  10  24  42  64  97 135 178 221 273 338 404
#     4  10  24  44  72  98 128 178 226 277 335 393
#     4  11  23  42  69 103 137 173 222 278 332 397
#     4  10  24  44  69  99 130 178 228 275 335 394
#     4  10  23  42  64  97 140 179 218 270 336 399
#     4  10  23  40  63  97 134 180 224 270 333 398
#
# _framework density 25.522670000000002
#
# number of rings (size 3 to 8) (size 9 to 14) (size 15 to 20)
#    0.000    1.714    0.000    3.857    0.000   17.143 
#    0.000    2.857    0.000    0.000    0.000    1.000 
#    0.000    0.000    0.000    0.000    0.000    0.000 
#
# Total GULP energy -78362.227258 kJ/mol
# GULP energy per Si atom -5597.301947 kJ/mol
# Density = 2.546458 g / cm^3
# Si number density = 25.522670 Si / 1000 Ang^3
#
#
#
# Elastic Constant Matrix: (Units=GPa)
#
#
# Indices 1 2 3 4 5 6 
#
# 1 105.1527 54.2706 26.5709 -13.5442 2.6913 -2.2256
# 2 54.2706 174.9090 65.9930 -20.8754 2.2897 10.7682
# 3 26.5709 65.9930 151.2286 -33.3857 -15.9358 3.0305
# 4 -13.5442 -20.8754 -33.3857 49.7526 4.1348 -20.0814
# 5 2.6913 2.2897 -15.9358 4.1348 24.8625 -7.6615
# 6 -2.2256 10.7682 3.0305 -20.0814 -7.6615 40.3707
#
#
#
# Elastic Compliance Matrix: (Units=1/GPa)
#
#
# Indices 1 2 3 4 5 6 
#
# 1 0.011760 -0.003462 -0.000016 0.002974 -0.000551 0.002948
# 2 -0.003462 0.008245 -0.003469 -0.000811 -0.003456 -0.003189
# 3 -0.000016 -0.003469 0.010313 0.006848 0.007316 0.004945
# 4 0.002974 -0.000811 0.006848 0.031386 0.003922 0.016223
# 5 -0.000551 -0.003456 0.007316 0.003922 0.048159 0.011433
# 6 0.002948 -0.003189 0.004945 0.016223 0.011433 0.035651
#
#
# Mechanical properties :
#
#
# Convention : Reuss Voigt Hill
#
# Bulk Modulus (GPa) = 60.88710 80.55104 70.71907
# Shear Modulus (GPa) = 30.32423 41.96087 36.14255
#
# Velocity S-wave (km/s) = 3.45066 4.05910 3.76719
# Velocity P-wave (km/s) = 6.30745 7.32103 6.83306
#
# Compressibility (1/GPa) = 0.01642384
#
# Stress axis : x y z
#
# Youngs Moduli (GPa) = 85.03041 121.28313 96.96686
#
# Poissons Ratio (x) = 0.41992 0.00156
# Poissons Ratio (y) = 0.29440 0.33637
# Poissons Ratio (z) = 0.00137 0.42072
#
# Static dielectric constant tensor:
#      x y z
#    x 2.111220 -0.029190 -0.048310 
#    y -0.029190 2.029980 -0.053490 
#    z -0.048310 -0.053490 2.032800 
# 
# From -- ./inp_files/594706.got.cif
#   From: 2010.05.17/outbox.cif.g08.bks.cpg/sg2_298_cif.got.tgz:594706.got - 2010.06.03 11:33:40.
