data_PCOD9037404
_publ_section_title
;
Structure prediction by ZEFSAII (Michael W. Deem and Ramdas Pophale) SiO2 
 PCOD9037404
Probable space group: P -1
;
_chemical_formula_sum "Si O2"
_cell_formula_units_Z 14
_cell_length_a 11.283095
_cell_length_b 8.039051
_cell_length_c 7.501426
_cell_angle_alpha 88.149116
_cell_angle_beta 84.237582
_cell_angle_gamma 118.623612
_cell_volume 591.721240
_symmetry_space_group_name_H-M "P -1"
_symmetry_group_IT_number 2
_symmetry_cell_setting 'triclinic'
loop_
_space_group_symop_operation_xyz
x,y,z
-x,-y,-z
loop_
_atom_site_type_symbol
_atom_site_label
_atom_site_fract_x
_atom_site_fract_y
_atom_site_fract_z
Si Si1 0.159844 0.647094 0.502908
Si Si2 0.254199 0.243248 0.256124
Si Si3 0.731059 0.619770 0.370629
Si Si4 0.199702 0.809936 0.864942
Si Si5 0.407763 0.252797 0.891752
Si Si6 0.720318 0.375177 0.856699
Si Si7 0.022898 0.874624 0.146588
O O1 0.257105 0.561855 0.560215
O O2 0.164379 0.774888 0.663973
O O3 0.222643 0.716903 0.295027
O O4 0.000000 0.500000 0.500000
O O5 0.703266 0.709106 0.548456
O O6 0.207562 0.397645 0.195281
O O7 0.438216 0.699465 0.152406
O O8 0.372135 0.275437 0.099129
O O9 0.631982 0.619190 0.232738
O O10 0.305583 0.032579 0.867059
O O11 0.261159 0.684258 0.946750
O O12 0.073522 0.759043 0.018411
O O13 0.136017 0.028162 0.255106
O O14 0.115581 0.247641 0.725759
O O15 0.000000 0.000000 0.000000
#
# Coordination Sequence:
#
# PCOD9037404 Si02
#       7
#     2   2   2   2   2   2   2
#     4  11  27  43  66  99 131 171 213 267 330 382
#     4  10  23  40  66  96 127 171 214 267 322 375
#     4  11  23  41  67  94 134 167 218 264 319 383
#     4  11  25  42  67  92 135 170 213 271 322 378
#     4  11  24  43  66  98 128 174 221 262 317 382
#     4  11  25  44  67  95 133 171 219 263 320 386
#     4  11  22  41  66  94 128 165 214 266 325 377
#
# _framework density 23.659790000000001
#
# number of rings (size 3 to 8) (size 9 to 14) (size 15 to 20)
#    0.000    1.143    2.857    3.000    4.000    8.571 
#    0.000    0.000    0.000    0.000    0.000    0.000 
#    0.000    0.000    0.000    0.000    0.000    0.000 
#
# Total GULP energy -78333.018457 kJ/mol
# GULP energy per Si atom -5595.215604 kJ/mol
# Density = 2.360594 g / cm^3
# Si number density = 23.659790 Si / 1000 Ang^3
#
#
#
# Elastic Constant Matrix: (Units=GPa)
#
#
# Indices 1 2 3 4 5 6 
#
# 1 113.1469 8.4675 43.8723 15.3312 -6.3241 9.0811
# 2 8.4675 51.3566 19.1055 20.1844 -1.1232 -3.5152
# 3 43.8723 19.1055 129.3846 26.3782 -29.7949 11.3544
# 4 15.3312 20.1844 26.3782 35.3105 -15.2896 7.5521
# 5 -6.3241 -1.1232 -29.7949 -15.2896 37.9621 -3.2889
# 6 9.0811 -3.5152 11.3544 7.5521 -3.2889 29.1980
#
#
#
# Elastic Compliance Matrix: (Units=1/GPa)
#
#
# Indices 1 2 3 4 5 6 
#
# 1 0.010519 0.000599 -0.003442 -0.003036 -0.002270 -0.001331
# 2 0.000599 0.028852 -0.003177 -0.020087 -0.008875 0.008719
# 3 -0.003442 -0.003177 0.011667 -0.001541 0.007645 -0.002589
# 4 -0.003036 -0.020087 -0.001541 0.052657 0.017817 -0.012488
# 5 -0.002270 -0.008875 0.007645 0.017817 0.038565 -0.003600
# 6 -0.001331 0.008719 -0.002589 -0.012488 -0.003600 0.039544
#
#
# Mechanical properties :
#
#
# Convention : Reuss Voigt Hill
#
# Bulk Modulus (GPa) = 25.64281 48.53096 37.08689
# Shear Modulus (GPa) = 24.17259 35.32365 29.74812
#
# Velocity S-wave (km/s) = 3.19983 3.86810 3.54973
# Velocity P-wave (km/s) = 4.95112 6.36445 5.70174
#
# Compressibility (1/GPa) = 0.03899728
#
# Stress axis : x y z
#
# Youngs Moduli (GPa) = 95.06287 34.65937 85.71141
#
# Poissons Ratio (x) = -0.02075 0.29504
# Poissons Ratio (y) = -0.05691 0.27232
# Poissons Ratio (z) = 0.32722 0.11012
#
# Static dielectric constant tensor:
#      x y z
#    x 1.882650 -0.061440 0.003790 
#    y -0.061440 1.923200 0.036010 
#    z 0.003790 0.036010 1.858350 
# 
# From -- ./inp_files/231671.got.cif
#   From: 2010.05.17/outbox.cif.g08.bks.cpg/sg2_116_cif.got.tgz:231671.got - 2010.06.03 11:33:40.
