data_PCOD9037825
_publ_section_title
;
Structure prediction by ZEFSAII (Michael W. Deem and Ramdas Pophale) SiO2 
 PCOD9037825
Probable space group: P -1
;
_chemical_formula_sum "Si O2"
_cell_formula_units_Z 10
_cell_length_a 16.786387
_cell_length_b 13.283610
_cell_length_c 13.236728
_cell_angle_alpha 144.596322
_cell_angle_beta 165.516467
_cell_angle_gamma 31.127688
_cell_volume 379.451963
_symmetry_space_group_name_H-M "P -1"
_symmetry_group_IT_number 2
_symmetry_cell_setting 'triclinic'
loop_
_space_group_symop_operation_xyz
x,y,z
-x,-y,-z
loop_
_atom_site_type_symbol
_atom_site_label
_atom_site_fract_x
_atom_site_fract_y
_atom_site_fract_z
Si Si1 0.407271 0.824748 0.758469
Si Si2 0.236022 0.432543 0.428811
Si Si3 0.705361 0.187972 0.172941
Si Si4 0.307920 0.878176 0.120933
Si Si5 0.339750 0.725230 0.379112
O O1 0.511067 0.745189 0.933814
O O2 0.491694 0.700766 0.658765
O O3 0.967457 0.955433 0.321751
O O4 0.500000 0.000000 0.000000
O O5 0.128523 0.658704 0.501190
O O6 0.586801 0.301794 0.821490
O O7 0.361148 0.374696 0.419944
O O8 0.944473 0.361395 0.043150
O O9 0.550823 0.197435 0.879918
O O10 0.500000 0.000000 0.500000
O O11 0.890740 0.039894 0.732287
#
# Coordination Sequence:
#
# PCOD9037825 Si02
#       5
#     2   2   2   2   2
#     4  10  24  42  65  87 128 172 211 258 311 379
#     4  11  23  42  65  99 127 161 210 263 311 373
#     4  10  23  41  63  95 124 167 212 261 313 369
#     4   9  20  42  66  92 128 168 205 256 316 380
#     4  10  24  41  67  92 130 168 206 254 319 371
#
# _framework density 26.353798999999999
#
# number of rings (size 3 to 8) (size 9 to 14) (size 15 to 20)
#    0.000    2.000    0.000    1.200   14.000    1.600 
#    3.600    5.000    0.000    0.000    0.000    0.000 
#    0.000    0.000    0.000    0.000    0.000    0.000 
#
# Total GULP energy -55956.229674 kJ/mol
# GULP energy per Si atom -5595.622967 kJ/mol
# Density = 2.629382 g / cm^3
# Si number density = 26.353799 Si / 1000 Ang^3
#
#
#
# Elastic Constant Matrix: (Units=GPa)
#
#
# Indices 1 2 3 4 5 6 
#
# 1 236.8343 43.7162 46.2993 10.4193 -30.9834 -18.1753
# 2 43.7162 144.5391 10.5263 -2.6166 -13.2884 -4.3631
# 3 46.2993 10.5263 67.7971 19.4078 -17.3577 -4.3304
# 4 10.4193 -2.6166 19.4078 39.5291 -2.0023 1.6381
# 5 -30.9834 -13.2884 -17.3577 -2.0023 59.1584 2.7337
# 6 -18.1753 -4.3631 -4.3304 1.6381 2.7337 26.6102
#
#
#
# Elastic Compliance Matrix: (Units=1/GPa)
#
#
# Indices 1 2 3 4 5 6 
#
# 1 0.005449 -0.001205 -0.002904 -0.000129 0.001593 0.002896
# 2 -0.001205 0.007422 -0.000369 0.001031 0.000955 0.000172
# 3 -0.002904 -0.000369 0.020555 -0.009206 0.004048 0.001452
# 4 -0.000129 0.001031 -0.009206 0.029980 -0.001378 -0.003121
# 5 0.001593 0.000955 0.004048 -0.001378 0.019092 0.000027
# 6 0.002896 0.000172 0.001452 -0.003121 0.000027 0.040011
#
#
# Mechanical properties :
#
#
# Convention : Reuss Voigt Hill
#
# Bulk Modulus (GPa) = 40.86866 72.25046 56.55956
# Shear Modulus (GPa) = 35.81106 48.30148 42.05627
#
# Velocity S-wave (km/s) = 3.69027 4.28578 3.99912
# Velocity P-wave (km/s) = 5.80507 7.20872 6.54463
#
# Compressibility (1/GPa) = 0.02446863
#
# Stress axis : x y z
#
# Youngs Moduli (GPa) = 183.52584 134.74339 48.64980
#
# Poissons Ratio (x) = 0.16237 0.14129
# Poissons Ratio (y) = 0.22115 0.01796
# Poissons Ratio (z) = 0.53299 0.04975
#
# Static dielectric constant tensor:
#      x y z
#    x 2.038980 -0.066740 0.099950 
#    y -0.066740 2.193230 -0.165380 
#    z 0.099950 -0.165380 2.206210 
# 
# From -- ./inp_files/16322.got.cif
#   From: 2010.05.17/outbox.cif.g08.bks.cpg/sg2_9_cif.got.tgz:16322.got - 2010.06.03 11:33:40.
