data_PCOD9037084
_publ_section_title
;
Structure prediction by ZEFSAII (Michael W. Deem and Ramdas Pophale) SiO2 
 PCOD9037084
Probable space group: P -1
;
_chemical_formula_sum "Si O2"
_cell_formula_units_Z 16
_cell_length_a 11.540278
_cell_length_b 16.229208
_cell_length_c 5.313786
_cell_angle_alpha 61.762667
_cell_angle_beta 61.081308
_cell_angle_gamma 83.845898
_cell_volume 757.853356
_symmetry_space_group_name_H-M "P -1"
_symmetry_group_IT_number 2
_symmetry_cell_setting 'triclinic'
loop_
_space_group_symop_operation_xyz
x,y,z
-x,-y,-z
loop_
_atom_site_type_symbol
_atom_site_label
_atom_site_fract_x
_atom_site_fract_y
_atom_site_fract_z
Si Si1 0.392675 0.203935 0.094883
Si Si2 0.800399 0.075918 0.632298
Si Si3 0.360065 0.988692 0.525610
Si Si4 0.066739 0.072956 0.034518
Si Si5 0.293153 0.791903 0.150456
Si Si6 0.081733 0.400069 0.828745
Si Si7 0.737646 0.740607 0.367807
Si Si8 0.089412 0.617907 0.470568
O O1 0.349955 0.269876 0.269364
O O2 0.326818 0.095356 0.390916
O O3 0.553647 0.210944 0.934393
O O4 0.342439 0.224074 0.838314
O O5 0.657409 0.043411 0.697686
O O6 0.795297 0.183148 0.559359
O O7 0.938049 0.079239 0.331602
O O8 0.817246 0.983820 0.910874
O O9 0.500000 0.000000 0.500000
O O10 0.284376 0.890593 0.869293
O O11 0.137424 0.180698 0.786843
O O12 0.000000 0.000000 0.000000
O O13 0.217998 0.698878 0.235004
O O14 0.201066 0.346901 0.685822
O O15 0.974809 0.383272 0.736778
O O16 0.124683 0.513472 0.636734
O O17 0.016225 0.367128 0.216061
#
# Coordination Sequence:
#
# PCOD9037084 Si02
#       8
#     2   2   2   2   2   2   2   2
#     4  11  26  42  62  92 132 176 218 257 307 391
#     4  11  22  38  60  88 122 166 215 264 320 370
#     4  10  23  40  58  89 131 178 215 263 306 380
#     4  11  24  37  57  89 127 163 214 268 316 385
#     4  11  25  39  65  91 127 170 221 265 316 378
#     4  10  23  44  72  95 131 160 209 270 339 380
#     4  12  24  43  63  90 130 175 210 260 332 377
#     4  10  23  44  69 103 122 162 212 273 324 392
#
# _framework density 21.112264
#
# number of rings (size 3 to 8) (size 9 to 14) (size 15 to 20)
#    0.000    1.250    1.250    3.750   10.500    1.000 
#    0.000    1.250    0.000    0.000    0.000    0.000 
#    0.000    0.000    0.000    0.000    0.000    0.000 
#
# Total GULP energy -89083.587294 kJ/mol
# GULP energy per Si atom -5567.724206 kJ/mol
# Density = 2.106421 g / cm^3
# Si number density = 21.112264 Si / 1000 Ang^3
#
#
#
# Elastic Constant Matrix: (Units=GPa)
#
#
# Indices 1 2 3 4 5 6 
#
# 1 68.4024 23.8253 4.8367 -12.4194 -3.7502 5.0819
# 2 23.8253 131.8170 18.4335 -1.3480 -21.9478 -4.7704
# 3 4.8367 18.4335 44.4619 -6.7744 -14.5430 3.0041
# 4 -12.4194 -1.3480 -6.7744 29.7630 7.8039 -3.3422
# 5 -3.7502 -21.9478 -14.5430 7.8039 18.9537 -1.6346
# 6 5.0819 -4.7704 3.0041 -3.3422 -1.6346 26.8654
#
#
#
# Elastic Compliance Matrix: (Units=1/GPa)
#
#
# Indices 1 2 3 4 5 6 
#
# 1 0.017443 -0.003966 -0.000477 0.007951 -0.005063 -0.003269
# 2 -0.003966 0.010637 -0.000535 -0.004424 0.013198 0.002951
# 3 -0.000477 -0.000535 0.030199 0.000657 0.022018 -0.001960
# 4 0.007951 -0.004424 0.000657 0.042391 -0.020355 0.001672
# 5 -0.005063 0.013198 0.022018 -0.020355 0.092657 0.003944
# 6 -0.003269 0.002951 -0.001960 0.001672 0.003944 0.039032
#
#
# Mechanical properties :
#
#
# Convention : Reuss Voigt Hill
#
# Bulk Modulus (GPa) = 20.69382 37.65247 29.17315
# Shear Modulus (GPa) = 19.34810 28.28880 23.81845
#
# Velocity S-wave (km/s) = 3.03056 3.66447 3.36248
# Velocity P-wave (km/s) = 4.69774 5.98143 5.37803
#
# Compressibility (1/GPa) = 0.04832359
#
# Stress axis : x y z
#
# Youngs Moduli (GPa) = 57.32813 94.01106 33.11337
#
# Poissons Ratio (x) = 0.37286 0.01579
# Poissons Ratio (y) = 0.22737 0.01772
# Poissons Ratio (z) = 0.02734 0.05031
#
# Static dielectric constant tensor:
#      x y z
#    x 1.668320 -0.146540 -0.066040 
#    y -0.146540 1.346230 -0.589470 
#    z -0.066040 -0.589470 0.351080 
# 
# From -- ./inp_files/77113.got.cif
#   From: 2010.05.17/outbox.cif.g08.bks.cpg/sg2_39_cif.got.tgz:77113.got - 2010.06.03 11:33:40.
