data_PCOD9037173
_publ_section_title
;
Structure prediction by ZEFSAII (Michael W. Deem and Ramdas Pophale) SiO2 
 PCOD9037173
Probable space group: P -1
;
_chemical_formula_sum "Si O2"
_cell_formula_units_Z 14
_cell_length_a 16.353544
_cell_length_b 5.631200
_cell_length_c 6.866907
_cell_angle_alpha 103.507248
_cell_angle_beta 83.066730
_cell_angle_gamma 117.775759
_cell_volume 543.983117
_symmetry_space_group_name_H-M "P -1"
_symmetry_group_IT_number 2
_symmetry_cell_setting 'triclinic'
loop_
_space_group_symop_operation_xyz
x,y,z
-x,-y,-z
loop_
_atom_site_type_symbol
_atom_site_label
_atom_site_fract_x
_atom_site_fract_y
_atom_site_fract_z
Si Si1 0.615224 0.507201 0.351937
Si Si2 0.058873 0.287406 0.298823
Si Si3 0.779840 0.419291 0.196171
Si Si4 0.427153 0.076623 0.298793
Si Si5 0.658221 0.836083 0.027883
Si Si6 0.260651 0.508831 0.230157
Si Si7 0.003764 0.306145 0.740282
O O1 0.717890 0.538806 0.344034
O O2 0.535594 0.194933 0.333584
O O3 0.597867 0.708228 0.538527
O O4 0.605741 0.598595 0.152268
O O5 0.166837 0.457500 0.354196
O O6 0.993649 0.239561 0.496855
O O7 0.033245 0.467010 0.188986
O O8 0.045518 0.984498 0.191322
O O9 0.887558 0.562464 0.228366
O O10 0.729060 0.094195 0.181096
O O11 0.762483 0.442940 0.976130
O O12 0.354415 0.769630 0.315667
O O13 0.408324 0.099517 0.079662
O O14 0.718329 0.748166 0.848427
#
# Coordination Sequence:
#
# PCOD9037173 Si02
#       7
#     2   2   2   2   2   2   2
#     4  10  23  41  65  96 130 174 224 275 338 404
#     4  10  24  42  67  98 131 175 226 281 343 406
#     4  10  24  41  63  94 131 172 221 276 337 401
#     4  10  23  41  65  96 130 174 224 275 338 404
#     4  10  23  40  62  96 132 178 214 278 335 402
#     4  10  24  41  63  94 131 172 221 276 337 401
#     4  10  24  42  67  98 131 175 226 281 343 406
#
# _framework density 25.736094000000001
#
# number of rings (size 3 to 8) (size 9 to 14) (size 15 to 20)
#    0.000    2.000    0.000    0.429   12.000    8.571 
#    0.000    2.857    0.000    0.000    0.000    0.000 
#    0.000    0.000    0.000    0.000    0.000    0.000 
#
# Total GULP energy -78360.211574 kJ/mol
# GULP energy per Si atom -5597.157970 kJ/mol
# Density = 2.567752 g / cm^3
# Si number density = 25.736094 Si / 1000 Ang^3
#
#
#
# Elastic Constant Matrix: (Units=GPa)
#
#
# Indices 1 2 3 4 5 6 
#
# 1 135.0886 45.2053 19.4730 6.8065 22.0218 8.6056
# 2 45.2053 113.3849 -0.0955 12.8787 3.6416 -4.8339
# 3 19.4730 -0.0955 66.4633 0.3760 -12.6043 -5.1476
# 4 6.8065 12.8787 0.3760 43.9873 -6.1026 1.4459
# 5 22.0218 3.6416 -12.6043 -6.1026 36.5820 0.6323
# 6 8.6056 -4.8339 -5.1476 1.4459 0.6323 37.0262
#
#
#
# Elastic Compliance Matrix: (Units=1/GPa)
#
#
# Indices 1 2 3 4 5 6 
#
# 1 0.011204 -0.004192 -0.005135 -0.001491 -0.008282 -0.003666
# 2 -0.004192 0.010829 0.001772 -0.002402 0.001609 0.002701
# 3 -0.005135 0.001772 0.018640 0.001308 0.009490 0.003803
# 4 -0.001491 -0.002402 0.001308 0.024473 0.005684 -0.000838
# 5 -0.008282 0.001609 0.009490 0.005684 0.036334 0.002612
# 6 -0.003666 0.002701 0.003803 -0.000838 0.002612 0.028729
#
#
# Mechanical properties :
#
#
# Convention : Reuss Voigt Hill
#
# Bulk Modulus (GPa) = 39.12080 49.34471 44.23275
# Shear Modulus (GPa) = 32.50109 40.20938 36.35524
#
# Velocity S-wave (km/s) = 3.55753 3.95697 3.76256
# Velocity P-wave (km/s) = 5.66643 6.33181 6.00834
#
# Compressibility (1/GPa) = 0.02556185
#
# Stress axis : x y z
#
# Youngs Moduli (GPa) = 89.25048 92.34624 53.64899
#
# Poissons Ratio (x) = 0.38715 0.27548
# Poissons Ratio (y) = 0.37417 -0.09505
# Poissons Ratio (z) = 0.45829 -0.16361
#
# Static dielectric constant tensor:
#      x y z
#    x 1.953910 -0.026440 -0.004390 
#    y -0.026440 2.030000 -0.024750 
#    z -0.004390 -0.024750 2.078810 
# 
# From -- ./inp_files/288122.got.cif
#   From: 2010.05.17/outbox.cif.g08.bks.cpg/sg2_145_cif.got.tgz:288122.got - 2010.06.03 11:33:40.
