data_PCOD9037483
_publ_section_title
;
Structure prediction by ZEFSAII (Michael W. Deem and Ramdas Pophale) SiO2 
 PCOD9037483
Probable space group: P -1
;
_chemical_formula_sum "Si O2"
_cell_formula_units_Z 16
_cell_length_a 5.091909
_cell_length_b 21.109072
_cell_length_c 12.125078
_cell_angle_alpha 36.218206
_cell_angle_beta 114.992365
_cell_angle_gamma 115.119053
_cell_volume 689.383046
_symmetry_space_group_name_H-M "P -1"
_symmetry_group_IT_number 2
_symmetry_cell_setting 'triclinic'
loop_
_space_group_symop_operation_xyz
x,y,z
-x,-y,-z
loop_
_atom_site_type_symbol
_atom_site_label
_atom_site_fract_x
_atom_site_fract_y
_atom_site_fract_z
Si Si1 0.744428 0.604788 0.008001
Si Si2 0.885080 0.241080 0.990126
Si Si3 0.545523 0.299724 0.637574
Si Si4 0.055174 0.003730 0.324177
Si Si5 0.828391 0.317592 0.223217
Si Si6 0.976617 0.380092 0.403890
Si Si7 0.778307 0.938005 0.136168
Si Si8 0.338866 0.866077 0.696395
O O1 0.834351 0.682032 0.020747
O O2 0.872831 0.495524 0.206790
O O3 0.902891 0.655830 0.852265
O O4 0.395284 0.595095 0.947954
O O5 0.738080 0.290888 0.792510
O O6 0.686155 0.225108 0.086002
O O7 0.931396 0.117016 0.150436
O O8 0.765253 0.320940 0.543780
O O9 0.337178 0.184327 0.748086
O O10 0.319045 0.385199 0.486688
O O11 0.405332 0.045030 0.333577
O O12 0.044506 0.918542 0.543368
O O13 0.928347 0.946843 0.270499
O O14 0.932198 0.319108 0.364471
O O15 0.640254 0.201951 0.316357
O O16 0.500000 0.000000 0.000000
O O17 0.000000 0.000000 0.000000
#
# Coordination Sequence:
#
# PCOD9037483 Si02
#       8
#     2   2   2   2   2   2   2   2
#     4  11  24  43  74  98 133 179 223 283 339 392
#     4  11  24  43  66  94 137 176 226 270 342 396
#     4  12  27  44  69  98 139 180 223 277 330 407
#     4  11  22  42  66  98 132 174 223 278 331 402
#     4  11  22  44  70 100 137 173 223 281 341 398
#     4  12  26  45  68 103 135 176 230 277 335 397
#     4  12  25  44  69  97 134 181 220 263 335 405
#     4  10  23  40  67  98 132 171 225 281 333 397
#
# _framework density 23.209157999999999
#
# number of rings (size 3 to 8) (size 9 to 14) (size 15 to 20)
#    0.000    0.750    2.500    4.875    1.750    2.000 
#    2.250    0.000    0.000    0.000    0.000    0.000 
#    0.000    0.000    0.000    0.000    0.000    0.000 
#
# Total GULP energy -89421.366445 kJ/mol
# GULP energy per Si atom -5588.835403 kJ/mol
# Density = 2.315633 g / cm^3
# Si number density = 23.209158 Si / 1000 Ang^3
#
#
#
# Elastic Constant Matrix: (Units=GPa)
#
#
# Indices 1 2 3 4 5 6 
#
# 1 95.0526 11.9509 34.5705 22.5825 8.3821 -10.8811
# 2 11.9509 72.4663 28.6299 22.0491 -4.0085 -2.3440
# 3 34.5705 28.6299 113.0151 35.3271 11.1501 -7.1103
# 4 22.5825 22.0491 35.3271 44.9244 -2.3831 8.4979
# 5 8.3821 -4.0085 11.1501 -2.3831 48.5457 -2.0892
# 6 -10.8811 -2.3440 -7.1103 8.4979 -2.0892 26.1228
#
#
#
# Elastic Compliance Matrix: (Units=1/GPa)
#
#
# Indices 1 2 3 4 5 6 
#
# 1 0.013865 0.000773 -0.001231 -0.007994 -0.002098 0.007942
# 2 0.000773 0.017069 -0.002000 -0.007867 0.001521 0.003990
# 3 -0.001231 -0.002000 0.013762 -0.010577 -0.003365 0.006225
# 4 -0.007994 -0.007867 -0.010577 0.042549 0.004370 -0.020407
# 5 -0.002098 0.001521 -0.003365 0.004370 0.022018 -0.001314
# 6 0.007942 0.003990 0.006225 -0.020407 -0.001314 0.050175
#
#
# Mechanical properties :
#
#
# Convention : Reuss Voigt Hill
#
# Bulk Modulus (GPa) = 25.13934 47.87074 36.50504
# Shear Modulus (GPa) = 28.15106 37.61075 32.88090
#
# Velocity S-wave (km/s) = 3.48649 4.02993 3.76802
# Velocity P-wave (km/s) = 5.20218 6.50571 5.89012
#
# Compressibility (1/GPa) = 0.03977829
#
# Stress axis : x y z
#
# Youngs Moduli (GPa) = 72.12644 58.58462 72.66585
#
# Poissons Ratio (x) = -0.04530 0.08948
# Poissons Ratio (y) = -0.05577 0.14536
# Poissons Ratio (z) = 0.08882 0.11719
#
# Static dielectric constant tensor:
#      x y z
#    x 1.912260 -0.017390 -0.001400 
#    y -0.017390 1.897780 -0.094210 
#    z -0.001400 -0.094210 1.930580 
# 
# From -- ./inp_files/370054.got.cif
#   From: 2010.05.17/outbox.cif.g08.bks.cpg/sg2_186_cif.got.tgz:370054.got - 2010.06.03 11:33:40.
