data_PCOD9037374
_publ_section_title
;
Structure prediction by ZEFSAII (Michael W. Deem and Ramdas Pophale) SiO2 
 PCOD9037374
Probable space group: P -1
;
_chemical_formula_sum "Si O2"
_cell_formula_units_Z 16
_cell_length_a 11.553219
_cell_length_b 6.089230
_cell_length_c 10.636580
_cell_angle_alpha 109.966521
_cell_angle_beta 101.780787
_cell_angle_gamma 75.235198
_cell_volume 674.412033
_symmetry_space_group_name_H-M "P -1"
_symmetry_group_IT_number 2
_symmetry_cell_setting 'triclinic'
loop_
_space_group_symop_operation_xyz
x,y,z
-x,-y,-z
loop_
_atom_site_type_symbol
_atom_site_label
_atom_site_fract_x
_atom_site_fract_y
_atom_site_fract_z
Si Si1 0.461509 0.738584 0.805207
Si Si2 0.127629 0.187239 0.186682
Si Si3 0.030073 0.930847 0.347233
Si Si4 0.590572 0.100305 0.452527
Si Si5 0.258109 0.549119 0.399898
Si Si6 0.713871 0.584549 0.333980
Si Si7 0.890547 0.556053 0.149317
Si Si8 0.705001 0.852417 0.991319
O O1 0.465521 0.810304 0.674936
O O2 0.408673 0.496517 0.753451
O O3 0.590753 0.749601 0.893902
O O4 0.359294 0.942166 0.887806
O O5 0.234646 0.306404 0.291061
O O6 0.208461 0.038094 0.065611
O O7 0.013745 0.359369 0.126090
O O8 0.067439 0.098813 0.280191
O O9 0.147887 0.728522 0.350433
O O10 0.928543 0.804941 0.242651
O O11 0.000000 0.000000 0.500000
O O12 0.630756 0.322886 0.571658
O O13 0.500000 0.000000 0.500000
O O14 0.695615 0.869845 0.402600
O O15 0.251540 0.531638 0.545616
O O16 0.817186 0.491342 0.239695
O O17 0.795677 0.628579 0.030743
#
# Coordination Sequence:
#
# PCOD9037374 Si02
#       8
#     2   2   2   2   2   2   2   2
#     4  10  26  47  69 101 135 192 226 289 344 406
#     4  11  25  43  71 103 140 186 224 287 346 408
#     4  11  23  41  68 101 138 177 229 284 351 405
#     4  11  24  41  72 104 135 177 231 289 349 405
#     4  10  23  40  66 104 136 171 220 289 348 410
#     4  11  23  44  73 100 139 177 229 289 356 405
#     4  11  24  44  68 102 134 186 233 282 343 411
#     4  11  25  49  66  97 147 178 246 275 332 421
#
# _framework density 23.724368999999999
#
# number of rings (size 3 to 8) (size 9 to 14) (size 15 to 20)
#    0.000    1.250    1.250    3.375    8.750    4.000 
#    4.500    0.000    0.000    0.000    0.000    0.000 
#    0.000    0.000    0.000    0.000    0.000    0.000 
#
# Total GULP energy -89367.993094 kJ/mol
# GULP energy per Si atom -5585.499568 kJ/mol
# Density = 2.367037 g / cm^3
# Si number density = 23.724369 Si / 1000 Ang^3
#
#
#
# Elastic Constant Matrix: (Units=GPa)
#
#
# Indices 1 2 3 4 5 6 
#
# 1 149.1565 32.1405 46.7549 -0.4244 -10.8219 6.8747
# 2 32.1405 59.6432 9.3547 -6.0501 3.8259 11.5925
# 3 46.7549 9.3547 38.2739 0.6627 7.3229 -5.0017
# 4 -0.4244 -6.0501 0.6627 17.9091 -2.7250 5.6540
# 5 -10.8219 3.8259 7.3229 -2.7250 49.2340 -1.8514
# 6 6.8747 11.5925 -5.0017 5.6540 -1.8514 32.9682
#
#
#
# Elastic Compliance Matrix: (Units=1/GPa)
#
#
# Indices 1 2 3 4 5 6 
#
# 1 0.013615 -0.004035 -0.017317 0.001757 0.005828 -0.004022
# 2 -0.004035 0.022037 -0.001378 0.009888 -0.002183 -0.008935
# 3 -0.017317 -0.001378 0.051608 -0.008541 -0.011368 0.012752
# 4 0.001757 0.009888 -0.008541 0.065212 0.003892 -0.016104
# 5 0.005828 -0.002183 -0.011368 0.003892 0.023611 -0.001514
# 6 -0.004022 -0.008935 0.012752 -0.016104 -0.001514 0.038924
#
#
# Mechanical properties :
#
#
# Convention : Reuss Voigt Hill
#
# Bulk Modulus (GPa) = 23.92377 47.06374 35.49376
# Shear Modulus (GPa) = 18.22153 30.61051 24.41602
#
# Velocity S-wave (km/s) = 2.77438 3.59591 3.21152
# Velocity P-wave (km/s) = 4.51319 6.09275 5.36146
#
# Compressibility (1/GPa) = 0.04179943
#
# Stress axis : x y z
#
# Youngs Moduli (GPa) = 73.44723 45.37920 19.37685
#
# Poissons Ratio (x) = 0.18310 0.33555
# Poissons Ratio (y) = 0.29635 0.02671
# Poissons Ratio (z) = 1.27189 0.06255
#
# Static dielectric constant tensor:
#      x y z
#    x 1.956000 0.010200 -0.015530 
#    y 0.010200 1.940720 0.041750 
#    z -0.015530 0.041750 1.973080 
# 
# From -- ./inp_files/409481.got.cif
#   From: 2010.05.17/outbox.cif.g08.bks.cpg/sg2_205_cif.got.tgz:409481.got - 2010.06.03 11:33:40.
