data_PCOD9037239
_publ_section_title
;
Structure prediction by ZEFSAII (Michael W. Deem and Ramdas Pophale) SiO2 
 PCOD9037239
Probable space group: P -1
;
_chemical_formula_sum "Si O2"
_cell_formula_units_Z 14
_cell_length_a 20.159234
_cell_length_b 5.334741
_cell_length_c 16.557393
_cell_angle_alpha 97.575174
_cell_angle_beta 21.655436
_cell_angle_gamma 97.581328
_cell_volume 651.153396
_symmetry_space_group_name_H-M "P -1"
_symmetry_group_IT_number 2
_symmetry_cell_setting 'triclinic'
loop_
_space_group_symop_operation_xyz
x,y,z
-x,-y,-z
loop_
_atom_site_type_symbol
_atom_site_label
_atom_site_fract_x
_atom_site_fract_y
_atom_site_fract_z
Si Si1 0.171155 0.507911 0.700033
Si Si2 0.152296 0.208242 0.858514
Si Si3 0.145251 0.117214 0.586711
Si Si4 0.227347 0.129736 0.941178
Si Si5 0.062910 0.987984 0.336723
Si Si6 0.254147 0.479244 0.061737
Si Si7 0.443912 0.840764 0.329882
O O1 0.238175 0.314227 0.683839
O O2 0.164030 0.394755 0.614042
O O3 0.309201 0.741846 0.547887
O O4 0.970331 0.572520 0.955234
O O5 0.268564 0.126134 0.799737
O O6 0.000000 0.000000 0.000000
O O7 0.099275 0.086568 0.544072
O O8 0.324535 0.984291 0.407476
O O9 0.967755 0.998427 0.827971
O O10 0.387545 0.019014 0.810043
O O11 0.215621 0.408108 0.008038
O O12 0.200594 0.757544 0.159215
O O13 0.143950 0.259950 0.227109
O O14 0.000000 0.000000 0.500000
O O15 0.460386 0.397846 0.830740
#
# Coordination Sequence:
#
# PCOD9037239 Si02
#       7
#     2   2   2   2   2   2   2
#     4  11  22  35  66  88 128 174 227 266 335 385
#     4  11  20  38  58  93 125 173 223 279 320 388
#     4  11  22  42  67  90 132 176 214 271 340 397
#     4   9  20  40  64  87 136 170 222 263 332 388
#     4  11  23  44  73 101 132 175 219 272 339 404
#     4   9  23  42  68  98 136 169 223 268 330 403
#     4  10  23  40  64 100 125 177 225 266 331 399
#
# _framework density 21.500308
#
# number of rings (size 3 to 8) (size 9 to 14) (size 15 to 20)
#    0.857    0.857    2.857    1.286    4.000    0.571 
#    0.000    4.286    0.000    0.000    0.000    0.000 
#    0.000    0.000    0.000    0.000    0.000    0.000 
#
# Total GULP energy -78043.955673 kJ/mol
# GULP energy per Si atom -5574.568262 kJ/mol
# Density = 2.145137 g / cm^3
# Si number density = 21.500308 Si / 1000 Ang^3
#
#
#
# Elastic Constant Matrix: (Units=GPa)
#
#
# Indices 1 2 3 4 5 6 
#
# 1 150.7995 14.7945 38.1242 4.6354 0.2080 -5.0485
# 2 14.7945 64.2402 8.5719 8.0965 -4.4157 -1.8065
# 3 38.1242 8.5719 66.1490 9.4407 -25.7631 -3.9063
# 4 4.6354 8.0965 9.4407 27.9451 -11.7129 -2.8780
# 5 0.2080 -4.4157 -25.7631 -11.7129 37.9351 5.0641
# 6 -5.0485 -1.8065 -3.9063 -2.8780 5.0641 23.7019
#
#
#
# Elastic Compliance Matrix: (Units=1/GPa)
#
#
# Indices 1 2 3 4 5 6 
#
# 1 0.008483 -0.001290 -0.006484 -0.000798 -0.005064 0.001625
# 2 -0.001290 0.016513 -0.000744 -0.004258 0.000066 0.000330
# 3 -0.006484 -0.000744 0.025735 -0.000165 0.017503 -0.000956
# 4 -0.000798 -0.004258 -0.000165 0.042556 0.012266 0.002025
# 5 -0.005064 0.000066 0.017503 0.012266 0.042852 -0.005855
# 6 0.001625 0.000330 -0.000956 0.002025 -0.005855 0.043901
#
#
# Mechanical properties :
#
#
# Convention : Reuss Voigt Hill
#
# Bulk Modulus (GPa) = 29.67777 44.90774 37.29276
# Shear Modulus (GPa) = 24.00287 32.56296 28.28292
#
# Velocity S-wave (km/s) = 3.34488 3.89592 3.63087
# Velocity P-wave (km/s) = 5.36199 6.41639 5.91274
#
# Compressibility (1/GPa) = 0.03369525
#
# Stress axis : x y z
#
# Youngs Moduli (GPa) = 117.88108 60.55705 38.85768
#
# Poissons Ratio (x) = 0.07813 0.25196
# Poissons Ratio (y) = 0.15210 0.02889
# Poissons Ratio (z) = 0.76437 0.04503
#
# Static dielectric constant tensor:
#      x y z
#    x 1.808360 -0.037430 -0.015230 
#    y -0.037430 1.877860 0.029090 
#    z -0.015230 0.029090 1.828190 
# 
# From -- ./inp_files/576801.got.cif
#   From: 2010.05.17/outbox.cif.g08.bks.cpg/sg2_289_cif.got.tgz:576801.got - 2010.06.03 11:33:40.
