data_PCOD9037332
_publ_section_title
;
Structure prediction by ZEFSAII (Michael W. Deem and Ramdas Pophale) SiO2 
 PCOD9037332
Probable space group: P -1
;
_chemical_formula_sum "Si O2"
_cell_formula_units_Z 14
_cell_length_a 10.404419
_cell_length_b 5.095060
_cell_length_c 27.901050
_cell_angle_alpha 117.852616
_cell_angle_beta 26.634617
_cell_angle_gamma 121.282372
_cell_volume 566.649263
_symmetry_space_group_name_H-M "P -1"
_symmetry_group_IT_number 2
_symmetry_cell_setting 'triclinic'
loop_
_space_group_symop_operation_xyz
x,y,z
-x,-y,-z
loop_
_atom_site_type_symbol
_atom_site_label
_atom_site_fract_x
_atom_site_fract_y
_atom_site_fract_z
Si Si1 0.283391 0.985088 0.434846
Si Si2 0.619457 0.315711 0.819079
Si Si3 0.296819 0.676853 0.890174
Si Si4 0.545959 0.424149 0.532932
Si Si5 0.066268 0.928711 0.612309
Si Si6 0.796843 0.713703 0.207021
Si Si7 0.171022 0.403713 0.125424
O O1 0.182036 0.940506 0.520040
O O2 0.498359 0.327262 0.394017
O O3 0.481339 0.764402 0.333579
O O4 0.000000 0.000000 0.500000
O O5 0.342795 0.043809 0.907022
O O6 0.801262 0.086988 0.716450
O O7 0.544460 0.557117 0.827551
O O8 0.781306 0.498316 0.826414
O O9 0.273973 0.537599 0.832816
O O10 0.000000 0.500000 0.000000
O O11 0.500000 0.500000 0.500000
O O12 0.886651 0.404847 0.420626
O O13 0.287411 0.113145 0.596364
O O14 0.005581 0.040618 0.146940
O O15 0.975856 0.592723 0.178313
O O16 0.500000 0.500000 0.000000
#
# Coordination Sequence:
#
# PCOD9037332 Si02
#       7
#     2   2   2   2   2   2   2
#     4  11  25  41  63  97 143 179 222 275 335 416
#     4  12  26  43  77 102 136 186 239 277 348 423
#     4  12  26  49  71 102 140 183 231 292 352 417
#     4   9  21  39  63  87 135 170 224 271 328 386
#     4  10  23  40  65  95 132 178 224 274 328 406
#     4  12  27  45  74 106 144 186 229 288 366 409
#     4  12  26  49  75 107 138 178 241 305 350 407
#
# _framework density 24.706643
#
# number of rings (size 3 to 8) (size 9 to 14) (size 15 to 20)
#    0.000    0.857    0.000    6.000   14.000    0.571 
#    0.000    0.000    0.000    0.000    0.000    0.000 
#    0.000    0.000    0.000    0.000    0.000    0.000 
#
# Total GULP energy -78226.085246 kJ/mol
# GULP energy per Si atom -5587.577518 kJ/mol
# Density = 2.465041 g / cm^3
# Si number density = 24.706643 Si / 1000 Ang^3
#
#
#
# Elastic Constant Matrix: (Units=GPa)
#
#
# Indices 1 2 3 4 5 6 
#
# 1 148.3110 25.0673 41.4900 9.3091 -21.6016 5.6395
# 2 25.0673 90.6550 -30.6581 -3.3692 -4.6985 4.9239
# 3 41.4900 -30.6581 91.6853 7.5469 -11.9203 3.6291
# 4 9.3091 -3.3692 7.5469 32.3863 -0.2508 1.0662
# 5 -21.6016 -4.6985 -11.9203 -0.2508 36.6769 10.9005
# 6 5.6395 4.9239 3.6291 1.0662 10.9005 51.1850
#
#
#
# Elastic Compliance Matrix: (Units=1/GPa)
#
#
# Indices 1 2 3 4 5 6 
#
# 1 0.009564 -0.004165 -0.005029 -0.001947 0.003766 -0.001058
# 2 -0.004165 0.014878 0.007154 0.001163 0.002383 -0.002011
# 3 -0.005029 0.007154 0.016282 -0.001506 0.003853 -0.002078
# 4 -0.001947 0.001163 -0.001506 0.031906 -0.001210 -0.000197
# 5 0.003766 0.002383 0.003853 -0.001210 0.033413 -0.008008
# 6 -0.001058 -0.002011 -0.002078 -0.000197 -0.008008 0.021704
#
#
# Mechanical properties :
#
#
# Convention : Reuss Voigt Hill
#
# Bulk Modulus (GPa) = 27.29065 44.71662 36.00364
# Shear Modulus (GPa) = 34.71199 43.69976 39.20587
#
# Velocity S-wave (km/s) = 3.75235 4.21021 3.98786
# Velocity P-wave (km/s) = 5.46291 6.46319 5.98399
#
# Compressibility (1/GPa) = 0.03664258
#
# Stress axis : x y z
#
# Youngs Moduli (GPa) = 104.55380 67.21437 61.41769
#
# Poissons Ratio (x) = 0.27996 0.30888
# Poissons Ratio (y) = 0.43548 -0.43935
# Poissons Ratio (z) = 0.52582 -0.48082
#
# Static dielectric constant tensor:
#      x y z
#    x 1.928340 -0.051410 -0.036340 
#    y -0.051410 2.118280 -0.101640 
#    z -0.036340 -0.101640 2.167570 
# 
# From -- ./inp_files/616372.got.cif
#   From: 2010.05.17/outbox.cif.g08.bks.cpg/sg2_309_cif.got.tgz:616372.got - 2010.06.03 11:33:40.
