data_PCOD9037796
_publ_section_title
;
Structure prediction by ZEFSAII (Michael W. Deem and Ramdas Pophale) SiO2 
 PCOD9037796
Probable space group: P -1
;
_chemical_formula_sum "Si O2"
_cell_formula_units_Z 16
_cell_length_a 13.971823
_cell_length_b 14.711782
_cell_length_c 17.188850
_cell_angle_alpha 40.626678
_cell_angle_beta 24.504394
_cell_angle_gamma 56.510328
_cell_volume 818.470994
_symmetry_space_group_name_H-M "P -1"
_symmetry_group_IT_number 2
_symmetry_cell_setting 'triclinic'
loop_
_space_group_symop_operation_xyz
x,y,z
-x,-y,-z
loop_
_atom_site_type_symbol
_atom_site_label
_atom_site_fract_x
_atom_site_fract_y
_atom_site_fract_z
Si Si1 0.819717 0.407544 0.118102
Si Si2 0.897340 0.613700 0.443447
Si Si3 0.669179 0.865430 0.018852
Si Si4 0.095957 0.816177 0.457915
Si Si5 0.195720 0.448836 0.277650
Si Si6 0.785671 0.811308 0.270815
Si Si7 0.670103 0.665889 0.998868
Si Si8 0.769311 0.675747 0.201060
O O1 0.530377 0.249079 0.452296
O O2 0.762059 0.537385 0.035295
O O3 0.000000 0.500000 0.000000
O O4 0.989238 0.352849 0.978230
O O5 0.912222 0.658579 0.493749
O O6 0.850046 0.726100 0.348481
O O7 0.139038 0.592857 0.246638
O O8 0.624259 0.436363 0.754662
O O9 0.643957 0.746637 0.044138
O O10 0.860960 0.044404 0.725253
O O11 0.384422 0.854294 0.251369
O O12 0.759734 0.805136 0.065691
O O13 0.973266 0.650272 0.607487
O O14 0.889998 0.791655 0.694383
O O15 0.500000 0.500000 0.000000
O O16 0.802092 0.738277 0.223716
O O17 0.000000 0.000000 0.000000
O O18 0.500000 0.500000 0.500000
#
# Coordination Sequence:
#
# PCOD9037796 Si02
#       8
#     2   2   2   2   2   2   2   2
#     4  11  22  41  69  99 122 172 228 263 311 401
#     4  10  23  41  63  89 125 163 214 257 304 387
#     4  11  24  40  59  96 132 156 207 267 318 378
#     4  11  24  38  63  91 127 166 204 260 325 366
#     4  11  22  41  64  89 116 168 213 251 305 378
#     4  11  27  45  64  99 138 170 210 278 335 375
#     4  11  20  40  64  90 128 160 210 263 313 375
#     4  12  23  42  72  96 126 175 222 264 324 394
#
# _framework density 19.548646000000002
#
# number of rings (size 3 to 8) (size 9 to 14) (size 15 to 20)
#    0.000    1.000    5.000    1.875    3.500    0.500 
#    2.250    0.000    0.000    0.000    0.000    0.000 
#    0.000    0.000    0.000    0.000    0.000    0.000 
#
# Total GULP energy -89360.209992 kJ/mol
# GULP energy per Si atom -5585.013124 kJ/mol
# Density = 1.950415 g / cm^3
# Si number density = 19.548646 Si / 1000 Ang^3
#
#
#
# Elastic Constant Matrix: (Units=GPa)
#
#
# Indices 1 2 3 4 5 6 
#
# 1 57.0213 5.6317 6.5838 0.4766 0.6863 1.2334
# 2 5.6317 66.8532 41.9260 13.6394 -3.2743 -3.3967
# 3 6.5838 41.9260 123.9805 13.4022 -6.4195 -0.6808
# 4 0.4766 13.6394 13.4022 38.4600 0.5354 2.3845
# 5 0.6863 -3.2743 -6.4195 0.5354 25.8604 0.5186
# 6 1.2334 -3.3967 -0.6808 2.3845 0.5186 36.1298
#
#
#
# Elastic Compliance Matrix: (Units=1/GPa)
#
#
# Indices 1 2 3 4 5 6 
#
# 1 0.017757 -0.001298 -0.000604 0.000509 -0.000781 -0.000762
# 2 -0.001298 0.020109 -0.006106 -0.005136 0.001128 0.002143
# 3 -0.000604 -0.006106 0.010416 -0.001465 0.001865 -0.000287
# 4 0.000509 -0.005136 -0.001465 0.028496 -0.001570 -0.002386
# 5 -0.000781 0.001128 0.001865 -0.001570 0.039334 -0.000293
# 6 -0.000762 0.002143 -0.000287 -0.002386 -0.000293 0.028062
#
#
# Mechanical properties :
#
#
# Convention : Reuss Voigt Hill
#
# Bulk Modulus (GPa) = 30.99181 39.57090 35.28135
# Shear Modulus (GPa) = 29.24940 33.00428 31.12684
#
# Velocity S-wave (km/s) = 3.87232 4.11337 3.99466
# Velocity P-wave (km/s) = 5.99009 6.54568 6.27404
#
# Compressibility (1/GPa) = 0.03226659
#
# Stress axis : x y z
#
# Youngs Moduli (GPa) = 56.31639 49.73007 96.00688
#
# Poissons Ratio (x) = 0.06455 0.05795
# Poissons Ratio (y) = 0.07310 0.58619
# Poissons Ratio (z) = 0.03399 0.30364
#
# Static dielectric constant tensor:
#      x y z
#    x 1.680330 -0.000060 0.011740 
#    y -0.000060 1.705960 0.020930 
#    z 0.011740 0.020930 1.714870 
# 
# From -- ./inp_files/364961.got.cif
#   From: 2010.05.17/outbox.cif.g08.bks.cpg/sg2_183_cif.got.tgz:364961.got - 2010.06.03 11:33:40.
