data_PCOD9037161
_publ_section_title
;
Structure prediction by ZEFSAII (Michael W. Deem and Ramdas Pophale) SiO2 
 PCOD9037161
Probable space group: P -1
;
_chemical_formula_sum "Si O2"
_cell_formula_units_Z 16
_cell_length_a 11.653111
_cell_length_b 10.359647
_cell_length_c 12.054616
_cell_angle_alpha 101.606392
_cell_angle_beta 141.011018
_cell_angle_gamma 104.305685
_cell_volume 677.975940
_symmetry_space_group_name_H-M "P -1"
_symmetry_group_IT_number 2
_symmetry_cell_setting 'triclinic'
loop_
_space_group_symop_operation_xyz
x,y,z
-x,-y,-z
loop_
_atom_site_type_symbol
_atom_site_label
_atom_site_fract_x
_atom_site_fract_y
_atom_site_fract_z
Si Si1 0.109698 0.823416 0.338948
Si Si2 0.211577 0.766703 0.782734
Si Si3 0.816650 0.369269 0.486582
Si Si4 0.532284 0.709385 0.425146
Si Si5 0.372805 0.832000 0.155702
Si Si6 0.042441 0.946176 0.767662
Si Si7 0.088481 0.318599 0.075126
Si Si8 0.358288 0.171729 0.247662
O O1 0.037499 0.680391 0.351718
O O2 0.399106 0.972986 0.599285
O O3 0.001683 0.922281 0.281100
O O4 0.037406 0.733609 0.149204
O O5 0.303140 0.751849 0.733658
O O6 0.139984 0.886479 0.743140
O O7 0.981366 0.567223 0.605951
O O8 0.375448 0.828110 0.024925
O O9 0.615153 0.323446 0.412091
O O10 0.426748 0.719881 0.236102
O O11 0.325198 0.521434 0.288168
O O12 0.601602 0.849060 0.597270
O O13 0.785627 0.770269 0.587627
O O14 0.112528 0.743537 0.996253
O O15 0.219788 0.029612 0.021644
O O16 0.191769 0.221140 0.146168
#
# Coordination Sequence:
#
# PCOD9037161 Si02
#       8
#     2   2   2   2   2   2   2   2
#     4  10  23  40  62  94 127 159 201 254 308 364
#     4  11  24  43  65  89 121 163 209 253 302 364
#     4  11  24  43  65  89 121 163 209 253 302 364
#     4  11  21  37  62  93 129 163 202 252 308 366
#     4  11  22  37  61  92 126 162 203 251 307 364
#     4  10  23  40  62  94 127 159 201 254 308 364
#     4  11  21  37  62  93 129 163 202 252 308 366
#     4  11  22  37  61  92 126 162 203 251 307 364
#
# _framework density 23.599657000000001
#
# number of rings (size 3 to 8) (size 9 to 14) (size 15 to 20)
#    0.000    1.250    0.000    6.000    0.000    6.500 
#    0.000    3.750    0.000   13.500    0.000    0.000 
#    0.000    0.000    0.000    0.000    0.000    0.000 
#
# Total GULP energy -89467.533852 kJ/mol
# GULP energy per Si atom -5591.720866 kJ/mol
# Density = 2.354594 g / cm^3
# Si number density = 23.599657 Si / 1000 Ang^3
#
#
#
# Elastic Constant Matrix: (Units=GPa)
#
#
# Indices 1 2 3 4 5 6 
#
# 1 85.1406 7.4086 29.7439 -13.5112 -21.6332 6.2390
# 2 7.4086 68.4025 20.7458 -3.1377 -2.5101 1.0062
# 3 29.7439 20.7458 101.2798 -7.1225 -10.5758 -3.9742
# 4 -13.5112 -3.1377 -7.1225 43.9734 10.5715 -5.0602
# 5 -21.6332 -2.5101 -10.5758 10.5715 35.7189 1.8774
# 6 6.2390 1.0062 -3.9742 -5.0602 1.8774 26.1548
#
#
#
# Elastic Compliance Matrix: (Units=1/GPa)
#
#
# Indices 1 2 3 4 5 6 
#
# 1 0.015767 -0.000104 -0.003817 0.001734 0.008140 -0.004586
# 2 -0.000104 0.015629 -0.003176 0.000454 0.000012 -0.000972
# 3 -0.003817 -0.003176 0.011875 0.000713 0.000616 0.002931
# 4 0.001734 0.000454 0.000713 0.025582 -0.006546 0.005096
# 5 0.008140 0.000012 0.000616 -0.006546 0.035344 -0.005652
# 6 -0.004586 -0.000972 0.002931 0.005096 -0.005652 0.041202
#
#
# Mechanical properties :
#
#
# Convention : Reuss Voigt Hill
#
# Bulk Modulus (GPa) = 34.39179 41.17996 37.78587
# Shear Modulus (GPa) = 29.53577 34.29771 31.91674
#
# Velocity S-wave (km/s) = 3.54154 3.81637 3.68152
# Velocity P-wave (km/s) = 5.59714 6.07510 5.84101
#
# Compressibility (1/GPa) = 0.02907671
#
# Stress axis : x y z
#
# Youngs Moduli (GPa) = 63.42205 63.98197 84.21288
#
# Poissons Ratio (x) = 0.00667 0.32146
# Poissons Ratio (y) = 0.00662 0.26745
# Poissons Ratio (z) = 0.24210 0.20320
#
# Static dielectric constant tensor:
#      x y z
#    x 1.826630 -0.051250 -0.028560 
#    y -0.051250 1.976680 0.010840 
#    z -0.028560 0.010840 1.933180 
# 
# From -- ./inp_files/428481.got.cif
#   From: 2010.05.17/outbox.cif.g08.bks.cpg/sg2_215_cif.got.tgz:428481.got - 2010.06.03 11:33:40.
