data_PCOD9037283
_publ_section_title
;
Structure prediction by ZEFSAII (Michael W. Deem and Ramdas Pophale) SiO2 
 PCOD9037283
Probable space group: P -1
;
_chemical_formula_sum "Si O2"
_cell_formula_units_Z 16
_cell_length_a 14.663521
_cell_length_b 13.132863
_cell_length_c 11.870807
_cell_angle_alpha 82.520412
_cell_angle_beta 29.989736
_cell_angle_gamma 61.357233
_cell_volume 762.355699
_symmetry_space_group_name_H-M "P -1"
_symmetry_group_IT_number 2
_symmetry_cell_setting 'triclinic'
loop_
_space_group_symop_operation_xyz
x,y,z
-x,-y,-z
loop_
_atom_site_type_symbol
_atom_site_label
_atom_site_fract_x
_atom_site_fract_y
_atom_site_fract_z
Si Si1 0.651105 0.871192 0.513624
Si Si2 0.217371 0.876695 0.378380
Si Si3 0.833476 0.969929 0.143970
Si Si4 0.078396 0.603859 0.616590
Si Si5 0.266794 0.459577 0.208782
Si Si6 0.848176 0.473204 0.924577
Si Si7 0.244768 0.707177 0.572679
Si Si8 0.486408 0.049744 0.882410
O O1 0.701037 0.960534 0.388404
O O2 0.930286 0.693474 0.237333
O O3 0.414844 0.909708 0.694385
O O4 0.560898 0.933199 0.728226
O O5 0.149581 0.820755 0.554327
O O6 0.308435 0.939920 0.339133
O O7 0.473925 0.720745 0.060438
O O8 0.000000 0.000000 0.500000
O O9 0.047097 0.809677 0.872339
O O10 0.000000 0.000000 0.000000
O O11 0.264549 0.524273 0.316838
O O12 0.220457 0.602419 0.567063
O O13 0.982267 0.529673 0.761287
O O14 0.807471 0.780171 0.851718
O O15 0.224208 0.533662 0.124684
O O16 0.000000 0.500000 0.500000
O O17 0.558465 0.601356 0.276606
O O18 0.500000 0.000000 0.000000
#
# Coordination Sequence:
#
# PCOD9037283 Si02
#       8
#     2   2   2   2   2   2   2   2
#     4  11  26  45  70 103 128 176 229 275 334 401
#     4  11  23  36  59 102 139 174 225 271 320 404
#     4  11  26  47  73  93 134 174 227 282 335 395
#     4  11  21  39  66  91 135 183 212 269 332 391
#     4   9  18  36  59  86 134 178 208 256 330 385
#     4  10  23  40  64  97 137 165 222 276 329 401
#     4  11  23  42  66  94 130 176 222 275 336 391
#     4  12  22  39  68  99 137 176 218 269 332 398
#
# _framework density 20.987577999999999
#
# number of rings (size 3 to 8) (size 9 to 14) (size 15 to 20)
#    0.000    1.250    5.000    2.250    1.750    4.500 
#    0.000    1.250    0.000    0.000    0.000    0.000 
#    0.000    0.000    0.000    0.000    0.000    0.000 
#
# Total GULP energy -89429.621500 kJ/mol
# GULP energy per Si atom -5589.351344 kJ/mol
# Density = 2.093981 g / cm^3
# Si number density = 20.987578 Si / 1000 Ang^3
#
#
#
# Elastic Constant Matrix: (Units=GPa)
#
#
# Indices 1 2 3 4 5 6 
#
# 1 101.9038 30.0899 32.4189 -2.8826 -12.0728 12.9479
# 2 30.0899 53.0642 0.9311 6.7755 -19.0615 -0.7035
# 3 32.4189 0.9311 71.9657 8.7666 -5.6095 -14.3816
# 4 -2.8826 6.7755 8.7666 30.2577 -2.7139 -13.0120
# 5 -12.0728 -19.0615 -5.6095 -2.7139 37.5574 0.6817
# 6 12.9479 -0.7035 -14.3816 -13.0120 0.6817 31.2879
#
#
#
# Elastic Compliance Matrix: (Units=1/GPa)
#
#
# Indices 1 2 3 4 5 6 
#
# 1 0.017661 -0.010565 -0.010430 0.002061 -0.000886 -0.011464
# 2 -0.010565 0.030037 0.007197 -0.006371 0.012364 0.005437
# 3 -0.010430 0.007197 0.021735 -0.002962 0.003093 0.013170
# 4 0.002061 -0.006371 -0.002962 0.042010 -0.000252 0.015119
# 5 -0.000886 0.012364 0.003093 -0.000252 0.033038 0.001242
# 6 -0.011464 0.005437 0.013170 0.015119 0.001242 0.049142
#
#
# Mechanical properties :
#
#
# Convention : Reuss Voigt Hill
#
# Bulk Modulus (GPa) = 23.90303 39.31260 31.60781
# Shear Modulus (GPa) = 21.26187 30.72018 25.99102
#
# Velocity S-wave (km/s) = 3.18633 3.83002 3.52291
# Velocity P-wave (km/s) = 4.99507 6.19119 5.62501
#
# Compressibility (1/GPa) = 0.04183570
#
# Stress axis : x y z
#
# Youngs Moduli (GPa) = 56.62217 33.29280 46.00955
#
# Poissons Ratio (x) = 0.35173 0.47989
# Poissons Ratio (y) = 0.59820 -0.33112
# Poissons Ratio (z) = 0.59058 -0.23960
#
# Static dielectric constant tensor:
#      x y z
#    x 1.734820 -0.015880 0.040550 
#    y -0.015880 1.747270 -0.006540 
#    z 0.040550 -0.006540 1.725350 
# 
# From -- ./inp_files/452258.got.cif
#   From: 2010.05.17/outbox.cif.g08.bks.cpg/sg2_227_cif.got.tgz:452258.got - 2010.06.03 11:33:40.
