data_PCOD9037625
_publ_section_title
;
Structure prediction by ZEFSAII (Michael W. Deem and Ramdas Pophale) SiO2 
 PCOD9037625
Probable space group: P -1
;
_chemical_formula_sum "Si O2"
_cell_formula_units_Z 16
_cell_length_a 15.831257
_cell_length_b 9.401543
_cell_length_c 13.870834
_cell_angle_alpha 136.784000
_cell_angle_beta 124.667944
_cell_angle_gamma 89.210116
_cell_volume 816.897643
_symmetry_space_group_name_H-M "P -1"
_symmetry_group_IT_number 2
_symmetry_cell_setting 'triclinic'
loop_
_space_group_symop_operation_xyz
x,y,z
-x,-y,-z
loop_
_atom_site_type_symbol
_atom_site_label
_atom_site_fract_x
_atom_site_fract_y
_atom_site_fract_z
Si Si1 0.140602 0.709196 0.259082
Si Si2 0.333656 0.278942 0.200514
Si Si3 0.493564 0.252788 0.907635
Si Si4 0.205148 0.641967 0.469203
Si Si5 0.001579 0.283852 0.340968
Si Si6 0.371416 0.454468 0.519713
Si Si7 0.422666 0.870873 0.488732
Si Si8 0.760437 0.703623 0.434011
O O1 0.122875 0.574659 0.283905
O O2 0.268280 0.761015 0.319346
O O3 0.191098 0.019640 0.453418
O O4 0.000000 0.500000 0.000000
O O5 0.337607 0.257631 0.309018
O O6 0.451694 0.289837 0.236433
O O7 0.395801 0.594941 0.366624
O O8 0.166354 0.024346 0.933670
O O9 0.339042 0.997484 0.736281
O O10 0.492402 0.100783 0.737551
O O11 0.500000 0.500000 0.000000
O O12 0.629074 0.408624 0.143663
O O13 0.294811 0.556466 0.486819
O O14 0.085864 0.452520 0.379986
O O15 0.000000 0.500000 0.500000
O O16 0.102808 0.253382 0.441088
O O17 0.303177 0.316561 0.512476
O O18 0.500000 0.000000 0.500000
#
# Coordination Sequence:
#
# PCOD9037625 Si02
#       8
#     2   2   2   2   2   2   2   2
#     4  11  22  42  65  96 130 169 219 261 331 397
#     4  11  23  43  63 100 135 164 221 276 325 390
#     4  11  22  43  68  98 131 166 228 270 319 398
#     4  10  23  44  65  95 126 176 215 270 323 387
#     4  11  28  43  64  95 135 173 218 272 337 389
#     4  10  23  40  70  94 126 173 218 267 329 383
#     4  11  23  43  69  99 129 172 220 277 323 378
#     4  11  24  41  69  95 125 180 215 268 333 393
#
# _framework density 19.586296999999998
#
# number of rings (size 3 to 8) (size 9 to 14) (size 15 to 20)
#    0.000    1.250    5.000    1.500    5.250    2.000 
#    2.250    0.625    0.000    0.000    0.000    0.000 
#    0.000    0.000    0.000    0.000    0.000    0.000 
#
# Total GULP energy -89274.219777 kJ/mol
# GULP energy per Si atom -5579.638736 kJ/mol
# Density = 1.954172 g / cm^3
# Si number density = 19.586297 Si / 1000 Ang^3
#
#
#
# Elastic Constant Matrix: (Units=GPa)
#
#
# Indices 1 2 3 4 5 6 
#
# 1 121.0468 58.5875 32.4701 -10.1806 11.2063 -5.3633
# 2 58.5875 115.3961 43.4236 -11.7550 5.6060 -3.4762
# 3 32.4701 43.4236 116.4746 -28.1628 4.0604 -6.6315
# 4 -10.1806 -11.7550 -28.1628 38.7575 -13.2464 5.2689
# 5 11.2063 5.6060 4.0604 -13.2464 21.0660 -7.2933
# 6 -5.3633 -3.4762 -6.6315 5.2689 -7.2933 25.3671
#
#
#
# Elastic Compliance Matrix: (Units=1/GPa)
#
#
# Indices 1 2 3 4 5 6 
#
# 1 0.011543 -0.005205 -0.001429 -0.001424 -0.005336 0.000115
# 2 -0.005205 0.012515 -0.003190 0.000169 0.000080 -0.000232
# 3 -0.001429 -0.003190 0.012354 0.009337 0.005875 0.002240
# 4 -0.001424 0.000169 0.009337 0.040603 0.024736 0.000841
# 5 -0.005336 0.000080 0.005875 0.024736 0.070047 0.015420
# 6 0.000115 -0.000232 0.002240 0.000841 0.015420 0.044258
#
#
# Mechanical properties :
#
#
# Convention : Reuss Voigt Hill
#
# Bulk Modulus (GPa) = 59.65288 69.09777 64.37532
# Shear Modulus (GPa) = 23.08861 31.60053 27.34457
#
# Velocity S-wave (km/s) = 3.43711 4.02107 3.74051
# Velocity P-wave (km/s) = 6.80251 7.54413 7.18290
#
# Compressibility (1/GPa) = 0.01676365
#
# Stress axis : x y z
#
# Youngs Moduli (GPa) = 86.63053 79.90230 80.94802
#
# Poissons Ratio (x) = 0.41591 0.11569
# Poissons Ratio (y) = 0.45093 0.25821
# Poissons Ratio (z) = 0.12381 0.25488
#
# Static dielectric constant tensor:
#      x y z
#    x 1.683430 -0.021950 -0.011070 
#    y -0.021950 1.700760 -0.001270 
#    z -0.011070 -0.001270 1.714420 
# 
# From -- ./inp_files/530249.got.cif
#   From: 2010.05.17/outbox.cif.g08.bks.cpg/sg2_266_cif.got.tgz:530249.got - 2010.06.03 11:33:40.
