data_PCOD9037421
_publ_section_title
;
Structure prediction by ZEFSAII (Michael W. Deem and Ramdas Pophale) SiO2 
 PCOD9037421
Probable space group: P -1
;
_chemical_formula_sum "Si O2"
_cell_formula_units_Z 12
_cell_length_a 21.683619
_cell_length_b 11.155315
_cell_length_c 11.198952
_cell_angle_alpha 37.086225
_cell_angle_beta 21.094573
_cell_angle_gamma 30.214389
_cell_volume 490.089673
_symmetry_space_group_name_H-M "P -1"
_symmetry_group_IT_number 2
_symmetry_cell_setting 'triclinic'
loop_
_space_group_symop_operation_xyz
x,y,z
-x,-y,-z
loop_
_atom_site_type_symbol
_atom_site_label
_atom_site_fract_x
_atom_site_fract_y
_atom_site_fract_z
Si Si1 0.231454 0.970360 0.466882
Si Si2 0.880821 0.900916 0.178823
Si Si3 0.525967 0.987757 0.602028
Si Si4 0.162494 0.358198 0.098654
Si Si5 0.146066 0.723162 0.424151
Si Si6 0.550361 0.394698 0.834178
O O1 0.267358 0.978249 0.535591
O O2 0.219500 0.182205 0.247335
O O3 0.383716 0.719617 0.324737
O O4 0.004621 0.018814 0.830878
O O5 0.053373 0.629319 0.118338
O O6 0.752849 0.898808 0.302691
O O7 0.500000 0.000000 0.500000
O O8 0.369161 0.245474 0.738537
O O9 0.470905 0.806658 0.899535
O O10 0.001685 0.345205 0.313229
O O11 0.270261 0.605839 0.416852
O O12 0.331376 0.636287 0.062856
O O13 0.000000 0.000000 0.500000
#
# Coordination Sequence:
#
# PCOD9037421 Si02
#       6
#     2   2   2   2   2   2
#     4  10  24  47  71  96 137 182 221 278 335 404
#     4  11  25  48  66 101 139 173 229 280 332 395
#     4  11  25  41  65 103 133 173 231 277 330 403
#     4  11  24  44  70 101 131 184 220 277 341 397
#     4  11  20  39  66  98 132 170 225 263 334 401
#     4  10  23  40  66  99 130 185 216 273 344 387
#
# _framework density 24.485312
#
# number of rings (size 3 to 8) (size 9 to 14) (size 15 to 20)
#    0.000    1.333    5.000    0.500    4.667    6.000 
#    3.000    1.667    0.000    0.000    0.000    0.000 
#    0.000    0.000    0.000    0.000    0.000    0.000 
#
# Total GULP energy -67208.895024 kJ/mol
# GULP energy per Si atom -5600.741252 kJ/mol
# Density = 2.442958 g / cm^3
# Si number density = 24.485312 Si / 1000 Ang^3
#
#
#
# Elastic Constant Matrix: (Units=GPa)
#
#
# Indices 1 2 3 4 5 6 
#
# 1 79.1215 16.5649 24.4377 8.7317 18.4583 4.3996
# 2 16.5649 82.2961 38.3443 33.4167 26.4517 10.3863
# 3 24.4377 38.3443 68.5170 24.8405 19.1234 -8.6083
# 4 8.7317 33.4167 24.8405 49.8027 10.1372 5.5853
# 5 18.4583 26.4517 19.1234 10.1372 52.7686 11.9907
# 6 4.3996 10.3863 -8.6083 5.5853 11.9907 26.1483
#
#
#
# Elastic Compliance Matrix: (Units=1/GPa)
#
#
# Indices 1 2 3 4 5 6 
#
# 1 0.015025 0.000684 -0.005613 0.000687 -0.002910 -0.003460
# 2 0.000684 0.022384 -0.009416 -0.008602 -0.004534 -0.008190
# 3 -0.005613 -0.009416 0.028957 -0.007923 -0.006590 0.018932
# 4 0.000687 -0.008602 -0.007923 0.029897 0.002783 -0.006969
# 5 -0.002910 -0.004534 -0.006590 0.002783 0.027018 -0.012863
# 6 -0.003460 -0.008190 0.018932 -0.006969 -0.012863 0.055698
#
#
# Mechanical properties :
#
#
# Convention : Reuss Voigt Hill
#
# Bulk Modulus (GPa) = 26.54202 43.18094 34.86148
# Shear Modulus (GPa) = 22.70382 35.78311 29.24346
#
# Velocity S-wave (km/s) = 3.04837 3.82699 3.45965
# Velocity P-wave (km/s) = 4.82220 6.09930 5.49796
#
# Compressibility (1/GPa) = 0.03767611
#
# Stress axis : x y z
#
# Youngs Moduli (GPa) = 66.55691 44.67380 34.53453
#
# Poissons Ratio (x) = -0.03057 0.19385
# Poissons Ratio (y) = -0.04555 0.32517
# Poissons Ratio (z) = 0.37360 0.42065
#
# Static dielectric constant tensor:
#      x y z
#    x 1.910520 -0.000690 0.030100 
#    y -0.000690 1.964440 -0.015240 
#    z 0.030100 -0.015240 1.954890 
# 
# From -- ./inp_files/474736.got.cif
#   From: 2010.05.17/outbox.cif.g08.bks.cpg/sg2_238_cif.got.tgz:474736.got - 2010.06.03 11:33:40.
