data_PCOD9037491
_publ_section_title
;
Structure prediction by ZEFSAII (Michael W. Deem and Ramdas Pophale) SiO2 
 PCOD9037491
Probable space group: P -1
;
_chemical_formula_sum "Si O2"
_cell_formula_units_Z 16
_cell_length_a 8.517453
_cell_length_b 19.721368
_cell_length_c 5.933463
_cell_angle_alpha 96.649301
_cell_angle_beta 124.900962
_cell_angle_gamma 50.788615
_cell_volume 584.002473
_symmetry_space_group_name_H-M "P -1"
_symmetry_group_IT_number 2
_symmetry_cell_setting 'triclinic'
loop_
_space_group_symop_operation_xyz
x,y,z
-x,-y,-z
loop_
_atom_site_type_symbol
_atom_site_label
_atom_site_fract_x
_atom_site_fract_y
_atom_site_fract_z
Si Si1 0.334616 0.003239 0.554536
Si Si2 0.336448 0.659006 0.978107
Si Si3 0.493887 0.756360 0.924424
Si Si4 0.786916 0.731202 0.534020
Si Si5 0.697448 0.371868 0.568881
Si Si6 0.953220 0.590128 0.952331
Si Si7 0.784400 0.109531 0.638860
Si Si8 0.129007 0.143638 0.834513
O O1 0.147283 0.986733 0.326017
O O2 0.500000 0.000000 0.500000
O O3 0.195019 0.093650 0.629055
O O4 0.580701 0.908161 0.859267
O O5 0.397746 0.722732 0.005388
O O6 0.410244 0.602715 0.774045
O O7 0.018840 0.726812 0.771636
O O8 0.447638 0.608182 0.296955
O O9 0.282911 0.853357 0.660166
O O10 0.712966 0.747717 0.221562
O O11 0.660166 0.675190 0.842891
O O12 0.498902 0.814231 0.438279
O O13 0.922053 0.626871 0.688115
O O14 0.837817 0.410077 0.754922
O O15 0.908570 0.256813 0.687159
O O16 0.000000 0.500000 0.000000
O O17 0.002357 0.113315 0.869930
#
# Coordination Sequence:
#
# PCOD9037491 Si02
#       8
#     2   2   2   2   2   2   2   2
#     4  11  27  41  64  97 136 181 227 289 350 408
#     4  11  23  41  71 102 136 171 240 283 341 410
#     4  11  22  40  71  98 131 184 232 285 344 413
#     4  10  23  40  67  99 133 182 228 288 344 413
#     4  11  23  45  71 100 137 187 225 291 342 414
#     4  10  23  44  68 101 144 183 229 285 349 416
#     4  11  24  41  67  97 133 176 235 283 346 411
#     4  11  24  44  64  93 136 177 233 285 345 413
#
# _framework density 27.397147
#
# number of rings (size 3 to 8) (size 9 to 14) (size 15 to 20)
#    0.000    1.250    2.500    3.375    5.250    3.000 
#    0.000    3.125    0.000    0.000    0.000    0.000 
#    0.000    0.000    0.000    0.000    0.000    0.000 
#
# Total GULP energy -89474.772275 kJ/mol
# GULP energy per Si atom -5592.173267 kJ/mol
# Density = 2.733479 g / cm^3
# Si number density = 27.397147 Si / 1000 Ang^3
#
#
#
# Elastic Constant Matrix: (Units=GPa)
#
#
# Indices 1 2 3 4 5 6 
#
# 1 164.2655 18.6047 19.8001 12.1143 -11.8403 23.3256
# 2 18.6047 95.5374 23.7541 11.6228 -23.7644 35.5354
# 3 19.8001 23.7541 120.1331 13.9617 -11.2403 2.4868
# 4 12.1143 11.6228 13.9617 37.6605 4.0447 0.8787
# 5 -11.8403 -23.7644 -11.2403 4.0447 54.5669 7.7267
# 6 23.3256 35.5354 2.4868 0.8787 7.7267 41.7546
#
#
#
# Elastic Compliance Matrix: (Units=1/GPa)
#
#
# Indices 1 2 3 4 5 6 
#
# 1 0.007397 0.002751 -0.000890 -0.003147 0.003854 -0.007068
# 2 0.002751 0.024539 -0.002393 -0.008596 0.014949 -0.024864
# 3 -0.000890 -0.002393 0.009251 -0.002512 0.000583 0.001928
# 4 -0.003147 -0.008596 -0.002512 0.031852 -0.008746 0.010172
# 5 0.003854 0.014949 0.000583 -0.008746 0.029294 -0.020147
# 6 -0.007068 -0.024864 0.001928 0.010172 -0.020147 0.052457
#
#
# Mechanical properties :
#
#
# Convention : Reuss Voigt Hill
#
# Bulk Modulus (GPa) = 24.92421 56.02820 40.47620
# Shear Modulus (GPa) = 29.54602 47.98152 38.76377
#
# Velocity S-wave (km/s) = 3.28751 4.18943 3.76557
# Velocity P-wave (km/s) = 4.85051 6.62545 5.80620
#
# Compressibility (1/GPa) = 0.04012164
#
# Stress axis : x y z
#
# Youngs Moduli (GPa) = 135.19131 40.75205 108.10017
#
# Poissons Ratio (x) = -0.11212 0.09626
# Poissons Ratio (y) = -0.37195 0.25870
# Poissons Ratio (z) = 0.12039 0.09752
#
# Static dielectric constant tensor:
#      x y z
#    x 2.164380 -0.025620 -0.038250 
#    y -0.025620 2.107030 0.041400 
#    z -0.038250 0.041400 2.201630 
# 
# From -- ./inp_files/53318.got.cif
#   From: 2010.05.17/outbox.cif.g08.bks.cpg/sg2_27_cif.got.tgz:53318.got - 2010.06.03 11:33:40.
