data_PCOD9037642
_publ_section_title
;
Structure prediction by ZEFSAII (Michael W. Deem and Ramdas Pophale) SiO2 
 PCOD9037642
Probable space group: P -1
;
_chemical_formula_sum "Si O2"
_cell_formula_units_Z 14
_cell_length_a 8.069268
_cell_length_b 21.979038
_cell_length_c 8.334041
_cell_angle_alpha 42.730695
_cell_angle_beta 54.794566
_cell_angle_gamma 34.348240
_cell_volume 564.155387
_symmetry_space_group_name_H-M "P -1"
_symmetry_group_IT_number 2
_symmetry_cell_setting 'triclinic'
loop_
_space_group_symop_operation_xyz
x,y,z
-x,-y,-z
loop_
_atom_site_type_symbol
_atom_site_label
_atom_site_fract_x
_atom_site_fract_y
_atom_site_fract_z
Si Si1 0.518741 0.341419 0.336002
Si Si2 0.150684 0.117865 0.945292
Si Si3 0.735623 0.718453 0.025602
Si Si4 0.782118 0.085860 0.810579
Si Si5 0.120664 0.523927 0.648379
Si Si6 0.972556 0.295874 0.395550
Si Si7 0.233061 0.628632 0.127512
O O1 0.741834 0.186394 0.531659
O O2 0.194646 0.400111 0.404645
O O3 0.677126 0.355814 0.351948
O O4 0.534889 0.388735 0.068195
O O5 0.064481 0.194372 0.677084
O O6 0.988744 0.225418 0.962281
O O7 0.500000 0.000000 0.000000
O O8 0.091219 0.032131 0.145651
O O9 0.769940 0.771977 0.749101
O O10 0.059957 0.623346 0.106518
O O11 0.518303 0.816405 0.100840
O O12 0.697064 0.627514 0.165688
O O13 0.000000 0.000000 0.000000
O O14 0.062429 0.596100 0.706078
O O15 0.278758 0.549030 0.405664
#
# Coordination Sequence:
#
# PCOD9037642 Si02
#       7
#     2   2   2   2   2   2   2
#     4  11  24  45  70 106 134 182 235 276 353 413
#     4  11  21  42  68  95 138 182 230 282 338 405
#     4  11  23  44  70  98 140 187 219 285 358 394
#     4  12  24  41  65  97 140 178 228 287 334 406
#     4  11  23  48  71  99 146 176 225 297 339 410
#     4  10  24  43  70 105 136 180 234 283 344 415
#     4  10  23  40  71 102 129 181 230 281 345 406
#
# _framework density 24.815857000000001
#
# number of rings (size 3 to 8) (size 9 to 14) (size 15 to 20)
#    0.000    1.143    4.286    1.714    0.000    5.714 
#    0.000    2.143    0.000    0.000    0.000    0.000 
#    0.000    0.000    0.000    0.000    0.000    0.000 
#
# Total GULP energy -78111.263382 kJ/mol
# GULP energy per Si atom -5579.375956 kJ/mol
# Density = 2.475938 g / cm^3
# Si number density = 24.815857 Si / 1000 Ang^3
#
#
#
# Elastic Constant Matrix: (Units=GPa)
#
#
# Indices 1 2 3 4 5 6 
#
# 1 109.7934 36.5412 39.2980 -20.9658 -5.7957 12.2235
# 2 36.5412 99.7951 47.5580 6.0510 -12.0809 12.1251
# 3 39.2980 47.5580 146.4970 2.4486 -6.3313 0.6081
# 4 -20.9658 6.0510 2.4486 41.2731 7.3187 -3.8700
# 5 -5.7957 -12.0809 -6.3313 7.3187 41.2974 -19.3195
# 6 12.2235 12.1251 0.6081 -3.8700 -19.3195 51.6660
#
#
#
# Elastic Compliance Matrix: (Units=1/GPa)
#
#
# Indices 1 2 3 4 5 6 
#
# 1 0.012844 -0.004009 -0.002350 0.007412 -0.002124 -0.002309
# 2 -0.004009 0.013845 -0.003201 -0.004567 0.003136 -0.001432
# 3 -0.002350 -0.003201 0.008552 -0.001264 0.000956 0.001470
# 4 0.007412 -0.004567 -0.001264 0.029752 -0.006098 -0.000719
# 5 -0.002124 0.003136 0.000956 -0.006098 0.031189 0.010961
# 6 -0.002309 -0.001432 0.001470 -0.000719 0.010961 0.024265
#
#
# Mechanical properties :
#
#
# Convention : Reuss Voigt Hill
#
# Bulk Modulus (GPa) = 62.03496 66.98666 64.51081
# Shear Modulus (GPa) = 34.49699 42.35985 38.42842
#
# Velocity S-wave (km/s) = 3.73247 4.13603 3.93942
# Velocity P-wave (km/s) = 6.60511 7.06124 6.83698
#
# Compressibility (1/GPa) = 0.01611994
#
# Stress axis : x y z
#
# Youngs Moduli (GPa) = 77.85947 72.23048 116.93110
#
# Poissons Ratio (x) = 0.28957 0.27479
# Poissons Ratio (y) = 0.31213 0.37432
# Poissons Ratio (z) = 0.18297 0.23123
#
# Static dielectric constant tensor:
#      x y z
#    x 1.897210 -0.052570 -0.030130 
#    y -0.052570 2.035210 -0.014900 
#    z -0.030130 -0.014900 1.898580 
# 
# From -- ./inp_files/225933.got.cif
#   From: 2010.05.17/outbox.cif.g08.bks.cpg/sg2_113_cif.got.tgz:225933.got - 2010.06.03 11:33:40.
