data_PCOD9037396
_publ_section_title
;
Structure prediction by ZEFSAII (Michael W. Deem and Ramdas Pophale) SiO2 
 PCOD9037396
Probable space group: P -1
;
_chemical_formula_sum "Si O2"
_cell_formula_units_Z 14
_cell_length_a 13.773698
_cell_length_b 11.907201
_cell_length_c 12.030115
_cell_angle_alpha 35.410203
_cell_angle_beta 44.994445
_cell_angle_gamma 31.064907
_cell_volume 589.639783
_symmetry_space_group_name_H-M "P -1"
_symmetry_group_IT_number 2
_symmetry_cell_setting 'triclinic'
loop_
_space_group_symop_operation_xyz
x,y,z
-x,-y,-z
loop_
_atom_site_type_symbol
_atom_site_label
_atom_site_fract_x
_atom_site_fract_y
_atom_site_fract_z
Si Si1 0.120042 0.134172 0.655416
Si Si2 0.660870 0.301921 0.695820
Si Si3 0.594087 0.920610 0.686577
Si Si4 0.591043 0.470185 0.068917
Si Si5 0.872808 0.722195 0.015203
Si Si6 0.557145 0.729139 0.281956
Si Si7 0.852067 0.633682 0.348630
O O1 0.275912 0.119954 0.481238
O O2 0.088106 0.254455 0.705313
O O3 0.934515 0.354163 0.556240
O O4 0.216284 0.833820 0.825117
O O5 0.557425 0.436958 0.787779
O O6 0.688292 0.466078 0.466425
O O7 0.510250 0.329072 0.719928
O O8 0.835655 0.986976 0.820852
O O9 0.610116 0.037928 0.689289
O O10 0.373686 0.145750 0.650479
O O11 0.627887 0.663011 0.888272
O O12 0.500000 0.500000 0.000000
O O13 0.671983 0.808649 0.094395
O O14 0.931413 0.610338 0.182690
O O15 0.000000 0.500000 0.000000
#
# Coordination Sequence:
#
# PCOD9037396 Si02
#       7
#     2   2   2   2   2   2   2
#     4  11  23  42  67  94 136 170 213 273 324 392
#     4  11  22  41  66  94 130 167 225 271 313 405
#     4  11  22  42  70  95 130 178 209 270 337 379
#     4  12  23  38  68 101 126 171 222 263 330 392
#     4  11  24  40  64  91 136 171 212 279 326 381
#     4  10  23  40  66  95 123 172 222 263 329 385
#     4  10  23  42  63  99 131 168 222 264 325 392
#
# _framework density 23.743310000000001
#
# number of rings (size 3 to 8) (size 9 to 14) (size 15 to 20)
#    0.000    1.143    5.714    0.857    2.000    0.571 
#    0.000    8.571    0.000    0.000    0.000    0.000 
#    0.000    0.000    0.000    0.000    0.000    0.000 
#
# Total GULP energy -78388.328131 kJ/mol
# GULP energy per Si atom -5599.166295 kJ/mol
# Density = 2.368927 g / cm^3
# Si number density = 23.743310 Si / 1000 Ang^3
#
#
#
# Elastic Constant Matrix: (Units=GPa)
#
#
# Indices 1 2 3 4 5 6 
#
# 1 54.9122 31.3682 24.0457 0.0831 25.9337 13.7087
# 2 31.3682 137.6254 57.1631 -16.9516 23.9318 26.8847
# 3 24.0457 57.1631 130.3334 -30.0962 3.9680 7.5716
# 4 0.0831 -16.9516 -30.0962 59.9177 10.8718 7.9222
# 5 25.9337 23.9318 3.9680 10.8718 40.1220 6.2863
# 6 13.7087 26.8847 7.5716 7.9222 6.2863 37.6889
#
#
#
# Elastic Compliance Matrix: (Units=1/GPa)
#
#
# Indices 1 2 3 4 5 6 
#
# 1 0.030938 -0.000366 -0.004020 0.002241 -0.018811 -0.007518
# 2 -0.000366 0.011839 -0.003677 0.003609 -0.006298 -0.007281
# 3 -0.004020 -0.003677 0.010793 0.003828 0.002580 0.000682
# 4 0.002241 0.003609 0.003828 0.022207 -0.008845 -0.007351
# 5 -0.018811 -0.006298 0.002580 -0.008845 0.042095 0.005655
# 6 -0.007518 -0.007281 0.000682 -0.007351 0.005655 0.034926
#
#
# Mechanical properties :
#
#
# Convention : Reuss Voigt Hill
#
# Bulk Modulus (GPa) = 26.70712 60.89167 43.79939
# Shear Modulus (GPa) = 27.56258 41.56533 34.56395
#
# Velocity S-wave (km/s) = 3.41083 4.18857 3.81955
# Velocity P-wave (km/s) = 5.17536 7.00669 6.15947
#
# Compressibility (1/GPa) = 0.03744320
#
# Stress axis : x y z
#
# Youngs Moduli (GPa) = 32.32295 84.46851 92.65427
#
# Poissons Ratio (x) = 0.03091 0.37250
# Poissons Ratio (y) = 0.01183 0.34068
# Poissons Ratio (z) = 0.12995 0.31058
#
# Static dielectric constant tensor:
#      x y z
#    x 1.965130 0.036210 0.046310 
#    y 0.036210 1.942750 -0.036330 
#    z 0.046310 -0.036330 1.907110 
# 
# From -- ./inp_files/427076.got.cif
#   From: 2010.05.17/outbox.cif.g08.bks.cpg/sg2_214_cif.got.tgz:427076.got - 2010.06.03 11:33:40.
