data_PCOD9037190
_publ_section_title
;
Structure prediction by ZEFSAII (Michael W. Deem and Ramdas Pophale) SiO2 
 PCOD9037190
Probable space group: P -1
;
_chemical_formula_sum "Si O2"
_cell_formula_units_Z 15
_cell_length_a 16.109931
_cell_length_b 5.553735
_cell_length_c 7.674041
_cell_angle_alpha 59.374748
_cell_angle_beta 102.258694
_cell_angle_gamma 112.961486
_cell_volume 543.937063
_symmetry_space_group_name_H-M "P -1"
_symmetry_group_IT_number 2
_symmetry_cell_setting 'triclinic'
loop_
_space_group_symop_operation_xyz
x,y,z
-x,-y,-z
loop_
_atom_site_type_symbol
_atom_site_label
_atom_site_fract_x
_atom_site_fract_y
_atom_site_fract_z
Si Si1 0.608482 0.579472 0.147349
Si Si2 0.643233 0.717676 0.740323
Si Si3 0.185693 0.390529 0.722294
Si Si4 0.087934 0.775248 0.988491
Si Si5 0.500000 0.000000 0.000000
Si Si6 0.086170 0.771298 0.385798
Si Si7 0.424542 0.747364 0.412573
Si Si8 0.831535 0.648592 0.871252
O O1 0.710670 0.596695 0.230019
O O2 0.589053 0.886640 0.043634
O O3 0.549286 0.361863 0.350455
O O4 0.590133 0.494315 0.961037
O O5 0.625983 0.553165 0.608020
O O6 0.744890 0.744079 0.812924
O O7 0.628032 0.028653 0.640422
O O8 0.166045 0.644345 0.510780
O O9 0.153382 0.421865 0.893779
O O10 0.119587 0.056841 0.773879
O O11 0.072085 0.849499 0.150872
O O12 0.173413 0.664664 0.092180
O O13 0.000000 0.500000 0.000000
O O14 0.498439 0.902931 0.243554
O O15 0.000000 0.500000 0.500000
O O16 0.107385 0.110277 0.329904
#
# Coordination Sequence:
#
# PCOD9037190 Si02
#       8
#     2   2   2   2   1   2   2   2
#     4  10  23  45  70 103 139 188 236 290 359 423
#     4  10  25  43  72 102 145 178 241 292 355 420
#     4  10  23  42  64  93 130 176 229 282 345 423
#     4  11  24  40  62  93 131 174 220 287 351 407
#     4  10  24  44  74 102 150 182 236 296 356 424
#     4  11  23  40  62  93 131 174 229 279 346 422
#     4  11  24  46  70 107 139 190 231 296 353 431
#     4  10  23  40  63  90 132 176 221 293 345 411
#
# _framework density 27.576720000000002
#
# number of rings (size 3 to 8) (size 9 to 14) (size 15 to 20)
#    0.000    1.600    0.000    2.800    9.333    9.600 
#    2.400    4.000    0.000    0.000    0.000    0.000 
#    0.000    0.000    0.000    0.000    0.000    0.000 
#
# Total GULP energy -83596.602297 kJ/mol
# GULP energy per Si atom -5573.106820 kJ/mol
# Density = 2.751395 g / cm^3
# Si number density = 27.576720 Si / 1000 Ang^3
#
#
#
# Elastic Constant Matrix: (Units=GPa)
#
#
# Indices 1 2 3 4 5 6 
#
# 1 115.4303 14.8329 26.8903 -5.0824 20.8372 -13.6893
# 2 14.8329 77.5342 43.3386 14.1423 15.5367 -19.5061
# 3 26.8903 43.3386 188.2094 4.7165 2.4832 0.7910
# 4 -5.0824 14.1423 4.7165 46.6966 -4.5243 8.9818
# 5 20.8372 15.5367 2.4832 -4.5243 54.3541 -9.8746
# 6 -13.6893 -19.5061 0.7910 8.9818 -9.8746 39.7559
#
#
#
# Elastic Compliance Matrix: (Units=1/GPa)
#
#
# Indices 1 2 3 4 5 6 
#
# 1 0.009891 0.000153 -0.001425 0.000354 -0.003265 0.002618
# 2 0.000153 0.020579 -0.004540 -0.008305 -0.004423 0.011018
# 3 -0.001425 -0.004540 0.006529 0.001217 0.001131 -0.002842
# 4 0.000354 -0.008305 0.001217 0.025866 0.002672 -0.009157
# 5 -0.003265 -0.004423 0.001131 0.002672 0.021335 0.001379
# 6 0.002618 0.011018 -0.002842 -0.009157 0.001379 0.033929
#
#
# Mechanical properties :
#
#
# Convention : Reuss Voigt Hill
#
# Bulk Modulus (GPa) = 39.41108 61.25529 50.33318
# Shear Modulus (GPa) = 36.17617 47.90210 42.03913
#
# Velocity S-wave (km/s) = 3.62586 4.17231 3.90865
# Velocity P-wave (km/s) = 5.64372 6.74328 6.21785
#
# Compressibility (1/GPa) = 0.02537358
#
# Stress axis : x y z
#
# Youngs Moduli (GPa) = 101.10060 48.59263 153.16546
#
# Poissons Ratio (x) = -0.00742 0.21828
# Poissons Ratio (y) = -0.01544 0.69543
# Poissons Ratio (z) = 0.14408 0.22063
#
# Static dielectric constant tensor:
#      x y z
#    x 2.260420 -0.010550 0.136150 
#    y -0.010550 1.808760 0.487800 
#    z 0.136150 0.487800 1.769490 
# 
# From -- ./inp_files/323206.got.cif
#   From: 2010.05.17/outbox.cif.g08.bks.cpg/sg2_162_cif.got.tgz:323206.got - 2010.06.03 11:33:40.
