data_PCOD9037568
_publ_section_title
;
Structure prediction by ZEFSAII (Michael W. Deem and Ramdas Pophale) SiO2 
 PCOD9037568
Probable space group: P -1
;
_chemical_formula_sum "Si O2"
_cell_formula_units_Z 16
_cell_length_a 17.240257
_cell_length_b 7.959313
_cell_length_c 10.561854
_cell_angle_alpha 127.496744
_cell_angle_beta 36.872324
_cell_angle_gamma 117.807667
_cell_volume 689.318081
_symmetry_space_group_name_H-M "P -1"
_symmetry_group_IT_number 2
_symmetry_cell_setting 'triclinic'
loop_
_space_group_symop_operation_xyz
x,y,z
-x,-y,-z
loop_
_atom_site_type_symbol
_atom_site_label
_atom_site_fract_x
_atom_site_fract_y
_atom_site_fract_z
Si Si1 0.009743 0.214822 0.009384
Si Si2 0.562411 0.268550 0.306796
Si Si3 0.773460 0.531645 0.853933
Si Si4 0.969175 0.621477 0.417345
Si Si5 0.627699 0.144265 0.893216
Si Si6 0.250732 0.692021 0.687862
Si Si7 0.628213 0.926507 0.379487
Si Si8 0.176745 0.237628 0.567318
O O1 0.977548 0.390337 0.236229
O O2 0.897608 0.245951 0.065719
O O3 0.130433 0.259924 0.784279
O O4 0.000000 0.000000 0.000000
O O5 0.500000 0.500000 0.500000
O O6 0.665188 0.257481 0.278859
O O7 0.438465 0.130456 0.428712
O O8 0.633464 0.220522 0.064503
O O9 0.854788 0.631311 0.676983
O O10 0.661083 0.370000 0.885872
O O11 0.888334 0.386123 0.707069
O O12 0.707822 0.727375 0.115535
O O13 0.926819 0.762544 0.414299
O O14 0.741658 0.977717 0.638954
O O15 0.500000 0.000000 0.000000
O O16 0.259992 0.445683 0.527715
O O17 0.290662 0.866241 0.614320
O O18 0.500000 0.000000 0.500000
#
# Coordination Sequence:
#
# PCOD9037568 Si02
#       8
#     2   2   2   2   2   2   2   2
#     4  11  23  43  71 102 140 183 231 292 361 420
#     4  11  23  43  69  97 136 189 238 287 343 426
#     4  11  24  45  70 104 148 182 239 295 358 422
#     4  10  24  43  70 106 139 186 232 298 359 419
#     4  12  28  43  65 103 144 189 238 291 360 416
#     4  10  23  42  70 100 135 181 236 281 355 423
#     4  10  23  40  68  99 132 187 240 284 339 415
#     4  11  26  44  70 106 143 181 234 294 357 424
#
# _framework density 23.211345999999999
#
# number of rings (size 3 to 8) (size 9 to 14) (size 15 to 20)
#    0.000    1.250    1.250    3.750    8.750    6.500 
#    0.000    1.250    0.000    0.000    0.000    0.000 
#    0.000    0.000    0.000    0.000    0.000    0.000 
#
# Total GULP energy -89136.830213 kJ/mol
# GULP energy per Si atom -5571.051888 kJ/mol
# Density = 2.315852 g / cm^3
# Si number density = 23.211346 Si / 1000 Ang^3
#
#
#
# Elastic Constant Matrix: (Units=GPa)
#
#
# Indices 1 2 3 4 5 6 
#
# 1 61.4285 -8.1068 1.6463 -2.0998 -3.8042 7.0430
# 2 -8.1068 110.4194 23.8763 -1.0174 0.2707 6.4758
# 3 1.6463 23.8763 106.2587 -6.1210 7.7057 -4.9263
# 4 -2.0998 -1.0174 -6.1210 31.7578 -7.0771 -3.9511
# 5 -3.8042 0.2707 7.7057 -7.0771 24.8225 -6.8529
# 6 7.0430 6.4758 -4.9263 -3.9511 -6.8529 25.4071
#
#
#
# Elastic Compliance Matrix: (Units=1/GPa)
#
#
# Indices 1 2 3 4 5 6 
#
# 1 0.017228 0.001759 -0.000970 0.000821 0.001834 -0.004789
# 2 0.001759 0.009922 -0.002439 -0.000542 -0.000241 -0.003639
# 3 -0.000970 -0.002439 0.010347 0.001697 -0.002137 0.002584
# 4 0.000821 -0.000542 0.001697 0.035729 0.012308 0.009116
# 5 0.001834 -0.000241 -0.002137 0.012308 0.048656 0.014176
# 6 -0.004789 -0.003639 0.002584 0.009116 0.014176 0.047357
#
#
# Mechanical properties :
#
#
# Convention : Reuss Voigt Hill
#
# Bulk Modulus (GPa) = 29.24355 34.77090 32.00722
# Shear Modulus (GPa) = 27.18310 33.77686 30.47998
#
# Velocity S-wave (km/s) = 3.42587 3.81883 3.62767
# Velocity P-wave (km/s) = 5.31741 5.87003 5.60054
#
# Compressibility (1/GPa) = 0.03419558
#
# Stress axis : x y z
#
# Youngs Moduli (GPa) = 58.04520 100.78711 96.64987
#
# Poissons Ratio (x) = -0.17724 0.09373
# Poissons Ratio (y) = -0.10207 0.23575
# Poissons Ratio (z) = 0.05629 0.24584
#
# Static dielectric constant tensor:
#      x y z
#    x 2.062590 0.077220 -0.038680 
#    y 0.077220 2.110180 -0.129950 
#    z -0.038680 -0.129950 1.815370 
# 
# From -- ./inp_files/470188.got.cif
#   From: 2010.05.17/outbox.cif.g08.bks.cpg/sg2_236_cif.got.tgz:470188.got - 2010.06.03 11:33:40.
