data_PCOD9037302
_publ_section_title
;
Structure prediction by ZEFSAII (Michael W. Deem and Ramdas Pophale) SiO2 
 PCOD9037302
Probable space group: P -1
;
_chemical_formula_sum "Si O2"
_cell_formula_units_Z 14
_cell_length_a 5.508025
_cell_length_b 16.556050
_cell_length_c 10.248769
_cell_angle_alpha 132.836116
_cell_angle_beta 119.846169
_cell_angle_gamma 52.774276
_cell_volume 539.706864
_symmetry_space_group_name_H-M "P -1"
_symmetry_group_IT_number 2
_symmetry_cell_setting 'triclinic'
loop_
_space_group_symop_operation_xyz
x,y,z
-x,-y,-z
loop_
_atom_site_type_symbol
_atom_site_label
_atom_site_fract_x
_atom_site_fract_y
_atom_site_fract_z
Si Si1 0.861613 0.086001 0.876907
Si Si2 0.840510 0.487829 0.076129
Si Si3 0.779436 0.819788 0.744046
Si Si4 0.884169 0.101765 0.467622
Si Si5 0.705458 0.610278 0.601935
Si Si6 0.125753 0.209814 0.863172
Si Si7 0.845260 0.397171 0.574681
O O1 0.500578 0.143232 0.881360
O O2 0.956022 0.159169 0.868785
O O3 0.944357 0.956546 0.686695
O O4 0.088373 0.090884 0.059273
O O5 0.027106 0.350077 0.020134
O O6 0.500000 0.500000 0.000000
O O7 0.000000 0.500000 0.000000
O O8 0.854297 0.599970 0.281562
O O9 0.469649 0.870338 0.630983
O O10 0.712345 0.739203 0.750234
O O11 0.045266 0.711644 0.618397
O O12 0.988667 0.197665 0.670008
O O13 0.000000 0.000000 0.500000
O O14 0.673618 0.540553 0.645116
O O15 0.422071 0.623649 0.446562
O O16 0.000000 0.500000 0.500000
#
# Coordination Sequence:
#
# PCOD9037302 Si02
#       7
#     2   2   2   2   2   2   2
#     4  11  25  46  72 105 131 185 242 298 342 414
#     4  12  27  42  67 104 142 185 231 278 343 438
#     4  11  23  42  73 100 137 181 236 288 357 409
#     4  10  24  49  70  99 139 185 237 297 353 414
#     4   9  21  38  66  96 137 176 222 281 346 416
#     4  11  25  47  72  98 146 186 231 289 362 411
#     4  10  23  40  65 101 141 177 226 281 350 415
#
# _framework density 25.940007999999999
#
# number of rings (size 3 to 8) (size 9 to 14) (size 15 to 20)
#    0.000    1.429    0.000    3.429   14.000    1.143 
#    5.143    3.571    0.000    0.000    0.000    0.000 
#    0.000    0.000    0.000    0.000    0.000    0.000 
#
# Total GULP energy -78098.946267 kJ/mol
# GULP energy per Si atom -5578.496162 kJ/mol
# Density = 2.588097 g / cm^3
# Si number density = 25.940008 Si / 1000 Ang^3
#
#
#
# Elastic Constant Matrix: (Units=GPa)
#
#
# Indices 1 2 3 4 5 6 
#
# 1 138.9265 33.5399 24.5950 -11.4673 22.0765 -23.0758
# 2 33.5399 109.9993 18.2729 -21.8072 -0.0661 -21.8703
# 3 24.5950 18.2729 164.2429 -18.7005 30.8476 -10.4886
# 4 -11.4673 -21.8072 -18.7005 38.8240 -6.0245 11.5324
# 5 22.0765 -0.0661 30.8476 -6.0245 40.1301 1.4020
# 6 -23.0758 -21.8703 -10.4886 11.5324 1.4020 56.3109
#
#
#
# Elastic Compliance Matrix: (Units=1/GPa)
#
#
# Indices 1 2 3 4 5 6 
#
# 1 0.009023 -0.002208 0.000021 -0.000259 -0.005129 0.003025
# 2 -0.002208 0.011338 -0.000661 0.005100 0.002428 0.002271
# 3 0.000021 -0.000661 0.007485 0.002140 -0.005474 0.000844
# 4 -0.000259 0.005100 0.002140 0.031355 0.003361 -0.004232
# 5 -0.005129 0.002428 -0.005474 0.003361 0.032585 -0.003678
# 6 0.003025 0.002271 0.000844 -0.004232 -0.003678 0.020995
#
#
# Mechanical properties :
#
#
# Convention : Reuss Voigt Hill
#
# Bulk Modulus (GPa) = 45.14517 62.88712 54.01615
# Shear Modulus (GPa) = 39.72650 49.50372 44.61511
#
# Velocity S-wave (km/s) = 3.91765 4.37325 4.15171
# Velocity P-wave (km/s) = 6.15674 7.05666 6.62200
#
# Compressibility (1/GPa) = 0.02215076
#
# Stress axis : x y z
#
# Youngs Moduli (GPa) = 110.82395 88.19903 133.60688
#
# Poissons Ratio (x) = 0.19473 -0.00285
# Poissons Ratio (y) = 0.24468 0.08832
# Poissons Ratio (z) = -0.00236 0.05830
#
# Static dielectric constant tensor:
#      x y z
#    x 2.173630 0.084730 -0.046820 
#    y 0.084730 2.274660 -0.212050 
#    z -0.046820 -0.212050 2.308160 
# 
# From -- ./inp_files/370474.got.cif
#   From: 2010.05.17/outbox.cif.g08.bks.cpg/sg2_186_cif.got.tgz:370474.got - 2010.06.03 11:33:40.
