data_PCOD9037032
_publ_section_title
;
Structure prediction by ZEFSAII (Michael W. Deem and Ramdas Pophale) SiO2 
 PCOD9037032
Probable space group: P -1
;
_chemical_formula_sum "Si O2"
_cell_formula_units_Z 14
_cell_length_a 9.053435
_cell_length_b 6.975145
_cell_length_c 11.769316
_cell_angle_alpha 109.432979
_cell_angle_beta 72.107662
_cell_angle_gamma 129.305852
_cell_volume 537.563306
_symmetry_space_group_name_H-M "P -1"
_symmetry_group_IT_number 2
_symmetry_cell_setting 'triclinic'
loop_
_space_group_symop_operation_xyz
x,y,z
-x,-y,-z
loop_
_atom_site_type_symbol
_atom_site_label
_atom_site_fract_x
_atom_site_fract_y
_atom_site_fract_z
Si Si1 0.557098 0.353177 0.573911
Si Si2 0.171196 0.178403 0.740990
Si Si3 0.720471 0.606386 0.003558
Si Si4 0.747751 0.887438 0.699594
Si Si5 0.827346 0.424702 0.727292
Si Si6 0.408781 0.794865 0.886884
Si Si7 0.252947 0.673604 0.686007
O O1 0.340349 0.185556 0.639311
O O2 0.657574 0.654965 0.586451
O O3 0.689041 0.376802 0.649325
O O4 0.600418 0.253443 0.434287
O O5 0.213466 0.434584 0.721601
O O6 0.195712 0.179851 0.873794
O O7 0.952507 0.969414 0.713165
O O8 0.804842 0.574890 0.862234
O O9 0.500000 0.500000 0.000000
O O10 0.750346 0.434797 0.045412
O O11 0.574178 0.761759 0.806745
O O12 0.778937 0.150313 0.715405
O O13 0.051438 0.594867 0.674269
O O14 0.346271 0.868771 0.805905
O O15 0.500000 0.000000 0.000000
#
# Coordination Sequence:
#
# PCOD9037032 Si02
#       7
#     2   2   2   2   2   2   2
#     4  12  23  50  67  98 149 175 230 286 338 406
#     4  10  23  39  70 100 132 187 223 286 344 400
#     4  11  20  41  66  96 143 172 226 295 342 391
#     4  11  24  43  69 104 131 186 229 276 347 410
#     4  11  24  42  71 103 135 182 232 283 340 414
#     4  11  22  41  67  97 136 178 227 282 340 404
#     4  10  24  43  70  96 138 191 217 286 346 398
#
# _framework density 26.043444000000001
#
# number of rings (size 3 to 8) (size 9 to 14) (size 15 to 20)
#    0.000    1.143    5.714    0.857    2.000    4.000 
#    5.143    2.143    3.143    0.000    0.000    0.000 
#    0.000    0.000    0.000    0.000    0.000    0.000 
#
# Total GULP energy -78110.586795 kJ/mol
# GULP energy per Si atom -5579.327628 kJ/mol
# Density = 2.598417 g / cm^3
# Si number density = 26.043444 Si / 1000 Ang^3
#
#
#
# Elastic Constant Matrix: (Units=GPa)
#
#
# Indices 1 2 3 4 5 6 
#
# 1 143.5243 29.2754 7.7248 -15.6529 -8.5105 16.6436
# 2 29.2754 76.6103 14.0805 2.8856 -3.1190 8.2616
# 3 7.7248 14.0805 98.0724 -6.2628 8.4580 -10.8965
# 4 -15.6529 2.8856 -6.2628 25.6272 -4.8959 0.5626
# 5 -8.5105 -3.1190 8.4580 -4.8959 28.3798 4.7471
# 6 16.6436 8.2616 -10.8965 0.5626 4.7471 47.4150
#
#
#
# Elastic Compliance Matrix: (Units=1/GPa)
#
#
# Indices 1 2 3 4 5 6 
#
# 1 0.008958 -0.003044 -0.000573 0.006547 0.004194 -0.003243
# 2 -0.003044 0.015117 -0.002530 -0.003901 0.001201 -0.002221
# 3 -0.000573 -0.002530 0.011492 0.001867 -0.004168 0.003678
# 4 0.006547 -0.003901 0.001867 0.045754 0.009317 -0.002665
# 5 0.004194 0.001201 -0.004168 0.009317 0.040616 -0.006816
# 6 -0.003243 -0.002221 0.003678 -0.002665 -0.006816 0.024175
#
#
# Mechanical properties :
#
#
# Convention : Reuss Voigt Hill
#
# Bulk Modulus (GPa) = 42.96710 46.70761 44.83735
# Shear Modulus (GPa) = 30.09107 38.09283 34.09195
#
# Velocity S-wave (km/s) = 3.40283 3.82863 3.62199
# Velocity P-wave (km/s) = 5.65447 6.12519 5.89453
#
# Compressibility (1/GPa) = 0.02327362
#
# Stress axis : x y z
#
# Youngs Moduli (GPa) = 111.63232 66.15235 87.01560
#
# Poissons Ratio (x) = 0.20137 0.04982
# Poissons Ratio (y) = 0.33981 0.22015
# Poissons Ratio (z) = 0.06392 0.16737
#
# Static dielectric constant tensor:
#      x y z
#    x 2.122190 -0.158550 -0.107430 
#    y -0.158550 2.383080 0.266680 
#    z -0.107430 0.266680 2.285080 
# 
# From -- ./inp_files/379894.got.cif
#   From: 2010.05.17/outbox.cif.g08.bks.cpg/sg2_190_cif.got.tgz:379894.got - 2010.06.03 11:33:40.
