data_PCOD9037684
_publ_section_title
;
Structure prediction by ZEFSAII (Michael W. Deem and Ramdas Pophale) SiO2 
 PCOD9037684
Probable space group: P -1
;
_chemical_formula_sum "Si O2"
_cell_formula_units_Z 14
_cell_length_a 8.843789
_cell_length_b 8.052119
_cell_length_c 9.091508
_cell_angle_alpha 88.294297
_cell_angle_beta 109.868132
_cell_angle_gamma 107.171557
_cell_volume 579.943702
_symmetry_space_group_name_H-M "P -1"
_symmetry_group_IT_number 2
_symmetry_cell_setting 'triclinic'
loop_
_space_group_symop_operation_xyz
x,y,z
-x,-y,-z
loop_
_atom_site_type_symbol
_atom_site_label
_atom_site_fract_x
_atom_site_fract_y
_atom_site_fract_z
Si Si1 0.212507 0.280878 0.780852
Si Si2 0.442596 0.799478 0.625470
Si Si3 0.456740 0.336371 0.601059
Si Si4 0.910795 0.407867 0.615870
Si Si5 0.653035 0.595242 0.880622
Si Si6 0.997586 0.660436 0.890624
Si Si7 0.680195 0.056833 0.136278
O O1 0.288937 0.316471 0.640852
O O2 0.025430 0.295910 0.721346
O O3 0.234954 0.096822 0.833018
O O4 0.325898 0.414872 0.935756
O O5 0.559893 0.825323 0.514424
O O6 0.274203 0.699118 0.485125
O O7 0.527128 0.694818 0.771033
O O8 0.371318 0.912189 0.714419
O O9 0.500000 0.500000 0.500000
O O10 0.596479 0.408646 0.778239
O O11 0.000000 0.500000 0.500000
O O12 0.919064 0.566760 0.718805
O O13 0.843518 0.719752 0.901426
O O14 0.181402 0.785932 0.905734
O O15 0.000000 0.500000 0.000000
O O16 0.500000 0.000000 0.000000
#
# Coordination Sequence:
#
# PCOD9037684 Si02
#       7
#     2   2   2   2   2   2   2
#     4  12  27  46  75 108 159 201 247 307 389 445
#     4  11  24  46  75 107 156 193 255 310 378 445
#     4  10  23  40  74 112 140 195 255 314 359 441
#     4  12  24  46  75 112 146 199 255 318 367 445
#     4  11  23  45  76 111 145 200 256 315 368 451
#     4  12  27  47  80 113 148 200 264 308 372 454
#     4  12  29  51  74 114 158 202 246 316 386 457
#
# _framework density 24.140272
#
# number of rings (size 3 to 8) (size 9 to 14) (size 15 to 20)
#    0.000    0.571    5.714    2.143    4.000    1.714 
#    0.000    0.000    0.000    0.000    0.000    0.000 
#    0.000    0.000    0.000    0.000    0.000    0.000 
#
# Total GULP energy -78047.975786 kJ/mol
# GULP energy per Si atom -5574.855413 kJ/mol
# Density = 2.408533 g / cm^3
# Si number density = 24.140272 Si / 1000 Ang^3
#
#
#
# Elastic Constant Matrix: (Units=GPa)
#
#
# Indices 1 2 3 4 5 6 
#
# 1 126.0376 32.1136 37.7687 -1.4913 14.7878 -6.1583
# 2 32.1136 65.1249 28.6957 -7.8726 6.3690 0.6663
# 3 37.7687 28.6957 139.7458 3.7261 -2.8465 0.5703
# 4 -1.4913 -7.8726 3.7261 37.4718 -5.0064 -4.0863
# 5 14.7878 6.3690 -2.8465 -5.0064 68.7201 -0.1906
# 6 -6.1583 0.6663 0.5703 -4.0863 -0.1906 37.9823
#
#
#
# Elastic Compliance Matrix: (Units=1/GPa)
#
#
# Indices 1 2 3 4 5 6 
#
# 1 0.009776 -0.003863 -0.001885 -0.000302 -0.001841 0.001639
# 2 -0.003863 0.019152 -0.003009 0.004012 -0.000777 -0.000489
# 3 -0.001885 -0.003009 0.008343 -0.001472 0.000921 -0.000532
# 4 -0.000302 0.004012 -0.001472 0.028212 0.001696 0.002946
# 5 -0.001841 -0.000777 0.000921 0.001696 0.015182 -0.000040
# 6 0.001639 -0.000489 -0.000532 0.002946 -0.000040 0.026927
#
#
# Mechanical properties :
#
#
# Convention : Reuss Voigt Hill
#
# Bulk Modulus (GPa) = 50.61708 58.67381 54.64544
# Shear Modulus (GPa) = 37.96715 44.32353 41.14534
#
# Velocity S-wave (km/s) = 3.97012 4.28960 4.13295
# Velocity P-wave (km/s) = 6.48300 6.99231 6.74246
#
# Compressibility (1/GPa) = 0.01975618
#
# Stress axis : x y z
#
# Youngs Moduli (GPa) = 102.29283 52.21339 119.85474
#
# Poissons Ratio (x) = 0.20171 0.22592
# Poissons Ratio (y) = 0.39518 0.36070
# Poissons Ratio (z) = 0.19281 0.15713
#
# Static dielectric constant tensor:
#      x y z
#    x 2.146780 -0.058740 -0.137530 
#    y -0.058740 2.043480 0.039510 
#    z -0.137530 0.039510 1.968190 
# 
# From -- ./inp_files/158898.got.cif
#   From: 2010.05.17/outbox.cif.g08.bks.cpg/sg2_80_cif.got.tgz:158898.got - 2010.06.03 11:33:40.
