data_PCOD9037050
_publ_section_title
;
Structure prediction by ZEFSAII (Michael W. Deem and Ramdas Pophale) SiO2 
 PCOD9037050
Probable space group: P -1
;
_chemical_formula_sum "Si O2"
_cell_formula_units_Z 16
_cell_length_a 12.283952
_cell_length_b 9.241711
_cell_length_c 21.005562
_cell_angle_alpha 149.117324
_cell_angle_beta 43.920438
_cell_angle_gamma 141.719074
_cell_volume 750.096116
_symmetry_space_group_name_H-M "P -1"
_symmetry_group_IT_number 2
_symmetry_cell_setting 'triclinic'
loop_
_space_group_symop_operation_xyz
x,y,z
-x,-y,-z
loop_
_atom_site_type_symbol
_atom_site_label
_atom_site_fract_x
_atom_site_fract_y
_atom_site_fract_z
Si Si1 0.309364 0.579525 0.742891
Si Si2 0.919931 0.750204 0.629190
Si Si3 0.095963 0.373088 0.865167
Si Si4 0.028808 0.177177 0.122923
Si Si5 0.491754 0.696713 0.356378
Si Si6 0.669374 0.674050 0.156320
Si Si7 0.030417 0.204873 0.629018
Si Si8 0.586821 0.750838 0.002898
O O1 0.132491 0.520343 0.835445
O O2 0.395473 0.398613 0.677264
O O3 0.237070 0.434082 0.649686
O O4 0.422393 0.948534 0.847959
O O5 0.710352 0.575820 0.663220
O O6 0.000000 0.500000 0.500000
O O7 0.008806 0.000148 0.744338
O O8 0.958023 0.948561 0.621433
O O9 0.276460 0.492832 0.873378
O O10 0.000000 0.500000 0.000000
O O11 0.215465 0.201678 0.077856
O O12 0.042346 0.532160 0.246912
O O13 0.850146 0.944740 0.150516
O O14 0.000000 0.000000 0.000000
O O15 0.563612 0.800812 0.293365
O O16 0.500000 0.000000 0.500000
O O17 0.541527 0.405737 0.061368
O O18 0.000000 0.000000 0.500000
O O19 0.500000 0.500000 0.000000
#
# Coordination Sequence:
#
# PCOD9037050 Si02
#       8
#     2   2   2   2   2   2   2   2
#     4  10  23  44  65 101 144 177 238 305 354 423
#     4  11  26  48  74 103 146 193 240 301 369 428
#     4  10  23  39  71 103 137 184 237 299 358 423
#     4  12  25  47  72 103 152 190 238 305 362 435
#     4  11  26  45  72 102 145 191 245 307 358 436
#     4  11  26  43  72 108 142 190 248 291 371 430
#     4  11  26  46  75 105 140 195 246 293 371 441
#     4  12  25  42  71 106 146 192 239 299 369 431
#
# _framework density 21.330601999999999
#
# number of rings (size 3 to 8) (size 9 to 14) (size 15 to 20)
#    0.000    1.000    2.500    3.000   12.250    2.000 
#    0.000    0.625    0.000    0.000    0.000    0.000 
#    0.000    0.000    0.000    0.000    0.000    0.000 
#
# Total GULP energy -89114.082396 kJ/mol
# GULP energy per Si atom -5569.630150 kJ/mol
# Density = 2.128205 g / cm^3
# Si number density = 21.330602 Si / 1000 Ang^3
#
#
#
# Elastic Constant Matrix: (Units=GPa)
#
#
# Indices 1 2 3 4 5 6 
#
# 1 123.5768 17.6531 62.5070 6.8288 28.3420 11.1712
# 2 17.6531 87.5216 36.1034 -1.1151 11.1010 1.3820
# 3 62.5070 36.1034 175.9112 12.3832 23.4681 -10.3116
# 4 6.8288 -1.1151 12.3832 30.2523 -5.8158 0.6452
# 5 28.3420 11.1010 23.4681 -5.8158 52.3670 5.5350
# 6 11.1712 1.3820 -10.3116 0.6452 5.5350 30.9934
#
#
#
# Elastic Compliance Matrix: (Units=1/GPa)
#
#
# Indices 1 2 3 4 5 6 
#
# 1 0.011419 -0.000242 -0.003574 -0.001846 -0.004257 -0.004495
# 2 -0.000242 0.012700 -0.002529 0.001360 -0.001156 -0.001142
# 3 -0.003574 -0.002529 0.008238 -0.003151 -0.002055 0.004574
# 4 -0.001846 0.001360 -0.003151 0.036088 0.006378 -0.002334
# 5 -0.004257 -0.001156 -0.002055 0.006378 0.023639 -0.003452
# 6 -0.004495 -0.001142 0.004574 -0.002334 -0.003452 0.036123
#
#
# Mechanical properties :
#
#
# Convention : Reuss Voigt Hill
#
# Bulk Modulus (GPa) = 50.84407 68.83740 59.84074
# Shear Modulus (GPa) = 33.90958 40.77229 37.34094
#
# Velocity S-wave (km/s) = 3.99145 4.37675 4.18853
# Velocity P-wave (km/s) = 6.71790 7.60809 7.17681
#
# Compressibility (1/GPa) = 0.01966798
#
# Stress axis : x y z
#
# Youngs Moduli (GPa) = 87.57323 78.74168 121.39457
#
# Poissons Ratio (x) = 0.01903 0.43380
# Poissons Ratio (y) = 0.02116 0.30701
# Poissons Ratio (z) = 0.31294 0.19914
#
# Static dielectric constant tensor:
#      x y z
#    x 1.810470 0.047490 -0.125480 
#    y 0.047490 1.892280 -0.041790 
#    z -0.125480 -0.041790 1.594950 
# 
# From -- ./inp_files/594308.got.cif
#   From: 2010.05.17/outbox.cif.g08.bks.cpg/sg2_298_cif.got.tgz:594308.got - 2010.06.03 11:33:40.
