data_PCOD9037909
_publ_section_title
;
Structure prediction by ZEFSAII (Michael W. Deem and Ramdas Pophale) SiO2 
 PCOD9037909
Probable space group: P -1
;
_chemical_formula_sum "Si O2"
_cell_formula_units_Z 14
_cell_length_a 21.704804
_cell_length_b 10.328057
_cell_length_c 9.628981
_cell_angle_alpha 51.804883
_cell_angle_beta 28.736115
_cell_angle_gamma 33.589029
_cell_volume 520.649449
_symmetry_space_group_name_H-M "P -1"
_symmetry_group_IT_number 2
_symmetry_cell_setting 'triclinic'
loop_
_space_group_symop_operation_xyz
x,y,z
-x,-y,-z
loop_
_atom_site_type_symbol
_atom_site_label
_atom_site_fract_x
_atom_site_fract_y
_atom_site_fract_z
Si Si1 0.608947 0.550035 0.682529
Si Si2 0.006425 0.031444 0.663737
Si Si3 0.233717 0.158732 0.636865
Si Si4 0.076792 0.281233 0.174718
Si Si5 0.462904 0.544819 0.708570
Si Si6 0.628106 0.909039 0.073405
Si Si7 0.805495 0.964045 0.473556
O O1 0.552737 0.597122 0.598540
O O2 0.515382 0.806022 0.764751
O O3 0.500000 0.500000 0.000000
O O4 0.840809 0.274298 0.437883
O O5 0.080279 0.103839 0.364891
O O6 0.037064 0.083471 0.720666
O O7 0.775836 0.229184 0.953956
O O8 0.473774 0.927040 0.312489
O O9 0.149293 0.112668 0.724254
O O10 0.142513 0.423030 0.593406
O O11 0.163836 0.195301 0.905788
O O12 0.214507 0.274091 0.993453
O O13 0.500000 0.500000 0.500000
O O14 0.590009 0.266364 0.700767
O O15 0.762327 0.841251 0.725867
#
# Coordination Sequence:
#
# PCOD9037909 Si02
#       7
#     2   2   2   2   2   2   2
#     4  11  22  43  67 101 131 170 226 263 321 404
#     4  10  23  45  69  93 133 176 214 273 332 389
#     4  11  24  41  64 100 131 172 221 272 316 390
#     4  10  23  41  64  96 130 171 224 259 331 390
#     4  11  25  43  66 100 129 173 221 270 337 384
#     4  11  22  43  66  94 136 175 214 268 323 387
#     4  10  23  42  63  97 135 170 222 266 325 393
#
# _framework density 26.889492000000001
#
# number of rings (size 3 to 8) (size 9 to 14) (size 15 to 20)
#    0.000    1.429    4.286    1.714    2.000    7.429 
#    7.714    0.000    0.000    0.000    0.000    0.000 
#    0.000    0.000    0.000    0.000    0.000    0.000 
#
# Total GULP energy -78487.550876 kJ/mol
# GULP energy per Si atom -5606.253634 kJ/mol
# Density = 2.682829 g / cm^3
# Si number density = 26.889492 Si / 1000 Ang^3
#
#
#
# Elastic Constant Matrix: (Units=GPa)
#
#
# Indices 1 2 3 4 5 6 
#
# 1 148.8135 29.4031 25.3748 -9.4142 1.7089 -38.7629
# 2 29.4031 103.5019 17.1617 20.8096 -12.6946 -24.4309
# 3 25.3748 17.1617 72.6281 14.6450 -21.6098 -16.5980
# 4 -9.4142 20.8096 14.6450 36.8615 -18.2928 -5.5634
# 5 1.7089 -12.6946 -21.6098 -18.2928 50.7010 1.4938
# 6 -38.7629 -24.4309 -16.5980 -5.5634 1.4938 39.8282
#
#
#
# Elastic Compliance Matrix: (Units=1/GPa)
#
#
# Indices 1 2 3 4 5 6 
#
# 1 0.010029 -0.001566 -0.002279 0.005706 0.000103 0.008644
# 2 -0.001566 0.012760 0.000367 -0.006465 0.000909 0.005519
# 3 -0.002279 0.000367 0.018303 -0.004203 0.006312 0.004812
# 4 0.005706 -0.006465 -0.004203 0.039956 0.010666 0.005018
# 5 0.000103 0.000909 0.006312 0.010666 0.026374 0.003789
# 6 0.008644 0.005519 0.004812 0.005018 0.003789 0.039470
#
#
# Mechanical properties :
#
#
# Convention : Reuss Voigt Hill
#
# Bulk Modulus (GPa) = 29.29264 52.09141 40.69202
# Shear Modulus (GPa) = 30.26179 42.34508 36.30344
#
# Velocity S-wave (km/s) = 3.35836 3.97266 3.67835
# Velocity P-wave (km/s) = 5.09465 6.36059 5.76249
#
# Compressibility (1/GPa) = 0.03413827
#
# Stress axis : x y z
#
# Youngs Moduli (GPa) = 99.70978 78.37289 54.63540
#
# Poissons Ratio (x) = 0.12269 0.12449
# Poissons Ratio (y) = 0.15610 -0.02007
# Poissons Ratio (z) = 0.22719 -0.02879
#
# Static dielectric constant tensor:
#      x y z
#    x 2.135860 0.046740 -0.015740 
#    y 0.046740 2.110180 -0.022880 
#    z -0.015740 -0.022880 2.040790 
# 
# From -- ./inp_files/346020.got.cif
#   From: 2010.05.17/outbox.cif.g08.bks.cpg/sg2_174_cif.got.tgz:346020.got - 2010.06.03 11:33:40.
