data_PCOD9037790
_publ_section_title
;
Structure prediction by ZEFSAII (Michael W. Deem and Ramdas Pophale) SiO2 
 PCOD9037790
Probable space group: P -1
;
_chemical_formula_sum "Si O2"
_cell_formula_units_Z 16
_cell_length_a 13.533824
_cell_length_b 6.372393
_cell_length_c 17.223993
_cell_angle_alpha 106.482863
_cell_angle_beta 28.453618
_cell_angle_gamma 115.169600
_cell_volume 626.370004
_symmetry_space_group_name_H-M "P -1"
_symmetry_group_IT_number 2
_symmetry_cell_setting 'triclinic'
loop_
_space_group_symop_operation_xyz
x,y,z
-x,-y,-z
loop_
_atom_site_type_symbol
_atom_site_label
_atom_site_fract_x
_atom_site_fract_y
_atom_site_fract_z
Si Si1 0.977048 0.760781 0.598862
Si Si2 0.537250 0.881370 0.350921
Si Si3 0.720445 0.613607 0.080460
Si Si4 0.286461 0.161343 0.355702
Si Si5 0.326298 0.257915 0.051832
Si Si6 0.939487 0.551158 0.385898
Si Si7 0.346084 0.225448 0.573870
Si Si8 0.875913 0.266675 0.876276
O O1 0.806468 0.803257 0.660509
O O2 0.892007 0.804421 0.747808
O O3 0.974582 0.505458 0.598094
O O4 0.225120 0.901892 0.404850
O O5 0.694655 0.817443 0.173647
O O6 0.292303 0.664490 0.497466
O O7 0.651673 0.892373 0.356512
O O8 0.463879 0.105024 0.419699
O O9 0.523008 0.369907 0.218771
O O10 0.686722 0.679269 0.022519
O O11 0.905939 0.495582 0.934347
O O12 0.128223 0.228647 0.531577
O O13 0.334702 0.991185 0.008534
O O14 0.500000 0.500000 0.000000
O O15 0.115122 0.624164 0.203849
O O16 0.500000 0.500000 0.500000
O O17 0.097240 0.213195 0.731027
#
# Coordination Sequence:
#
# PCOD9037790 Si02
#       8
#     2   2   2   2   2   2   2   2
#     4  11  21  40  69  96 145 199 260 303 364 439
#     4  10  25  45  77 112 146 190 252 314 381 456
#     4  11  26  46  71 114 157 194 253 317 383 448
#     4  10  23  41  63 103 141 197 257 310 359 433
#     4  12  25  46  68 105 160 210 246 309 382 449
#     4  11  21  40  69 103 141 195 249 304 363 449
#     4  11  24  48  81 113 145 194 252 316 384 466
#     4  12  26  44  76 109 153 202 252 310 390 448
#
# _framework density 25.544004999999999
#
# number of rings (size 3 to 8) (size 9 to 14) (size 15 to 20)
#    0.000    1.000    5.000    1.125    0.000    4.000 
#    4.500    1.250    0.000    0.000    0.000    0.000 
#    0.000    0.000    0.000    0.000    0.000    0.000 
#
# Total GULP energy -89142.079102 kJ/mol
# GULP energy per Si atom -5571.379944 kJ/mol
# Density = 2.548587 g / cm^3
# Si number density = 25.544005 Si / 1000 Ang^3
#
#
#
# Elastic Constant Matrix: (Units=GPa)
#
#
# Indices 1 2 3 4 5 6 
#
# 1 97.1052 37.1864 40.0109 15.8113 15.3492 -10.9130
# 2 37.1864 152.7285 43.7238 20.1280 6.9983 3.5103
# 3 40.0109 43.7238 86.5188 1.8606 21.4698 -15.9852
# 4 15.8113 20.1280 1.8606 36.9765 -5.7319 2.1928
# 5 15.3492 6.9983 21.4698 -5.7319 34.1860 -9.1269
# 6 -10.9130 3.5103 -15.9852 2.1928 -9.1269 35.8640
#
#
#
# Elastic Compliance Matrix: (Units=1/GPa)
#
#
# Indices 1 2 3 4 5 6 
#
# 1 0.014482 -0.001283 -0.004625 -0.005967 -0.003840 0.001859
# 2 -0.001283 0.008630 -0.004237 -0.003754 0.000073 -0.002875
# 3 -0.004625 -0.004237 0.018505 0.001962 -0.006913 0.005376
# 4 -0.005967 -0.003754 0.001962 0.032747 0.007530 -0.000660
# 5 -0.003840 0.000073 -0.006913 0.007530 0.037879 0.004922
# 6 0.001859 -0.002875 0.005376 -0.000660 0.004922 0.032419
#
#
# Mechanical properties :
#
#
# Convention : Reuss Voigt Hill
#
# Bulk Modulus (GPa) = 46.88443 64.24385 55.56414
# Shear Modulus (GPa) = 29.05940 35.76739 32.41340
#
# Velocity S-wave (km/s) = 3.37652 3.74602 3.56606
# Velocity P-wave (km/s) = 5.79616 6.62685 6.22537
#
# Compressibility (1/GPa) = 0.02132904
#
# Stress axis : x y z
#
# Youngs Moduli (GPa) = 69.05012 115.86985 54.04015
#
# Poissons Ratio (x) = 0.14861 0.24992
# Poissons Ratio (y) = 0.08856 0.22897
# Poissons Ratio (z) = 0.31933 0.49094
#
# Static dielectric constant tensor:
#      x y z
#    x 2.040670 0.030550 -0.051200 
#    y 0.030550 2.190260 0.091690 
#    z -0.051200 0.091690 2.131060 
# 
# From -- ./inp_files/571716.got.cif
#   From: 2010.05.17/outbox.cif.g08.bks.cpg/sg2_286_cif.got.tgz:571716.got - 2010.06.03 11:33:40.
