data_PCOD9037994
_publ_section_title
;
Structure prediction by ZEFSAII (Michael W. Deem and Ramdas Pophale) SiO2 
 PCOD9037994
Probable space group: P -1
;
_chemical_formula_sum "Si O2"
_cell_formula_units_Z 12
_cell_length_a 19.049588
_cell_length_b 14.798582
_cell_length_c 7.307152
_cell_angle_alpha 55.537124
_cell_angle_beta 114.702613
_cell_angle_gamma 160.490644
_cell_volume 514.910710
_symmetry_space_group_name_H-M "P -1"
_symmetry_group_IT_number 2
_symmetry_cell_setting 'triclinic'
loop_
_space_group_symop_operation_xyz
x,y,z
-x,-y,-z
loop_
_atom_site_type_symbol
_atom_site_label
_atom_site_fract_x
_atom_site_fract_y
_atom_site_fract_z
Si Si1 0.513268 0.258394 0.855789
Si Si2 0.714484 0.556995 0.119020
Si Si3 0.082614 0.837530 0.878755
Si Si4 0.228905 0.616110 0.595270
Si Si5 0.840830 0.380761 0.866373
Si Si6 0.176497 0.208363 0.681737
O O1 0.739433 0.600905 0.605204
O O2 0.414816 0.013230 0.950693
O O3 0.545196 0.302148 0.059296
O O4 0.316995 0.086725 0.806015
O O5 0.784828 0.531373 0.300391
O O6 0.649635 0.542530 0.240714
O O7 0.927990 0.900838 0.853535
O O8 0.937704 0.594493 0.170060
O O9 0.911679 0.585529 0.813011
O O10 0.152828 0.053956 0.759251
O O11 0.500000 0.000000 0.500000
O O12 0.136594 0.566216 0.385542
O O13 0.000000 0.500000 0.000000
#
# Coordination Sequence:
#
# PCOD9037994 Si02
#       6
#     2   2   2   2   2   2
#     4  11  22  40  67  95 129 172 217 270 322 382
#     4  10  23  41  65  96 126 174 220 264 324 384
#     4  10  25  42  65  97 132 173 219 263 329 387
#     4  11  23  43  66  95 132 171 216 268 320 387
#     4  10  24  42  66  99 130 169 214 268 327 381
#     4  10  23  42  63  94 134 172 216 269 320 390
#
# _framework density 23.305012000000001
#
# number of rings (size 3 to 8) (size 9 to 14) (size 15 to 20)
#    0.000    1.667    1.667    1.000    2.333   13.333 
#    0.000    0.000    0.000    0.000    0.000    0.000 
#    0.000    0.000    0.000    0.000    0.000    0.000 
#
# Total GULP energy -66995.791239 kJ/mol
# GULP energy per Si atom -5582.982603 kJ/mol
# Density = 2.325197 g / cm^3
# Si number density = 23.305012 Si / 1000 Ang^3
#
#
#
# Elastic Constant Matrix: (Units=GPa)
#
#
# Indices 1 2 3 4 5 6 
#
# 1 80.2187 42.7184 12.5049 -0.7566 1.4432 -25.2378
# 2 42.7184 118.9719 34.4598 20.2142 10.1927 -30.5705
# 3 12.5049 34.4598 84.2983 7.4758 1.0829 -16.0442
# 4 -0.7566 20.2142 7.4758 43.4829 -5.8557 -2.7303
# 5 1.4432 10.1927 1.0829 -5.8557 18.4595 -2.0085
# 6 -25.2378 -30.5705 -16.0442 -2.7303 -2.0085 48.1488
#
#
#
# Elastic Compliance Matrix: (Units=1/GPa)
#
#
# Indices 1 2 3 4 5 6 
#
# 1 0.017308 -0.005803 0.000554 0.003770 0.003661 0.005939
# 2 -0.005803 0.014646 -0.003548 -0.007280 -0.009269 0.004276
# 3 0.000554 -0.003548 0.013752 -0.000366 0.001281 0.002653
# 4 0.003770 -0.007280 -0.000366 0.028168 0.012612 -0.000645
# 5 0.003661 -0.009269 0.001281 0.012612 0.062908 -0.000200
# 6 0.005939 0.004276 0.002653 -0.000645 -0.000200 0.027435
#
#
# Mechanical properties :
#
#
# Convention : Reuss Voigt Hill
#
# Bulk Modulus (GPa) = 35.57290 51.42836 43.50063
# Shear Modulus (GPa) = 26.15296 34.93863 30.54579
#
# Velocity S-wave (km/s) = 3.35356 3.87614 3.62428
# Velocity P-wave (km/s) = 5.50385 6.49215 6.01832
#
# Compressibility (1/GPa) = 0.02811129
#
# Stress axis : x y z
#
# Youngs Moduli (GPa) = 57.77677 68.27644 72.71827
#
# Poissons Ratio (x) = 0.39622 -0.04027
# Poissons Ratio (y) = 0.33529 0.25800
# Poissons Ratio (z) = -0.03199 0.24224
#
# Static dielectric constant tensor:
#      x y z
#    x 1.969750 0.027680 0.063130 
#    y 0.027680 1.983260 0.048080 
#    z 0.063130 0.048080 1.898960 
# 
# From -- ./inp_files/30067.got.cif
#   From: 2010.05.17/outbox.cif.g08.bks.cpg/sg2_16_cif.got.tgz:30067.got - 2010.06.03 11:33:40.
