data_PCOD9037797
_publ_section_title
;
Structure prediction by ZEFSAII (Michael W. Deem and Ramdas Pophale) SiO2 
 PCOD9037797
Probable space group: P -1
;
_chemical_formula_sum "Si O2"
_cell_formula_units_Z 16
_cell_length_a 14.449254
_cell_length_b 9.078962
_cell_length_c 10.519486
_cell_angle_alpha 42.300507
_cell_angle_beta 119.396692
_cell_angle_gamma 116.508035
_cell_volume 800.972792
_symmetry_space_group_name_H-M "P -1"
_symmetry_group_IT_number 2
_symmetry_cell_setting 'triclinic'
loop_
_space_group_symop_operation_xyz
x,y,z
-x,-y,-z
loop_
_atom_site_type_symbol
_atom_site_label
_atom_site_fract_x
_atom_site_fract_y
_atom_site_fract_z
Si Si1 0.368987 0.460124 0.035120
Si Si2 0.229768 0.573093 0.091816
Si Si3 0.323179 0.038708 0.122688
Si Si4 0.075278 0.867698 0.050646
Si Si5 0.398990 0.612839 0.401538
Si Si6 0.122062 0.966924 0.733993
Si Si7 0.389443 0.458418 0.774029
Si Si8 0.938809 0.633099 0.702534
O O1 0.272988 0.489273 0.044392
O O2 0.363840 0.200203 0.163778
O O3 0.482668 0.547424 0.120687
O O4 0.362618 0.568077 0.821230
O O5 0.309884 0.544354 0.279225
O O6 0.119296 0.442154 0.154920
O O7 0.222240 0.832907 0.904944
O O8 0.202253 0.920467 0.138395
O O9 0.407049 0.877316 0.244715
O O10 0.322733 0.216698 0.896433
O O11 0.046703 0.600392 0.203319
O O12 0.069046 0.952978 0.846869
O O13 0.000000 0.000000 0.000000
O O14 0.500000 0.500000 0.500000
O O15 0.367698 0.552932 0.563780
O O16 0.047239 0.796644 0.699759
O O17 0.129783 0.210534 0.525154
#
# Coordination Sequence:
#
# PCOD9037797 Si02
#       8
#     2   2   2   2   2   2   2   2
#     4   9  21  44  60  86 130 168 211 263 322 369
#     4  11  21  41  65  95 124 169 214 268 318 380
#     4  10  23  41  63  89 128 170 208 264 327 371
#     4  11  23  39  66  96 131 167 204 270 325 384
#     4  12  23  40  64  95 124 169 216 260 317 380
#     4  10  23  43  65  90 131 168 215 268 316 385
#     4   9  22  43  59  87 130 161 212 266 307 377
#     4  10  23  42  65  93 127 166 220 262 319 388
#
# _framework density 19.975709999999999
#
# number of rings (size 3 to 8) (size 9 to 14) (size 15 to 20)
#    0.750    1.000    3.750    1.500    5.250    1.500 
#    4.500    0.000    0.000    0.000    0.000    0.000 
#    0.000    0.000    0.000    0.000    0.000    0.000 
#
# Total GULP energy -89079.324203 kJ/mol
# GULP energy per Si atom -5567.457763 kJ/mol
# Density = 1.993024 g / cm^3
# Si number density = 19.975710 Si / 1000 Ang^3
#
#
#
# Elastic Constant Matrix: (Units=GPa)
#
#
# Indices 1 2 3 4 5 6 
#
# 1 63.5881 34.0070 17.6328 -4.3672 8.0375 -14.1529
# 2 34.0070 76.4981 15.7157 -10.1295 5.3996 -2.2336
# 3 17.6328 15.7157 102.1745 3.9274 -9.4709 -3.8893
# 4 -4.3672 -10.1295 3.9274 30.7089 -0.7902 -1.4265
# 5 8.0375 5.3996 -9.4709 -0.7902 29.2379 5.8266
# 6 -14.1529 -2.2336 -3.8893 -1.4265 5.8266 28.0443
#
#
#
# Elastic Compliance Matrix: (Units=1/GPa)
#
#
# Indices 1 2 3 4 5 6 
#
# 1 0.026259 -0.009725 -0.003416 0.001375 -0.009282 0.014002
# 2 -0.009725 0.018243 -0.001469 0.004657 -0.000379 -0.003343
# 3 -0.003416 -0.001469 0.011103 -0.002329 0.005036 -0.001466
# 4 0.001375 0.004657 -0.002329 0.034684 -0.001622 0.002843
# 5 -0.009282 -0.000379 0.005036 -0.001622 0.040923 -0.012601
# 6 0.014002 -0.003343 -0.001466 0.002843 -0.012601 0.045017
#
#
# Mechanical properties :
#
#
# Convention : Reuss Voigt Hill
#
# Bulk Modulus (GPa) = 37.90143 41.88574 39.89359
# Shear Modulus (GPa) = 23.33778 29.25856 26.29817
#
# Velocity S-wave (km/s) = 3.42176 3.83130 3.63231
# Velocity P-wave (km/s) = 5.88440 6.37069 6.13237
#
# Compressibility (1/GPa) = 0.02638423
#
# Stress axis : x y z
#
# Youngs Moduli (GPa) = 38.08254 54.81448 90.06412
#
# Poissons Ratio (x) = 0.53309 0.30766
# Poissons Ratio (y) = 0.37037 0.13232
# Poissons Ratio (z) = 0.13009 0.08053
#
# Static dielectric constant tensor:
#      x y z
#    x 1.713900 0.022560 0.016840 
#    y 0.022560 1.751010 0.032230 
#    z 0.016840 0.032230 1.749650 
# 
# From -- ./inp_files/460960.got.cif
#   From: 2010.05.17/outbox.cif.g08.bks.cpg/sg2_231_cif.got.tgz:460960.got - 2010.06.03 11:33:40.
