data_PCOD9037540
_publ_section_title
;
Structure prediction by ZEFSAII (Michael W. Deem and Ramdas Pophale) SiO2 
 PCOD9037540
Probable space group: P -1
;
_chemical_formula_sum "Si O2"
_cell_formula_units_Z 16
_cell_length_a 9.208466
_cell_length_b 11.921327
_cell_length_c 17.325977
_cell_angle_alpha 130.766889
_cell_angle_beta 37.068631
_cell_angle_gamma 105.025182
_cell_volume 711.365605
_symmetry_space_group_name_H-M "P -1"
_symmetry_group_IT_number 2
_symmetry_cell_setting 'triclinic'
loop_
_space_group_symop_operation_xyz
x,y,z
-x,-y,-z
loop_
_atom_site_type_symbol
_atom_site_label
_atom_site_fract_x
_atom_site_fract_y
_atom_site_fract_z
Si Si1 0.410490 0.898056 0.355730
Si Si2 0.649403 0.368156 0.489175
Si Si3 0.594895 0.558323 0.857701
Si Si4 0.771564 0.022365 0.195768
Si Si5 0.549038 0.243841 0.253807
Si Si6 0.720389 0.784127 0.798854
Si Si7 0.210259 0.739598 0.252208
Si Si8 0.325752 0.419570 0.794468
O O1 0.426814 0.774048 0.222776
O O2 0.467495 0.788112 0.359540
O O3 0.646090 0.944138 0.270130
O O4 0.090731 0.077955 0.561626
O O5 0.738858 0.200029 0.321851
O O6 0.574647 0.556958 0.572693
O O7 0.372842 0.424273 0.685950
O O8 0.942248 0.285660 0.379558
O O9 0.687955 0.682386 0.839001
O O10 0.842363 0.374357 0.714784
O O11 0.451163 0.518147 0.830370
O O12 0.360758 0.647049 0.066272
O O13 0.564861 0.103151 0.244126
O O14 0.106020 0.864539 0.963509
O O15 0.368772 0.265949 0.264390
O O16 0.500000 0.000000 0.000000
O O17 0.000000 0.500000 0.000000
#
# Coordination Sequence:
#
# PCOD9037540 Si02
#       8
#     2   2   2   2   2   2   2   2
#     4  10  23  40  68  95 132 178 220 287 337 414
#     4  12  26  46  71 102 136 191 229 284 354 412
#     4  10  23  43  67  98 132 177 225 282 342 408
#     4  11  26  44  69 101 139 181 231 285 352 417
#     4  11  25  47  65 100 143 180 231 286 344 418
#     4  12  26  43  73 102 139 180 236 286 342 417
#     4   9  22  43  65  98 132 174 229 280 344 406
#     4  11  25  43  67  99 140 175 230 285 346 413
#
# _framework density 22.491952000000001
#
# number of rings (size 3 to 8) (size 9 to 14) (size 15 to 20)
#    0.000    1.250    2.500    1.500    7.000    1.500 
#    2.250    0.000    0.000    0.000    0.000    0.000 
#    0.000    0.000    0.000    0.000    0.000    0.000 
#
# Total GULP energy -89423.434618 kJ/mol
# GULP energy per Si atom -5588.964664 kJ/mol
# Density = 2.244076 g / cm^3
# Si number density = 22.491952 Si / 1000 Ang^3
#
#
#
# Elastic Constant Matrix: (Units=GPa)
#
#
# Indices 1 2 3 4 5 6 
#
# 1 33.6613 9.7167 8.7907 11.1054 -1.9857 -7.6645
# 2 9.7167 95.6537 6.4255 18.5108 -6.1351 3.8244
# 3 8.7907 6.4255 83.6741 13.5538 -5.3839 11.1744
# 4 11.1054 18.5108 13.5538 35.2888 4.6650 1.1108
# 5 -1.9857 -6.1351 -5.3839 4.6650 31.5737 4.5894
# 6 -7.6645 3.8244 11.1744 1.1108 4.5894 25.2143
#
#
#
# Elastic Compliance Matrix: (Units=1/GPa)
#
#
# Indices 1 2 3 4 5 6 
#
# 1 0.037818 -0.002203 -0.004047 -0.009719 0.000672 0.013929
# 2 -0.002203 0.012261 0.001058 -0.006551 0.003889 -0.003417
# 3 -0.004047 0.001058 0.014543 -0.005186 0.004420 -0.008412
# 4 -0.009719 -0.006551 -0.005186 0.037929 -0.008401 0.000196
# 5 0.000672 0.003889 0.004420 -0.008401 0.035696 -0.008472
# 6 0.013929 -0.003417 -0.008412 0.000196 -0.008472 0.049674
#
#
# Mechanical properties :
#
#
# Convention : Reuss Voigt Hill
#
# Bulk Modulus (GPa) = 18.43726 29.20610 23.82168
# Shear Modulus (GPa) = 23.10714 30.95245 27.02980
#
# Velocity S-wave (km/s) = 3.20871 3.71368 3.47039
# Velocity P-wave (km/s) = 4.68432 5.60374 5.16453
#
# Compressibility (1/GPa) = 0.05423801
#
# Stress axis : x y z
#
# Youngs Moduli (GPa) = 26.44246 81.56017 68.76218
#
# Poissons Ratio (x) = 0.17966 0.27825
# Poissons Ratio (y) = 0.05825 -0.07272
# Poissons Ratio (z) = 0.10700 -0.08626
#
# Static dielectric constant tensor:
#      x y z
#    x 1.854770 -0.005850 0.024590 
#    y -0.005850 1.843290 0.016830 
#    z 0.024590 0.016830 1.841400 
# 
# From -- ./inp_files/559899.got.cif
#   From: 2010.05.17/outbox.cif.g08.bks.cpg/sg2_280_cif.got.tgz:559899.got - 2010.06.03 11:33:40.
