data_PCOD9037968
_publ_section_title
;
Structure prediction by ZEFSAII (Michael W. Deem and Ramdas Pophale) SiO2 
 PCOD9037968
Probable space group: P -1
;
_chemical_formula_sum "Si O2"
_cell_formula_units_Z 16
_cell_length_a 11.692435
_cell_length_b 8.427117
_cell_length_c 17.443384
_cell_angle_alpha 145.368376
_cell_angle_beta 49.919529
_cell_angle_gamma 116.009484
_cell_volume 730.716954
_symmetry_space_group_name_H-M "P -1"
_symmetry_group_IT_number 2
_symmetry_cell_setting 'triclinic'
loop_
_space_group_symop_operation_xyz
x,y,z
-x,-y,-z
loop_
_atom_site_type_symbol
_atom_site_label
_atom_site_fract_x
_atom_site_fract_y
_atom_site_fract_z
Si Si1 0.029708 0.256954 0.801073
Si Si2 0.363507 0.369999 0.133048
Si Si3 0.196124 0.917315 0.723747
Si Si4 0.713026 0.062941 0.876038
Si Si5 0.336880 0.014561 0.863678
Si Si6 0.150436 0.995661 0.483575
Si Si7 0.313630 0.276962 0.400616
Si Si8 0.072301 0.880901 0.001215
O O1 0.025994 0.588621 0.925260
O O2 0.862044 0.202030 0.873973
O O3 0.161754 0.138120 0.757984
O O4 0.087774 0.102748 0.635788
O O5 0.270060 0.690600 0.315444
O O6 0.308091 0.152124 0.130795
O O7 0.549663 0.291794 0.030130
O O8 0.326582 0.300592 0.032459
O O9 0.288081 0.614355 0.536430
O O10 0.269127 0.021206 0.810137
O O11 0.022459 0.884993 0.807639
O O12 0.738472 0.876323 0.712490
O O13 0.509972 0.861090 0.722235
O O14 0.249212 0.839048 0.889860
O O15 0.233363 0.210904 0.487152
O O16 0.000000 0.000000 0.500000
O O17 0.000000 0.000000 0.000000
#
# Coordination Sequence:
#
# PCOD9037968 Si02
#       8
#     2   2   2   2   2   2   2   2
#     4  12  25  43  66 101 130 170 223 270 331 383
#     4  10  24  43  69 101 130 175 215 271 336 383
#     4  11  24  40  68  95 133 175 215 272 318 390
#     4  10  23  45  70  97 134 168 219 278 328 388
#     4  10  23  44  68  91 135 176 220 263 321 401
#     4  12  26  40  66 102 135 168 219 274 327 396
#     4  11  24  44  66  99 129 178 217 267 337 379
#     4  10  23  41  65  94 126 173 215 266 320 388
#
# _framework density 21.896301999999999
#
# number of rings (size 3 to 8) (size 9 to 14) (size 15 to 20)
#    0.000    1.250    1.250    3.750    7.000    5.000 
#    0.000    5.000    0.000    0.000    0.000    0.000 
#    0.000    0.000    0.000    0.000    0.000    0.000 
#
# Total GULP energy -89328.596942 kJ/mol
# GULP energy per Si atom -5583.037309 kJ/mol
# Density = 2.184646 g / cm^3
# Si number density = 21.896302 Si / 1000 Ang^3
#
#
#
# Elastic Constant Matrix: (Units=GPa)
#
#
# Indices 1 2 3 4 5 6 
#
# 1 97.4613 22.3034 26.3171 0.5782 17.4921 -11.3500
# 2 22.3034 63.1874 6.1733 -3.1517 -2.4404 -7.2593
# 3 26.3171 6.1733 102.5125 -4.1402 2.8784 -11.4096
# 4 0.5782 -3.1517 -4.1402 36.4367 -6.1137 -8.4944
# 5 17.4921 -2.4404 2.8784 -6.1137 20.9363 -4.6580
# 6 -11.3500 -7.2593 -11.4096 -8.4944 -4.6580 34.0491
#
#
#
# Elastic Compliance Matrix: (Units=1/GPa)
#
#
# Indices 1 2 3 4 5 6 
#
# 1 0.014893 -0.005641 -0.003242 -0.003393 -0.013654 -0.000039
# 2 -0.005641 0.018866 0.000765 0.004458 0.009169 0.004765
# 3 -0.003242 0.000765 0.011000 0.002763 0.002951 0.003861
# 4 -0.003393 0.004458 0.002763 0.033345 0.015190 0.011142
# 5 -0.013654 0.009169 0.002951 0.015190 0.066789 0.011319
# 6 -0.000039 0.004765 0.003861 0.011142 0.011319 0.035994
#
#
# Mechanical properties :
#
#
# Convention : Reuss Voigt Hill
#
# Bulk Modulus (GPa) = 35.05924 41.41653 38.23788
# Shear Modulus (GPa) = 24.19790 32.17559 28.18674
#
# Velocity S-wave (km/s) = 3.32793 3.83750 3.59177
# Velocity P-wave (km/s) = 5.55095 6.21218 5.89085
#
# Compressibility (1/GPa) = 0.02852315
#
# Stress axis : x y z
#
# Youngs Moduli (GPa) = 67.14590 53.00484 90.91315
#
# Poissons Ratio (x) = 0.29901 0.29470
# Poissons Ratio (y) = 0.37878 -0.06954
# Poissons Ratio (z) = 0.21766 -0.04055
#
# Static dielectric constant tensor:
#      x y z
#    x 1.863920 0.027050 0.015240 
#    y 0.027050 1.850750 -0.029530 
#    z 0.015240 -0.029530 1.813500 
# 
# From -- ./inp_files/567103.got.cif
#   From: 2010.05.17/outbox.cif.g08.bks.cpg/sg2_284_cif.got.tgz:567103.got - 2010.06.03 11:33:40.
