data_PCOD9037803
_publ_section_title
;
Structure prediction by ZEFSAII (Michael W. Deem and Ramdas Pophale) SiO2 
 PCOD9037803
Probable space group: P -1
;
_chemical_formula_sum "Si O2"
_cell_formula_units_Z 13
_cell_length_a 10.457635
_cell_length_b 11.826595
_cell_length_c 4.999106
_cell_angle_alpha 55.086850
_cell_angle_beta 92.318337
_cell_angle_gamma 80.693913
_cell_volume 493.525720
_symmetry_space_group_name_H-M "P -1"
_symmetry_group_IT_number 2
_symmetry_cell_setting 'triclinic'
loop_
_space_group_symop_operation_xyz
x,y,z
-x,-y,-z
loop_
_atom_site_type_symbol
_atom_site_label
_atom_site_fract_x
_atom_site_fract_y
_atom_site_fract_z
Si Si1 0.564824 0.333845 0.791167
Si Si2 0.000000 0.500000 0.500000
Si Si3 0.025116 0.707170 0.675838
Si Si4 0.155058 0.925355 0.157985
Si Si5 0.420806 0.258362 0.401036
Si Si6 0.221662 0.516769 0.306007
Si Si7 0.230615 0.064596 0.485264
O O1 0.500000 0.500000 0.500000
O O2 0.779767 0.059827 0.140732
O O3 0.524444 0.240979 0.677004
O O4 0.710208 0.355236 0.815002
O O5 0.976194 0.644714 0.491903
O O6 0.164583 0.464159 0.639605
O O7 0.142064 0.779740 0.493344
O O8 0.905443 0.819773 0.639205
O O9 0.076344 0.588211 0.071579
O O10 0.226023 0.008794 0.261429
O O11 0.000000 0.000000 0.000000
O O12 0.309001 0.393803 0.307529
O O13 0.350253 0.133849 0.484660
O O14 0.499262 0.294960 0.105138
#
# Coordination Sequence:
#
# PCOD9037803 Si02
#       7
#     2   1   2   2   2   2   2
#     4  10  23  41  63  90 130 172 213 258 312 379
#     4  12  26  36  64  98 142 160 196 264 344 394
#     4  11  25  38  61  96 133 165 203 261 335 385
#     4  10  23  41  63  90 130 172 213 258 312 379
#     4  11  23  42  67  93 126 169 221 262 306 376
#     4  11  25  38  61  96 133 165 203 261 335 385
#     4  11  23  42  67  93 126 169 221 262 306 376
#
# _framework density 26.341080999999999
#
# number of rings (size 3 to 8) (size 9 to 14) (size 15 to 20)
#    0.000    1.231    1.538    5.077   12.923    0.000 
#    0.000    0.000    0.000    5.538    0.000    0.000 
#    0.000    0.000    0.000    0.000    0.000    0.000 
#
# Total GULP energy -72669.078957 kJ/mol
# GULP energy per Si atom -5589.929151 kJ/mol
# Density = 2.628113 g / cm^3
# Si number density = 26.341081 Si / 1000 Ang^3
#
#
#
# Elastic Constant Matrix: (Units=GPa)
#
#
# Indices 1 2 3 4 5 6 
#
# 1 191.2975 35.7756 37.1563 4.6501 -24.7728 31.1695
# 2 35.7756 111.4472 25.0474 10.3964 1.9028 20.2077
# 3 37.1563 25.0474 90.7636 12.0206 4.5428 -7.2211
# 4 4.6501 10.3964 12.0206 36.8436 -3.3075 -12.9938
# 5 -24.7728 1.9028 4.5428 -3.3075 39.2227 9.5131
# 6 31.1695 20.2077 -7.2211 -12.9938 9.5131 41.3534
#
#
#
# Elastic Compliance Matrix: (Units=1/GPa)
#
#
# Indices 1 2 3 4 5 6 
#
# 1 0.008947 0.000139 -0.004612 -0.002561 0.008478 -0.010372
# 2 0.000139 0.011619 -0.003336 -0.004993 0.001497 -0.008278
# 3 -0.004612 -0.003336 0.014986 -0.000788 -0.006742 0.009026
# 4 -0.002561 -0.004993 -0.000788 0.034419 -0.002151 0.015542
# 5 0.008478 0.001497 -0.006742 -0.002151 0.035537 -0.017150
# 6 -0.010372 -0.008278 0.009026 0.015542 -0.017150 0.046450
#
#
# Mechanical properties :
#
#
# Convention : Reuss Voigt Hill
#
# Bulk Modulus (GPa) = 50.16031 65.49632 57.82832
# Shear Modulus (GPa) = 28.69927 43.18587 35.94257
#
# Velocity S-wave (km/s) = 3.30438 4.05345 3.69793
# Velocity P-wave (km/s) = 5.80022 6.84295 6.34305
#
# Compressibility (1/GPa) = 0.01993608
#
# Stress axis : x y z
#
# Youngs Moduli (GPa) = 111.76481 86.06456 66.72909
#
# Poissons Ratio (x) = -0.01197 0.30773
# Poissons Ratio (y) = -0.01555 0.22259
# Poissons Ratio (z) = 0.51541 0.28709
#
# Static dielectric constant tensor:
#      x y z
#    x -0.220010 0.341440 2.765760 
#    y 0.341440 2.074270 -0.492090 
#    z 2.765760 -0.492090 -1.100350 
# 
# From -- ./inp_files/65927.got.cif
#   From: 2010.05.17/outbox.cif.g08.bks.cpg/sg2_33_cif.got.tgz:65927.got - 2010.06.03 11:33:40.
