data_PCOD9037815
_publ_section_title
;
Structure prediction by ZEFSAII (Michael W. Deem and Ramdas Pophale) SiO2 
 PCOD9037815
Probable space group: P -1
;
_chemical_formula_sum "Si O2"
_cell_formula_units_Z 15
_cell_length_a 4.928296
_cell_length_b 23.525402
_cell_length_c 6.951007
_cell_angle_alpha 87.186179
_cell_angle_beta 131.825369
_cell_angle_gamma 107.332612
_cell_volume 560.454579
_symmetry_space_group_name_H-M "P -1"
_symmetry_group_IT_number 2
_symmetry_cell_setting 'triclinic'
loop_
_space_group_symop_operation_xyz
x,y,z
-x,-y,-z
loop_
_atom_site_type_symbol
_atom_site_label
_atom_site_fract_x
_atom_site_fract_y
_atom_site_fract_z
Si Si1 0.352296 0.412311 0.275783
Si Si2 0.816095 0.723615 0.870433
Si Si3 0.309775 0.899328 0.967239
Si Si4 0.181140 0.177622 0.901564
Si Si5 0.458205 0.392030 0.767147
Si Si6 0.721197 0.743253 0.382594
Si Si7 0.500000 0.500000 0.000000
Si Si8 0.385136 0.985540 0.668469
O O1 0.468449 0.417296 0.552578
O O2 0.564777 0.470617 0.239305
O O3 0.381704 0.349259 0.222793
O O4 0.898402 0.405822 0.045704
O O5 0.606381 0.754946 0.913609
O O6 0.805753 0.748712 0.647094
O O7 0.268379 0.738439 0.143404
O O8 0.320309 0.961950 0.068841
O O9 0.635950 0.869282 0.090240
O O10 0.278518 0.920104 0.728682
O O11 0.055375 0.853773 0.016727
O O12 0.012974 0.200379 0.629833
O O13 0.248810 0.319760 0.667610
O O14 0.296662 0.429912 0.827945
O O15 0.500000 0.000000 0.500000
O O16 0.000000 0.000000 0.500000
#
# Coordination Sequence:
#
# PCOD9037815 Si02
#       8
#     2   2   2   2   2   2   1   2
#     4  10  23  41  63  93 131 176 231 283 350 425
#     4  10  23  45  68  97 139 189 233 292 361 429
#     4  11  26  44  70 106 140 177 244 282 350 421
#     4  12  23  45  66 107 137 188 234 302 352 422
#     4  10  23  41  63  93 131 176 231 283 350 425
#     4  10  23  45  68  97 139 189 233 292 361 429
#     4  12  22  38  64  96 130 178 224 296 352 408
#     4  11  24  47  72 100 142 191 226 285 349 414
#
# _framework density 26.763987
#
# number of rings (size 3 to 8) (size 9 to 14) (size 15 to 20)
#    0.000    1.333    1.333    3.200    0.000    8.533 
#    4.800    8.000    0.000    0.000    0.000    0.000 
#    0.000    0.000    0.000    0.000    0.000    0.000 
#
# Total GULP energy -83597.861084 kJ/mol
# GULP energy per Si atom -5573.190739 kJ/mol
# Density = 2.670307 g / cm^3
# Si number density = 26.763987 Si / 1000 Ang^3
#
#
#
# Elastic Constant Matrix: (Units=GPa)
#
#
# Indices 1 2 3 4 5 6 
#
# 1 81.6076 15.0820 63.3292 -12.3051 -29.1529 77.1643
# 2 15.0820 122.6513 80.8726 -40.6252 -38.8943 39.4675
# 3 63.3292 80.8726 158.5872 -33.6996 -28.7505 -26.6803
# 4 -12.3051 -40.6252 -33.6996 72.5660 1.4205 -26.2973
# 5 -29.1529 -38.8943 -28.7505 1.4205 41.3797 -10.3584
# 6 77.1643 39.4675 -26.6803 -26.2973 -10.3584 -129.2114
#
#
#
# Elastic Compliance Matrix: (Units=1/GPa)
#
#
# Indices 1 2 3 4 5 6 
#
# 1 0.011864 0.002962 -0.002094 0.004849 0.011158 0.006541
# 2 0.002962 0.017522 -0.004284 0.009708 0.016426 0.004713
# 3 -0.002094 -0.004284 0.008429 -0.000340 -0.000680 -0.004176
# 4 0.004849 0.009708 -0.000340 0.019980 0.011849 0.000915
# 5 0.011158 0.016426 -0.000680 0.011849 0.047980 0.005563
# 6 0.006541 0.004713 -0.004176 0.000915 0.005563 -0.002163
#
#
# Mechanical properties :
#
#
# Convention : Reuss Voigt Hill
#
# Bulk Modulus (GPa) = 32.27757 75.71265 53.99511
# Shear Modulus (GPa) = 41.39993 10.51768 25.95881
#
# Velocity S-wave (km/s) = 3.93727 1.98452 3.11773
# Velocity P-wave (km/s) = 5.72326 5.79668 5.76009
#
# Compressibility (1/GPa) = 0.03098127
#
# Stress axis : x y z
#
# Youngs Moduli (GPa) = 84.28735 57.07101 118.63950
#
# Poissons Ratio (x) = -0.16904 0.24848
# Poissons Ratio (y) = -0.24966 0.50831
# Poissons Ratio (z) = 0.17653 0.24452
#
# Static dielectric constant tensor:
#      x y z
#    x 2.123380 0.035740 0.025220 
#    y 0.035740 2.074560 0.000390 
#    z 0.025220 0.000390 2.086480 
# 
# From -- ./inp_files/12378.got.cif
#   From: 2010.05.17/outbox.cif.g08.bks.cpg/sg2_7_cif.got.tgz:12378.got - 2010.06.03 11:33:40.
