data_PCOD9037746
_publ_section_title
;
Structure prediction by ZEFSAII (Michael W. Deem and Ramdas Pophale) SiO2 
 PCOD9037746
Probable space group: P -1
;
_chemical_formula_sum "Si O2"
_cell_formula_units_Z 14
_cell_length_a 8.731349
_cell_length_b 13.244836
_cell_length_c 14.522562
_cell_angle_alpha 32.122608
_cell_angle_beta 63.012871
_cell_angle_gamma 82.981812
_cell_volume 662.912706
_symmetry_space_group_name_H-M "P -1"
_symmetry_group_IT_number 2
_symmetry_cell_setting 'triclinic'
loop_
_space_group_symop_operation_xyz
x,y,z
-x,-y,-z
loop_
_atom_site_type_symbol
_atom_site_label
_atom_site_fract_x
_atom_site_fract_y
_atom_site_fract_z
Si Si1 0.075751 0.016464 0.610289
Si Si2 0.738197 0.628430 0.365670
Si Si3 0.059433 0.418550 0.134547
Si Si4 0.248815 0.857610 0.437015
Si Si5 0.295850 0.825752 0.246279
Si Si6 0.514463 0.830898 0.697394
Si Si7 0.997931 0.003280 0.145895
O O1 0.311292 0.193230 0.378997
O O2 0.930275 0.106493 0.571154
O O3 0.061092 0.949624 0.773679
O O4 0.988245 0.818337 0.710534
O O5 0.500000 0.500000 0.500000
O O6 0.777861 0.437878 0.539039
O O7 0.801645 0.811110 0.289209
O O8 0.875975 0.777063 0.125038
O O9 0.894630 0.378803 0.287445
O O10 0.296597 0.598875 0.950921
O O11 0.000000 0.500000 0.000000
O O12 0.352762 0.865689 0.308263
O O13 0.401849 0.040329 0.328173
O O14 0.135127 0.895303 0.209979
O O15 0.500000 0.000000 0.000000
O O16 0.500000 0.000000 0.500000
#
# Coordination Sequence:
#
# PCOD9037746 Si02
#       7
#     2   2   2   2   2   2   2
#     4  10  23  41  62  90 131 159 212 258 312 386
#     4  11  23  42  68  92 130 168 220 270 326 376
#     4  11  21  39  62  91 125 163 205 255 314 375
#     4  10  24  42  61  92 128 166 208 262 317 374
#     4  11  23  46  67  94 134 171 219 270 322 388
#     4  11  21  38  63  94 125 161 209 257 313 382
#     4  10  24  44  64  97 128 174 214 269 325 385
#
# _framework density 21.118919999999999
#
# number of rings (size 3 to 8) (size 9 to 14) (size 15 to 20)
#    0.000    1.429    4.286    2.143    2.000    4.571 
#    7.714    0.000    0.000    0.000    0.000    0.000 
#    0.000    0.000    0.000    0.000    0.000    0.000 
#
# Total GULP energy -78095.247343 kJ/mol
# GULP energy per Si atom -5578.231953 kJ/mol
# Density = 2.107085 g / cm^3
# Si number density = 21.118920 Si / 1000 Ang^3
#
#
#
# Elastic Constant Matrix: (Units=GPa)
#
#
# Indices 1 2 3 4 5 6 
#
# 1 70.6358 16.4792 36.2696 -2.9123 -15.3343 15.6706
# 2 16.4792 107.3731 63.5678 27.3927 -19.8198 26.3730
# 3 36.2696 63.5678 152.6478 16.0181 -11.9974 18.8689
# 4 -2.9123 27.3927 16.0181 32.3845 2.2245 9.0509
# 5 -15.3343 -19.8198 -11.9974 2.2245 51.2767 -9.9046
# 6 15.6706 26.3730 18.8689 9.0509 -9.9046 32.8027
#
#
#
# Elastic Compliance Matrix: (Units=1/GPa)
#
#
# Indices 1 2 3 4 5 6 
#
# 1 0.018659 0.000734 -0.004072 0.004959 0.003237 -0.007553
# 2 0.000734 0.017606 -0.005122 -0.010634 0.004908 -0.007144
# 3 -0.004072 -0.005122 0.009615 -0.000883 -0.000807 0.000532
# 4 0.004959 -0.010634 -0.000883 0.043143 -0.006067 -0.007048
# 5 0.003237 0.004908 -0.000807 -0.006067 0.023143 0.003634
# 6 -0.007553 -0.007144 0.000532 -0.007048 0.003634 0.042573
#
#
# Mechanical properties :
#
#
# Convention : Reuss Voigt Hill
#
# Bulk Modulus (GPa) = 34.52756 62.58776 48.55766
# Shear Modulus (GPa) = 27.57683 37.58211 32.57947
#
# Velocity S-wave (km/s) = 3.61749 4.22304 3.93194
# Velocity P-wave (km/s) = 5.81661 7.31293 6.60727
#
# Compressibility (1/GPa) = 0.02896238
#
# Stress axis : x y z
#
# Youngs Moduli (GPa) = 53.59219 56.79802 104.00665
#
# Poissons Ratio (x) = -0.04171 0.42348
# Poissons Ratio (y) = -0.03935 0.53269
# Poissons Ratio (z) = 0.21821 0.29090
#
# Static dielectric constant tensor:
#      x y z
#    x 1.794380 -0.031000 0.043310 
#    y -0.031000 1.796910 0.004400 
#    z 0.043310 0.004400 1.794180 
# 
# From -- ./inp_files/202744.got.cif
#   From: 2010.05.17/outbox.cif.g08.bks.cpg/sg2_102_cif.got.tgz:202744.got - 2010.06.03 11:33:40.
