data_PCOD9037199
_publ_section_title
;
Structure prediction by ZEFSAII (Michael W. Deem and Ramdas Pophale) SiO2 
 PCOD9037199
Probable space group: P -1
;
_chemical_formula_sum "Si O2"
_cell_formula_units_Z 16
_cell_length_a 11.486910
_cell_length_b 9.375544
_cell_length_c 19.338524
_cell_angle_alpha 144.174758
_cell_angle_beta 67.261464
_cell_angle_gamma 86.255905
_cell_volume 801.215224
_symmetry_space_group_name_H-M "P -1"
_symmetry_group_IT_number 2
_symmetry_cell_setting 'triclinic'
loop_
_space_group_symop_operation_xyz
x,y,z
-x,-y,-z
loop_
_atom_site_type_symbol
_atom_site_label
_atom_site_fract_x
_atom_site_fract_y
_atom_site_fract_z
Si Si1 0.888155 0.900307 0.176849
Si Si2 0.690000 0.744251 0.319977
Si Si3 0.689292 0.377840 0.918794
Si Si4 0.357375 0.973892 0.816590
Si Si5 0.266883 0.741200 0.514702
Si Si6 0.933783 0.706651 0.879066
Si Si7 0.184429 0.819276 0.030557
Si Si8 0.975820 0.069212 0.614333
O O1 0.999827 0.923781 0.112468
O O2 0.699001 0.073356 0.260864
O O3 0.869777 0.079106 0.320362
O O4 0.000000 0.500000 0.000000
O O5 0.870916 0.451616 0.208359
O O6 0.500000 0.000000 0.500000
O O7 0.708539 0.001096 0.395288
O O8 0.687612 0.548284 0.182034
O O9 0.760046 0.210229 0.914070
O O10 0.822646 0.160394 0.735813
O O11 0.500000 0.500000 0.000000
O O12 0.663809 0.706357 0.056969
O O13 0.551875 0.636140 0.660225
O O14 0.215623 0.052151 0.933483
O O15 0.166907 0.755082 0.479707
O O16 0.954064 0.388975 0.751423
O O17 0.851939 0.905971 0.903703
O O18 0.000000 0.000000 0.500000
#
# Coordination Sequence:
#
# PCOD9037199 Si02
#       8
#     2   2   2   2   2   2   2   2
#     4  12  19  39  65  90 131 168 198 255 318 379
#     4  11  22  36  60  96 133 163 204 256 312 382
#     4  11  25  45  67  91 124 170 219 269 321 372
#     4  11  22  41  65  94 127 168 209 254 320 386
#     4  11  22  38  62  96 122 164 213 255 315 380
#     4  10  23  40  63  92 128 167 204 258 324 378
#     4  12  22  40  65  94 129 167 208 257 317 377
#     4  10  23  47  67  86 125 173 217 268 319 376
#
# _framework density 19.969664999999999
#
# number of rings (size 3 to 8) (size 9 to 14) (size 15 to 20)
#    0.000    1.000    5.000    2.250    1.750    4.000 
#    2.250    3.750    0.000    0.000    0.000    0.000 
#    0.000    0.000    0.000    0.000    0.000    0.000 
#
# Total GULP energy -89150.566023 kJ/mol
# GULP energy per Si atom -5571.910376 kJ/mol
# Density = 1.992421 g / cm^3
# Si number density = 19.969665 Si / 1000 Ang^3
#
#
#
# Elastic Constant Matrix: (Units=GPa)
#
#
# Indices 1 2 3 4 5 6 
#
# 1 89.9490 40.8628 11.6949 -14.8095 -19.9672 -20.3419
# 2 40.8628 115.7346 24.1991 -7.5340 -17.6679 -17.7201
# 3 11.6949 24.1991 60.1726 -21.7838 -17.5646 -13.8079
# 4 -14.8095 -7.5340 -21.7838 36.5026 -3.0611 2.4568
# 5 -19.9672 -17.6679 -17.5646 -3.0611 22.3092 -3.3349
# 6 -20.3419 -17.7201 -13.8079 2.4568 -3.3349 41.4307
#
#
#
# Elastic Compliance Matrix: (Units=1/GPa)
#
#
# Indices 1 2 3 4 5 6 
#
# 1 0.036566 -0.002354 0.035490 0.039158 0.068962 0.032003
# 2 -0.002354 0.011410 -0.000582 0.001390 0.007265 0.004033
# 3 0.035490 -0.000582 0.075452 0.065085 0.106673 0.047050
# 4 0.039158 0.001390 0.065085 0.088300 0.106208 0.044825
# 5 0.068962 0.007265 0.106673 0.106208 0.223446 0.084206
# 6 0.032003 0.004033 0.047050 0.044825 0.084206 0.061375
#
#
# Mechanical properties :
#
#
# Convention : Reuss Voigt Hill
#
# Bulk Modulus (GPa) = 5.30404 46.59665 25.95034
# Shear Modulus (GPa) = 10.11558 32.65512 21.38535
#
# Velocity S-wave (km/s) = 2.25310 4.04819 3.27600
# Velocity P-wave (km/s) = 3.07090 6.72569 5.22806
#
# Compressibility (1/GPa) = 0.18853562
#
# Stress axis : x y z
#
# Youngs Moduli (GPa) = 27.34810 87.63950 13.25344
#
# Poissons Ratio (x) = 0.20633 -0.47036
# Poissons Ratio (y) = 0.06439 0.00771
# Poissons Ratio (z) = -0.97058 0.05099
#
# Static dielectric constant tensor:
#      x y z
#    x 1.779140 0.099780 -0.034900 
#    y 0.099780 1.965060 -0.049640 
#    z -0.034900 -0.049640 1.664650 
# 
# From -- ./inp_files/181813.got.cif
#   From: 2010.05.17/outbox.cif.g08.bks.cpg/sg2_91_cif.got.tgz:181813.got - 2010.06.03 11:33:40.
