data_PCOD9037697
_publ_section_title
;
Structure prediction by ZEFSAII (Michael W. Deem and Ramdas Pophale) SiO2 
 PCOD9037697
Probable space group: P -1
;
_chemical_formula_sum "Si O2"
_cell_formula_units_Z 16
_cell_length_a 9.604923
_cell_length_b 13.223129
_cell_length_c 12.198732
_cell_angle_alpha 38.171824
_cell_angle_beta 139.882257
_cell_angle_gamma 124.496283
_cell_volume 614.620350
_symmetry_space_group_name_H-M "P -1"
_symmetry_group_IT_number 2
_symmetry_cell_setting 'triclinic'
loop_
_space_group_symop_operation_xyz
x,y,z
-x,-y,-z
loop_
_atom_site_type_symbol
_atom_site_label
_atom_site_fract_x
_atom_site_fract_y
_atom_site_fract_z
Si Si1 0.051689 0.540676 0.833151
Si Si2 0.964202 0.334124 0.514655
Si Si3 0.401568 0.553521 0.281420
Si Si4 0.026110 0.024456 0.249378
Si Si5 0.509446 0.355238 0.308050
Si Si6 0.768519 0.156362 0.184151
Si Si7 0.526347 0.012298 0.348795
Si Si8 0.930149 0.822086 0.067043
O O1 0.971485 0.565440 0.638440
O O2 0.134991 0.710287 0.789073
O O3 0.848474 0.492303 0.823272
O O4 0.264341 0.410499 0.075468
O O5 0.702034 0.373401 0.324072
O O6 0.017382 0.320457 0.689635
O O7 0.048976 0.147144 0.690499
O O8 0.500000 0.500000 0.500000
O O9 0.529210 0.464620 0.334174
O O10 0.391728 0.742810 0.082813
O O11 0.944644 0.070127 0.282481
O O12 0.284989 0.983601 0.451505
O O13 0.975408 0.170386 0.006186
O O14 0.543466 0.169511 0.528785
O O15 0.635284 0.038212 0.275511
O O16 0.329722 0.150704 0.123574
O O17 0.000000 0.000000 0.000000
#
# Coordination Sequence:
#
# PCOD9037697 Si02
#       8
#     2   2   2   2   2   2   2   2
#     4  11  24  49  70  97 138 182 227 278 337 400
#     4  11  24  43  68 101 140 178 224 280 338 406
#     4  11  27  47  68  96 140 182 225 278 343 405
#     4  11  22  40  68 100 140 167 228 278 337 397
#     4  11  24  45  71 100 138 180 226 277 339 401
#     4  11  25  43  71 106 131 175 233 282 332 405
#     4  12  22  41  73 107 130 177 230 280 336 402
#     4  10  23  41  59 100 144 176 214 279 341 393
#
# _framework density 26.032330999999999
#
# number of rings (size 3 to 8) (size 9 to 14) (size 15 to 20)
#    0.000    1.000    3.750    4.125    5.250    0.000 
#    0.000    3.750    0.000    0.000    0.000    0.000 
#    0.000    0.000    0.000    0.000    0.000    0.000 
#
# Total GULP energy -89560.874149 kJ/mol
# GULP energy per Si atom -5597.554634 kJ/mol
# Density = 2.597308 g / cm^3
# Si number density = 26.032331 Si / 1000 Ang^3
#
#
#
# Elastic Constant Matrix: (Units=GPa)
#
#
# Indices 1 2 3 4 5 6 
#
# 1 154.4680 15.5106 28.8243 -11.0955 -14.4172 -15.0206
# 2 15.5106 29.0793 -3.8723 5.0251 9.6557 -15.0521
# 3 28.8243 -3.8723 141.4963 8.0728 -20.1935 -3.7010
# 4 -11.0955 5.0251 8.0728 32.6784 -9.2389 -1.6891
# 5 -14.4172 9.6557 -20.1935 -9.2389 51.9345 -3.2126
# 6 -15.0206 -15.0521 -3.7010 -1.6891 -3.2126 35.0772
#
#
#
# Elastic Compliance Matrix: (Units=1/GPa)
#
#
# Indices 1 2 3 4 5 6 
#
# 1 0.008246 -0.006089 -0.001565 0.005278 0.003836 0.001359
# 2 -0.006089 0.054158 0.002263 -0.013381 -0.012077 0.019121
# 3 -0.001565 0.002263 0.007875 -0.002230 0.001885 0.001197
# 4 0.005278 -0.013381 -0.002230 0.037700 0.009730 -0.001011
# 5 0.003836 -0.012077 0.001885 0.009730 0.024993 -0.000584
# 6 0.001359 0.019121 0.001197 -0.001011 -0.000584 0.037319
#
#
# Mechanical properties :
#
#
# Convention : Reuss Voigt Hill
#
# Bulk Modulus (GPa) = 16.80766 45.10764 30.95765
# Shear Modulus (GPa) = 24.88701 42.91009 33.89855
#
# Velocity S-wave (km/s) = 3.09529 4.06438 3.61248
# Velocity P-wave (km/s) = 4.38690 6.27620 5.41459
#
# Compressibility (1/GPa) = 0.05949667
#
# Stress axis : x y z
#
# Youngs Moduli (GPa) = 121.26360 18.46453 126.97652
#
# Poissons Ratio (x) = 0.11244 0.19868
# Poissons Ratio (y) = 0.73843 -0.28729
# Poissons Ratio (z) = 0.18974 -0.04178
#
# Static dielectric constant tensor:
#      x y z
#    x 2.001640 -0.010670 0.031200 
#    y -0.010670 2.147250 0.027010 
#    z 0.031200 0.027010 2.086310 
# 
# From -- ./inp_files/328984.got.cif
#   From: 2010.05.17/outbox.cif.g08.bks.cpg/sg2_165_cif.got.tgz:328984.got - 2010.06.03 11:33:40.
