data_PCOD9037518
_publ_section_title
;
Structure prediction by ZEFSAII (Michael W. Deem and Ramdas Pophale) SiO2 
 PCOD9037518
Probable space group: P -1
;
_chemical_formula_sum "Si O2"
_cell_formula_units_Z 16
_cell_length_a 14.740035
_cell_length_b 8.700285
_cell_length_c 9.625876
_cell_angle_alpha 114.126451
_cell_angle_beta 143.660280
_cell_angle_gamma 76.262720
_cell_volume 657.913047
_symmetry_space_group_name_H-M "P -1"
_symmetry_group_IT_number 2
_symmetry_cell_setting 'triclinic'
loop_
_space_group_symop_operation_xyz
x,y,z
-x,-y,-z
loop_
_atom_site_type_symbol
_atom_site_label
_atom_site_fract_x
_atom_site_fract_y
_atom_site_fract_z
Si Si1 0.219186 0.947662 0.173869
Si Si2 0.922422 0.519432 0.056684
Si Si3 0.218981 0.074902 0.503012
Si Si4 0.466788 0.674129 0.091650
Si Si5 0.730387 0.797011 0.910337
Si Si6 0.334842 0.927335 0.843908
Si Si7 0.588105 0.310487 0.643995
Si Si8 0.984215 0.651630 0.639958
O O1 0.380002 0.884321 0.385777
O O2 0.141983 0.977889 0.236843
O O3 0.236537 0.115614 0.166060
O O4 0.130529 0.798155 0.910730
O O5 0.871722 0.701821 0.089176
O O6 0.750309 0.405196 0.815719
O O7 0.000000 0.500000 0.000000
O O8 0.037416 0.450396 0.280225
O O9 0.383711 0.176626 0.687333
O O10 0.140106 0.232946 0.514552
O O11 0.223963 0.937758 0.579325
O O12 0.430726 0.642187 0.199136
O O13 0.500000 0.500000 0.000000
O O14 0.341846 0.753628 0.872551
O O15 0.561526 0.681561 0.632307
O O16 0.705067 0.936046 0.043966
O O17 0.500000 0.000000 0.000000
O O18 0.000000 0.500000 0.500000
#
# Coordination Sequence:
#
# PCOD9037518 Si02
#       8
#     2   2   2   2   2   2   2   2
#     4  11  23  44  74 100 141 188 245 295 362 435
#     4  11  27  46  68 107 149 191 245 302 360 433
#     4  11  23  45  70 101 145 192 242 296 358 433
#     4  11  24  41  71 110 144 187 239 304 370 426
#     4  12  22  45  74 106 143 187 246 302 359 433
#     4  10  23  40  68 106 142 179 240 300 355 431
#     4  11  23  44  74 104 145 190 242 298 374 431
#     4  11  26  48  72 101 146 198 238 295 371 437
#
# _framework density 24.319324000000002
#
# number of rings (size 3 to 8) (size 9 to 14) (size 15 to 20)
#    0.000    1.000    2.500    4.125    7.000    1.000 
#    4.500    7.500    0.000    0.000    0.000    0.000 
#    0.000    0.000    0.000    0.000    0.000    0.000 
#
# Total GULP energy -89412.817494 kJ/mol
# GULP energy per Si atom -5588.301093 kJ/mol
# Density = 2.426397 g / cm^3
# Si number density = 24.319324 Si / 1000 Ang^3
#
#
#
# Elastic Constant Matrix: (Units=GPa)
#
#
# Indices 1 2 3 4 5 6 
#
# 1 125.9032 28.6479 35.2646 8.3830 -24.7855 -7.5877
# 2 28.6479 101.9470 13.3580 1.7247 -4.9656 -29.4626
# 3 35.2646 13.3580 78.6401 9.4122 -9.8354 4.1494
# 4 8.3830 1.7247 9.4122 37.8107 -5.1761 -6.6568
# 5 -24.7855 -4.9656 -9.8354 -5.1761 40.7775 2.7439
# 6 -7.5877 -29.4626 4.1494 -6.6568 2.7439 36.4608
#
#
#
# Elastic Compliance Matrix: (Units=1/GPa)
#
#
# Indices 1 2 3 4 5 6 
#
# 1 0.010526 -0.002090 -0.003678 -0.000540 0.005159 0.000433
# 2 -0.002090 0.014007 -0.002421 0.002391 -0.000629 0.011643
# 3 -0.003678 -0.002421 0.015643 -0.003742 0.001122 -0.005270
# 4 -0.000540 0.002391 -0.003742 0.028995 0.002245 0.007370
# 5 0.005159 -0.000629 0.001122 0.002245 0.028224 -0.001277
# 6 0.000433 0.011643 -0.005270 0.007370 -0.001277 0.038967
#
#
# Mechanical properties :
#
#
# Convention : Reuss Voigt Hill
#
# Bulk Modulus (GPa) = 42.02146 51.22571 46.62358
# Shear Modulus (GPa) = 31.11900 38.29113 34.70506
#
# Velocity S-wave (km/s) = 3.58103 3.97232 3.78174
# Velocity P-wave (km/s) = 5.86642 6.49220 6.18723
#
# Compressibility (1/GPa) = 0.02379737
#
# Stress axis : x y z
#
# Youngs Moduli (GPa) = 95.00224 71.39034 63.92592
#
# Poissons Ratio (x) = 0.14924 0.23513
# Poissons Ratio (y) = 0.19859 0.15477
# Poissons Ratio (z) = 0.34943 0.17284
#
# Static dielectric constant tensor:
#      x y z
#    x 1.937620 0.020120 0.070430 
#    y 0.020120 2.003100 0.002920 
#    z 0.070430 0.002920 2.074420 
# 
# From -- ./inp_files/299406.got.cif
#   From: 2010.05.17/outbox.cif.g08.bks.cpg/sg2_150_cif.got.tgz:299406.got - 2010.06.03 11:33:40.
