data_PCOD9037833
_publ_section_title
;
Structure prediction by ZEFSAII (Michael W. Deem and Ramdas Pophale) SiO2 
 PCOD9037833
Probable space group: P -1
;
_chemical_formula_sum "Si O2"
_cell_formula_units_Z 12
_cell_length_a 13.356960
_cell_length_b 6.805446
_cell_length_c 8.794749
_cell_angle_alpha 74.470039
_cell_angle_beta 140.960624
_cell_angle_gamma 90.097085
_cell_volume 456.266077
_symmetry_space_group_name_H-M "P -1"
_symmetry_group_IT_number 2
_symmetry_cell_setting 'triclinic'
loop_
_space_group_symop_operation_xyz
x,y,z
-x,-y,-z
loop_
_atom_site_type_symbol
_atom_site_label
_atom_site_fract_x
_atom_site_fract_y
_atom_site_fract_z
Si Si1 0.123284 0.454413 0.800710
Si Si2 0.297678 0.974955 0.665985
Si Si3 0.770771 0.323334 0.881269
Si Si4 0.108724 0.749415 0.299188
Si Si5 0.536978 0.825412 0.444420
Si Si6 0.650905 0.670440 0.165263
O O1 0.303665 0.382269 0.946301
O O2 0.000000 0.500000 0.500000
O O3 0.068575 0.283311 0.870488
O O4 0.105743 0.660396 0.841882
O O5 0.147206 0.917914 0.422957
O O6 0.378743 0.083635 0.609332
O O7 0.277613 0.136539 0.747948
O O8 0.450856 0.755801 0.934521
O O9 0.857863 0.229571 0.843173
O O10 0.662005 0.581113 0.678516
O O11 0.640535 0.205058 0.797016
O O12 0.251135 0.524255 0.567780
O O13 0.500000 0.000000 0.500000
#
# Coordination Sequence:
#
# PCOD9037833 Si02
#       6
#     2   2   2   2   2   2
#     4  10  24  43  65  91 132 178 211 254 324 389
#     4  11  22  39  68  97 127 168 216 268 315 378
#     4  11  23  41  68  94 130 165 216 269 315 381
#     4  11  22  42  66  95 130 168 215 264 321 375
#     4  11  22  39  66 101 125 161 213 271 323 366
#     4  10  23  41  63  95 134 169 215 259 317 384
#
# _framework density 26.300446999999998
#
# number of rings (size 3 to 8) (size 9 to 14) (size 15 to 20)
#    0.000    1.333    3.333    2.000    2.333    6.000 
#    0.000    5.833    0.000    0.000    0.000    0.000 
#    0.000    0.000    0.000    0.000    0.000    0.000 
#
# Total GULP energy -67266.205216 kJ/mol
# GULP energy per Si atom -5605.517101 kJ/mol
# Density = 2.624059 g / cm^3
# Si number density = 26.300447 Si / 1000 Ang^3
#
#
#
# Elastic Constant Matrix: (Units=GPa)
#
#
# Indices 1 2 3 4 5 6 
#
# 1 89.3626 29.5815 7.3789 23.8804 -10.0699 1.8848
# 2 29.5815 116.3847 37.5425 28.4785 1.7178 -4.5799
# 3 7.3789 37.5425 103.1730 28.3069 2.5793 1.5686
# 4 23.8804 28.4785 28.3069 72.7768 1.2885 3.0774
# 5 -10.0699 1.7178 2.5793 1.2885 36.4124 12.7088
# 6 1.8848 -4.5799 1.5686 3.0774 12.7088 51.7855
#
#
#
# Elastic Compliance Matrix: (Units=1/GPa)
#
#
# Indices 1 2 3 4 5 6 
#
# 1 0.013651 -0.003037 0.001059 -0.003712 0.004567 -0.001698
# 2 -0.003037 0.011002 -0.003192 -0.002110 -0.001656 0.001712
# 3 0.001059 -0.003192 0.011793 -0.003665 -0.000111 -0.000433
# 4 -0.003712 -0.002110 -0.003665 0.017258 -0.001029 -0.000714
# 5 0.004567 -0.001656 -0.000111 -0.001029 0.031646 -0.008014
# 6 -0.001698 0.001712 -0.000433 -0.000714 -0.008014 0.021546
#
#
# Mechanical properties :
#
#
# Convention : Reuss Voigt Hill
#
# Bulk Modulus (GPa) = 38.30624 50.88068 44.59346
# Shear Modulus (GPa) = 39.70213 47.82278 43.76245
#
# Velocity S-wave (km/s) = 3.88952 4.26881 4.08357
# Velocity P-wave (km/s) = 5.89641 6.60946 6.26309
#
# Compressibility (1/GPa) = 0.02610541
#
# Stress axis : x y z
#
# Youngs Moduli (GPa) = 73.25652 90.89345 84.79524
#
# Poissons Ratio (x) = 0.27606 -0.08978
# Poissons Ratio (y) = 0.22249 0.27065
# Poissons Ratio (z) = -0.07757 0.29012
#
# Static dielectric constant tensor:
#      x y z
#    x 2.027170 -0.030320 0.008660 
#    y -0.030320 2.080490 -0.045490 
#    z 0.008660 -0.045490 2.140350 
# 
# From -- ./inp_files/32485.got.cif
#   From: 2010.05.17/outbox.cif.g08.bks.cpg/sg2_17_cif.got.tgz:32485.got - 2010.06.03 11:33:40.
