data_PCOD9037108
_publ_section_title
;
Structure prediction by ZEFSAII (Michael W. Deem and Ramdas Pophale) SiO2 
 PCOD9037108
Probable space group: P -1
;
_chemical_formula_sum "Si O2"
_cell_formula_units_Z 16
_cell_length_a 9.253794
_cell_length_b 8.129147
_cell_length_c 10.321618
_cell_angle_alpha 112.209199
_cell_angle_beta 93.371704
_cell_angle_gamma 110.235279
_cell_volume 658.223342
_symmetry_space_group_name_H-M "P -1"
_symmetry_group_IT_number 2
_symmetry_cell_setting 'triclinic'
loop_
_space_group_symop_operation_xyz
x,y,z
-x,-y,-z
loop_
_atom_site_type_symbol
_atom_site_label
_atom_site_fract_x
_atom_site_fract_y
_atom_site_fract_z
Si Si1 0.764844 0.195320 0.986032
Si Si2 0.678918 0.413546 0.608003
Si Si3 0.724049 0.073836 0.659073
Si Si4 0.774524 0.916192 0.124543
Si Si5 0.127709 0.400481 0.105411
Si Si6 0.940753 0.854241 0.337242
Si Si7 0.656852 0.636095 0.419247
Si Si8 0.558459 0.332419 0.931489
O O1 0.694711 0.069941 0.812296
O O2 0.630636 0.271618 0.041890
O O3 0.948143 0.348304 0.040377
O O4 0.774834 0.062717 0.061919
O O5 0.664785 0.197148 0.588539
O O6 0.836155 0.566148 0.730515
O O7 0.676258 0.487233 0.481829
O O8 0.522490 0.436636 0.661887
O O9 0.913763 0.197667 0.704749
O O10 0.683889 0.850697 0.546318
O O11 0.904401 0.975388 0.258980
O O12 0.604988 0.839698 0.165055
O O13 0.821203 0.761332 0.001905
O O14 0.276464 0.589343 0.115664
O O15 0.783657 0.680352 0.324560
O O16 0.000000 0.000000 0.500000
O O17 0.500000 0.500000 0.000000
#
# Coordination Sequence:
#
# PCOD9037108 Si02
#       8
#     2   2   2   2   2   2   2   2
#     4  12  23  39  68 101 133 171 221 276 340 403
#     4  11  23  41  71  97 129 175 226 268 333 399
#     4  11  23  42  70  97 130 175 224 275 329 395
#     4  11  23  41  67  96 137 172 219 274 341 402
#     4  11  22  39  67  98 134 166 215 280 337 396
#     4  10  23  41  64  91 132 176 216 273 326 385
#     4  10  24  45  66  94 134 178 224 274 322 391
#     4  10  23  40  60  93 137 174 208 269 340 398
#
# _framework density 24.307859000000001
#
# number of rings (size 3 to 8) (size 9 to 14) (size 15 to 20)
#    0.000    1.250    2.500    3.000    3.500    0.500 
#    0.000    0.000   19.250    0.000    0.000    0.000 
#    0.000    0.000    0.000    0.000    0.000    0.000 
#
# Total GULP energy -89097.511995 kJ/mol
# GULP energy per Si atom -5568.594500 kJ/mol
# Density = 2.425253 g / cm^3
# Si number density = 24.307859 Si / 1000 Ang^3
#
#
#
# Elastic Constant Matrix: (Units=GPa)
#
#
# Indices 1 2 3 4 5 6 
#
# 1 121.2976 1.6452 9.7935 -6.7421 32.5995 -4.6333
# 2 1.6452 62.2441 31.2096 -13.5992 3.7640 -15.1972
# 3 9.7935 31.2096 84.1435 -5.2922 25.2916 -30.3455
# 4 -6.7421 -13.5992 -5.2922 31.7819 -0.5852 8.5785
# 5 32.5995 3.7640 25.2916 -0.5852 37.4252 -10.3914
# 6 -4.6333 -15.1972 -30.3455 8.5785 -10.3914 31.4398
#
#
#
# Elastic Compliance Matrix: (Units=1/GPa)
#
#
# Indices 1 2 3 4 5 6 
#
# 1 0.011252 -0.000287 0.002015 0.002666 -0.011376 -0.001023
# 2 -0.000287 0.022092 -0.008235 0.007548 0.004279 0.002042
# 3 0.002015 -0.008235 0.024284 -0.003755 -0.012802 0.016549
# 4 0.002666 0.007548 -0.003755 0.037492 -0.002953 -0.010789
# 5 -0.011376 0.004279 -0.012802 -0.002953 0.045920 0.004018
# 6 -0.001023 0.002042 0.016549 -0.010789 0.004018 0.052888
#
#
# Mechanical properties :
#
#
# Convention : Reuss Voigt Hill
#
# Bulk Modulus (GPa) = 22.41501 39.22019 30.81760
# Shear Modulus (GPa) = 22.54138 35.13186 28.83662
#
# Velocity S-wave (km/s) = 3.04851 3.80582 3.44802
# Velocity P-wave (km/s) = 4.65108 5.95669 5.34391
#
# Compressibility (1/GPa) = 0.04461297
#
# Stress axis : x y z
#
# Youngs Moduli (GPa) = 88.87319 45.26594 41.17861
#
# Poissons Ratio (x) = 0.01300 -0.08298
# Poissons Ratio (y) = 0.02551 0.33913
# Poissons Ratio (z) = -0.17908 0.37279
#
# Static dielectric constant tensor:
#      x y z
#    x 2.023420 0.006350 -0.015350 
#    y 0.006350 2.127210 -0.111940 
#    z -0.015350 -0.111940 2.040090 
# 
# From -- ./inp_files/306854.got.cif
#   From: 2010.05.17/outbox.cif.g08.bks.cpg/sg2_154_cif.got.tgz:306854.got - 2010.06.03 11:33:40.
