data_PCOD9037615
_publ_section_title
;
Structure prediction by ZEFSAII (Michael W. Deem and Ramdas Pophale) SiO2 
 PCOD9037615
Probable space group: P -1
;
_chemical_formula_sum "Si O2"
_cell_formula_units_Z 16
_cell_length_a 9.823081
_cell_length_b 12.672177
_cell_length_c 9.412977
_cell_angle_alpha 97.138521
_cell_angle_beta 58.205900
_cell_angle_gamma 57.607468
_cell_volume 693.028491
_symmetry_space_group_name_H-M "P -1"
_symmetry_group_IT_number 2
_symmetry_cell_setting 'triclinic'
loop_
_space_group_symop_operation_xyz
x,y,z
-x,-y,-z
loop_
_atom_site_type_symbol
_atom_site_label
_atom_site_fract_x
_atom_site_fract_y
_atom_site_fract_z
Si Si1 0.522001 0.760169 0.588108
Si Si2 0.944771 0.455338 0.382853
Si Si3 0.124095 0.735462 0.518880
Si Si4 0.899781 0.159115 0.141887
Si Si5 0.673282 0.893813 0.613657
Si Si6 0.201263 0.849371 0.271352
Si Si7 0.857935 0.903577 0.255453
Si Si8 0.562492 0.860321 0.029513
O O1 0.368401 0.732902 0.712539
O O2 0.776377 0.597730 0.392467
O O3 0.345586 0.911501 0.612670
O O4 0.572188 0.826235 0.691062
O O5 0.000000 0.500000 0.500000
O O6 0.807706 0.414687 0.498921
O O7 0.184104 0.300998 0.163075
O O8 0.069769 0.826222 0.707739
O O9 0.287263 0.722134 0.319108
O O10 0.891510 0.822949 0.573866
O O11 0.036093 0.174540 0.968324
O O12 0.000000 0.000000 0.000000
O O13 0.758391 0.857551 0.399314
O O14 0.486288 0.071736 0.774384
O O15 0.500000 0.000000 0.000000
O O16 0.385526 0.845813 0.113122
O O17 0.069731 0.853873 0.217161
O O18 0.000000 0.000000 0.500000
#
# Coordination Sequence:
#
# PCOD9037615 Si02
#       8
#     2   2   2   2   2   2   2   2
#     4  11  24  43  67 103 146 182 224 292 358 414
#     4  12  26  45  69 100 146 189 235 289 351 425
#     4  11  23  45  70 102 139 183 239 284 351 411
#     4  10  24  39  70 102 142 180 231 288 351 417
#     4  11  23  43  75 102 134 183 243 294 337 416
#     4  11  20  41  73 105 134 173 241 304 332 407
#     4  10  23  40  70 105 138 178 233 295 358 401
#     4  12  24  39  74 106 132 180 250 281 344 409
#
# _framework density 23.087074000000001
#
# number of rings (size 3 to 8) (size 9 to 14) (size 15 to 20)
#    0.000    1.000    5.000    1.875    7.000    1.500 
#    0.000    2.500    0.000    0.000    0.000    0.000 
#    0.000    0.000    0.000    0.000    0.000    0.000 
#
# Total GULP energy -89185.011852 kJ/mol
# GULP energy per Si atom -5574.063241 kJ/mol
# Density = 2.303453 g / cm^3
# Si number density = 23.087074 Si / 1000 Ang^3
#
#
#
# Elastic Constant Matrix: (Units=GPa)
#
#
# Indices 1 2 3 4 5 6 
#
# 1 135.4036 37.2443 47.0992 -10.4034 -13.2692 0.9216
# 2 37.2443 107.4162 55.9685 1.2323 -14.4412 -2.6277
# 3 47.0992 55.9685 109.4125 -13.4127 -14.3902 -15.7127
# 4 -10.4034 1.2323 -13.4127 41.3433 -0.2682 -7.2957
# 5 -13.2692 -14.4412 -14.3902 -0.2682 41.6726 -1.6688
# 6 0.9216 -2.6277 -15.7127 -7.2957 -1.6688 31.2543
#
#
#
# Elastic Compliance Matrix: (Units=1/GPa)
#
#
# Indices 1 2 3 4 5 6 
#
# 1 0.009074 -0.001392 -0.003141 0.001022 0.001263 -0.001658
# 2 -0.001392 0.013659 -0.007046 -0.003579 0.001710 -0.003097
# 3 -0.003141 -0.007046 0.016619 0.006509 0.002720 0.009520
# 4 0.001022 -0.003579 0.006509 0.028381 0.001903 0.009668
# 5 0.001263 0.001710 0.002720 0.001903 0.026075 0.003310
# 6 -0.001658 -0.003097 0.009520 0.009668 0.003310 0.039004
#
#
# Mechanical properties :
#
#
# Convention : Reuss Voigt Hill
#
# Bulk Modulus (GPa) = 61.75395 70.31736 66.03565
# Shear Modulus (GPa) = 30.98485 36.98207 33.98346
#
# Velocity S-wave (km/s) = 3.66742 4.00666 3.84079
# Velocity P-wave (km/s) = 6.68877 7.20611 6.95225
#
# Compressibility (1/GPa) = 0.01619330
#
# Stress axis : x y z
#
# Youngs Moduli (GPa) = 110.20111 73.21205 60.17216
#
# Poissons Ratio (x) = 0.10194 0.18899
# Poissons Ratio (y) = 0.15344 0.42399
# Poissons Ratio (z) = 0.34612 0.51588
#
# Static dielectric constant tensor:
#      x y z
#    x 1.920100 0.019570 -0.002420 
#    y 0.019570 1.981760 -0.085100 
#    z -0.002420 -0.085100 1.943810 
# 
# From -- ./inp_files/270297.got.cif
#   From: 2010.05.17/outbox.cif.g08.bks.cpg/sg2_136_cif.got.tgz:270297.got - 2010.06.03 11:33:40.
