data_PCOD9037191
_publ_section_title
;
Structure prediction by ZEFSAII (Michael W. Deem and Ramdas Pophale) SiO2 
 PCOD9037191
Probable space group: P -1
;
_chemical_formula_sum "Si O2"
_cell_formula_units_Z 14
_cell_length_a 15.103893
_cell_length_b 16.096933
_cell_length_c 8.576519
_cell_angle_alpha 71.208709
_cell_angle_beta 128.767478
_cell_angle_gamma 150.066059
_cell_volume 668.393147
_symmetry_space_group_name_H-M "P -1"
_symmetry_group_IT_number 2
_symmetry_cell_setting 'triclinic'
loop_
_space_group_symop_operation_xyz
x,y,z
-x,-y,-z
loop_
_atom_site_type_symbol
_atom_site_label
_atom_site_fract_x
_atom_site_fract_y
_atom_site_fract_z
Si Si1 0.618987 0.904248 0.897862
Si Si2 0.159301 0.475255 0.783819
Si Si3 0.403887 0.578599 0.302912
Si Si4 0.662902 0.918489 0.567504
Si Si5 0.801836 0.681790 0.228123
Si Si6 0.151671 0.241854 0.416996
Si Si7 0.431422 0.949877 0.635958
O O1 0.374104 0.695356 0.845391
O O2 0.598303 0.877719 0.704571
O O3 0.626936 0.013826 0.882468
O O4 0.878743 0.035350 0.156982
O O5 0.205488 0.425952 0.749615
O O6 0.860825 0.292916 0.536149
O O7 0.208392 0.474903 0.014225
O O8 0.512036 0.735314 0.426687
O O9 0.275353 0.414735 0.369053
O O10 0.646438 0.697276 0.416703
O O11 0.583756 0.959188 0.384054
O O12 0.977910 0.128390 0.763382
O O13 0.900867 0.775536 0.450808
O O14 0.500000 0.500000 0.000000
O O15 0.500000 0.000000 0.500000
#
# Coordination Sequence:
#
# PCOD9037191 Si02
#       7
#     2   2   2   2   2   2   2
#     4  11  23  41  64  92 124 163 205 251 307 361
#     4  11  22  40  65  92 125 161 205 251 304 365
#     4  11  23  40  61  93 124 163 206 249 309 361
#     4  10  23  40  63  91 123 163 205 251 307 360
#     4  11  22  39  61  89 123 160 203 249 305 362
#     4  11  24  39  62  90 127 162 203 254 303 368
#     4   9  20  42  65  88 122 162 205 255 300 357
#
# _framework density 20.945755999999999
#
# number of rings (size 3 to 8) (size 9 to 14) (size 15 to 20)
#    0.000    1.429    1.429    4.714    4.000    1.714 
#    0.000   14.286    0.000    0.000    0.000    0.000 
#    0.000    0.000    0.000    0.000    0.000    0.000 
#
# Total GULP energy -78184.948783 kJ/mol
# GULP energy per Si atom -5584.639199 kJ/mol
# Density = 2.089808 g / cm^3
# Si number density = 20.945756 Si / 1000 Ang^3
#
#
#
# Elastic Constant Matrix: (Units=GPa)
#
#
# Indices 1 2 3 4 5 6 
#
# 1 73.2684 16.2806 11.0198 5.2293 -3.2401 -5.9407
# 2 16.2806 61.6335 -14.8019 3.3889 -4.3353 1.4890
# 3 11.0198 -14.8019 42.3762 -4.2302 0.1028 -6.0674
# 4 5.2293 3.3889 -4.2302 21.7271 5.8005 -2.4700
# 5 -3.2401 -4.3353 0.1028 5.8005 30.9129 11.0853
# 6 -5.9407 1.4890 -6.0674 -2.4700 11.0853 30.9278
#
#
#
# Elastic Compliance Matrix: (Units=1/GPa)
#
#
# Indices 1 2 3 4 5 6 
#
# 1 0.016343 -0.005556 -0.006461 -0.004536 0.001342 0.001296
# 2 -0.005556 0.019941 0.008054 -0.001186 0.002989 -0.001613
# 3 -0.006461 0.008054 0.029713 0.007620 -0.003214 0.005961
# 4 -0.004536 -0.001186 0.007620 0.053780 -0.014393 0.010134
# 5 0.001342 0.002989 -0.003214 -0.014393 0.041559 -0.016562
# 6 0.001296 -0.001613 0.005961 0.010134 -0.016562 0.040575
#
#
# Mechanical properties :
#
#
# Convention : Reuss Voigt Hill
#
# Bulk Modulus (GPa) = 17.22062 22.47503 19.84783
# Shear Modulus (GPa) = 21.81538 27.69887 24.75712
#
# Velocity S-wave (km/s) = 3.23076 3.64044 3.44170
# Velocity P-wave (km/s) = 4.70706 5.33140 5.02893
#
# Compressibility (1/GPa) = 0.05806990
#
# Stress axis : x y z
#
# Youngs Moduli (GPa) = 61.18830 50.14726 33.65490
#
# Poissons Ratio (x) = 0.27863 0.21745
# Poissons Ratio (y) = 0.33998 -0.27105
# Poissons Ratio (z) = 0.39535 -0.40387
#
# Static dielectric constant tensor:
#      x y z
#    x 1.754110 0.018130 0.061000 
#    y 0.018130 1.784660 0.025270 
#    z 0.061000 0.025270 1.784620 
# 
# From -- ./inp_files/164464.got.cif
#   From: 2010.05.17/outbox.cif.g08.bks.cpg/sg2_83_cif.got.tgz:164464.got - 2010.06.03 11:33:40.
