data_PCOD9037159
_publ_section_title
;
Structure prediction by ZEFSAII (Michael W. Deem and Ramdas Pophale) SiO2 
 PCOD9037159
Probable space group: P -1
;
_chemical_formula_sum "Si O2"
_cell_formula_units_Z 14
_cell_length_a 9.593470
_cell_length_b 23.881023
_cell_length_c 9.539982
_cell_angle_alpha 33.207052
_cell_angle_beta 45.002300
_cell_angle_gamma 35.363659
_cell_volume 690.661151
_symmetry_space_group_name_H-M "P -1"
_symmetry_group_IT_number 2
_symmetry_cell_setting 'triclinic'
loop_
_space_group_symop_operation_xyz
x,y,z
-x,-y,-z
loop_
_atom_site_type_symbol
_atom_site_label
_atom_site_fract_x
_atom_site_fract_y
_atom_site_fract_z
Si Si1 0.184911 0.535944 0.755926
Si Si2 0.031801 0.699715 0.770643
Si Si3 0.059400 0.868699 0.191911
Si Si4 0.114542 0.213854 0.740525
Si Si5 0.377855 0.885982 0.539673
Si Si6 0.026894 0.823716 0.788057
Si Si7 0.438872 0.287187 0.954918
O O1 0.221330 0.583320 0.778561
O O2 0.047376 0.653155 0.502786
O O3 0.398659 0.412048 0.787044
O O4 0.000000 0.500000 0.000000
O O5 0.106976 0.729361 0.799371
O O6 0.808170 0.689167 0.974254
O O7 0.950030 0.819147 0.480251
O O8 0.959637 0.869903 0.107177
O O9 0.348308 0.771483 0.185201
O O10 0.000000 0.000000 0.000000
O O11 0.392542 0.151323 0.638779
O O12 0.052336 0.222487 0.928308
O O13 0.474828 0.810407 0.774226
O O14 0.231468 0.840877 0.658587
O O15 0.202189 0.034657 0.381066
#
# Coordination Sequence:
#
# PCOD9037159 Si02
#       7
#     2   2   2   2   2   2   2
#     4   9  19  42  69  88 119 163 221 253 302 368
#     4  10  23  40  62  93 124 158 211 264 295 368
#     4  11  23  36  64  97 120 156 217 253 301 378
#     4  11  22  41  64  90 125 170 201 256 317 371
#     4  11  22  40  63  86 130 170 200 254 312 379
#     4  11  25  39  59  95 129 165 205 249 326 369
#     4  11  21  42  70  88 121 170 207 259 309 358
#
# _framework density 20.270432
#
# number of rings (size 3 to 8) (size 9 to 14) (size 15 to 20)
#    0.000    1.429    5.714    1.286    4.000    4.571 
#    0.000    3.571    0.000    0.000    0.000    0.000 
#    0.000    0.000    0.000    0.000    0.000    0.000 
#
# Total GULP energy -78188.836900 kJ/mol
# GULP energy per Si atom -5584.916921 kJ/mol
# Density = 2.022430 g / cm^3
# Si number density = 20.270432 Si / 1000 Ang^3
#
#
#
# Elastic Constant Matrix: (Units=GPa)
#
#
# Indices 1 2 3 4 5 6 
#
# 1 34.4880 9.9374 15.2628 -1.8764 -6.7563 17.3750
# 2 9.9374 89.7443 30.3403 -8.0128 -15.2678 13.6627
# 3 15.2628 30.3403 62.8515 -11.3054 -11.5939 14.4828
# 4 -1.8764 -8.0128 -11.3054 26.2942 -2.6532 -7.3794
# 5 -6.7563 -15.2678 -11.5939 -2.6532 30.7576 6.9441
# 6 17.3750 13.6627 14.4828 -7.3794 6.9441 40.7499
#
#
#
# Elastic Compliance Matrix: (Units=1/GPa)
#
#
# Indices 1 2 3 4 5 6 
#
# 1 0.043002 0.001846 -0.004892 -0.002766 0.012771 -0.019893
# 2 0.001846 0.014678 -0.004735 0.001917 0.007179 -0.004902
# 3 -0.004892 -0.004735 0.023008 0.007587 0.006873 -0.004301
# 4 -0.002766 0.001917 0.007587 0.043603 0.005897 0.004731
# 5 0.012771 0.007179 0.006873 0.005897 0.045827 -0.017036
# 6 -0.019893 -0.004902 -0.004301 0.004731 -0.017036 0.039954
#
#
# Mechanical properties :
#
#
# Convention : Reuss Voigt Hill
#
# Bulk Modulus (GPa) = 15.35474 33.12943 24.24208
# Shear Modulus (GPa) = 20.21500 28.32989 24.27245
#
# Velocity S-wave (km/s) = 3.16138 3.74250 3.46415
# Velocity P-wave (km/s) = 4.57352 5.92067 5.29015
#
# Compressibility (1/GPa) = 0.06512649
#
# Stress axis : x y z
#
# Youngs Moduli (GPa) = 23.25482 68.12973 43.46343
#
# Poissons Ratio (x) = -0.12579 0.21261
# Poissons Ratio (y) = -0.04294 0.20581
# Poissons Ratio (z) = 0.11375 0.32261
#
# Static dielectric constant tensor:
#      x y z
#    x 1.717410 -0.009150 -0.013990 
#    y -0.009150 1.762740 0.012940 
#    z -0.013990 0.012940 1.728980 
# 
# From -- ./inp_files/178451.got.cif
#   From: 2010.05.17/outbox.cif.g08.bks.cpg/sg2_90_cif.got.tgz:178451.got - 2010.06.03 11:33:40.
