data_PCOD9037453
_publ_section_title
;
Structure prediction by ZEFSAII (Michael W. Deem and Ramdas Pophale) SiO2 
 PCOD9037453
Probable space group: P -1
;
_chemical_formula_sum "Si O2"
_cell_formula_units_Z 16
_cell_length_a 19.277999
_cell_length_b 4.993436
_cell_length_c 11.034028
_cell_angle_alpha 55.125079
_cell_angle_beta 40.885147
_cell_angle_gamma 58.860133
_cell_volume 563.212167
_symmetry_space_group_name_H-M "P -1"
_symmetry_group_IT_number 2
_symmetry_cell_setting 'triclinic'
loop_
_space_group_symop_operation_xyz
x,y,z
-x,-y,-z
loop_
_atom_site_type_symbol
_atom_site_label
_atom_site_fract_x
_atom_site_fract_y
_atom_site_fract_z
Si Si1 0.515954 0.160718 0.801154
Si Si2 0.901720 0.759101 0.112369
Si Si3 0.299952 0.294826 0.768865
Si Si4 0.011289 0.350049 0.726414
Si Si5 0.585223 0.164627 0.455944
Si Si6 0.655305 0.304319 0.768842
Si Si7 0.132935 0.209560 0.351156
Si Si8 0.683571 0.378482 0.966831
O O1 0.558046 0.995283 0.661009
O O2 0.620021 0.312956 0.673640
O O3 0.417370 0.474260 0.853958
O O4 0.442918 0.899245 0.016986
O O5 0.801193 0.692930 0.186342
O O6 0.898542 0.682365 0.279685
O O7 0.000000 0.500000 0.000000
O O8 0.932127 0.115821 0.946763
O O9 0.309748 0.655364 0.711901
O O10 0.394015 0.096992 0.610730
O O11 0.299302 0.019051 0.946549
O O12 0.943979 0.707265 0.686000
O O13 0.063721 0.227325 0.560841
O O14 0.500000 0.500000 0.500000
O O15 0.775551 0.107513 0.676151
O O16 0.653566 0.527011 0.833918
O O17 0.206004 0.502026 0.176828
#
# Coordination Sequence:
#
# PCOD9037453 Si02
#       8
#     2   2   2   2   2   2   2   2
#     4  10  23  41  63  96 136 181 230 290 355 416
#     4  11  27  45  72 100 141 188 237 309 362 430
#     4  12  28  43  75 104 145 192 244 293 368 429
#     4  10  24  46  68  97 140 172 242 298 368 419
#     4  12  26  46  71 107 145 191 240 299 352 442
#     4  10  23  40  67  92 137 177 235 288 357 425
#     4  10  23  42  69  98 129 185 229 297 353 439
#     4  11  22  40  65  98 134 181 232 288 353 427
#
# _framework density 28.408477999999999
#
# number of rings (size 3 to 8) (size 9 to 14) (size 15 to 20)
#    0.000    1.250    2.500    1.500   10.500    2.000 
#    0.000    2.500    0.000    0.000    0.000    0.000 
#    0.000    0.000    0.000    0.000    0.000    0.000 
#
# Total GULP energy -89443.066101 kJ/mol
# GULP energy per Si atom -5590.191631 kJ/mol
# Density = 2.834382 g / cm^3
# Si number density = 28.408478 Si / 1000 Ang^3
#
#
#
# Elastic Constant Matrix: (Units=GPa)
#
#
# Indices 1 2 3 4 5 6 
#
# 1 129.8068 7.4707 -6.1907 13.7540 7.2109 -16.1496
# 2 7.4707 60.5613 12.1032 14.5054 -6.1015 13.5624
# 3 -6.1907 12.1032 78.5705 20.6259 2.9296 -9.4571
# 4 13.7540 14.5054 20.6259 48.4986 6.2515 -5.3889
# 5 7.2109 -6.1015 2.9296 6.2515 42.3097 7.6311
# 6 -16.1496 13.5624 -9.4571 -5.3889 7.6311 56.7774
#
#
#
# Elastic Compliance Matrix: (Units=1/GPa)
#
#
# Indices 1 2 3 4 5 6 
#
# 1 0.008673 -0.001952 0.002016 -0.002076 -0.002200 0.003368
# 2 -0.001952 0.021036 -0.002909 -0.006073 0.005803 -0.007421
# 3 0.002016 -0.002909 0.015288 -0.005605 -0.001625 0.003501
# 4 -0.002076 -0.006073 -0.005605 0.026335 -0.004574 0.003041
# 5 -0.002200 0.005803 -0.001625 -0.004574 0.026774 -0.006315
# 6 0.003368 -0.007421 0.003501 0.003041 -0.006315 0.022064
#
#
# Mechanical properties :
#
#
# Convention : Reuss Voigt Hill
#
# Bulk Modulus (GPa) = 25.44035 32.85612 29.14824
# Shear Modulus (GPa) = 35.98096 46.55416 41.26756
#
# Velocity S-wave (km/s) = 3.56273 4.05253 3.81550
# Velocity P-wave (km/s) = 5.08908 5.78688 5.44916
#
# Compressibility (1/GPa) = 0.03930763
#
# Stress axis : x y z
#
# Youngs Moduli (GPa) = 115.29536 47.53838 65.41137
#
# Poissons Ratio (x) = 0.09277 -0.13189
# Poissons Ratio (y) = 0.22500 0.19031
# Poissons Ratio (z) = -0.23247 0.13831
#
# Static dielectric constant tensor:
#      x y z
#    x 3.145260 -0.036590 0.403960 
#    y -0.036590 2.352930 -0.042580 
#    z 0.403960 -0.042580 2.506830 
# 
# From -- ./inp_files/468014.got.cif
#   From: 2010.05.17/outbox.cif.g08.bks.cpg/sg2_235_cif.got.tgz:468014.got - 2010.06.03 11:33:40.
