data_PCOD9037809
_publ_section_title
;
Structure prediction by ZEFSAII (Michael W. Deem and Ramdas Pophale) SiO2 
 PCOD9037809
Probable space group: P -1
;
_chemical_formula_sum "Si O2"
_cell_formula_units_Z 14
_cell_length_a 6.827201
_cell_length_b 17.771047
_cell_length_c 5.324523
_cell_angle_alpha 99.920454
_cell_angle_beta 107.955427
_cell_angle_gamma 89.268382
_cell_volume 604.793188
_symmetry_space_group_name_H-M "P -1"
_symmetry_group_IT_number 2
_symmetry_cell_setting 'triclinic'
loop_
_space_group_symop_operation_xyz
x,y,z
-x,-y,-z
loop_
_atom_site_type_symbol
_atom_site_label
_atom_site_fract_x
_atom_site_fract_y
_atom_site_fract_z
Si Si1 0.634906 0.166646 0.133879
Si Si2 0.361246 0.175563 0.529232
Si Si3 0.681790 0.330745 0.266002
Si Si4 0.987867 0.050844 0.274501
Si Si5 0.422131 0.420738 0.531349
Si Si6 0.263755 0.330130 0.816281
Si Si7 0.992597 0.414177 0.065299
O O1 0.485974 0.172459 0.318223
O O2 0.770164 0.247164 0.237668
O O3 0.779683 0.096691 0.196080
O O4 0.510168 0.159388 0.817364
O O5 0.272125 0.259786 0.587547
O O6 0.176499 0.112937 0.403626
O O7 0.616266 0.368113 0.523863
O O8 0.808898 0.389436 0.168834
O O9 0.446972 0.312384 0.066644
O O10 0.000000 0.000000 0.500000
O O11 0.000000 0.000000 0.000000
O O12 0.500000 0.500000 0.500000
O O13 0.356844 0.409739 0.783761
O O14 0.202038 0.406903 0.303413
O O15 0.040138 0.349333 0.838299
O O16 0.000000 0.500000 0.000000
#
# Coordination Sequence:
#
# PCOD9037809 Si02
#       7
#     2   2   2   2   2   2   2
#     4  11  25  46  75 106 140 197 239 294 366 433
#     4  11  25  47  75 104 148 187 245 297 359 431
#     4  10  23  41  63  92 131 175 241 286 347 423
#     4  12  28  47  74 113 149 184 236 299 364 445
#     4  11  22  39  62  90 132 172 226 290 344 410
#     4  10  23  41  63  92 130 179 232 294 346 414
#     4  11  24  39  60  95 133 182 231 294 359 413
#
# _framework density 23.148410999999999
#
# number of rings (size 3 to 8) (size 9 to 14) (size 15 to 20)
#    0.000    1.143    1.429    3.429    2.000   12.571 
#    0.000    0.000    0.000    0.000    0.000    0.000 
#    0.000    0.000    0.000    0.000    0.000    0.000 
#
# Total GULP energy -78172.396075 kJ/mol
# GULP energy per Si atom -5583.742577 kJ/mol
# Density = 2.309572 g / cm^3
# Si number density = 23.148411 Si / 1000 Ang^3
#
#
#
# Elastic Constant Matrix: (Units=GPa)
#
#
# Indices 1 2 3 4 5 6 
#
# 1 133.5084 42.8242 43.9895 -4.1439 -3.7794 -3.4664
# 2 42.8242 104.6312 24.7505 -10.6301 -3.5639 -4.9291
# 3 43.9895 24.7505 88.1528 -18.9659 -9.3844 -1.7770
# 4 -4.1439 -10.6301 -18.9659 34.6680 0.8669 0.7689
# 5 -3.7794 -3.5639 -9.3844 0.8669 39.5113 -2.1047
# 6 -3.4664 -4.9291 -1.7770 0.7689 -2.1047 49.0573
#
#
#
# Elastic Compliance Matrix: (Units=1/GPa)
#
#
# Indices 1 2 3 4 5 6 
#
# 1 0.009964 -0.003227 -0.004597 -0.002310 -0.000367 0.000234
# 2 -0.003227 0.011426 -0.000981 0.002550 0.000479 0.000865
# 3 -0.004597 -0.000981 0.015919 0.007778 0.003091 0.000164
# 4 -0.002310 0.002550 0.007778 0.033580 0.001114 -0.000104
# 5 -0.000367 0.000479 0.003091 0.001114 0.026093 0.001236
# 6 0.000234 0.000865 0.000164 -0.000104 0.001236 0.020548
#
#
# Mechanical properties :
#
#
# Convention : Reuss Voigt Hill
#
# Bulk Modulus (GPa) = 50.76284 61.04673 55.90479
# Shear Modulus (GPa) = 35.28398 38.96255 37.12327
#
# Velocity S-wave (km/s) = 3.90840 4.10709 4.00898
# Velocity P-wave (km/s) = 6.50725 6.99429 6.75516
#
# Compressibility (1/GPa) = 0.01969945
#
# Stress axis : x y z
#
# Youngs Moduli (GPa) = 100.36157 87.51812 62.81711
#
# Poissons Ratio (x) = 0.28240 0.28880
# Poissons Ratio (y) = 0.32384 0.06161
# Poissons Ratio (z) = 0.46140 0.08584
#
# Static dielectric constant tensor:
#      x y z
#    x 1.822630 -0.018200 -0.012500 
#    y -0.018200 1.965110 0.032440 
#    z -0.012500 0.032440 2.055840 
# 
# From -- ./inp_files/7470.got.cif
#   From: 2010.05.17/outbox.cif.g08.bks.cpg/sg2_4_cif.got.tgz:7470.got - 2010.06.03 11:33:40.
