data_PCOD9037312
_publ_section_title
;
Structure prediction by ZEFSAII (Michael W. Deem and Ramdas Pophale) SiO2 
 PCOD9037312
Probable space group: P -1
;
_chemical_formula_sum "Si O2"
_cell_formula_units_Z 16
_cell_length_a 16.823109
_cell_length_b 5.296356
_cell_length_c 16.587614
_cell_angle_alpha 67.375904
_cell_angle_beta 32.839818
_cell_angle_gamma 57.496128
_cell_volume 668.696162
_symmetry_space_group_name_H-M "P -1"
_symmetry_group_IT_number 2
_symmetry_cell_setting 'triclinic'
loop_
_space_group_symop_operation_xyz
x,y,z
-x,-y,-z
loop_
_atom_site_type_symbol
_atom_site_label
_atom_site_fract_x
_atom_site_fract_y
_atom_site_fract_z
Si Si1 0.277348 0.676182 0.945780
Si Si2 0.088811 0.389904 0.052289
Si Si3 0.412616 0.362206 0.030991
Si Si4 0.845954 0.196165 0.551008
Si Si5 0.691345 0.426629 0.247475
Si Si6 0.802954 0.371644 0.392898
Si Si7 0.806942 0.641967 0.652587
Si Si8 0.372549 0.941907 0.516685
O O1 0.360478 0.603422 0.796139
O O2 0.145964 0.535748 0.061133
O O3 0.386687 0.506039 0.948105
O O4 0.197993 0.033473 0.987676
O O5 0.916111 0.410438 0.222684
O O6 0.135512 0.560868 0.918112
O O7 0.241025 0.446655 0.210763
O O8 0.500000 0.500000 0.000000
O O9 0.500000 0.000000 0.000000
O O10 0.895468 0.246174 0.413531
O O11 0.751105 0.503973 0.642427
O O12 0.744872 0.999126 0.655258
O O13 0.000000 0.000000 0.500000
O O14 0.560423 0.729019 0.364181
O O15 0.685714 0.162131 0.338921
O O16 0.727176 0.149114 0.454209
O O17 0.670702 0.708413 0.483702
O O18 0.000000 0.500000 0.500000
#
# Coordination Sequence:
#
# PCOD9037312 Si02
#       8
#     2   2   2   2   2   2   2   2
#     4  10  24  43  71  92 136 178 229 261 344 413
#     4  10  24  43  72  93 134 178 225 265 338 402
#     4  12  26  43  66  99 134 173 226 282 328 386
#     4  10  23  40  65  94 135 174 218 267 339 384
#     4   9  26  46  72  95 138 187 211 270 356 411
#     4  12  26  42  69 106 133 172 230 292 317 393
#     4  10  23  40  65  89 127 173 219 264 321 395
#     4  11  26  44  71 102 139 167 228 281 339 398
#
# _framework density 23.927161999999999
#
# number of rings (size 3 to 8) (size 9 to 14) (size 15 to 20)
#    0.750    0.750    0.000    3.000   10.500    5.000 
#    0.000    0.000    0.000    0.000    0.000    0.000 
#    0.000    0.000    0.000    0.000    0.000    0.000 
#
# Total GULP energy -89410.676813 kJ/mol
# GULP energy per Si atom -5588.167301 kJ/mol
# Density = 2.387270 g / cm^3
# Si number density = 23.927162 Si / 1000 Ang^3
#
#
#
# Elastic Constant Matrix: (Units=GPa)
#
#
# Indices 1 2 3 4 5 6 
#
# 1 91.8163 29.4297 19.6681 -12.3380 33.8533 12.7684
# 2 29.4297 106.7380 6.4502 0.0220 16.7090 30.9048
# 3 19.6681 6.4502 102.9838 -10.2562 4.3279 -4.6424
# 4 -12.3380 0.0220 -10.2562 19.3653 -3.1131 3.5818
# 5 33.8533 16.7090 4.3279 -3.1131 42.2310 -9.2331
# 6 12.7684 30.9048 -4.6424 3.5818 -9.2331 45.8278
#
#
#
# Elastic Compliance Matrix: (Units=1/GPa)
#
#
# Indices 1 2 3 4 5 6 
#
# 1 0.021166 0.000403 -0.002680 0.011140 -0.018442 -0.011027
# 2 0.000403 0.013841 -0.001064 0.000450 -0.008111 -0.011224
# 3 -0.002680 -0.001064 0.010694 0.003832 0.002351 0.002722
# 4 0.011140 0.000450 0.003832 0.061347 -0.006995 -0.009223
# 5 -0.018442 -0.008111 0.002351 -0.006995 0.045407 0.020542
# 6 -0.011027 -0.011224 0.002722 -0.009223 0.020542 0.037597
#
#
# Mechanical properties :
#
#
# Convention : Reuss Voigt Hill
#
# Bulk Modulus (GPa) = 25.62802 45.84824 35.73813
# Shear Modulus (GPa) = 23.83889 37.88416 30.86153
#
# Velocity S-wave (km/s) = 3.15986 3.98340 3.59529
# Velocity P-wave (km/s) = 4.90378 6.35294 5.67481
#
# Compressibility (1/GPa) = 0.03901980
#
# Stress axis : x y z
#
# Youngs Moduli (GPa) = 47.24471 72.24816 93.50749
#
# Poissons Ratio (x) = -0.02915 0.25062
# Poissons Ratio (y) = -0.01906 0.09952
# Poissons Ratio (z) = 0.12663 0.07689
#
# Static dielectric constant tensor:
#      x y z
#    x 1.974120 0.075170 -0.011290 
#    y 0.075170 1.924010 -0.017520 
#    z -0.011290 -0.017520 1.916180 
# 
# From -- ./inp_files/576766.got.cif
#   From: 2010.05.17/outbox.cif.g08.bks.cpg/sg2_289_cif.got.tgz:576766.got - 2010.06.03 11:33:40.
