data_PCOD9037538
_publ_section_title
;
Structure prediction by ZEFSAII (Michael W. Deem and Ramdas Pophale) SiO2 
 PCOD9037538
Probable space group: P -1
;
_chemical_formula_sum "Si O2"
_cell_formula_units_Z 16
_cell_length_a 11.917358
_cell_length_b 9.165542
_cell_length_c 18.254361
_cell_angle_alpha 120.578549
_cell_angle_beta 21.562576
_cell_angle_gamma 119.895808
_cell_volume 628.865749
_symmetry_space_group_name_H-M "P -1"
_symmetry_group_IT_number 2
_symmetry_cell_setting 'triclinic'
loop_
_space_group_symop_operation_xyz
x,y,z
-x,-y,-z
loop_
_atom_site_type_symbol
_atom_site_label
_atom_site_fract_x
_atom_site_fract_y
_atom_site_fract_z
Si Si1 0.745822 0.569176 0.248439
Si Si2 0.458043 0.811831 0.762393
Si Si3 0.837822 0.832408 0.948346
Si Si4 0.744549 0.378755 0.552319
Si Si5 0.367069 0.517832 0.189693
Si Si6 0.505171 0.218050 0.423732
Si Si7 0.948398 0.052103 0.310329
Si Si8 0.374591 0.764037 0.963495
O O1 0.726842 0.371827 0.187855
O O2 0.557471 0.654640 0.320673
O O3 0.569984 0.621178 0.441433
O O4 0.084505 0.645879 0.078101
O O5 0.652376 0.811044 0.568181
O O6 0.561954 0.802940 0.782845
O O7 0.295394 0.989081 0.903715
O O8 0.130962 0.791106 0.807716
O O9 0.984325 0.864552 0.787805
O O10 0.582820 0.671975 0.064904
O O11 0.655956 0.453049 0.701678
O O12 0.903457 0.207976 0.430354
O O13 0.009499 0.495620 0.378241
O O14 0.509392 0.335587 0.061651
O O15 0.362464 0.065197 0.521891
O O16 0.217778 0.930960 0.127904
#
# Coordination Sequence:
#
# PCOD9037538 Si02
#       8
#     2   2   2   2   2   2   2   2
#     4  11  22  39  64  97 131 166 205 269 320 371
#     4  11  22  36  62  98 124 167 208 265 310 376
#     4  11  23  39  65  93 130 169 216 256 318 383
#     4  11  24  43  68  89 135 168 213 257 326 375
#     4  11  25  45  65  95 125 177 213 259 314 387
#     4  11  22  37  65  97 134 162 210 263 327 370
#     4  10  23  42  64  96 129 170 205 271 316 377
#     4  10  23  40  68  95 132 160 216 262 319 375
#
# _framework density 25.442630000000001
#
# number of rings (size 3 to 8) (size 9 to 14) (size 15 to 20)
#    0.000    1.250    2.500    3.000    5.250    2.000 
#    0.000    0.625    5.500    0.000    0.000    0.000 
#    0.000    0.000    0.000    0.000    0.000    0.000 
#
# Total GULP energy -89297.823241 kJ/mol
# GULP energy per Si atom -5581.113953 kJ/mol
# Density = 2.538472 g / cm^3
# Si number density = 25.442630 Si / 1000 Ang^3
#
#
#
# Elastic Constant Matrix: (Units=GPa)
#
#
# Indices 1 2 3 4 5 6 
#
# 1 65.4473 -15.3980 12.7058 6.7625 -9.4149 -9.7354
# 2 -15.3980 37.7436 -5.5434 20.4464 -24.5663 -17.7029
# 3 12.7058 -5.5434 26.7134 17.6634 -12.4619 -3.6704
# 4 6.7625 20.4464 17.6634 46.0494 20.6981 1.7710
# 5 -9.4149 -24.5663 -12.4619 20.6981 30.1060 -9.4836
# 6 -9.7354 -17.7029 -3.6704 1.7710 -9.4836 23.1007
#
#
#
# Elastic Compliance Matrix: (Units=1/GPa)
#
#
# Indices 1 2 3 4 5 6 
#
# 1 0.016624 -0.001143 -0.014168 0.005760 -0.005140 0.001327
# 2 -0.001143 0.002683 -0.015712 0.012469 -0.015891 -0.008402
# 3 -0.014168 -0.015712 0.033280 0.001264 -0.009629 -0.016774
# 4 0.005760 0.012469 0.001264 0.009161 0.011276 0.016111
# 5 -0.005140 -0.015891 -0.009629 0.011276 0.001873 -0.015969
# 6 0.001327 -0.008402 -0.016774 0.016111 -0.015969 0.026953
#
#
# Mechanical properties :
#
#
# Convention : Reuss Voigt Hill
#
# Bulk Modulus (GPa) = -105.72603 12.60370 -46.56116
# Shear Modulus (GPa) = 33.45205 29.06054 31.25629
#
# Velocity S-wave (km/s) = 3.62996 3.38331 3.50880
# Velocity P-wave (km/s) = 4.90674 4.49743 1.38730
#
# Compressibility (1/GPa) = -0.00945841
#
# Stress axis : x y z
#
# Youngs Moduli (GPa) = 60.15378 372.73334 30.04774
#
# Poissons Ratio (x) = 0.42588 0.42573
# Poissons Ratio (y) = 0.06873 0.47210
# Poissons Ratio (z) = 0.85229 5.85631
#
# Static dielectric constant tensor:
#      x y z
#    x 2.053920 -0.011540 0.026320 
#    y -0.011540 2.059170 -0.027440 
#    z 0.026320 -0.027440 2.032730 
# 
# From -- ./inp_files/597216.got.cif
#   From: 2010.05.17/outbox.cif.g08.bks.cpg/sg2_299_cif.got.tgz:597216.got - 2010.06.03 11:33:40.
