data_PCOD9037075
_publ_section_title
;
Structure prediction by ZEFSAII (Michael W. Deem and Ramdas Pophale) SiO2 
 PCOD9037075
Probable space group: P -1
;
_chemical_formula_sum "Si O2"
_cell_formula_units_Z 13
_cell_length_a 14.882165
_cell_length_b 15.380432
_cell_length_c 8.010371
_cell_angle_alpha 34.039273
_cell_angle_beta 47.046483
_cell_angle_gamma 29.888480
_cell_volume 506.909299
_symmetry_space_group_name_H-M "P -1"
_symmetry_group_IT_number 2
_symmetry_cell_setting 'triclinic'
loop_
_space_group_symop_operation_xyz
x,y,z
-x,-y,-z
loop_
_atom_site_type_symbol
_atom_site_label
_atom_site_fract_x
_atom_site_fract_y
_atom_site_fract_z
Si Si1 0.117548 0.935777 0.712369
Si Si2 0.821942 0.002226 0.824418
Si Si3 0.500000 0.500000 0.000000
Si Si4 0.625521 0.717086 0.458519
Si Si5 0.519463 0.869046 0.847976
Si Si6 0.026805 0.616754 0.653306
Si Si7 0.863737 0.529646 0.787636
O O1 0.276807 0.700223 0.982720
O O2 0.940980 0.994090 0.811994
O O3 0.200898 0.882817 0.503429
O O4 0.053371 0.152221 0.537416
O O5 0.950605 0.738999 0.024019
O O6 0.635237 0.115228 0.958193
O O7 0.491530 0.698004 0.679363
O O8 0.763192 0.600006 0.628693
O O9 0.762659 0.572861 0.361554
O O10 0.510183 0.983023 0.199547
O O11 0.715532 0.609530 0.982749
O O12 0.500000 0.000000 0.500000
O O13 0.910440 0.662235 0.568950
O O14 0.000000 0.500000 0.000000
#
# Coordination Sequence:
#
# PCOD9037075 Si02
#       7
#     2   2   1   2   2   2   2
#     4  11  26  47  73 105 150 192 236 309 358 434
#     4  11  23  50  74 105 146 190 243 298 371 423
#     4  12  26  44  66 104 146 188 242 290 368 416
#     4  11  24  43  68 106 147 189 238 304 352 441
#     4  10  23  39  75 106 135 188 244 293 351 433
#     4  12  24  43  75 107 143 190 243 298 368 426
#     4  11  22  44  73 102 141 191 243 287 363 432
#
# _framework density 25.645612
#
# number of rings (size 3 to 8) (size 9 to 14) (size 15 to 20)
#    0.000    0.923    4.615    1.385    2.154    4.308 
#    0.000    4.615    0.000    0.000    0.000    0.000 
#    0.000    0.000    0.000    0.000    0.000    0.000 
#
# Total GULP energy -72605.701145 kJ/mol
# GULP energy per Si atom -5585.053934 kJ/mol
# Density = 2.558724 g / cm^3
# Si number density = 25.645612 Si / 1000 Ang^3
#
#
#
# Elastic Constant Matrix: (Units=GPa)
#
#
# Indices 1 2 3 4 5 6 
#
# 1 126.4669 37.5054 34.7111 8.9302 -40.0909 -1.4915
# 2 37.5054 178.2656 37.9673 16.3723 -15.4585 -10.6442
# 3 34.7111 37.9673 63.7254 16.7536 -25.3585 -3.2582
# 4 8.9302 16.3723 16.7536 56.8583 -3.4656 -12.6794
# 5 -40.0909 -15.4585 -25.3585 -3.4656 52.0630 8.2182
# 6 -1.4915 -10.6442 -3.2582 -12.6794 8.2182 39.7879
#
#
#
# Elastic Compliance Matrix: (Units=1/GPa)
#
#
# Indices 1 2 3 4 5 6 
#
# 1 0.011318 -0.001283 -0.002360 -0.000675 0.007434 -0.001863
# 2 -0.001283 0.006663 -0.003469 -0.000416 -0.000966 0.001518
# 3 -0.002360 -0.003469 0.023944 -0.005752 0.008862 -0.002719
# 4 -0.000675 -0.000416 -0.005752 0.020805 -0.003112 0.006665
# 5 0.007434 -0.000966 0.008862 -0.003112 0.029763 -0.006394
# 6 -0.001863 0.001518 -0.002719 0.006665 -0.006394 0.028691
#
#
# Mechanical properties :
#
#
# Convention : Reuss Voigt Hill
#
# Bulk Modulus (GPa) = 36.09912 65.42507 50.76209
# Shear Modulus (GPa) = 34.56815 46.96012 40.76413
#
# Velocity S-wave (km/s) = 3.67538 4.28380 3.99120
# Velocity P-wave (km/s) = 5.66727 7.07351 6.40907
#
# Compressibility (1/GPa) = 0.02770151
#
# Stress axis : x y z
#
# Youngs Moduli (GPa) = 88.35703 150.07508 41.76425
#
# Poissons Ratio (x) = 0.19257 0.09856
# Poissons Ratio (y) = 0.11337 0.14487
# Poissons Ratio (z) = 0.20851 0.52057
#
# Static dielectric constant tensor:
#      x y z
#    x 2.079060 0.059330 0.147850 
#    y 0.059330 1.957950 0.021530 
#    z 0.147850 0.021530 2.177900 
# 
# From -- ./inp_files/310699.got.cif
#   From: 2010.05.17/outbox.cif.g08.bks.cpg/sg2_156_cif.got.tgz:310699.got - 2010.06.03 11:33:40.
