data_PCOD9037463
_publ_section_title
;
Structure prediction by ZEFSAII (Michael W. Deem and Ramdas Pophale) SiO2 
 PCOD9037463
Probable space group: P -1
;
_chemical_formula_sum "Si O2"
_cell_formula_units_Z 14
_cell_length_a 7.677519
_cell_length_b 14.549785
_cell_length_c 13.803956
_cell_angle_alpha 149.003159
_cell_angle_beta 116.518543
_cell_angle_gamma 84.741024
_cell_volume 550.865667
_symmetry_space_group_name_H-M "P -1"
_symmetry_group_IT_number 2
_symmetry_cell_setting 'triclinic'
loop_
_space_group_symop_operation_xyz
x,y,z
-x,-y,-z
loop_
_atom_site_type_symbol
_atom_site_label
_atom_site_fract_x
_atom_site_fract_y
_atom_site_fract_z
Si Si1 0.580456 0.595625 0.903460
Si Si2 0.150929 0.533304 0.833437
Si Si3 0.816087 0.374618 0.431334
Si Si4 0.261072 0.100310 0.277481
Si Si5 0.854554 0.133499 0.773681
Si Si6 0.797676 0.784334 0.323189
Si Si7 0.702848 0.909148 0.942033
O O1 0.399685 0.658995 0.940277
O O2 0.410410 0.357696 0.587566
O O3 0.639764 0.585884 0.023324
O O4 0.852909 0.762231 0.069839
O O5 0.104721 0.303995 0.654521
O O6 0.941588 0.488208 0.667490
O O7 0.145762 0.653894 0.036803
O O8 0.556908 0.325834 0.298734
O O9 0.000000 0.500000 0.500000
O O10 0.749950 0.127374 0.198346
O O11 0.347354 0.094468 0.188063
O O12 0.275508 0.967475 0.245930
O O13 0.962419 0.959094 0.064280
O O14 0.703828 0.910112 0.466502
O O15 0.000000 0.000000 0.500000
#
# Coordination Sequence:
#
# PCOD9037463 Si02
#       7
#     2   2   2   2   2   2   2
#     4  11  24  45  71 100 144 182 237 299 346 428
#     4  12  24  46  72 104 144 183 238 294 350 428
#     4  11  23  42  66 106 139 182 238 283 353 426
#     4  11  22  44  67  99 142 188 233 296 353 412
#     4  11  25  44  70 106 140 186 239 285 363 423
#     4  10  24  48  72 104 142 186 237 296 359 417
#     4  10  23  40  67  95 141 186 233 292 349 418
#
# _framework density 25.414546000000001
#
# number of rings (size 3 to 8) (size 9 to 14) (size 15 to 20)
#    0.000    1.143    2.857    2.143    2.000    2.857 
#   12.857    3.571    0.000    0.000    0.000    0.000 
#    0.000    0.000    0.000    0.000    0.000    0.000 
#
# Total GULP energy -78097.942204 kJ/mol
# GULP energy per Si atom -5578.424443 kJ/mol
# Density = 2.535670 g / cm^3
# Si number density = 25.414546 Si / 1000 Ang^3
#
#
#
# Elastic Constant Matrix: (Units=GPa)
#
#
# Indices 1 2 3 4 5 6 
#
# 1 109.8381 1.0521 62.9860 9.4263 -2.6006 7.7908
# 2 1.0521 57.1200 30.4576 -9.9044 -5.4854 15.2701
# 3 62.9860 30.4576 135.6139 -19.2585 -13.6146 5.2000
# 4 9.4263 -9.9044 -19.2585 29.2577 4.3909 -6.3442
# 5 -2.6006 -5.4854 -13.6146 4.3909 67.6265 -4.9633
# 6 7.7908 15.2701 5.2000 -6.3442 -4.9633 34.0860
#
#
#
# Elastic Compliance Matrix: (Units=1/GPa)
#
#
# Indices 1 2 3 4 5 6 
#
# 1 0.016307 0.004771 -0.010117 -0.011615 -0.000752 -0.006592
# 2 0.004771 0.024124 -0.007300 -0.000524 -0.000095 -0.010895
# 3 -0.010117 -0.007300 0.015356 0.011869 0.001758 0.005705
# 4 -0.011615 -0.000524 0.011869 0.047775 -0.000475 0.009902
# 5 -0.000752 -0.000095 0.001758 -0.000475 0.015288 0.002084
# 6 -0.006592 -0.010895 0.005705 0.009902 0.002084 0.037001
#
#
# Mechanical properties :
#
#
# Convention : Reuss Voigt Hill
#
# Bulk Modulus (GPa) = 32.79392 54.61816 43.70604
# Shear Modulus (GPa) = 26.13562 40.06578 33.10070
#
# Velocity S-wave (km/s) = 3.21030 3.97481 3.61284
# Velocity P-wave (km/s) = 5.16459 6.52710 5.88541
#
# Compressibility (1/GPa) = 0.03049345
#
# Stress axis : x y z
#
# Youngs Moduli (GPa) = 61.32357 41.45184 65.12234
#
# Poissons Ratio (x) = -0.19775 0.65887
# Poissons Ratio (y) = -0.29254 0.47539
# Poissons Ratio (z) = 0.62043 0.30259
#
# Static dielectric constant tensor:
#      x y z
#    x 2.073440 -0.001280 0.054490 
#    y -0.001280 1.993020 -0.013650 
#    z 0.054490 -0.013650 2.196360 
# 
# From -- ./inp_files/504757.got.cif
#   From: 2010.05.17/outbox.cif.g08.bks.cpg/sg2_253_cif.got.tgz:504757.got - 2010.06.03 11:33:40.
