data_PCOD9037881
_publ_section_title
;
Structure prediction by ZEFSAII (Michael W. Deem and Ramdas Pophale) SiO2 
 PCOD9037881
Probable space group: P -1
;
_chemical_formula_sum "Si O2"
_cell_formula_units_Z 16
_cell_length_a 20.934953
_cell_length_b 9.595819
_cell_length_c 12.387996
_cell_angle_alpha 49.494771
_cell_angle_beta 41.761595
_cell_angle_gamma 26.908428
_cell_volume 749.111811
_symmetry_space_group_name_H-M "P -1"
_symmetry_group_IT_number 2
_symmetry_cell_setting 'triclinic'
loop_
_space_group_symop_operation_xyz
x,y,z
-x,-y,-z
loop_
_atom_site_type_symbol
_atom_site_label
_atom_site_fract_x
_atom_site_fract_y
_atom_site_fract_z
Si Si1 0.098573 0.360804 0.335946
Si Si2 0.014440 0.191225 0.371299
Si Si3 0.591567 0.827863 0.142944
Si Si4 0.131214 0.139429 0.020623
Si Si5 0.457616 0.794694 0.150565
Si Si6 0.036680 0.746468 0.032865
Si Si7 0.473493 0.730042 0.722437
Si Si8 0.641749 0.819061 0.545989
O O1 0.029671 0.609003 0.208629
O O2 0.000000 0.500000 0.500000
O O3 0.108257 0.152907 0.365822
O O4 0.282796 0.124302 0.249792
O O5 0.832991 0.547309 0.435008
O O6 0.094633 0.100527 0.199761
O O7 0.000000 0.000000 0.500000
O O8 0.585701 0.688260 0.123757
O O9 0.459459 0.979089 0.321563
O O10 0.775525 0.553920 0.091490
O O11 0.539183 0.103041 0.018703
O O12 0.000000 0.500000 0.000000
O O13 0.086522 0.097791 0.988888
O O14 0.311577 0.939827 0.889338
O O15 0.473069 0.553779 0.239649
O O16 0.000000 0.000000 0.000000
O O17 0.600963 0.666093 0.653394
O O18 0.423985 0.938532 0.581818
#
# Coordination Sequence:
#
# PCOD9037881 Si02
#       8
#     2   2   2   2   2   2   2   2
#     4  11  24  43  65  94 135 171 216 268 321 385
#     4  12  27  43  67 100 130 172 218 269 329 383
#     4  10  23  41  64  92 131 165 213 267 315 381
#     4  12  23  45  68  93 135 171 217 270 322 388
#     4  10  23  42  63  93 127 172 213 258 323 383
#     4  11  24  41  68  97 127 176 218 262 326 386
#     4  11  24  40  66  94 128 169 210 262 321 380
#     4  11  24  41  63  96 130 163 213 265 317 378
#
# _framework density 21.358628
#
# number of rings (size 3 to 8) (size 9 to 14) (size 15 to 20)
#    0.000    1.000    2.500    3.000    7.000    2.000 
#    0.000    0.000    0.000    0.000    0.000    0.000 
#    0.000    0.000    0.000    0.000    0.000    0.000 
#
# Total GULP energy -89391.059845 kJ/mol
# GULP energy per Si atom -5586.941240 kJ/mol
# Density = 2.131001 g / cm^3
# Si number density = 21.358628 Si / 1000 Ang^3
#
#
#
# Elastic Constant Matrix: (Units=GPa)
#
#
# Indices 1 2 3 4 5 6 
#
# 1 75.7143 7.8854 24.3471 -3.0089 -13.8207 7.4432
# 2 7.8854 60.0984 34.2572 -5.0525 -4.7652 15.2957
# 3 24.3471 34.2572 166.4517 11.4255 9.3321 2.6515
# 4 -3.0089 -5.0525 11.4255 36.2796 7.2910 -20.4045
# 5 -13.8207 -4.7652 9.3321 7.2910 33.1812 1.5467
# 6 7.4432 15.2957 2.6515 -20.4045 1.5467 38.4326
#
#
#
# Elastic Compliance Matrix: (Units=1/GPa)
#
#
# Indices 1 2 3 4 5 6 
#
# 1 0.015879 0.001220 -0.002827 -0.001933 0.008229 -0.004723
# 2 0.001220 0.022034 -0.004735 -0.002215 0.005961 -0.010095
# 3 -0.002827 -0.004735 0.007725 -0.002066 -0.003620 0.000948
# 4 -0.001933 -0.002215 -0.002066 0.044335 -0.011468 0.025398
# 5 0.008229 0.005961 -0.003620 -0.011468 0.038489 -0.011354
# 6 -0.004723 -0.010095 0.000948 0.025398 -0.011354 0.044828
#
#
# Mechanical properties :
#
#
# Convention : Reuss Voigt Hill
#
# Bulk Modulus (GPa) = 30.34420 48.36041 39.35231
# Shear Modulus (GPa) = 25.38610 37.29699 31.34155
#
# Velocity S-wave (km/s) = 3.45130 4.18332 3.83482
# Velocity P-wave (km/s) = 5.48815 6.78416 6.17027
#
# Compressibility (1/GPa) = 0.03295522
#
# Stress axis : x y z
#
# Youngs Moduli (GPa) = 62.97500 45.38490 129.44247
#
# Poissons Ratio (x) = -0.05538 0.36597
# Poissons Ratio (y) = -0.07684 0.61286
# Poissons Ratio (z) = 0.17805 0.21488
#
# Static dielectric constant tensor:
#      x y z
#    x 1.842960 -0.035930 -0.033030 
#    y -0.035930 1.774490 0.019120 
#    z -0.033030 0.019120 1.755200 
# 
# From -- ./inp_files/274477.got.cif
#   From: 2010.05.17/outbox.cif.g08.bks.cpg/sg2_138_cif.got.tgz:274477.got - 2010.06.03 11:33:40.
