data_PCOD9037309
_publ_section_title
;
Structure prediction by ZEFSAII (Michael W. Deem and Ramdas Pophale) SiO2 
 PCOD9037309
Probable space group: P -1
;
_chemical_formula_sum "Si O2"
_cell_formula_units_Z 16
_cell_length_a 12.518297
_cell_length_b 11.273917
_cell_length_c 5.695214
_cell_angle_alpha 95.825485
_cell_angle_beta 102.539450
_cell_angle_gamma 59.757549
_cell_volume 677.783254
_symmetry_space_group_name_H-M "P -1"
_symmetry_group_IT_number 2
_symmetry_cell_setting 'triclinic'
loop_
_space_group_symop_operation_xyz
x,y,z
-x,-y,-z
loop_
_atom_site_type_symbol
_atom_site_label
_atom_site_fract_x
_atom_site_fract_y
_atom_site_fract_z
Si Si1 0.699852 0.580247 0.376678
Si Si2 0.320624 0.212306 0.191824
Si Si3 0.750605 0.977252 0.090404
Si Si4 0.017649 0.923282 0.244913
Si Si5 0.125309 0.479935 0.928495
Si Si6 0.579027 0.263155 0.842849
Si Si7 0.256646 0.632598 0.268592
Si Si8 0.572103 0.066256 0.410455
O O1 0.692415 0.700344 0.564901
O O2 0.842053 0.507029 0.323080
O O3 0.572408 0.649413 0.170465
O O4 0.688943 0.465139 0.500038
O O5 0.465522 0.146794 0.176178
O O6 0.226123 0.321399 0.987045
O O7 0.284927 0.093113 0.150493
O O8 0.693413 0.963171 0.304996
O O9 0.678785 0.141562 0.037944
O O10 0.899081 0.899738 0.170145
O O11 0.153877 0.790107 0.298038
O O12 0.000000 0.000000 0.500000
O O13 0.000000 0.000000 0.000000
O O14 0.177219 0.571122 0.093309
O O15 0.000000 0.500000 0.000000
O O16 0.635379 0.362338 0.831032
O O17 0.588111 0.175274 0.594469
O O18 0.500000 0.000000 0.500000
#
# Coordination Sequence:
#
# PCOD9037309 Si02
#       8
#     2   2   2   2   2   2   2   2
#     4  10  25  44  73 101 147 189 244 306 367 444
#     4  10  23  40  65 105 136 185 240 292 368 430
#     4  12  24  41  73 103 148 188 243 314 371 440
#     4  12  28  50  75 109 150 195 248 306 379 450
#     4  11  25  46  66  98 138 195 247 300 366 440
#     4  11  23  43  71 106 144 186 242 304 379 440
#     4  11  25  47  70 105 144 190 250 300 370 449
#     4  11  23  39  65 104 145 186 235 299 376 439
#
# _framework density 23.606363000000002
#
# number of rings (size 3 to 8) (size 9 to 14) (size 15 to 20)
#    0.000    1.000    2.500    3.000    5.250    3.500 
#    4.500    0.000    0.000    0.000    0.000    0.000 
#    0.000    0.000    0.000    0.000    0.000    0.000 
#
# Total GULP energy -89243.617374 kJ/mol
# GULP energy per Si atom -5577.726086 kJ/mol
# Density = 2.355263 g / cm^3
# Si number density = 23.606363 Si / 1000 Ang^3
#
#
#
# Elastic Constant Matrix: (Units=GPa)
#
#
# Indices 1 2 3 4 5 6 
#
# 1 161.5581 9.3439 18.8029 10.6175 -13.7454 3.7172
# 2 9.3439 77.3023 9.3462 -5.4587 -14.9966 12.2425
# 3 18.8029 9.3462 52.7049 1.3447 -6.5248 10.3258
# 4 10.6175 -5.4587 1.3447 32.4870 3.0694 -5.6502
# 5 -13.7454 -14.9966 -6.5248 3.0694 39.9639 0.0627
# 6 3.7172 12.2425 10.3258 -5.6502 0.0627 39.2435
#
#
#
# Elastic Compliance Matrix: (Units=1/GPa)
#
#
# Indices 1 2 3 4 5 6 
#
# 1 0.006784 -0.000287 -0.001971 -0.002449 0.002092 -0.000390
# 2 -0.000287 0.014867 -0.001121 0.001431 0.005194 -0.004118
# 3 -0.001971 -0.001121 0.021262 -0.001581 0.002502 -0.005290
# 4 -0.002449 0.001431 -0.001581 0.033045 -0.003109 0.004964
# 5 0.002092 0.005194 0.002502 -0.003109 0.028343 -0.002970
# 6 -0.000390 -0.004118 -0.005290 0.004964 -0.002970 0.028915
#
#
# Mechanical properties :
#
#
# Convention : Reuss Voigt Hill
#
# Bulk Modulus (GPa) = 27.65845 40.72791 34.19318
# Shear Modulus (GPa) = 32.88910 39.27702 36.08306
#
# Velocity S-wave (km/s) = 3.73665 4.08343 3.91388
# Velocity P-wave (km/s) = 5.50987 6.28673 5.91108
#
# Compressibility (1/GPa) = 0.03615531
#
# Stress axis : x y z
#
# Youngs Moduli (GPa) = 147.41191 67.26173 47.03212
#
# Poissons Ratio (x) = 0.01929 0.09271
# Poissons Ratio (y) = 0.04228 0.05271
# Poissons Ratio (z) = 0.29059 0.07539
#
# Static dielectric constant tensor:
#      x y z
#    x 1.908430 0.028490 -0.042070 
#    y 0.028490 1.986200 -0.133230 
#    z -0.042070 -0.133230 2.124910 
# 
# From -- ./inp_files/69761.got.cif
#   From: 2010.05.17/outbox.cif.g08.bks.cpg/sg2_35_cif.got.tgz:69761.got - 2010.06.03 11:33:40.
