data_PCOD9037103
_publ_section_title
;
Structure prediction by ZEFSAII (Michael W. Deem and Ramdas Pophale) SiO2 
 PCOD9037103
Probable space group: P -1
;
_chemical_formula_sum "Si O2"
_cell_formula_units_Z 14
_cell_length_a 9.473062
_cell_length_b 22.679845
_cell_length_c 6.841683
_cell_angle_alpha 40.838309
_cell_angle_beta 132.143356
_cell_angle_gamma 130.418255
_cell_volume 682.036761
_symmetry_space_group_name_H-M "P -1"
_symmetry_group_IT_number 2
_symmetry_cell_setting 'triclinic'
loop_
_space_group_symop_operation_xyz
x,y,z
-x,-y,-z
loop_
_atom_site_type_symbol
_atom_site_label
_atom_site_fract_x
_atom_site_fract_y
_atom_site_fract_z
Si Si1 0.085509 0.594800 0.713014
Si Si2 0.355815 0.110216 0.108009
Si Si3 0.035436 0.096280 0.163897
Si Si4 0.422697 0.680882 0.098382
Si Si5 0.251785 0.306501 0.950070
Si Si6 0.615627 0.023511 0.848339
Si Si7 0.415386 0.587997 0.722336
O O1 0.226564 0.575270 0.720844
O O2 0.915153 0.638423 0.363021
O O3 0.236298 0.669351 0.810734
O O4 0.000000 0.500000 0.000000
O O5 0.151072 0.092368 0.079818
O O6 0.479876 0.059155 0.485713
O O7 0.336141 0.064733 0.990405
O O8 0.482031 0.218157 0.967865
O O9 0.153622 0.193545 0.133831
O O10 0.000000 0.000000 0.500000
O O11 0.819400 0.100961 0.891304
O O12 0.599205 0.663836 0.171826
O O13 0.360856 0.611209 0.396413
O O14 0.397110 0.333843 0.202513
O O15 0.500000 0.000000 0.000000
O O16 0.500000 0.500000 0.000000
#
# Coordination Sequence:
#
# PCOD9037103 Si02
#       7
#     2   2   2   2   2   2   2
#     4  11  23  42  67  93 128 162 207 264 318 378
#     4  10  23  40  60  90 121 167 207 259 313 369
#     4  11  22  40  63  89 126 167 207 259 312 367
#     4  10  23  41  63  89 128 162 206 260 315 374
#     4  10  24  42  62  93 128 164 212 260 315 375
#     4  11  22  39  61  86 123 162 212 256 309 365
#     4  11  24  42  65  95 126 166 209 256 321 380
#
# _framework density 20.526751999999998
#
# number of rings (size 3 to 8) (size 9 to 14) (size 15 to 20)
#    0.000    1.429    1.429    3.000    2.000    8.000 
#    0.000    0.000    0.000    0.000    0.000    0.000 
#    0.000    0.000    0.000    0.000    0.000    0.000 
#
# Total GULP energy -78180.427545 kJ/mol
# GULP energy per Si atom -5584.316253 kJ/mol
# Density = 2.048003 g / cm^3
# Si number density = 20.526752 Si / 1000 Ang^3
#
#
#
# Elastic Constant Matrix: (Units=GPa)
#
#
# Indices 1 2 3 4 5 6 
#
# 1 95.9563 43.2338 33.4526 1.2482 8.4693 6.4212
# 2 43.2338 74.6481 -3.3224 7.2228 -3.1216 -0.7696
# 3 33.4526 -3.3224 67.7315 2.7649 -1.4111 -0.1123
# 4 1.2482 7.2228 2.7649 35.2147 3.7991 2.7455
# 5 8.4693 -3.1216 -1.4111 3.7991 30.3651 6.3541
# 6 6.4212 -0.7696 -0.1123 2.7455 6.3541 33.9748
#
#
#
# Elastic Compliance Matrix: (Units=1/GPa)
#
#
# Indices 1 2 3 4 5 6 
#
# 1 0.021519 -0.013733 -0.011635 0.004063 -0.007774 -0.003291
# 2 -0.013733 0.022576 0.008268 -0.005704 0.006761 0.002331
# 3 -0.011635 0.008268 0.021175 -0.003642 0.005161 0.001785
# 4 0.004063 -0.005704 -0.003642 0.030457 -0.005198 -0.002398
# 5 -0.007774 0.006761 0.005161 -0.005198 0.037732 -0.004997
# 6 -0.003291 0.002331 0.001785 -0.002398 -0.004997 0.031243
#
#
# Mechanical properties :
#
#
# Convention : Reuss Voigt Hill
#
# Bulk Modulus (GPa) = 32.18513 42.78487 37.48500
# Shear Modulus (GPa) = 23.89388 30.90906 27.40147
#
# Velocity S-wave (km/s) = 3.41550 3.88467 3.65761
# Velocity P-wave (km/s) = 5.59176 6.40387 6.01155
#
# Compressibility (1/GPa) = 0.03107025
#
# Stress axis : x y z
#
# Youngs Moduli (GPa) = 46.47147 44.29387 47.22466
#
# Poissons Ratio (x) = 0.60828 0.54946
# Poissons Ratio (y) = 0.63819 -0.39044
# Poissons Ratio (z) = 0.54069 -0.36621
#
# Static dielectric constant tensor:
#      x y z
#    x 1.713460 -0.029600 0.014830 
#    y -0.029600 1.773480 -0.014640 
#    z 0.014830 -0.014640 1.707420 
# 
# From -- ./inp_files/41655.got.cif
#   From: 2010.05.17/outbox.cif.g08.bks.cpg/sg2_21_cif.got.tgz:41655.got - 2010.06.03 11:33:40.
