data_PCOD9037519
_publ_section_title
;
Structure prediction by ZEFSAII (Michael W. Deem and Ramdas Pophale) SiO2 
 PCOD9037519
Probable space group: P -1
;
_chemical_formula_sum "Si O2"
_cell_formula_units_Z 14
_cell_length_a 7.953801
_cell_length_b 5.419556
_cell_length_c 18.396465
_cell_angle_alpha 100.126263
_cell_angle_beta 133.472717
_cell_angle_gamma 97.289759
_cell_volume 531.329331
_symmetry_space_group_name_H-M "P -1"
_symmetry_group_IT_number 2
_symmetry_cell_setting 'triclinic'
loop_
_space_group_symop_operation_xyz
x,y,z
-x,-y,-z
loop_
_atom_site_type_symbol
_atom_site_label
_atom_site_fract_x
_atom_site_fract_y
_atom_site_fract_z
Si Si1 0.349332 0.110708 0.560602
Si Si2 0.702472 0.359840 0.554860
Si Si3 0.378152 0.171658 0.019460
Si Si4 0.863086 0.644907 0.175143
Si Si5 0.268916 0.495182 0.209184
Si Si6 0.921321 0.116611 0.326897
Si Si7 0.337783 0.964670 0.152042
O O1 0.589990 0.182774 0.582496
O O2 0.463482 0.313412 0.669434
O O3 0.102762 0.127503 0.450023
O O4 0.291362 0.793126 0.526329
O O5 0.500000 0.500000 0.500000
O O6 0.964680 0.585231 0.655280
O O7 0.604847 0.442650 0.119455
O O8 0.272235 0.003515 0.051227
O O9 0.202012 0.249602 0.916120
O O10 0.500000 0.000000 0.000000
O O11 0.052108 0.499849 0.199238
O O12 0.950523 0.897779 0.268236
O O13 0.270895 0.198107 0.185328
O O14 0.238064 0.664180 0.138184
O O15 0.634554 0.048834 0.250439
#
# Coordination Sequence:
#
# PCOD9037519 Si02
#       7
#     2   2   2   2   2   2   2
#     4  10  23  40  68 106 149 194 253 295 359 436
#     4   9  19  37  67 102 135 188 260 302 336 419
#     4  11  26  51  82 106 137 191 263 309 369 446
#     4  11  26  48  83 109 140 197 255 313 367 443
#     4  12  30  48  72 115 162 194 238 306 391 439
#     4  11  24  44  77 102 146 201 258 297 353 443
#     4  12  30  48  71 113 158 194 245 309 382 447
#
# _framework density 26.349005999999999
#
# number of rings (size 3 to 8) (size 9 to 14) (size 15 to 20)
#    0.000    1.143    1.429    3.429   16.000    2.286 
#    0.000    0.000    0.000    0.000    0.000    0.000 
#    0.000    0.000    0.000    0.000    0.000    0.000 
#
# Total GULP energy -78305.029184 kJ/mol
# GULP energy per Si atom -5593.216370 kJ/mol
# Density = 2.628903 g / cm^3
# Si number density = 26.349006 Si / 1000 Ang^3
#
#
#
# Elastic Constant Matrix: (Units=GPa)
#
#
# Indices 1 2 3 4 5 6 
#
# 1 78.9057 19.2327 18.0167 -7.2087 16.7717 -18.4037
# 2 19.2327 78.8577 19.0192 1.9361 5.8683 -12.9216
# 3 18.0167 19.0192 106.7291 -15.5470 -2.8480 -13.7326
# 4 -7.2087 1.9361 -15.5470 47.8052 -1.5035 3.9801
# 5 16.7717 5.8683 -2.8480 -1.5035 43.1351 -4.6606
# 6 -18.4037 -12.9216 -13.7326 3.9801 -4.6606 60.3720
#
#
#
# Elastic Compliance Matrix: (Units=1/GPa)
#
#
# Indices 1 2 3 4 5 6 
#
# 1 0.015759 -0.002508 -0.001714 0.001469 -0.005485 0.003357
# 2 -0.002508 0.014235 -0.002172 -0.001844 -0.000971 0.001835
# 3 -0.001714 -0.002172 0.010753 0.003272 0.001936 0.001393
# 4 0.001469 -0.001844 0.003272 0.022350 0.000607 -0.000629
# 5 -0.005485 -0.000971 0.001936 0.000607 0.025651 0.000501
# 6 0.003357 0.001835 0.001393 -0.000629 0.000501 0.018377
#
#
# Mechanical properties :
#
#
# Convention : Reuss Voigt Hill
#
# Bulk Modulus (GPa) = 35.76538 41.89220 38.82879
# Shear Modulus (GPa) = 38.69014 44.14405 41.41710
#
# Velocity S-wave (km/s) = 3.83609 4.09756 3.96898
# Velocity P-wave (km/s) = 5.76402 6.19032 5.98097
#
# Compressibility (1/GPa) = 0.02796000
#
# Stress axis : x y z
#
# Youngs Moduli (GPa) = 63.45544 70.25088 92.99515
#
# Poissons Ratio (x) = 0.17618 0.15938
# Poissons Ratio (y) = 0.15914 0.20196
# Poissons Ratio (z) = 0.10875 0.15257
#
# Static dielectric constant tensor:
#      x y z
#    x 2.077200 0.098500 -0.021560 
#    y 0.098500 2.196970 0.106270 
#    z -0.021560 0.106270 2.426860 
# 
# From -- ./inp_files/585807.got.cif
#   From: 2010.05.17/outbox.cif.g08.bks.cpg/sg2_293_cif.got.tgz:585807.got - 2010.06.03 11:33:40.
