data_PCOD9037964
_publ_section_title
;
Structure prediction by ZEFSAII (Michael W. Deem and Ramdas Pophale) SiO2 
 PCOD9037964
Probable space group: P -1
;
_chemical_formula_sum "Si O2"
_cell_formula_units_Z 16
_cell_length_a 12.486419
_cell_length_b 6.526494
_cell_length_c 10.586372
_cell_angle_alpha 109.408049
_cell_angle_beta 116.526762
_cell_angle_gamma 67.621838
_cell_volume 699.897907
_symmetry_space_group_name_H-M "P -1"
_symmetry_group_IT_number 2
_symmetry_cell_setting 'triclinic'
loop_
_space_group_symop_operation_xyz
x,y,z
-x,-y,-z
loop_
_atom_site_type_symbol
_atom_site_label
_atom_site_fract_x
_atom_site_fract_y
_atom_site_fract_z
Si Si1 0.511228 0.514722 0.203885
Si Si2 0.080459 0.622544 0.794270
Si Si3 0.754192 0.873179 0.189011
Si Si4 0.445467 0.312181 0.366131
Si Si5 0.355509 0.151015 0.614783
Si Si6 0.318097 0.795747 0.983033
Si Si7 0.185885 0.338658 0.356722
Si Si8 0.893958 0.211775 0.435934
O O1 0.457893 0.357555 0.233464
O O2 0.599999 0.631028 0.352103
O O3 0.595466 0.371491 0.108863
O O4 0.399864 0.721811 0.135380
O O5 0.135765 0.357845 0.801878
O O6 0.184798 0.742828 0.918584
O O7 0.074435 0.666318 0.648452
O O8 0.937026 0.706331 0.778409
O O9 0.663509 0.828344 0.239969
O O10 0.703982 0.959169 0.042244
O O11 0.791989 0.087909 0.311489
O O12 0.500000 0.500000 0.500000
O O13 0.305890 0.312750 0.327614
O O14 0.541237 0.076012 0.404317
O O15 0.232961 0.178056 0.471551
O O16 0.145017 0.595317 0.440499
O O17 0.000000 0.000000 0.500000
#
# Coordination Sequence:
#
# PCOD9037964 Si02
#       8
#     2   2   2   2   2   2   2   2
#     4  11  23  43  64  92 128 167 213 263 311 367
#     4  11  22  38  59  94 127 160 208 259 316 370
#     4  11  19  35  61  91 125 158 206 262 314 365
#     4  12  26  43  63  94 132 169 211 254 320 386
#     4  12  22  40  63  94 128 167 210 257 316 377
#     4  10  23  41  65  93 126 163 215 270 307 362
#     4  12  23  39  61  94 131 168 204 259 319 384
#     4  11  20  34  56  92 129 164 200 256 316 372
#
# _framework density 22.860476999999999
#
# number of rings (size 3 to 8) (size 9 to 14) (size 15 to 20)
#    0.000    0.750    6.250    3.000    0.000    1.500 
#    0.000    0.625    0.000    1.500    0.000    0.000 
#    0.000    0.000    0.000    0.000    0.000    0.000 
#
# Total GULP energy -89419.409578 kJ/mol
# GULP energy per Si atom -5588.713099 kJ/mol
# Density = 2.280845 g / cm^3
# Si number density = 22.860477 Si / 1000 Ang^3
#
#
#
# Elastic Constant Matrix: (Units=GPa)
#
#
# Indices 1 2 3 4 5 6 
#
# 1 122.9100 26.4991 19.5178 -13.1074 22.4542 -3.8979
# 2 26.4991 119.4238 14.2748 -35.2147 3.5410 -9.4586
# 3 19.5178 14.2748 38.7814 -16.9609 22.4447 2.2090
# 4 -13.1074 -35.2147 -16.9609 39.5734 -4.7201 4.2690
# 5 22.4542 3.5410 22.4447 -4.7201 25.4878 -8.8617
# 6 -3.8979 -9.4586 2.2090 4.2690 -8.8617 37.4338
#
#
#
# Elastic Compliance Matrix: (Units=1/GPa)
#
#
# Indices 1 2 3 4 5 6 
#
# 1 0.010494 -0.002033 0.004604 0.002352 -0.013695 -0.003203
# 2 -0.002033 0.011910 -0.002515 0.009122 0.005125 0.003119
# 3 0.004604 -0.002515 0.090630 0.030836 -0.088202 -0.029901
# 4 0.002352 0.009122 0.030836 0.045449 -0.025744 -0.010547
# 5 -0.013695 0.005125 -0.088202 -0.025744 0.137602 0.040584
# 6 -0.003203 0.003119 -0.029901 -0.010547 0.040584 0.039743
#
#
# Mechanical properties :
#
#
# Convention : Reuss Voigt Hill
#
# Bulk Modulus (GPa) = 8.83811 44.63320 26.73565
# Shear Modulus (GPa) = 13.38932 35.22056 24.30494
#
# Velocity S-wave (km/s) = 2.42274 3.92940 3.26419
# Velocity P-wave (km/s) = 3.42064 6.33668 5.09187
#
# Compressibility (1/GPa) = 0.11314639
#
# Stress axis : x y z
#
# Youngs Moduli (GPa) = 95.28828 83.96235 11.03388
#
# Poissons Ratio (x) = 0.17069 -0.05080
# Poissons Ratio (y) = 0.19372 0.02775
# Poissons Ratio (z) = -0.43870 0.21117
#
# Static dielectric constant tensor:
#      x y z
#    x 1.910760 0.029250 -0.010460 
#    y 0.029250 1.834980 -0.031860 
#    z -0.010460 -0.031860 1.912050 
# 
# From -- ./inp_files/70770.got.cif
#   From: 2010.05.17/outbox.cif.g08.bks.cpg/sg2_36_cif.got.tgz:70770.got - 2010.06.03 11:33:40.
