data_PCOD9037101
_publ_section_title
;
Structure prediction by ZEFSAII (Michael W. Deem and Ramdas Pophale) SiO2 
 PCOD9037101
Probable space group: P -1
;
_chemical_formula_sum "Si O2"
_cell_formula_units_Z 14
_cell_length_a 7.006347
_cell_length_b 11.363121
_cell_length_c 7.797616
_cell_angle_alpha 87.627906
_cell_angle_beta 86.588524
_cell_angle_gamma 71.176205
_cell_volume 586.392896
_symmetry_space_group_name_H-M "P -1"
_symmetry_group_IT_number 2
_symmetry_cell_setting 'triclinic'
loop_
_space_group_symop_operation_xyz
x,y,z
-x,-y,-z
loop_
_atom_site_type_symbol
_atom_site_label
_atom_site_fract_x
_atom_site_fract_y
_atom_site_fract_z
Si Si1 0.247097 0.144700 0.335704
Si Si2 0.009661 0.989050 0.205196
Si Si3 0.718691 0.471625 0.646983
Si Si4 0.388929 0.757686 0.182567
Si Si5 0.026428 0.577778 0.714068
Si Si6 0.389517 0.077816 0.713326
Si Si7 0.386884 0.613517 0.874363
O O1 0.362070 0.120873 0.513348
O O2 0.151525 0.291540 0.309214
O O3 0.054668 0.097874 0.305428
O O4 0.424935 0.042886 0.227292
O O5 0.197837 0.869249 0.247542
O O6 0.806850 0.961543 0.256922
O O7 0.000000 0.000000 0.000000
O O8 0.634892 0.359060 0.703875
O O9 0.822983 0.460868 0.456363
O O10 0.527142 0.591438 0.699531
O O11 0.907914 0.478944 0.752486
O O12 0.581533 0.802656 0.200872
O O13 0.372065 0.732131 0.983093
O O14 0.171732 0.600275 0.848174
O O15 0.500000 0.500000 0.000000
#
# Coordination Sequence:
#
# PCOD9037101 Si02
#       7
#     2   2   2   2   2   2   2
#     4  10  23  41  66  95 125 168 211 257 314 375
#     4  11  23  40  65  97 128 162 209 261 316 379
#     4  10  24  42  64  94 125 167 215 260 313 370
#     4  10  23  41  64  93 128 168 208 258 316 377
#     4  11  23  41  66  94 127 165 212 265 309 370
#     4  10  23  43  65  93 129 166 208 260 318 373
#     4  10  23  40  60  89 126 166 208 255 311 370
#
# _framework density 23.874780000000001
#
# number of rings (size 3 to 8) (size 9 to 14) (size 15 to 20)
#    0.000    1.714    0.000    2.571    0.000   19.429 
#    0.000    0.000    0.000    0.000    0.000    0.000 
#    0.000    0.000    0.000    0.000    0.000    0.000 
#
# Total GULP energy -78061.231566 kJ/mol
# GULP energy per Si atom -5575.802255 kJ/mol
# Density = 2.382044 g / cm^3
# Si number density = 23.874780 Si / 1000 Ang^3
#
#
#
# Elastic Constant Matrix: (Units=GPa)
#
#
# Indices 1 2 3 4 5 6 
#
# 1 89.6610 48.1662 -16.6453 13.4882 40.0628 5.5231
# 2 48.1662 32.6746 33.8335 6.4746 -11.5638 15.3479
# 3 -16.6453 33.8335 42.6790 15.3725 27.5034 1.5611
# 4 13.4882 6.4746 15.3725 26.4639 2.2298 17.5526
# 5 40.0628 -11.5638 27.5034 2.2298 39.4309 13.9130
# 6 5.5231 15.3479 1.5611 17.5526 13.9130 37.1287
#
#
#
# Elastic Compliance Matrix: (Units=1/GPa)
#
#
# Indices 1 2 3 4 5 6 
#
# 1 0.004163 0.005695 -0.007606 0.005049 0.004885 -0.006871
# 2 0.005695 0.006588 0.010060 -0.014275 -0.012717 0.007520
# 3 -0.007606 0.010060 0.006894 0.001418 0.008293 -0.007095
# 4 0.005049 -0.014275 0.001418 0.048404 -0.007795 -0.014872
# 5 0.004885 -0.012717 0.008293 -0.007795 0.009852 0.004175
# 6 -0.006871 0.007520 -0.007095 -0.014872 0.004175 0.030611
#
#
# Mechanical properties :
#
#
# Convention : Reuss Voigt Hill
#
# Bulk Modulus (GPa) = 29.46105 32.85816 31.15961
# Shear Modulus (GPa) = 49.24705 27.24872 38.24789
#
# Velocity S-wave (km/s) = 4.54665 3.38200 4.00687
# Velocity P-wave (km/s) = 6.31896 5.38917 5.87250
#
# Compressibility (1/GPa) = 0.03394312
#
# Stress axis : x y z
#
# Youngs Moduli (GPa) = 240.21976 151.78279 145.05221
#
# Poissons Ratio (x) = -0.86439 1.10328
# Poissons Ratio (y) = -1.36803 -1.45924
# Poissons Ratio (z) = 1.82713 -1.52695
#
# Static dielectric constant tensor:
#      x y z
#    x 1.923310 0.012850 -0.055980 
#    y 0.012850 1.962850 0.054200 
#    z -0.055980 0.054200 2.016930 
# 
# From -- ./inp_files/36739.got.cif
#   From: 2010.05.17/outbox.cif.g08.bks.cpg/sg2_19_cif.got.tgz:36739.got - 2010.06.03 11:33:40.
