data_PCOD9037033
_publ_section_title
;
Structure prediction by ZEFSAII (Michael W. Deem and Ramdas Pophale) SiO2 
 PCOD9037033
Probable space group: P -1
;
_chemical_formula_sum "Si O2"
_cell_formula_units_Z 16
_cell_length_a 5.607735
_cell_length_b 18.047295
_cell_length_c 11.740929
_cell_angle_alpha 43.595714
_cell_angle_beta 126.997297
_cell_angle_gamma 113.657388
_cell_volume 653.108037
_symmetry_space_group_name_H-M "P -1"
_symmetry_group_IT_number 2
_symmetry_cell_setting 'triclinic'
loop_
_space_group_symop_operation_xyz
x,y,z
-x,-y,-z
loop_
_atom_site_type_symbol
_atom_site_label
_atom_site_fract_x
_atom_site_fract_y
_atom_site_fract_z
Si Si1 0.126463 0.039725 0.611361
Si Si2 0.912588 0.938455 0.851211
Si Si3 0.554316 0.183252 0.279261
Si Si4 0.990707 0.471732 0.215887
Si Si5 0.339073 0.838163 0.419734
Si Si6 0.554142 0.625487 0.390030
Si Si7 0.021612 0.733294 0.256498
Si Si8 0.565671 0.415994 0.945514
O O1 0.436446 0.089921 0.661525
O O2 0.894178 0.143594 0.439770
O O3 0.000000 0.000000 0.500000
O O4 0.139919 0.935620 0.814030
O O5 0.612972 0.910613 0.727198
O O6 0.913550 0.064568 0.739756
O O7 0.951542 0.853989 0.055556
O O8 0.474172 0.199914 0.371145
O O9 0.507411 0.290386 0.074340
O O10 0.777802 0.436125 0.093143
O O11 0.202579 0.375722 0.436352
O O12 0.756975 0.521300 0.189598
O O13 0.230365 0.549377 0.140454
O O14 0.221621 0.745141 0.413932
O O15 0.500000 0.500000 0.500000
O O16 0.238988 0.679772 0.281640
O O17 0.728591 0.674570 0.278560
#
# Coordination Sequence:
#
# PCOD9037033 Si02
#       8
#     2   2   2   2   2   2   2   2
#     4  11  21  41  68 101 144 190 225 295 351 411
#     4  11  25  43  67 108 148 185 244 290 346 428
#     4  11  23  38  69 103 140 188 232 287 355 431
#     4  10  23  44  65  99 134 176 224 306 348 404
#     4  11  24  45  70 103 152 185 234 295 350 433
#     4  12  29  52  75  99 146 186 242 299 362 429
#     4  12  30  47  78 107 138 198 240 289 366 427
#     4  10  23  39  70 100 136 171 234 285 354 416
#
# _framework density 24.498245000000001
#
# number of rings (size 3 to 8) (size 9 to 14) (size 15 to 20)
#    0.000    1.000    2.500    3.000   12.250    1.500 
#    0.000    0.000    0.000    0.000    0.000    0.000 
#    0.000    0.000    0.000    0.000    0.000    0.000 
#
# Total GULP energy -89225.037240 kJ/mol
# GULP energy per Si atom -5576.564827 kJ/mol
# Density = 2.444249 g / cm^3
# Si number density = 24.498245 Si / 1000 Ang^3
#
#
#
# Elastic Constant Matrix: (Units=GPa)
#
#
# Indices 1 2 3 4 5 6 
#
# 1 126.6641 27.2146 29.9498 -14.9960 -15.5502 16.4931
# 2 27.2146 72.4293 -5.6996 0.5471 -13.0583 8.4551
# 3 29.9498 -5.6996 85.1068 -4.8557 -23.7452 2.5016
# 4 -14.9960 0.5471 -4.8557 37.3663 8.9195 0.3654
# 5 -15.5502 -13.0583 -23.7452 8.9195 33.7196 -11.5632
# 6 16.4931 8.4551 2.5016 0.3654 -11.5632 25.1256
#
#
#
# Elastic Compliance Matrix: (Units=1/GPa)
#
#
# Indices 1 2 3 4 5 6 
#
# 1 0.010973 -0.004356 -0.004674 0.004783 -0.003580 -0.006988
# 2 -0.004356 0.017519 0.005183 -0.003664 0.009730 0.000980
# 3 -0.004674 0.005183 0.017679 -0.003426 0.015526 0.006758
# 4 0.004783 -0.003664 -0.003426 0.031376 -0.012609 -0.007825
# 5 -0.003580 0.009730 0.015526 -0.012609 0.053739 0.022444
# 6 -0.006988 0.000980 0.006758 -0.007825 0.022444 0.053828
#
#
# Mechanical properties :
#
#
# Convention : Reuss Voigt Hill
#
# Bulk Modulus (GPa) = 25.98902 43.01442 34.50172
# Shear Modulus (GPa) = 24.31514 34.75800 29.53657
#
# Velocity S-wave (km/s) = 3.15386 3.77078 3.47603
# Velocity P-wave (km/s) = 4.88814 6.04604 5.49766
#
# Compressibility (1/GPa) = 0.03847780
#
# Stress axis : x y z
#
# Youngs Moduli (GPa) = 91.13502 57.08104 56.56321
#
# Poissons Ratio (x) = 0.24867 0.26435
# Poissons Ratio (y) = 0.39702 -0.29319
# Poissons Ratio (z) = 0.42593 -0.29587
#
# Static dielectric constant tensor:
#      x y z
#    x 1.514670 0.757250 -0.163180 
#    y 0.757250 1.138070 0.103960 
#    z -0.163180 0.103960 1.947040 
# 
# From -- ./inp_files/370385.got.cif
#   From: 2010.05.17/outbox.cif.g08.bks.cpg/sg2_186_cif.got.tgz:370385.got - 2010.06.03 11:33:40.
