data_PCOD9037394
_publ_section_title
;
Structure prediction by ZEFSAII (Michael W. Deem and Ramdas Pophale) SiO2 
 PCOD9037394
Probable space group: P -1
;
_chemical_formula_sum "Si O2"
_cell_formula_units_Z 16
_cell_length_a 19.415016
_cell_length_b 8.971870
_cell_length_c 11.554313
_cell_angle_alpha 75.473126
_cell_angle_beta 129.537079
_cell_angle_gamma 145.727709
_cell_volume 676.151823
_symmetry_space_group_name_H-M "P -1"
_symmetry_group_IT_number 2
_symmetry_cell_setting 'triclinic'
loop_
_space_group_symop_operation_xyz
x,y,z
-x,-y,-z
loop_
_atom_site_type_symbol
_atom_site_label
_atom_site_fract_x
_atom_site_fract_y
_atom_site_fract_z
Si Si1 0.946033 0.824396 0.092883
Si Si2 0.441966 0.372144 0.332599
Si Si3 0.817804 0.392874 0.552715
Si Si4 0.941653 0.306962 0.868489
Si Si5 0.300027 0.471417 0.519286
Si Si6 0.335397 0.064743 0.712137
Si Si7 0.061526 0.901248 0.536683
Si Si8 0.656244 0.379042 0.075474
O O1 0.748166 0.546267 0.011828
O O2 0.934746 0.625431 0.085979
O O3 0.130731 0.151098 0.311295
O O4 0.000000 0.000000 0.000000
O O5 0.500000 0.500000 0.500000
O O6 0.499566 0.290607 0.365788
O O7 0.558834 0.661155 0.318071
O O8 0.210832 0.038101 0.158839
O O9 0.857687 0.305122 0.690018
O O10 0.694464 0.337336 0.494258
O O11 0.011925 0.787279 0.639369
O O12 0.723706 0.176536 0.377934
O O13 0.000000 0.500000 0.000000
O O14 0.231548 0.282571 0.602655
O O15 0.143190 0.863474 0.585507
O O16 0.501271 0.282012 0.944070
O O17 0.856390 0.649273 0.309495
O O18 0.500000 0.000000 0.000000
#
# Coordination Sequence:
#
# PCOD9037394 Si02
#       8
#     2   2   2   2   2   2   2   2
#     4  11  23  43  66  92 138 184 224 290 362 415
#     4  11  21  45  66  92 135 186 230 275 357 424
#     4  12  22  39  67  97 133 181 229 285 348 415
#     4  12  26  42  67 102 137 178 235 296 350 420
#     4  10  23  40  66  94 131 182 230 282 346 419
#     4  11  23  41  73  99 132 190 231 283 350 421
#     4  10  23  45  66  96 141 184 227 288 360 414
#     4  11  23  38  67 104 131 171 243 287 341 424
#
# _framework density 23.663323999999999
#
# number of rings (size 3 to 8) (size 9 to 14) (size 15 to 20)
#    0.000    1.000    3.750    3.750    1.750    2.500 
#    0.000    0.000    0.000    6.000    0.000    0.000 
#    0.000    0.000    0.000    0.000    0.000    0.000 
#
# Total GULP energy -89178.289119 kJ/mol
# GULP energy per Si atom -5573.643070 kJ/mol
# Density = 2.360947 g / cm^3
# Si number density = 23.663324 Si / 1000 Ang^3
#
#
#
# Elastic Constant Matrix: (Units=GPa)
#
#
# Indices 1 2 3 4 5 6 
#
# 1 145.3177 9.2048 38.8164 -15.6745 24.5899 -20.9395
# 2 9.2048 91.0627 1.5908 -24.3988 9.2365 14.6720
# 3 38.8164 1.5908 72.1319 -10.6975 17.5756 1.6007
# 4 -15.6745 -24.3988 -10.6975 35.2576 -5.6490 5.2381
# 5 24.5899 9.2365 17.5756 -5.6490 28.4841 -3.8729
# 6 -20.9395 14.6720 1.6007 5.2381 -3.8729 44.8588
#
#
#
# Elastic Compliance Matrix: (Units=1/GPa)
#
#
# Indices 1 2 3 4 5 6 
#
# 1 0.009511 -0.000814 -0.003876 0.001087 -0.004754 0.004307
# 2 -0.000814 0.015955 0.003285 0.011973 -0.005151 -0.007558
# 3 -0.003876 0.003285 0.019019 0.005618 -0.009019 -0.004997
# 4 0.001087 0.011973 0.005618 0.039838 -0.001528 -0.008393
# 5 -0.004754 -0.005151 -0.009019 -0.001528 0.046687 0.003997
# 6 0.004307 -0.007558 -0.004997 -0.008393 0.003997 0.028278
#
#
# Mechanical properties :
#
#
# Convention : Reuss Voigt Hill
#
# Bulk Modulus (GPa) = 23.99650 45.30404 34.65027
# Shear Modulus (GPa) = 28.41093 38.98009 33.69551
#
# Velocity S-wave (km/s) = 3.46877 4.06307 3.77763
# Velocity P-wave (km/s) = 5.11918 6.41858 5.80535
#
# Compressibility (1/GPa) = 0.04167274
#
# Stress axis : x y z
#
# Youngs Moduli (GPa) = 105.14583 62.67790 52.58035
#
# Poissons Ratio (x) = 0.05102 0.20380
# Poissons Ratio (y) = 0.08559 -0.17271
# Poissons Ratio (z) = 0.40755 -0.20587
#
# Static dielectric constant tensor:
#      x y z
#    x 2.091370 0.023750 -0.054270 
#    y 0.023750 1.918370 0.004430 
#    z -0.054270 0.004430 2.028400 
# 
# From -- ./inp_files/462151.got.cif
#   From: 2010.05.17/outbox.cif.g08.bks.cpg/sg2_232_cif.got.tgz:462151.got - 2010.06.03 11:33:40.
