data_PCOD9037131
_publ_section_title
;
Structure prediction by ZEFSAII (Michael W. Deem and Ramdas Pophale) SiO2 
 PCOD9037131
Probable space group: P -1
;
_chemical_formula_sum "Si O2"
_cell_formula_units_Z 16
_cell_length_a 9.647168
_cell_length_b 12.355337
_cell_length_c 10.452623
_cell_angle_alpha 77.714887
_cell_angle_beta 122.610000
_cell_angle_gamma 125.365215
_cell_volume 846.873575
_symmetry_space_group_name_H-M "P -1"
_symmetry_group_IT_number 2
_symmetry_cell_setting 'triclinic'
loop_
_space_group_symop_operation_xyz
x,y,z
-x,-y,-z
loop_
_atom_site_type_symbol
_atom_site_label
_atom_site_fract_x
_atom_site_fract_y
_atom_site_fract_z
Si Si1 0.881011 0.883137 0.367707
Si Si2 0.475659 0.622341 0.953022
Si Si3 0.592117 0.290338 0.836547
Si Si4 0.854796 0.929277 0.062737
Si Si5 0.661685 0.459859 0.577768
Si Si6 0.047871 0.737630 0.620043
Si Si7 0.723671 0.113076 0.048343
Si Si8 0.768201 0.379930 0.400253
O O1 0.645968 0.822472 0.267913
O O2 0.923489 0.774819 0.461168
O O3 0.950854 0.928908 0.245881
O O4 0.000000 0.000000 0.500000
O O5 0.675763 0.772514 0.991846
O O6 0.326719 0.591721 0.772216
O O7 0.500000 0.500000 0.000000
O O8 0.391970 0.633219 0.044248
O O9 0.652588 0.383523 0.720093
O O10 0.715790 0.224987 0.938016
O O11 0.786866 0.029151 0.025342
O O12 0.000000 0.000000 0.000000
O O13 0.500000 0.500000 0.500000
O O14 0.646716 0.372341 0.467960
O O15 0.879962 0.594572 0.632898
O O16 0.210443 0.737856 0.611090
O O17 0.155004 0.830242 0.773317
O O18 0.500000 0.000000 0.000000
O O19 0.000000 0.500000 0.500000
#
# Coordination Sequence:
#
# PCOD9037131 Si02
#       8
#     2   2   2   2   2   2   2   2
#     4  11  21  40  68  90 124 175 217 254 330 396
#     4  11  23  43  68  92 133 176 216 262 333 394
#     4  11  23  40  66  98 124 176 218 262 331 387
#     4  11  26  42  66 104 133 168 221 277 326 385
#     4  11  23  40  64  98 134 162 219 275 319 387
#     4  11  22  41  67  92 129 174 214 270 327 386
#     4  12  21  44  67  89 131 173 217 267 320 396
#     4  10  23  40  61  93 130 168 213 269 326 379
#
# _framework density 18.893021999999998
#
# number of rings (size 3 to 8) (size 9 to 14) (size 15 to 20)
#    0.000    1.000    6.250    0.750    5.250    4.500 
#    2.250    0.000    0.000    4.500    0.000    0.000 
#    0.000    0.000    0.000    0.000    0.000    0.000 
#
# Total GULP energy -89214.303977 kJ/mol
# GULP energy per Si atom -5575.893999 kJ/mol
# Density = 1.885002 g / cm^3
# Si number density = 18.893022 Si / 1000 Ang^3
#
#
#
# Elastic Constant Matrix: (Units=GPa)
#
#
# Indices 1 2 3 4 5 6 
#
# 1 129.5033 55.9016 56.2211 -9.0955 -24.4131 -14.2444
# 2 55.9016 102.3358 60.2389 -15.6944 -15.7193 -17.2732
# 3 56.2211 60.2389 154.7587 -17.9399 -10.5989 5.7223
# 4 -9.0955 -15.6944 -17.9399 43.6684 0.8939 0.9569
# 5 -24.4131 -15.7193 -10.5989 0.8939 33.8491 -12.7374
# 6 -14.2444 -17.2732 5.7223 0.9569 -12.7374 29.2973
#
#
#
# Elastic Compliance Matrix: (Units=1/GPa)
#
#
# Indices 1 2 3 4 5 6 
#
# 1 0.013781 -0.000889 -0.004208 0.000281 0.012950 0.012619
# 2 -0.000889 0.019921 -0.006791 0.003512 0.013276 0.018296
# 3 -0.004208 -0.006791 0.010736 0.001486 -0.007114 -0.011288
# 4 0.000281 0.003512 0.001486 0.024733 0.002466 0.002181
# 5 0.012950 0.013276 -0.007114 0.002466 0.058062 0.040676
# 6 0.012619 0.018296 -0.011288 0.002181 0.040676 0.070873
#
#
# Mechanical properties :
#
#
# Convention : Reuss Voigt Hill
#
# Bulk Modulus (GPa) = 48.39687 81.25790 64.82738
# Shear Modulus (GPa) = 21.85601 35.64538 28.75070
#
# Velocity S-wave (km/s) = 3.40491 4.34832 3.90521
# Velocity P-wave (km/s) = 6.41325 8.26519 7.39740
#
# Compressibility (1/GPa) = 0.02066250
#
# Stress axis : x y z
#
# Youngs Moduli (GPa) = 72.56226 50.19797 93.14276
#
# Poissons Ratio (x) = 0.04463 0.39190
# Poissons Ratio (y) = 0.06452 0.63257
# Poissons Ratio (z) = 0.30531 0.34092
#
# Static dielectric constant tensor:
#      x y z
#    x 1.647820 -0.045940 0.037730 
#    y -0.045940 1.624040 0.131740 
#    z 0.037730 0.131740 1.405900 
# 
# From -- ./inp_files/186982.got.cif
#   From: 2010.05.17/outbox.cif.g08.bks.cpg/sg2_94_cif.got.tgz:186982.got - 2010.06.03 11:33:40.
