data_PCOD9037928
_publ_section_title
;
Structure prediction by ZEFSAII (Michael W. Deem and Ramdas Pophale) SiO2 
 PCOD9037928
Probable space group: P -1
;
_chemical_formula_sum "Si O2"
_cell_formula_units_Z 14
_cell_length_a 13.732544
_cell_length_b 14.886078
_cell_length_c 9.038139
_cell_angle_alpha 130.226032
_cell_angle_beta 112.492465
_cell_angle_gamma 28.242332
_cell_volume 571.864850
_symmetry_space_group_name_H-M "P -1"
_symmetry_group_IT_number 2
_symmetry_cell_setting 'triclinic'
loop_
_space_group_symop_operation_xyz
x,y,z
-x,-y,-z
loop_
_atom_site_type_symbol
_atom_site_label
_atom_site_fract_x
_atom_site_fract_y
_atom_site_fract_z
Si Si1 0.858879 0.586344 0.649140
Si Si2 0.848341 0.248263 0.837727
Si Si3 0.250650 0.082048 0.506774
Si Si4 0.315522 0.738386 0.763035
Si Si5 0.577528 0.701078 0.019135
Si Si6 0.672269 0.850647 0.108621
Si Si7 0.538262 0.356894 0.712226
O O1 0.000000 0.500000 0.500000
O O2 0.010235 0.326097 0.527218
O O3 0.589243 0.825752 0.701471
O O4 0.812512 0.726530 0.904748
O O5 0.765215 0.215916 0.666932
O O6 0.825245 0.387966 0.875145
O O7 0.606435 0.500085 0.065642
O O8 0.072657 0.006653 0.817441
O O9 0.217451 0.222326 0.749857
O O10 0.454346 0.883263 0.286392
O O11 0.326106 0.902396 0.469476
O O12 0.500000 0.500000 0.500000
O O13 0.329567 0.618254 0.762976
O O14 0.410746 0.763720 0.921365
O O15 0.621287 0.762161 0.996761
#
# Coordination Sequence:
#
# PCOD9037928 Si02
#       7
#     2   2   2   2   2   2   2
#     4  11  25  44  68 100 136 181 235 281 333 409
#     4   9  20  41  67  89 132 176 225 288 336 400
#     4  11  23  43  69  97 138 183 225 283 344 409
#     4  11  24  39  63  97 137 177 225 287 343 404
#     4  10  23  41  64  98 133 183 232 274 345 417
#     4  11  25  44  69 102 143 181 225 282 344 413
#     4   9  21  40  64  97 124 175 234 272 343 409
#
# _framework density 24.481307999999999
#
# number of rings (size 3 to 8) (size 9 to 14) (size 15 to 20)
#    0.000    1.714    1.429    2.143    0.000   11.429 
#    0.000    0.000    0.000    0.000    0.000    0.000 
#    0.000    0.000    0.000    0.000    0.000    0.000 
#
# Total GULP energy -78056.274872 kJ/mol
# GULP energy per Si atom -5575.448205 kJ/mol
# Density = 2.442559 g / cm^3
# Si number density = 24.481308 Si / 1000 Ang^3
#
#
#
# Elastic Constant Matrix: (Units=GPa)
#
#
# Indices 1 2 3 4 5 6 
#
# 1 57.2933 43.8297 41.2006 6.8660 2.6208 18.8006
# 2 43.8297 200.1985 21.1463 28.7069 17.7322 12.2081
# 3 41.2006 21.1463 108.3282 -8.4110 -22.7887 -1.9482
# 4 6.8660 28.7069 -8.4110 48.7463 10.9325 1.3409
# 5 2.6208 17.7322 -22.7887 10.9325 33.8213 11.7083
# 6 18.8006 12.2081 -1.9482 1.3409 11.7083 29.2261
#
#
#
# Elastic Compliance Matrix: (Units=1/GPa)
#
#
# Indices 1 2 3 4 5 6 
#
# 1 0.041618 -0.005153 -0.015851 -0.004642 -0.001031 -0.025050
# 2 -0.005153 0.006663 -0.000137 -0.002604 -0.002980 0.001836
# 3 -0.015851 -0.000137 0.017690 0.002989 0.009686 0.007415
# 4 -0.004642 -0.002604 0.002989 0.024430 -0.006094 0.005594
# 5 -0.001031 -0.002980 0.009686 -0.006094 0.044960 -0.015178
# 6 -0.025050 0.001836 0.007415 0.005594 -0.015178 0.055882
#
#
# Mechanical properties :
#
#
# Convention : Reuss Voigt Hill
#
# Bulk Modulus (GPa) = 42.21226 64.24147 53.22686
# Shear Modulus (GPa) = 20.71078 39.66830 30.18954
#
# Velocity S-wave (km/s) = 2.91173 4.02972 3.51546
# Velocity P-wave (km/s) = 5.34643 6.92456 6.18603
#
# Compressibility (1/GPa) = 0.02368980
#
# Stress axis : x y z
#
# Youngs Moduli (GPa) = 24.02805 150.08258 56.53065
#
# Poissons Ratio (x) = 0.77333 0.89605
# Poissons Ratio (y) = 0.12381 0.00775
# Poissons Ratio (z) = 0.38086 0.02056
#
# Static dielectric constant tensor:
#      x y z
#    x 2.188270 0.102760 0.002460 
#    y 0.102760 2.019620 -0.019490 
#    z 0.002460 -0.019490 2.065400 
# 
# From -- ./inp_files/315952.got.cif
#   From: 2010.05.17/outbox.cif.g08.bks.cpg/sg2_158_cif.got.tgz:315952.got - 2010.06.03 11:33:40.
