data_PCOD9037529
_publ_section_title
;
Structure prediction by ZEFSAII (Michael W. Deem and Ramdas Pophale) SiO2 
 PCOD9037529
Probable space group: P -1
;
_chemical_formula_sum "Si O2"
_cell_formula_units_Z 16
_cell_length_a 20.766430
_cell_length_b 9.594769
_cell_length_c 9.731685
_cell_angle_alpha 54.383633
_cell_angle_beta 145.453347
_cell_angle_gamma 133.279345
_cell_volume 799.780605
_symmetry_space_group_name_H-M "P -1"
_symmetry_group_IT_number 2
_symmetry_cell_setting 'triclinic'
loop_
_space_group_symop_operation_xyz
x,y,z
-x,-y,-z
loop_
_atom_site_type_symbol
_atom_site_label
_atom_site_fract_x
_atom_site_fract_y
_atom_site_fract_z
Si Si1 0.456837 0.532279 0.254500
Si Si2 0.593746 0.809670 0.841160
Si Si3 0.732710 0.277685 0.172912
Si Si4 0.685024 0.237980 0.644106
Si Si5 0.145678 0.737551 0.321982
Si Si6 0.851894 0.519936 0.003514
Si Si7 0.672738 0.851854 0.262980
Si Si8 0.150001 0.103117 0.218443
O O1 0.500000 0.500000 0.500000
O O2 0.401709 0.337384 0.179649
O O3 0.571661 0.685638 0.275751
O O4 0.362825 0.628748 0.051877
O O5 0.446135 0.762743 0.632846
O O6 0.656166 0.026611 0.768898
O O7 0.654239 0.798450 0.100719
O O8 0.797743 0.309950 0.415735
O O9 0.662815 0.051306 0.146924
O O10 0.841207 0.384030 0.189581
O O11 0.007137 0.377512 0.872307
O O12 0.746473 0.387717 0.787762
O O13 0.210604 0.700310 0.326329
O O14 0.192618 0.967311 0.285198
O O15 0.812970 0.684459 0.887416
O O16 0.804874 0.892856 0.547259
O O17 0.000000 0.000000 0.000000
#
# Coordination Sequence:
#
# PCOD9037529 Si02
#       8
#     2   2   2   2   2   2   2   2
#     4  12  26  39  66  97 127 168 211 262 318 385
#     4  11  25  41  63  93 132 168 211 263 318 378
#     4  11  23  39  63  96 125 161 212 263 315 376
#     4  11  23  41  63  92 128 170 212 258 318 376
#     4  10  23  40  68  91 125 166 215 264 310 375
#     4  11  21  43  64  92 126 168 211 257 320 375
#     4  11  22  42  63  93 131 168 207 260 322 376
#     4   9  21  39  66  93 123 163 210 260 312 370
#
# _framework density 20.005486999999999
#
# number of rings (size 3 to 8) (size 9 to 14) (size 15 to 20)
#    0.000    1.250    1.250    4.500    7.000    1.000 
#    0.000    0.000    0.000    2.250    0.000    0.000 
#    0.000    0.000    0.000    0.000    0.000    0.000 
#
# Total GULP energy -89375.489349 kJ/mol
# GULP energy per Si atom -5585.968084 kJ/mol
# Density = 1.995995 g / cm^3
# Si number density = 20.005487 Si / 1000 Ang^3
#
#
#
# Elastic Constant Matrix: (Units=GPa)
#
#
# Indices 1 2 3 4 5 6 
#
# 1 48.6124 8.7336 7.4193 9.8798 -9.9954 10.9408
# 2 8.7336 116.2716 21.4622 9.9072 -9.5820 -2.0128
# 3 7.4193 21.4622 87.8214 19.3573 -7.2924 -1.5897
# 4 9.8798 9.9072 19.3573 23.1883 -0.6791 -0.4004
# 5 -9.9954 -9.5820 -7.2924 -0.6791 29.3514 0.2841
# 6 10.9408 -2.0128 -1.5897 -0.4004 0.2841 24.3514
#
#
#
# Elastic Compliance Matrix: (Units=1/GPa)
#
#
# Indices 1 2 3 4 5 6 
#
# 1 0.027869 -0.000685 0.001104 -0.012449 0.009377 -0.012820
# 2 -0.000685 0.009341 -0.001488 -0.002371 0.002383 0.000916
# 3 0.001104 -0.001488 0.014546 -0.011881 0.003228 0.000098
# 4 -0.012449 -0.002371 -0.011881 0.059264 -0.006649 0.005674
# 5 0.009377 0.002383 0.003228 -0.006649 0.038732 -0.004367
# 6 -0.012820 0.000916 0.000098 0.005674 -0.004367 0.047051
#
#
# Mechanical properties :
#
#
# Convention : Reuss Voigt Hill
#
# Bulk Modulus (GPa) = 20.15452 36.43730 28.29591
# Shear Modulus (GPa) = 23.20397 29.71759 26.46078
#
# Velocity S-wave (km/s) = 3.40940 3.85836 3.64081
# Velocity P-wave (km/s) = 5.05915 6.17272 5.64347
#
# Compressibility (1/GPa) = 0.04961666
#
# Stress axis : x y z
#
# Youngs Moduli (GPa) = 35.88209 107.05576 68.74896
#
# Poissons Ratio (x) = 0.07338 -0.07588
# Poissons Ratio (y) = 0.02460 0.10228
# Poissons Ratio (z) = -0.03960 0.15927
#
# Static dielectric constant tensor:
#      x y z
#    x 1.681350 0.011560 0.016080 
#    y 0.011560 1.734970 -0.003160 
#    z 0.016080 -0.003160 1.695200 
# 
# From -- ./inp_files/343455.got.cif
#   From: 2010.05.17/outbox.cif.g08.bks.cpg/sg2_172_cif.got.tgz:343455.got - 2010.06.03 11:33:40.
