data_PCOD9037464
_publ_section_title
;
Structure prediction by ZEFSAII (Michael W. Deem and Ramdas Pophale) SiO2 
 PCOD9037464
Probable space group: P -1
;
_chemical_formula_sum "Si O2"
_cell_formula_units_Z 14
_cell_length_a 14.131069
_cell_length_b 5.237699
_cell_length_c 15.189851
_cell_angle_alpha 69.465205
_cell_angle_beta 31.436992
_cell_angle_gamma 83.559897
_cell_volume 507.216519
_symmetry_space_group_name_H-M "P -1"
_symmetry_group_IT_number 2
_symmetry_cell_setting 'triclinic'
loop_
_space_group_symop_operation_xyz
x,y,z
-x,-y,-z
loop_
_atom_site_type_symbol
_atom_site_label
_atom_site_fract_x
_atom_site_fract_y
_atom_site_fract_z
Si Si1 0.768849 0.914565 0.218426
Si Si2 0.830169 0.792145 0.723382
Si Si3 0.860924 0.395534 0.400732
Si Si4 0.602892 0.829401 0.060252
Si Si5 0.560115 0.154405 0.212455
Si Si6 0.834449 0.392671 0.220842
Si Si7 0.794438 0.489496 0.625969
O O1 0.659781 0.079421 0.227709
O O2 0.690127 0.566500 0.301238
O O3 0.756567 0.040452 0.310195
O O4 0.000000 0.000000 0.000000
O O5 0.700010 0.597982 0.770750
O O6 0.955346 0.660576 0.700281
O O7 0.731318 0.914246 0.861400
O O8 0.000000 0.000000 0.500000
O O9 0.662957 0.094122 0.585769
O O10 0.902979 0.487332 0.254819
O O11 0.831763 0.597431 0.480453
O O12 0.672167 0.060771 0.055477
O O13 0.384994 0.814673 0.213835
O O14 0.581328 0.495014 0.146224
O O15 0.000000 0.500000 0.000000
O O16 0.000000 0.500000 0.500000
#
# Coordination Sequence:
#
# PCOD9037464 Si02
#       7
#     2   2   2   2   2   2   2
#     4  10  23  40  67  95 143 171 244 284 352 423
#     4  11  24  42  70 107 145 189 240 293 355 431
#     4  10  24  42  70 101 147 185 236 301 356 421
#     4  11  25  44  76 103 146 188 238 292 361 427
#     4  11  25  45  69 108 138 190 238 294 362 429
#     4  10  23  42  67 102 137 183 237 287 360 423
#     4   9  21  45  68 105 143 184 237 290 353 423
#
# _framework density 27.601627000000001
#
# number of rings (size 3 to 8) (size 9 to 14) (size 15 to 20)
#    0.000    1.714    0.000    2.143    8.000    8.000 
#    0.000    5.714    0.000    0.000    0.000    0.000 
#    0.000    0.000    0.000    0.000    0.000    0.000 
#
# Total GULP energy -78042.930014 kJ/mol
# GULP energy per Si atom -5574.495001 kJ/mol
# Density = 2.753880 g / cm^3
# Si number density = 27.601627 Si / 1000 Ang^3
#
#
#
# Elastic Constant Matrix: (Units=GPa)
#
#
# Indices 1 2 3 4 5 6 
#
# 1 151.6978 50.7254 42.2609 17.1104 34.2008 7.6729
# 2 50.7254 171.9699 22.8592 27.6410 12.3653 2.6320
# 3 42.2609 22.8592 132.2576 26.7722 29.9068 13.0794
# 4 17.1104 27.6410 26.7722 45.0150 12.5403 8.9694
# 5 34.2008 12.3653 29.9068 12.5403 47.4842 3.2272
# 6 7.6729 2.6320 13.0794 8.9694 3.2272 50.1349
#
#
#
# Elastic Compliance Matrix: (Units=1/GPa)
#
#
# Indices 1 2 3 4 5 6 
#
# 1 0.008781 -0.002086 -0.001305 0.000229 -0.004978 -0.000614
# 2 -0.002086 0.006984 0.000029 -0.003805 0.000630 0.000585
# 3 -0.001305 0.000029 0.009844 -0.003948 -0.004130 -0.001398
# 4 0.000229 -0.003805 -0.003948 0.028661 -0.004007 -0.003675
# 5 -0.004978 0.000630 -0.004130 -0.004007 0.028092 0.000715
# 6 -0.000614 0.000585 -0.001398 -0.003675 0.000715 0.020986
#
#
# Mechanical properties :
#
#
# Convention : Reuss Voigt Hill
#
# Bulk Modulus (GPa) = 52.95203 76.40181 64.67692
# Shear Modulus (GPa) = 42.96821 51.19880 47.08351
#
# Velocity S-wave (km/s) = 3.94982 4.31155 4.13464
# Velocity P-wave (km/s) = 6.32673 7.24750 6.80271
#
# Compressibility (1/GPa) = 0.01888502
#
# Stress axis : x y z
#
# Youngs Moduli (GPa) = 113.88621 143.19136 101.58217
#
# Poissons Ratio (x) = 0.29869 0.13258
# Poissons Ratio (y) = 0.23756 -0.00297
# Poissons Ratio (z) = 0.14864 -0.00419
#
# Static dielectric constant tensor:
#      x y z
#    x 1.982270 -0.143960 -0.021490 
#    y -0.143960 2.530870 -0.191050 
#    z -0.021490 -0.191050 2.274950 
# 
# From -- ./inp_files/525669.got.cif
#   From: 2010.05.17/outbox.cif.g08.bks.cpg/sg2_263_cif.got.tgz:525669.got - 2010.06.03 11:33:40.
