data_PCOD9037442
_publ_section_title
;
Structure prediction by ZEFSAII (Michael W. Deem and Ramdas Pophale) SiO2 
 PCOD9037442
Probable space group: P -1
;
_chemical_formula_sum "Si O2"
_cell_formula_units_Z 16
_cell_length_a 14.864217
_cell_length_b 9.435839
_cell_length_c 11.546285
_cell_angle_alpha 125.113280
_cell_angle_beta 72.920989
_cell_angle_gamma 61.520015
_cell_volume 714.026307
_symmetry_space_group_name_H-M "P -1"
_symmetry_group_IT_number 2
_symmetry_cell_setting 'triclinic'
loop_
_space_group_symop_operation_xyz
x,y,z
-x,-y,-z
loop_
_atom_site_type_symbol
_atom_site_label
_atom_site_fract_x
_atom_site_fract_y
_atom_site_fract_z
Si Si1 0.645925 0.140546 0.253586
Si Si2 0.313978 0.774116 0.248668
Si Si3 0.077149 0.062110 0.041349
Si Si4 0.170466 0.783303 0.104031
Si Si5 0.436051 0.077436 0.691174
Si Si6 0.134381 0.768713 0.441975
Si Si7 0.660199 0.877745 0.901601
Si Si8 0.745254 0.769374 0.558208
O O1 0.500000 0.500000 0.500000
O O2 0.632084 0.007267 0.289336
O O3 0.818221 0.985267 0.111382
O O4 0.633488 0.061537 0.096301
O O5 0.206161 0.876299 0.227977
O O6 0.280171 0.684514 0.319247
O O7 0.261538 0.046605 0.429096
O O8 0.500000 0.500000 0.000000
O O9 0.923090 0.409159 0.309347
O O10 0.200323 0.816584 0.982784
O O11 0.000000 0.000000 0.000000
O O12 0.290806 0.441834 0.930188
O O13 0.974879 0.032279 0.308486
O O14 0.500000 0.000000 0.500000
O O15 0.592253 0.883424 0.625050
O O16 0.201454 0.472212 0.274975
O O17 0.000000 0.000000 0.500000
O O18 0.712239 0.866239 0.750194
O O19 0.500000 0.000000 0.000000
#
# Coordination Sequence:
#
# PCOD9037442 Si02
#       8
#     2   2   2   2   2   2   2   2
#     4  12  27  48  77 109 148 200 245 301 384 441
#     4  11  22  41  68 108 141 179 234 302 365 433
#     4  12  28  49  71 104 152 192 250 310 366 443
#     4  11  23  46  70  98 146 189 235 299 370 429
#     4  12  26  50  72 102 149 201 246 299 369 452
#     4  10  23  40  67 102 144 182 229 294 366 430
#     4  12  24  45  78 109 146 190 251 310 361 444
#     4  12  25  45  73 110 146 188 250 308 367 432
#
# _framework density 22.408138000000001
#
# number of rings (size 3 to 8) (size 9 to 14) (size 15 to 20)
#    0.000    0.500    3.750    5.250    5.250    1.000 
#    4.500    1.250    0.000    0.000    0.000    0.000 
#    0.000    0.000    0.000    0.000    0.000    0.000 
#
# Total GULP energy -89497.268015 kJ/mol
# GULP energy per Si atom -5593.579251 kJ/mol
# Density = 2.235714 g / cm^3
# Si number density = 22.408138 Si / 1000 Ang^3
#
#
#
# Elastic Constant Matrix: (Units=GPa)
#
#
# Indices 1 2 3 4 5 6 
#
# 1 101.7094 33.2812 35.8467 -9.3789 -10.6490 30.8357
# 2 33.2812 109.6374 34.4611 -0.7873 -7.9329 26.9038
# 3 35.8467 34.4611 129.3733 5.2308 -11.6394 16.2088
# 4 -9.3789 -0.7873 5.2308 48.1571 1.2330 -4.2006
# 5 -10.6490 -7.9329 -11.6394 1.2330 30.3655 -3.8354
# 6 30.8357 26.9038 16.2088 -4.2006 -3.8354 45.1378
#
#
#
# Elastic Compliance Matrix: (Units=1/GPa)
#
#
# Indices 1 2 3 4 5 6 
#
# 1 0.013837 -0.001457 -0.002393 0.002229 0.002542 -0.007302
# 2 -0.001457 0.011494 -0.001901 -0.000364 0.001132 -0.005111
# 3 -0.002393 -0.001901 0.009225 -0.001600 0.002201 -0.000507
# 4 0.002229 -0.000364 -0.001600 0.021490 -0.000646 0.001214
# 5 0.002542 0.001132 0.002201 -0.000646 0.034953 -0.000292
# 6 -0.007302 -0.005111 -0.000507 0.001214 -0.000292 0.030459
#
#
# Mechanical properties :
#
#
# Convention : Reuss Voigt Hill
#
# Bulk Modulus (GPa) = 43.37273 60.87755 52.12514
# Shear Modulus (GPa) = 35.55073 40.54082 38.04578
#
# Velocity S-wave (km/s) = 3.98742 4.25808 4.12497
# Velocity P-wave (km/s) = 6.37159 7.16949 6.78229
#
# Compressibility (1/GPa) = 0.02305596
#
# Stress axis : x y z
#
# Youngs Moduli (GPa) = 72.26833 87.00066 108.39935
#
# Poissons Ratio (x) = 0.12672 0.25936
# Poissons Ratio (y) = 0.10526 0.20609
# Poissons Ratio (z) = 0.17291 0.16540
#
# Static dielectric constant tensor:
#      x y z
#    x 2.008930 -0.102410 -0.036690 
#    y -0.102410 1.941820 -0.044580 
#    z -0.036690 -0.044580 1.878500 
# 
# From -- ./inp_files/278978.got.cif
#   From: 2010.05.17/outbox.cif.g08.bks.cpg/sg2_140_cif.got.tgz:278978.got - 2010.06.03 11:33:40.
