data_PCOD9037719
_publ_section_title
;
Structure prediction by ZEFSAII (Michael W. Deem and Ramdas Pophale) SiO2 
 PCOD9037719
Probable space group: P -1
;
_chemical_formula_sum "Si O2"
_cell_formula_units_Z 14
_cell_length_a 11.833719
_cell_length_b 8.405211
_cell_length_c 14.429433
_cell_angle_alpha 112.743420
_cell_angle_beta 30.022370
_cell_angle_gamma 99.969370
_cell_volume 620.313497
_symmetry_space_group_name_H-M "P -1"
_symmetry_group_IT_number 2
_symmetry_cell_setting 'triclinic'
loop_
_space_group_symop_operation_xyz
x,y,z
-x,-y,-z
loop_
_atom_site_type_symbol
_atom_site_label
_atom_site_fract_x
_atom_site_fract_y
_atom_site_fract_z
Si Si1 0.217130 0.699202 0.435912
Si Si2 0.316885 0.790190 0.734341
Si Si3 0.977335 0.313010 0.931755
Si Si4 0.994045 0.800130 0.437559
Si Si5 0.684598 0.935743 0.514203
Si Si6 0.218913 0.556353 0.601527
Si Si7 0.264220 0.526701 0.038901
O O1 0.012198 0.716300 0.508572
O O2 0.211593 0.579239 0.501721
O O3 0.471433 0.619912 0.183834
O O4 0.221282 0.894739 0.514280
O O5 0.104869 0.795618 0.955440
O O6 0.403887 0.964071 0.715256
O O7 0.253809 0.731333 0.665848
O O8 0.552108 0.615687 0.563317
O O9 0.771897 0.373314 0.012222
O O10 0.000000 0.500000 0.000000
O O11 0.204545 0.190764 0.682525
O O12 0.215376 0.671591 0.189511
O O13 0.778678 0.837645 0.525042
O O14 0.000000 0.000000 0.500000
O O15 0.960027 0.547001 0.812741
#
# Coordination Sequence:
#
# PCOD9037719 Si02
#       7
#     2   2   2   2   2   2   2
#     4  11  24  40  61  91 126 158 200 257 305 342
#     4  11  20  38  63  88 123 165 202 241 301 363
#     4  11  19  37  64  86 119 166 200 241 296 366
#     4   9  20  42  64  85 120 161 203 250 299 358
#     4  10  23  41  61  90 123 161 204 249 298 362
#     4  11  22  36  62  94 120 158 205 247 298 366
#     4  11  21  38  62  92 121 156 202 248 307 357
#
# _framework density 22.569233000000001
#
# number of rings (size 3 to 8) (size 9 to 14) (size 15 to 20)
#    0.000    1.429    5.714    1.286    0.000    2.286 
#    0.000    1.429    0.000   14.571    0.000    0.000 
#    0.000    0.000    0.000    0.000    0.000    0.000 
#
# Total GULP energy -78120.893673 kJ/mol
# GULP energy per Si atom -5580.063834 kJ/mol
# Density = 2.251786 g / cm^3
# Si number density = 22.569233 Si / 1000 Ang^3
#
#
#
# Elastic Constant Matrix: (Units=GPa)
#
#
# Indices 1 2 3 4 5 6 
#
# 1 140.1370 22.9067 39.5679 -3.1766 25.8494 0.5098
# 2 22.9067 30.3870 15.9917 1.0244 6.7756 13.4117
# 3 39.5679 15.9917 74.6750 -7.2888 5.1840 6.4229
# 4 -3.1766 1.0244 -7.2888 27.3636 6.2573 5.5696
# 5 25.8494 6.7756 5.1840 6.2573 32.2855 8.5430
# 6 0.5098 13.4117 6.4229 5.5696 8.5430 38.2613
#
#
#
# Elastic Compliance Matrix: (Units=1/GPa)
#
#
# Indices 1 2 3 4 5 6 
#
# 1 0.010803 -0.006130 -0.004084 0.001375 -0.008112 0.004302
# 2 -0.006130 0.047327 -0.005652 -0.000875 0.000145 -0.015464
# 3 -0.004084 -0.005652 0.017259 0.004401 0.001306 -0.001794
# 4 0.001375 -0.000875 0.004401 0.040733 -0.008322 -0.004522
# 5 -0.008112 0.000145 0.001306 -0.008322 0.040985 -0.008102
# 6 0.004302 -0.015464 -0.001794 -0.004522 -0.008102 0.034268
#
#
# Mechanical properties :
#
#
# Convention : Reuss Voigt Hill
#
# Bulk Modulus (GPa) = 22.90646 44.68130 33.79388
# Shear Modulus (GPa) = 21.03850 30.69758 25.86804
#
# Velocity S-wave (km/s) = 3.05647 3.69202 3.38918
# Velocity P-wave (km/s) = 4.75683 6.16564 5.50648
#
# Compressibility (1/GPa) = 0.04365581
#
# Stress axis : x y z
#
# Youngs Moduli (GPa) = 92.56815 21.12955 57.94119
#
# Poissons Ratio (x) = 0.12953 0.23662
# Poissons Ratio (y) = 0.56749 0.32749
# Poissons Ratio (z) = 0.37804 0.11943
#
# Static dielectric constant tensor:
#      x y z
#    x 1.836190 -0.020800 -0.013570 
#    y -0.020800 1.904350 0.034190 
#    z -0.013570 0.034190 1.826440 
# 
# From -- ./inp_files/458269.got.cif
#   From: 2010.05.17/outbox.cif.g08.bks.cpg/sg2_230_cif.got.tgz:458269.got - 2010.06.03 11:33:40.
