data_PCOD9037391
_publ_section_title
;
Structure prediction by ZEFSAII (Michael W. Deem and Ramdas Pophale) SiO2 
 PCOD9037391
Probable space group: P -1
;
_chemical_formula_sum "Si O2"
_cell_formula_units_Z 14
_cell_length_a 16.978416
_cell_length_b 5.287256
_cell_length_c 14.775448
_cell_angle_alpha 111.603800
_cell_angle_beta 147.935013
_cell_angle_gamma 58.056753
_cell_volume 587.982045
_symmetry_space_group_name_H-M "P -1"
_symmetry_group_IT_number 2
_symmetry_cell_setting 'triclinic'
loop_
_space_group_symop_operation_xyz
x,y,z
-x,-y,-z
loop_
_atom_site_type_symbol
_atom_site_label
_atom_site_fract_x
_atom_site_fract_y
_atom_site_fract_z
Si Si1 0.746529 0.583536 0.741416
Si Si2 0.914145 0.942981 0.995740
Si Si3 0.806812 0.677966 0.502449
Si Si4 0.656376 0.386271 0.457635
Si Si5 0.680058 0.492616 0.176759
Si Si6 0.187394 0.201634 0.804165
Si Si7 0.693161 0.550745 0.898616
O O1 0.760987 0.895449 0.800804
O O2 0.630279 0.525602 0.551274
O O3 0.711463 0.553006 0.808268
O O4 0.933155 0.354741 0.857316
O O5 0.838125 0.225163 0.024876
O O6 0.000000 0.000000 0.000000
O O7 0.733937 0.569885 0.501442
O O8 0.712372 0.639500 0.317698
O O9 0.998182 0.448281 0.648987
O O10 0.771478 0.026282 0.524920
O O11 0.485859 0.422799 0.252579
O O12 0.714891 0.677492 0.153973
O O13 0.797890 0.130955 0.244076
O O14 0.500000 0.500000 0.000000
O O15 0.267103 0.203013 0.979891
#
# Coordination Sequence:
#
# PCOD9037391 Si02
#       7
#     2   2   2   2   2   2   2
#     4  10  23  40  66  93 138 179 226 273 332 395
#     4   9  21  39  64  92 132 173 230 271 331 389
#     4  12  27  47  69 101 136 175 229 272 334 403
#     4  12  27  43  68 100 138 180 222 279 331 391
#     4  12  25  48  74 102 135 171 219 284 339 394
#     4  12  26  44  75 100 134 179 221 272 338 401
#     4  11  25  41  65  99 135 176 227 275 334 396
#
# _framework density 23.810251000000001
#
# number of rings (size 3 to 8) (size 9 to 14) (size 15 to 20)
#    0.000    0.857    0.000    6.000   14.000    0.571 
#    0.000    0.000    0.000    0.000    0.000    0.000 
#    0.000    0.000    0.000    0.000    0.000    0.000 
#
# Total GULP energy -78304.909012 kJ/mol
# GULP energy per Si atom -5593.207787 kJ/mol
# Density = 2.375606 g / cm^3
# Si number density = 23.810251 Si / 1000 Ang^3
#
#
#
# Elastic Constant Matrix: (Units=GPa)
#
#
# Indices 1 2 3 4 5 6 
#
# 1 70.8895 5.5344 10.4809 1.3766 -16.5360 -6.3491
# 2 5.5344 75.7846 -17.9896 9.2707 -12.7852 9.0485
# 3 10.4809 -17.9896 87.0253 17.2789 -8.0939 -9.2340
# 4 1.3766 9.2707 17.2789 45.4279 -15.9611 0.4287
# 5 -16.5360 -12.7852 -8.0939 -15.9611 33.8515 2.2345
# 6 -6.3491 9.0485 -9.2340 0.4287 2.2345 16.8533
#
#
#
# Elastic Compliance Matrix: (Units=1/GPa)
#
#
# Indices 1 2 3 4 5 6 
#
# 1 0.016819 -0.001133 -0.001602 0.003326 0.008654 0.004834
# 2 -0.001133 0.016415 0.003755 -0.002622 0.005829 -0.007889
# 3 -0.001602 0.003755 0.014266 -0.005864 0.000937 0.005221
# 4 0.003326 -0.002622 -0.005864 0.029374 0.013284 -0.003061
# 5 0.008654 0.005829 0.000937 0.013284 0.042812 -0.005370
# 6 0.004834 -0.007889 0.005221 -0.003061 -0.005370 0.069043
#
#
# Mechanical properties :
#
#
# Convention : Reuss Voigt Hill
#
# Bulk Modulus (GPa) = 20.18539 25.52787 22.85663
# Shear Modulus (GPa) = 24.60619 34.93814 29.77216
#
# Velocity S-wave (km/s) = 3.21819 3.83477 3.53993
# Velocity P-wave (km/s) = 4.72281 5.50925 5.13112
#
# Compressibility (1/GPa) = 0.04954077
#
# Stress axis : x y z
#
# Youngs Moduli (GPa) = 59.45722 60.91825 70.09860
#
# Poissons Ratio (x) = 0.06900 0.11231
# Poissons Ratio (y) = 0.06735 -0.26325
# Poissons Ratio (z) = 0.09526 -0.22877
#
# Static dielectric constant tensor:
#      x y z
#    x 1.913600 0.007910 -0.018550 
#    y 0.007910 1.951720 -0.037260 
#    z -0.018550 -0.037260 1.945480 
# 
# From -- ./inp_files/40158.got.cif
#   From: 2010.05.17/outbox.cif.g08.bks.cpg/sg2_21_cif.got.tgz:40158.got - 2010.06.03 11:33:40.
