data_PCOD9037053
_publ_section_title
;
Structure prediction by ZEFSAII (Michael W. Deem and Ramdas Pophale) SiO2 
 PCOD9037053
Probable space group: P -1
;
_chemical_formula_sum "Si O2"
_cell_formula_units_Z 12
_cell_length_a 22.375969
_cell_length_b 5.232770
_cell_length_c 13.426469
_cell_angle_alpha 106.433762
_cell_angle_beta 19.328963
_cell_angle_gamma 106.723158
_cell_volume 498.017323
_symmetry_space_group_name_H-M "P -1"
_symmetry_group_IT_number 2
_symmetry_cell_setting 'triclinic'
loop_
_space_group_symop_operation_xyz
x,y,z
-x,-y,-z
loop_
_atom_site_type_symbol
_atom_site_label
_atom_site_fract_x
_atom_site_fract_y
_atom_site_fract_z
Si Si1 0.583924 0.549737 0.694105
Si Si2 0.293340 0.978661 0.784003
Si Si3 0.174650 0.906920 0.655450
Si Si4 0.200709 0.556259 0.384017
Si Si5 0.030489 0.963494 0.564188
Si Si6 0.613395 0.557251 0.429497
O O1 0.701467 0.297965 0.503529
O O2 0.511476 0.533312 0.691554
O O3 0.709234 0.822806 0.528972
O O4 0.416855 0.559027 0.032466
O O5 0.244251 0.667355 0.812341
O O6 0.500000 0.000000 0.500000
O O7 0.294610 0.152575 0.702323
O O8 0.162152 0.080842 0.083574
O O9 0.135410 0.737593 0.597020
O O10 0.000000 0.000000 0.000000
O O11 0.135637 0.709687 0.404692
O O12 0.127715 0.248512 0.475483
O O13 0.000000 0.000000 0.500000
O O14 0.500000 0.500000 0.500000
#
# Coordination Sequence:
#
# PCOD9037053 Si02
#       6
#     2   2   2   2   2   2
#     4  12  26  48  79 102 148 198 239 301 374 433
#     4  10  23  41  67  96 150 186 236 282 356 424
#     4  12  28  50  75 110 143 188 257 307 362 425
#     4  12  28  49  76 106 150 193 248 302 365 438
#     4  12  28  45  74 110 152 190 240 301 369 437
#     4  10  23  39  71 104 141 179 242 284 356 432
#
# _framework density 24.095548999999998
#
# number of rings (size 3 to 8) (size 9 to 14) (size 15 to 20)
#    0.000    0.667    0.000    6.000   16.333    0.000 
#    0.000    0.000    0.000    0.000    0.000    0.000 
#    0.000    0.000    0.000    0.000    0.000    0.000 
#
# Total GULP energy -67122.674274 kJ/mol
# GULP energy per Si atom -5593.556190 kJ/mol
# Density = 2.404071 g / cm^3
# Si number density = 24.095549 Si / 1000 Ang^3
#
#
#
# Elastic Constant Matrix: (Units=GPa)
#
#
# Indices 1 2 3 4 5 6 
#
# 1 104.0557 10.2195 27.7949 3.1564 10.6520 -17.4238
# 2 10.2195 156.3450 32.4760 -2.9064 -18.5052 -32.1504
# 3 27.7949 32.4760 176.9687 6.7835 -6.9354 -11.1265
# 4 3.1564 -2.9064 6.7835 37.6322 5.1325 -4.2646
# 5 10.6520 -18.5052 -6.9354 5.1325 27.1094 0.4586
# 6 -17.4238 -32.1504 -11.1265 -4.2646 0.4586 52.8411
#
#
#
# Elastic Compliance Matrix: (Units=1/GPa)
#
#
# Indices 1 2 3 4 5 6 
#
# 1 0.011151 -0.000320 -0.001710 0.000416 -0.005170 0.003201
# 2 -0.000320 0.008225 -0.000982 0.000650 0.005286 0.004699
# 3 -0.001710 -0.000982 0.006223 -0.001302 0.001840 0.000028
# 4 0.000416 0.000650 -0.001302 0.027844 -0.005367 0.002553
# 5 -0.005170 0.005286 0.001840 -0.005367 0.043996 0.001084
# 6 0.003201 0.004699 0.000028 0.002553 0.001084 0.023042
#
#
# Mechanical properties :
#
#
# Convention : Reuss Voigt Hill
#
# Bulk Modulus (GPa) = 51.08114 64.26115 57.67115
# Shear Modulus (GPa) = 37.58571 47.97512 42.78042
#
# Velocity S-wave (km/s) = 3.95379 4.46694 4.21818
# Velocity P-wave (km/s) = 6.48758 7.30288 6.90727
#
# Compressibility (1/GPa) = 0.01957670
#
# Stress axis : x y z
#
# Youngs Moduli (GPa) = 89.67790 121.58141 160.68874
#
# Poissons Ratio (x) = 0.03887 0.27479
# Poissons Ratio (y) = 0.02867 0.15772
# Poissons Ratio (z) = 0.15335 0.11933
#
# Static dielectric constant tensor:
#      x y z
#    x 1.928690 -0.057710 0.014310 
#    y -0.057710 1.900320 0.016710 
#    z 0.014310 0.016710 1.858570 
# 
# From -- ./inp_files/468386.got.cif
#   From: 2010.05.17/outbox.cif.g08.bks.cpg/sg2_235_cif.got.tgz:468386.got - 2010.06.03 11:33:40.
