data_PCOD9037817
_publ_section_title
;
Structure prediction by ZEFSAII (Michael W. Deem and Ramdas Pophale) SiO2 
 PCOD9037817
Probable space group: P -1
;
_chemical_formula_sum "Si O2"
_cell_formula_units_Z 16
_cell_length_a 11.749114
_cell_length_b 20.973470
_cell_length_c 21.197934
_cell_angle_alpha 161.795168
_cell_angle_beta 26.149442
_cell_angle_gamma 154.280149
_cell_volume 673.683223
_symmetry_space_group_name_H-M "P -1"
_symmetry_group_IT_number 2
_symmetry_cell_setting 'triclinic'
loop_
_space_group_symop_operation_xyz
x,y,z
-x,-y,-z
loop_
_atom_site_type_symbol
_atom_site_label
_atom_site_fract_x
_atom_site_fract_y
_atom_site_fract_z
Si Si1 0.807134 0.462522 0.996145
Si Si2 0.124234 0.868440 0.765653
Si Si3 0.103900 0.165290 0.545975
Si Si4 0.021627 0.955090 0.770204
Si Si5 0.793283 0.512964 0.394371
Si Si6 0.013139 0.269729 0.965364
Si Si7 0.489642 0.041751 0.143846
Si Si8 0.396776 0.546781 0.368085
O O1 0.853662 0.255075 0.745583
O O2 0.517805 0.456307 0.163077
O O3 0.000000 0.500000 0.000000
O O4 0.869598 0.644832 0.081474
O O5 0.211744 0.989573 0.769510
O O6 0.884561 0.640486 0.651511
O O7 0.347420 0.774948 0.595757
O O8 0.000000 0.000000 0.000000
O O9 0.250565 0.047079 0.315460
O O10 0.360329 0.390129 0.642712
O O11 0.000000 0.000000 0.500000
O O12 0.955948 0.729347 0.553824
O O13 0.132054 0.146302 0.842528
O O14 0.722337 0.933287 0.929555
O O15 0.500000 0.500000 0.500000
O O16 0.696555 0.290908 0.273094
O O17 0.975413 0.474121 0.211036
O O18 0.709767 0.087526 0.934685
#
# Coordination Sequence:
#
# PCOD9037817 Si02
#       8
#     2   2   2   2   2   2   2   2
#     4  10  23  41  63  93 137 170 211 275 336 406
#     4  11  25  45  73  94 131 180 232 280 317 390
#     4  11  23  38  68 100 133 177 214 273 349 406
#     4  11  23  37  64  92 132 176 221 276 328 392
#     4  11  18  35  55  89 133 173 211 266 331 395
#     4  11  22  36  57  97 134 169 214 269 335 403
#     4  11  20  32  56  92 134 169 214 260 329 401
#     4  10  24  45  64  99 132 173 227 276 329 393
#
# _framework density 23.750035
#
# number of rings (size 3 to 8) (size 9 to 14) (size 15 to 20)
#    0.000    1.250    2.500    4.500    7.000    3.000 
#    0.000    0.625    0.000    1.500    0.000    0.000 
#    0.000    0.000    0.000    0.000    0.000    0.000 
#
# Total GULP energy -89116.833740 kJ/mol
# GULP energy per Si atom -5569.802109 kJ/mol
# Density = 2.369598 g / cm^3
# Si number density = 23.750035 Si / 1000 Ang^3
#
#
#
# Elastic Constant Matrix: (Units=GPa)
#
#
# Indices 1 2 3 4 5 6 
#
# 1 78.3341 8.8510 23.8716 8.1849 -3.5565 -22.3574
# 2 8.8510 50.0204 12.5275 -0.9981 0.5792 -20.0078
# 3 23.8716 12.5275 115.0940 -7.4308 16.1312 -8.7490
# 4 8.1849 -0.9981 -7.4308 32.9962 -4.6554 0.6738
# 5 -3.5565 0.5792 16.1312 -4.6554 38.9861 4.7069
# 6 -22.3574 -20.0078 -8.7490 0.6738 4.7069 37.6104
#
#
#
# Elastic Compliance Matrix: (Units=1/GPa)
#
#
# Indices 1 2 3 4 5 6 
#
# 1 0.017127 0.001844 -0.003450 -0.005022 0.001118 0.010310
# 2 0.001844 0.026019 -0.001965 -0.000587 -0.001244 0.014647
# 3 -0.003450 -0.001965 0.010362 0.002535 -0.004246 -0.000200
# 4 -0.005022 -0.000587 0.002535 0.032580 0.002832 -0.003647
# 5 0.001118 -0.001244 -0.004246 0.002832 0.028420 -0.004592
# 6 0.010310 0.014647 -0.000200 -0.003647 -0.004592 0.041102
#
#
# Mechanical properties :
#
#
# Convention : Reuss Voigt Hill
#
# Bulk Modulus (GPa) = 21.56774 37.10540 29.33657
# Shear Modulus (GPa) = 28.05738 35.13176 31.59457
#
# Velocity S-wave (km/s) = 3.44082 3.85025 3.65128
# Velocity P-wave (km/s) = 4.98864 5.95173 5.49134
#
# Compressibility (1/GPa) = 0.04636555
#
# Stress axis : x y z
#
# Youngs Moduli (GPa) = 58.38764 38.43366 96.51012
#
# Poissons Ratio (x) = -0.07088 0.33299
# Poissons Ratio (y) = -0.10767 0.18962
# Poissons Ratio (z) = 0.20146 0.07551
#
# Static dielectric constant tensor:
#      x y z
#    x 2.065700 -0.069880 -0.036320 
#    y -0.069880 1.924210 0.026130 
#    z -0.036320 0.026130 2.129940 
# 
# From -- ./inp_files/596194.got.cif
#   From: 2010.05.17/outbox.cif.g08.bks.cpg/sg2_299_cif.got.tgz:596194.got - 2010.06.03 11:33:40.
