data_PCOD9037704
_publ_section_title
;
Structure prediction by ZEFSAII (Michael W. Deem and Ramdas Pophale) SiO2 
 PCOD9037704
Probable space group: P -1
;
_chemical_formula_sum "Si O2"
_cell_formula_units_Z 16
_cell_length_a 14.010653
_cell_length_b 9.618212
_cell_length_c 11.462420
_cell_angle_alpha 145.865608
_cell_angle_beta 113.959347
_cell_angle_gamma 79.577455
_cell_volume 754.910750
_symmetry_space_group_name_H-M "P -1"
_symmetry_group_IT_number 2
_symmetry_cell_setting 'triclinic'
loop_
_space_group_symop_operation_xyz
x,y,z
-x,-y,-z
loop_
_atom_site_type_symbol
_atom_site_label
_atom_site_fract_x
_atom_site_fract_y
_atom_site_fract_z
Si Si1 0.236907 0.814272 0.069885
Si Si2 0.234880 0.417086 0.156254
Si Si3 0.030620 0.973062 0.630911
Si Si4 0.002839 0.588958 0.692955
Si Si5 0.787042 0.672464 0.644770
Si Si6 0.117405 0.716486 0.180476
Si Si7 0.358615 0.756637 0.872686
Si Si8 0.549030 0.648363 0.748544
O O1 0.190070 0.692837 0.087282
O O2 0.264850 0.125354 0.302158
O O3 0.325640 0.736551 0.979658
O O4 0.125683 0.737962 0.888034
O O5 0.242440 0.365479 0.261024
O O6 0.194356 0.669197 0.288869
O O7 0.360039 0.451657 0.209347
O O8 0.142439 0.179025 0.880047
O O9 0.033259 0.680471 0.440814
O O10 0.000000 0.000000 0.500000
O O11 0.925711 0.032821 0.683023
O O12 0.917303 0.747084 0.768675
O O13 0.000000 0.500000 0.500000
O O14 0.745399 0.407687 0.367695
O O15 0.000000 0.500000 0.000000
O O16 0.455591 0.654130 0.799405
O O17 0.392553 0.055728 0.058049
O O18 0.500000 0.500000 0.500000
#
# Coordination Sequence:
#
# PCOD9037704 Si02
#       8
#     2   2   2   2   2   2   2   2
#     4  12  23  41  60  94 140 175 214 273 332 389
#     4  11  21  41  66  95 131 172 223 274 329 388
#     4  11  22  40  61  93 132 178 219 258 324 403
#     4  12  21  32  58  92 126 167 215 254 321 394
#     4  12  22  40  64  98 134 172 220 278 327 390
#     4  10  23  41  60  89 137 177 211 264 320 397
#     4  11  23  40  68  98 130 170 218 273 346 379
#     4  11  22  43  70 102 132 165 222 289 333 381
#
# _framework density 21.194559000000002
#
# number of rings (size 3 to 8) (size 9 to 14) (size 15 to 20)
#    0.000    0.750    3.750    6.375    0.000    0.000 
#    0.000    0.625    0.000    3.000    0.000    0.000 
#    0.000    0.000    0.000    0.000    0.000    0.000 
#
# Total GULP energy -89167.391112 kJ/mol
# GULP energy per Si atom -5572.961945 kJ/mol
# Density = 2.114632 g / cm^3
# Si number density = 21.194559 Si / 1000 Ang^3
#
#
#
# Elastic Constant Matrix: (Units=GPa)
#
#
# Indices 1 2 3 4 5 6 
#
# 1 162.0349 34.4265 9.5703 -4.0164 -5.8122 -0.3932
# 2 34.4265 75.7028 14.2059 -6.2657 -3.1409 7.3905
# 3 9.5703 14.2059 99.6633 4.2396 2.6878 -1.1702
# 4 -4.0164 -6.2657 4.2396 18.0201 -0.9151 -0.6342
# 5 -5.8122 -3.1409 2.6878 -0.9151 26.0175 -8.5558
# 6 -0.3932 7.3905 -1.1702 -0.6342 -8.5558 48.4140
#
#
#
# Elastic Compliance Matrix: (Units=1/GPa)
#
#
# Indices 1 2 3 4 5 6 
#
# 1 0.006908 -0.003049 -0.000287 0.000650 0.001486 0.000786
# 2 -0.003049 0.015705 -0.002220 0.005270 0.000890 -0.002250
# 3 -0.000287 -0.002220 0.010564 -0.003385 -0.001447 0.000292
# 4 0.000650 0.005270 -0.003385 0.058454 0.003343 0.000476
# 5 0.001486 0.000890 -0.001447 0.003343 0.041517 0.007222
# 6 0.000786 -0.002250 0.000292 0.000476 0.007222 0.022295
#
#
# Mechanical properties :
#
#
# Convention : Reuss Voigt Hill
#
# Bulk Modulus (GPa) = 45.32168 50.42295 47.87231
# Shear Modulus (GPa) = 28.75050 37.10352 32.92701
#
# Velocity S-wave (km/s) = 3.68707 4.18857 3.94580
# Velocity P-wave (km/s) = 6.28936 6.87273 6.58750
#
# Compressibility (1/GPa) = 0.02206449
#
# Stress axis : x y z
#
# Youngs Moduli (GPa) = 144.76987 63.67278 94.65842
#
# Poissons Ratio (x) = 0.19411 0.02719
# Poissons Ratio (y) = 0.44134 0.21019
# Poissons Ratio (z) = 0.04159 0.14138
#
# Static dielectric constant tensor:
#      x y z
#    x 1.954040 0.045020 -0.002960 
#    y 0.045020 1.792920 0.050040 
#    z -0.002960 0.050040 1.811920 
# 
# From -- ./inp_files/448386.got.cif
#   From: 2010.05.17/outbox.cif.g08.bks.cpg/sg2_225_cif.got.tgz:448386.got - 2010.06.03 11:33:40.
