data_PCOD9037289
_publ_section_title
;
Structure prediction by ZEFSAII (Michael W. Deem and Ramdas Pophale) SiO2 
 PCOD9037289
Probable space group: P -1
;
_chemical_formula_sum "Si O2"
_cell_formula_units_Z 16
_cell_length_a 10.738726
_cell_length_b 5.400664
_cell_length_c 17.599342
_cell_angle_alpha 105.964043
_cell_angle_beta 45.910625
_cell_angle_gamma 84.267968
_cell_volume 639.094679
_symmetry_space_group_name_H-M "P -1"
_symmetry_group_IT_number 2
_symmetry_cell_setting 'triclinic'
loop_
_space_group_symop_operation_xyz
x,y,z
-x,-y,-z
loop_
_atom_site_type_symbol
_atom_site_label
_atom_site_fract_x
_atom_site_fract_y
_atom_site_fract_z
Si Si1 0.885840 0.766985 0.710966
Si Si2 0.089227 0.876631 0.870902
Si Si3 0.971753 0.539106 0.239239
Si Si4 0.655731 0.128257 0.446380
Si Si5 0.576431 0.595067 0.808689
Si Si6 0.232718 0.742599 0.081612
Si Si7 0.497508 0.678963 0.635054
Si Si8 0.664999 0.970341 0.687228
O O1 0.787516 0.546781 0.741503
O O2 0.869857 0.842012 0.634813
O O3 0.055291 0.617156 0.686463
O O4 0.764777 0.057241 0.832857
O O5 0.107398 0.569056 0.808456
O O6 0.307820 0.828007 0.778252
O O7 0.942349 0.085582 0.888273
O O8 0.000000 0.000000 0.000000
O O9 0.181246 0.495436 0.116797
O O10 0.860437 0.867521 0.334268
O O11 0.620316 0.341880 0.549067
O O12 0.610560 0.268856 0.394973
O O13 0.500000 0.000000 0.500000
O O14 0.548152 0.863976 0.789264
O O15 0.590925 0.306246 0.739517
O O16 0.423258 0.659183 0.945221
O O17 0.639499 0.821331 0.609246
#
# Coordination Sequence:
#
# PCOD9037289 Si02
#       8
#     2   2   2   2   2   2   2   2
#     4   9  23  39  65  94 138 176 228 278 336 411
#     4  11  24  39  60 103 140 175 221 280 352 412
#     4  11  23  41  67  95 133 180 230 284 336 405
#     4  11  24  44  69  94 129 182 238 284 337 405
#     4  10  23  40  64  98 140 183 222 271 343 414
#     4  11  22  38  62  95 136 181 228 274 335 409
#     4  11  24  43  68  97 134 179 232 283 346 408
#     4  10  24  42  65 100 134 179 223 279 340 410
#
# _framework density 25.035412999999998
#
# number of rings (size 3 to 8) (size 9 to 14) (size 15 to 20)
#    0.750    0.750    2.500    1.875    7.000    2.500 
#    0.000    0.625    0.000    2.250    0.000    0.000 
#    0.000    0.000    0.000    0.000    0.000    0.000 
#
# Total GULP energy -89122.252184 kJ/mol
# GULP energy per Si atom -5570.140761 kJ/mol
# Density = 2.497843 g / cm^3
# Si number density = 25.035413 Si / 1000 Ang^3
#
#
#
# Elastic Constant Matrix: (Units=GPa)
#
#
# Indices 1 2 3 4 5 6 
#
# 1 107.2649 10.7791 22.3568 12.4673 29.6347 12.9634
# 2 10.7791 66.4108 16.0492 11.5124 8.3349 19.6469
# 3 22.3568 16.0492 84.1125 9.4617 13.8224 -5.0059
# 4 12.4673 11.5124 9.4617 35.7168 13.7363 5.1234
# 5 29.6347 8.3349 13.8224 13.7363 27.5752 6.0856
# 6 12.9634 19.6469 -5.0059 5.1234 6.0856 29.9754
#
#
#
# Elastic Compliance Matrix: (Units=1/GPa)
#
#
# Indices 1 2 3 4 5 6 
#
# 1 0.013853 0.001062 -0.002017 0.001331 -0.013882 -0.004433
# 2 0.001062 0.020909 -0.004683 -0.003793 -0.000072 -0.014283
# 3 -0.002017 -0.004683 0.014689 -0.000825 -0.005037 0.007559
# 4 0.001331 -0.003793 -0.000825 0.035837 -0.017548 -0.000790
# 5 -0.013882 -0.000072 -0.005037 -0.017548 0.063506 -0.004684
# 6 -0.004433 -0.014283 0.007559 -0.000790 -0.004684 0.046988
#
#
# Mechanical properties :
#
#
# Convention : Reuss Voigt Hill
#
# Bulk Modulus (GPa) = 26.19578 39.57314 32.88446
# Shear Modulus (GPa) = 22.74979 32.56033 27.65506
#
# Velocity S-wave (km/s) = 3.01774 3.61026 3.32721
# Velocity P-wave (km/s) = 4.75695 5.76366 5.28433
#
# Compressibility (1/GPa) = 0.03817409
#
# Stress axis : x y z
#
# Youngs Moduli (GPa) = 72.18807 47.82553 68.07851
#
# Poissons Ratio (x) = -0.05079 0.13731
# Poissons Ratio (y) = -0.07666 0.31884
# Poissons Ratio (z) = 0.14560 0.22399
#
# Static dielectric constant tensor:
#      x y z
#    x 2.234810 -0.045710 0.072390 
#    y -0.045710 2.128380 -0.009510 
#    z 0.072390 -0.009510 2.113490 
# 
# From -- ./inp_files/127501.got.cif
#   From: 2010.05.17/outbox.cif.g08.bks.cpg/sg2_64_cif.got.tgz:127501.got - 2010.06.03 11:33:40.
