data_PCOD9037029
_publ_section_title
;
Structure prediction by ZEFSAII (Michael W. Deem and Ramdas Pophale) SiO2 
 PCOD9037029
Probable space group: P -1
;
_chemical_formula_sum "Si O2"
_cell_formula_units_Z 16
_cell_length_a 8.709444
_cell_length_b 9.221075
_cell_length_c 15.495273
_cell_angle_alpha 39.322773
_cell_angle_beta 74.030686
_cell_angle_gamma 78.217198
_cell_volume 758.074115
_symmetry_space_group_name_H-M "P -1"
_symmetry_group_IT_number 2
_symmetry_cell_setting 'triclinic'
loop_
_space_group_symop_operation_xyz
x,y,z
-x,-y,-z
loop_
_atom_site_type_symbol
_atom_site_label
_atom_site_fract_x
_atom_site_fract_y
_atom_site_fract_z
Si Si1 0.526997 0.082774 0.359941
Si Si2 0.858913 0.693859 0.918522
Si Si3 0.300372 0.472242 0.156265
Si Si4 0.441683 0.754102 0.369196
Si Si5 0.469723 0.103257 0.051926
Si Si6 0.144895 0.494275 0.546309
Si Si7 0.042627 0.249862 0.417552
Si Si8 0.858965 0.957052 0.324584
O O1 0.431509 0.306744 0.251803
O O2 0.500000 0.000000 0.500000
O O3 0.458011 0.896398 0.389014
O O4 0.711537 0.122267 0.287811
O O5 0.756278 0.602587 0.895183
O O6 0.710138 0.783416 0.961572
O O7 0.975506 0.912004 0.779146
O O8 0.000000 0.500000 0.000000
O O9 0.147054 0.412206 0.265998
O O10 0.387816 0.714823 0.034637
O O11 0.500000 0.500000 0.500000
O O12 0.262990 0.684149 0.403739
O O13 0.495130 0.907113 0.210442
O O14 0.500000 0.000000 0.000000
O O15 0.190439 0.228118 0.656107
O O16 0.000000 0.500000 0.500000
O O17 0.102571 0.594319 0.599990
O O18 0.133303 0.181896 0.522627
O O19 0.000000 0.000000 0.500000
#
# Coordination Sequence:
#
# PCOD9037029 Si02
#       8
#     2   2   2   2   2   2   2   2
#     4  12  25  43  76 111 150 190 252 310 380 451
#     4  12  27  50  75 103 149 205 257 309 378 458
#     4  12  26  47  74 107 152 194 249 316 381 452
#     4  12  26  48  73 110 152 199 250 312 379 456
#     4  12  30  50  77 110 156 205 254 315 391 454
#     4  10  23  39  69  97 144 183 236 301 368 431
#     4  11  21  41  68 107 136 184 242 307 365 437
#     4  11  23  41  69 102 142 189 240 302 374 440
#
# _framework density 21.106116
#
# number of rings (size 3 to 8) (size 9 to 14) (size 15 to 20)
#    0.000    0.500    5.000    3.375    8.750    0.000 
#    2.250    0.625    0.000    0.000    0.000    0.000 
#    0.000    0.000    0.000    0.000    0.000    0.000 
#
# Total GULP energy -89147.665602 kJ/mol
# GULP energy per Si atom -5571.729100 kJ/mol
# Density = 2.105808 g / cm^3
# Si number density = 21.106116 Si / 1000 Ang^3
#
#
#
# Elastic Constant Matrix: (Units=GPa)
#
#
# Indices 1 2 3 4 5 6 
#
# 1 76.1553 34.5457 58.4815 1.9294 -12.8329 10.3866
# 2 34.5457 141.5676 90.5068 4.8032 -12.0306 13.0403
# 3 58.4815 90.5068 152.8616 -2.1566 -22.3630 2.6850
# 4 1.9294 4.8032 -2.1566 22.8652 7.2672 0.7238
# 5 -12.8329 -12.0306 -22.3630 7.2672 53.2008 -11.9850
# 6 10.3866 13.0403 2.6850 0.7238 -11.9850 38.9002
#
#
#
# Elastic Compliance Matrix: (Units=1/GPa)
#
#
# Indices 1 2 3 4 5 6 
#
# 1 0.019614 0.000793 -0.007789 -0.002718 0.000968 -0.004617
# 2 0.000793 0.012091 -0.007541 -0.002965 -0.000720 -0.003911
# 3 -0.007789 -0.007541 0.014404 0.002452 0.003158 0.004541
# 4 -0.002718 -0.002965 0.002452 0.047113 -0.007070 -0.001504
# 5 0.000968 -0.000720 0.003158 -0.007070 0.022714 0.006895
# 6 -0.004617 -0.003911 0.004541 -0.001504 0.006895 0.030089
#
#
# Mechanical properties :
#
#
# Convention : Reuss Voigt Hill
#
# Bulk Modulus (GPa) = 58.70270 81.96140 70.33205
# Shear Modulus (GPa) = 27.65837 35.46327 31.56082
#
# Velocity S-wave (km/s) = 3.62393 4.10352 3.87116
# Velocity P-wave (km/s) = 6.73677 7.83384 7.30593
#
# Compressibility (1/GPa) = 0.01703499
#
# Stress axis : x y z
#
# Youngs Moduli (GPa) = 50.98275 82.70739 69.42708
#
# Poissons Ratio (x) = -0.06561 0.54080
# Poissons Ratio (y) = -0.04044 0.52353
# Poissons Ratio (z) = 0.39713 0.62368
#
# Static dielectric constant tensor:
#      x y z
#    x 1.772530 -0.137900 0.234650 
#    y -0.137900 1.875700 -0.015330 
#    z 0.234650 -0.015330 1.332130 
# 
# From -- ./inp_files/494219.got.cif
#   From: 2010.05.17/outbox.cif.g08.bks.cpg/sg2_248_cif.got.tgz:494219.got - 2010.06.03 11:33:40.
