data_PCOD9037711
_publ_section_title
;
Structure prediction by ZEFSAII (Michael W. Deem and Ramdas Pophale) SiO2 
 PCOD9037711
Probable space group: P -1
;
_chemical_formula_sum "Si O2"
_cell_formula_units_Z 16
_cell_length_a 12.583620
_cell_length_b 18.148769
_cell_length_c 10.764362
_cell_angle_alpha 106.448562
_cell_angle_beta 107.229152
_cell_angle_gamma 18.403147
_cell_volume 741.255784
_symmetry_space_group_name_H-M "P -1"
_symmetry_group_IT_number 2
_symmetry_cell_setting 'triclinic'
loop_
_space_group_symop_operation_xyz
x,y,z
-x,-y,-z
loop_
_atom_site_type_symbol
_atom_site_label
_atom_site_fract_x
_atom_site_fract_y
_atom_site_fract_z
Si Si1 0.632607 0.779806 0.014155
Si Si2 0.147584 0.984310 0.091951
Si Si3 0.396665 0.180257 0.256659
Si Si4 0.318636 0.498734 0.450000
Si Si5 0.620086 0.885263 0.305468
Si Si6 0.334533 0.303954 0.679956
Si Si7 0.254748 0.691263 0.669704
Si Si8 0.324178 0.878872 0.517266
O O1 0.550453 0.867918 0.893305
O O2 0.335337 0.914452 0.019766
O O3 0.668282 0.819232 0.153123
O O4 0.000000 0.500000 0.000000
O O5 0.450423 0.778032 0.199162
O O6 0.861571 0.214601 0.185669
O O7 0.000000 0.000000 0.000000
O O8 0.674306 0.058179 0.346057
O O9 0.036675 0.456219 0.278869
O O10 0.393056 0.107656 0.308016
O O11 0.299319 0.573982 0.588992
O O12 0.416010 0.478401 0.345873
O O13 0.606513 0.248993 0.463058
O O14 0.962422 0.690545 0.394840
O O15 0.499080 0.889386 0.341344
O O16 0.348825 0.319929 0.551790
O O17 0.971840 0.910105 0.581322
#
# Coordination Sequence:
#
# PCOD9037711 Si02
#       8
#     2   2   2   2   2   2   2   2
#     4  11  22  43  64  94 130 170 222 260 321 386
#     4  10  23  42  68  95 128 174 213 267 325 384
#     4  12  22  38  66  92 129 172 214 265 326 387
#     4  11  22  41  66  94 131 173 212 274 321 391
#     4  11  23  39  64  93 126 169 214 271 321 380
#     4  10  23  41  60  97 128 163 215 267 324 383
#     4  10  24  42  63  96 131 169 221 262 329 392
#     4  11  22  39  63  95 125 170 212 268 332 376
#
# _framework density 21.584990999999999
#
# number of rings (size 3 to 8) (size 9 to 14) (size 15 to 20)
#    0.000    1.250    5.000    1.125    3.500    3.500 
#    0.000    0.000    0.000    6.750    0.000    0.000 
#    0.000    0.000    0.000    0.000    0.000    0.000 
#
# Total GULP energy -89295.302310 kJ/mol
# GULP energy per Si atom -5580.956394 kJ/mol
# Density = 2.153586 g / cm^3
# Si number density = 21.584991 Si / 1000 Ang^3
#
#
#
# Elastic Constant Matrix: (Units=GPa)
#
#
# Indices 1 2 3 4 5 6 
#
# 1 118.7188 27.8678 45.6218 0.6954 16.1174 8.5076
# 2 27.8678 43.4846 6.9193 0.9648 1.4986 8.9209
# 3 45.6218 6.9193 90.3850 -1.0619 4.3299 -4.5482
# 4 0.6954 0.9648 -1.0619 32.6447 -2.4400 -1.9720
# 5 16.1174 1.4986 4.3299 -2.4400 32.4777 3.6685
# 6 8.5076 8.9209 -4.5482 -1.9720 3.6685 34.3534
#
#
#
# Elastic Compliance Matrix: (Units=1/GPa)
#
#
# Indices 1 2 3 4 5 6 
#
# 1 0.013198 -0.006953 -0.005972 -0.000770 -0.005295 -0.001732
# 2 -0.006953 0.028442 0.000902 -0.000822 0.002619 -0.005871
# 3 -0.005972 0.000902 0.014138 0.000803 0.000749 0.003083
# 4 -0.000770 -0.000822 0.000803 0.031003 0.002413 0.002033
# 5 -0.005295 0.002619 0.000749 0.002413 0.033687 -0.002729
# 6 -0.001732 -0.005871 0.003083 0.002033 -0.002729 0.031879
#
#
# Mechanical properties :
#
#
# Convention : Reuss Voigt Hill
#
# Bulk Modulus (GPa) = 31.51518 45.93403 38.72461
# Shear Modulus (GPa) = 26.74247 31.37380 29.05814
#
# Velocity S-wave (km/s) = 3.52367 3.81662 3.67307
# Velocity P-wave (km/s) = 5.58455 6.38348 5.99734
#
# Compressibility (1/GPa) = 0.03173074
#
# Stress axis : x y z
#
# Youngs Moduli (GPa) = 75.77066 35.15985 70.73276
#
# Poissons Ratio (x) = 0.24446 0.42241
# Poissons Ratio (y) = 0.52682 -0.06377
# Poissons Ratio (z) = 0.45249 -0.03170
#
# Static dielectric constant tensor:
#      x y z
#    x 1.814000 -0.035300 -0.014320 
#    y -0.035300 1.826990 0.025500 
#    z -0.014320 0.025500 1.793710 
# 
# From -- ./inp_files/436810.got.cif
#   From: 2010.05.17/outbox.cif.g08.bks.cpg/sg2_219_cif.got.tgz:436810.got - 2010.06.03 11:33:40.
