data_PCOD9037127
_publ_section_title
;
Structure prediction by ZEFSAII (Michael W. Deem and Ramdas Pophale) SiO2 
 PCOD9037127
Probable space group: P -1
;
_chemical_formula_sum "Si O2"
_cell_formula_units_Z 14
_cell_length_a 10.575486
_cell_length_b 7.443723
_cell_length_c 11.265900
_cell_angle_alpha 55.490325
_cell_angle_beta 127.457409
_cell_angle_gamma 103.017329
_cell_volume 570.383073
_symmetry_space_group_name_H-M "P -1"
_symmetry_group_IT_number 2
_symmetry_cell_setting 'triclinic'
loop_
_space_group_symop_operation_xyz
x,y,z
-x,-y,-z
loop_
_atom_site_type_symbol
_atom_site_label
_atom_site_fract_x
_atom_site_fract_y
_atom_site_fract_z
Si Si1 0.287500 0.696576 0.435534
Si Si2 0.235378 0.152560 0.084542
Si Si3 0.020996 0.175640 0.324108
Si Si4 0.736545 0.108617 0.037927
Si Si5 0.811800 0.276484 0.379130
Si Si6 0.472240 0.481588 0.166093
Si Si7 0.118125 0.580905 0.168969
O O1 0.165641 0.689280 0.480343
O O2 0.457002 0.608033 0.630146
O O3 0.238666 0.542231 0.363994
O O4 0.274680 0.937802 0.275707
O O5 0.336171 0.341029 0.106395
O O6 0.275231 0.071181 0.001897
O O7 0.044355 0.250580 0.949069
O O8 0.938156 0.315671 0.336801
O O9 0.075183 0.345614 0.200434
O O10 0.883168 0.053429 0.235571
O O11 0.170243 0.990109 0.516283
O O12 0.581530 0.252279 0.959978
O O13 0.791611 0.305474 0.919948
O O14 0.631772 0.405129 0.204884
#
# Coordination Sequence:
#
# PCOD9037127 Si02
#       7
#     2   2   2   2   2   2   2
#     4   9  21  39  57  88 128 150 199 254 293 363
#     4  11  21  39  63  94 124 158 197 256 307 353
#     4  11  21  40  64  85 124 166 204 245 300 364
#     4  11  23  38  65  94 122 155 206 251 304 361
#     4   9  23  40  59  87 124 165 200 250 298 356
#     4  10  23  40  61  93 123 163 193 253 315 342
#     4  11  22  36  66  93 118 162 204 250 304 358
#
# _framework density 24.544908
#
# number of rings (size 3 to 8) (size 9 to 14) (size 15 to 20)
#    0.857    0.857    1.429    4.286    2.000    4.571 
#    0.000    0.714    0.000    0.000    0.000    0.000 
#    0.000    0.000    0.000    0.000    0.000    0.000 
#
# Total GULP energy -78177.045089 kJ/mol
# GULP energy per Si atom -5584.074649 kJ/mol
# Density = 2.448904 g / cm^3
# Si number density = 24.544908 Si / 1000 Ang^3
#
#
#
# Elastic Constant Matrix: (Units=GPa)
#
#
# Indices 1 2 3 4 5 6 
#
# 1 72.6020 11.7969 9.2087 -2.7360 4.5571 -24.2022
# 2 11.7969 85.9636 32.8797 16.9790 15.3026 -20.4732
# 3 9.2087 32.8797 79.9215 5.3165 6.1627 -5.5887
# 4 -2.7360 16.9790 5.3165 48.0995 -15.3128 -2.8382
# 5 4.5571 15.3026 6.1627 -15.3128 38.7737 -7.9189
# 6 -24.2022 -20.4732 -5.5887 -2.8382 -7.9189 35.8758
#
#
#
# Elastic Compliance Matrix: (Units=1/GPa)
#
#
# Indices 1 2 3 4 5 6 
#
# 1 0.018154 0.000480 -0.001658 0.002257 0.001438 0.012758
# 2 0.000480 0.018742 -0.006071 -0.008046 -0.008104 0.007648
# 3 -0.001658 -0.006071 0.015044 0.000193 -0.000187 -0.002265
# 4 0.002257 -0.008046 0.000193 0.028548 0.014655 0.002454
# 5 0.001438 -0.008104 -0.000187 0.014655 0.035733 0.005363
# 6 0.012758 0.007648 -0.002265 0.002454 0.005363 0.041870
#
#
# Mechanical properties :
#
#
# Convention : Reuss Voigt Hill
#
# Bulk Modulus (GPa) = 26.70802 38.47308 32.59055
# Shear Modulus (GPa) = 27.01671 36.85660 31.93665
#
# Velocity S-wave (km/s) = 3.32129 3.87925 3.61106
# Velocity P-wave (km/s) = 5.06091 5.98108 5.54014
#
# Compressibility (1/GPa) = 0.03744194
#
# Stress axis : x y z
#
# Youngs Moduli (GPa) = 55.08471 53.35478 66.47140
#
# Poissons Ratio (x) = -0.02559 0.11020
# Poissons Ratio (y) = -0.02642 0.40354
# Poissons Ratio (z) = 0.09132 0.32391
#
# Static dielectric constant tensor:
#      x y z
#    x 2.015190 -0.045990 -0.022070 
#    y -0.045990 1.950590 0.007630 
#    z -0.022070 0.007630 1.967840 
# 
# From -- ./inp_files/416683.got.cif
#   From: 2010.05.17/outbox.cif.g08.bks.cpg/sg2_209_cif.got.tgz:416683.got - 2010.06.03 11:33:40.
