data_PCOD9037647
_publ_section_title
;
Structure prediction by ZEFSAII (Michael W. Deem and Ramdas Pophale) SiO2 
 PCOD9037647
Probable space group: P -1
;
_chemical_formula_sum "Si O2"
_cell_formula_units_Z 12
_cell_length_a 9.550743
_cell_length_b 10.551576
_cell_length_c 13.252682
_cell_angle_alpha 26.548726
_cell_angle_beta 122.070397
_cell_angle_gamma 122.874386
_cell_volume 497.662125
_symmetry_space_group_name_H-M "P -1"
_symmetry_group_IT_number 2
_symmetry_cell_setting 'triclinic'
loop_
_space_group_symop_operation_xyz
x,y,z
-x,-y,-z
loop_
_atom_site_type_symbol
_atom_site_label
_atom_site_fract_x
_atom_site_fract_y
_atom_site_fract_z
Si Si1 0.141312 0.730944 0.949739
Si Si2 0.682813 0.654721 0.419641
Si Si3 0.531626 0.961501 0.657317
Si Si4 0.492815 0.418119 0.784871
Si Si5 0.293658 0.432771 0.903066
Si Si6 0.052622 0.729193 0.152664
O O1 0.205762 0.053582 0.698242
O O2 0.315450 0.610092 0.112551
O O3 0.080614 0.770838 0.013320
O O4 0.000000 0.500000 0.000000
O O5 0.500000 0.500000 0.500000
O O6 0.626795 0.768124 0.209009
O O7 0.799934 0.411847 0.642412
O O8 0.384271 0.698232 0.814772
O O9 0.500000 0.000000 0.500000
O O10 0.516210 0.260362 0.485052
O O11 0.702742 0.850186 0.826812
O O12 0.401805 0.377590 0.886243
O O13 0.121328 0.497194 0.750042
O O14 0.000000 0.000000 0.000000
#
# Coordination Sequence:
#
# PCOD9037647 Si02
#       6
#     2   2   2   2   2   2
#     4  12  31  48  78 117 159 199 264 329 390 459
#     4  12  28  51  79 108 156 214 260 311 396 472
#     4   9  21  39  68 105 148 198 250 305 389 457
#     4  11  24  45  76 105 154 206 260 310 394 469
#     4  10  23  40  71 108 151 198 254 319 383 457
#     4  12  28  48  78 113 155 201 269 323 384 459
#
# _framework density 24.112746000000001
#
# number of rings (size 3 to 8) (size 9 to 14) (size 15 to 20)
#    0.000    1.000    1.667    2.500   14.000    4.667 
#    0.000    0.000    0.000    0.000    0.000    0.000 
#    0.000    0.000    0.000    0.000    0.000    0.000 
#
# Total GULP energy -66939.506761 kJ/mol
# GULP energy per Si atom -5578.292230 kJ/mol
# Density = 2.405786 g / cm^3
# Si number density = 24.112746 Si / 1000 Ang^3
#
#
#
# Elastic Constant Matrix: (Units=GPa)
#
#
# Indices 1 2 3 4 5 6 
#
# 1 144.0718 62.9241 47.6333 18.3310 28.6025 16.4618
# 2 62.9241 149.2078 44.3938 10.4601 2.7370 19.4105
# 3 47.6333 44.3938 122.0469 -1.3137 32.5336 11.6907
# 4 18.3310 10.4601 -1.3137 44.6944 5.2301 -2.7751
# 5 28.6025 2.7370 32.5336 5.2301 47.8571 18.3308
# 6 16.4618 19.4105 11.6907 -2.7751 18.3308 41.3366
#
#
#
# Elastic Compliance Matrix: (Units=1/GPa)
#
#
# Indices 1 2 3 4 5 6 
#
# 1 0.010298 -0.003579 -0.001525 -0.002912 -0.004527 -0.000177
# 2 -0.003579 0.009890 -0.003335 -0.001961 0.005995 -0.005066
# 3 -0.001525 -0.003335 0.012019 0.002913 -0.008423 0.002705
# 4 -0.002912 -0.001961 0.002913 0.024989 -0.004797 0.005062
# 5 -0.004527 0.005995 -0.008423 -0.004797 0.035063 -0.014501
# 6 -0.000177 -0.005066 0.002705 0.005062 -0.014501 0.032646
#
#
# Mechanical properties :
#
#
# Convention : Reuss Voigt Hill
#
# Bulk Modulus (GPa) = 65.22979 80.58100 72.90540
# Shear Modulus (GPa) = 34.03878 44.13595 39.08736
#
# Velocity S-wave (km/s) = 3.76127 4.28296 4.03056
# Velocity P-wave (km/s) = 6.78038 7.61244 7.20843
#
# Compressibility (1/GPa) = 0.01533042
#
# Stress axis : x y z
#
# Youngs Moduli (GPa) = 97.10849 101.11250 83.20052
#
# Poissons Ratio (x) = 0.36187 0.12687
# Poissons Ratio (y) = 0.34754 0.27743
# Poissons Ratio (z) = 0.14808 0.33716
#
# Static dielectric constant tensor:
#      x y z
#    x 2.530420 -0.515100 -0.413380 
#    y -0.515100 2.567980 0.267470 
#    z -0.413380 0.267470 2.185190 
# 
# From -- ./inp_files/286934.got.cif
#   From: 2010.05.17/outbox.cif.g08.bks.cpg/sg2_144_cif.got.tgz:286934.got - 2010.06.03 11:33:40.
