data_PCOD9037370
_publ_section_title
;
Structure prediction by ZEFSAII (Michael W. Deem and Ramdas Pophale) SiO2 
 PCOD9037370
Probable space group: P -1
;
_chemical_formula_sum "Si O2"
_cell_formula_units_Z 14
_cell_length_a 14.425773
_cell_length_b 11.672944
_cell_length_c 5.411205
_cell_angle_alpha 104.013109
_cell_angle_beta 94.839134
_cell_angle_gamma 47.210818
_cell_volume 644.669527
_symmetry_space_group_name_H-M "P -1"
_symmetry_group_IT_number 2
_symmetry_cell_setting 'triclinic'
loop_
_space_group_symop_operation_xyz
x,y,z
-x,-y,-z
loop_
_atom_site_type_symbol
_atom_site_label
_atom_site_fract_x
_atom_site_fract_y
_atom_site_fract_z
Si Si1 0.832123 0.124668 0.266672
Si Si2 0.909137 0.945234 0.693902
Si Si3 0.034757 0.365023 0.621061
Si Si4 0.795364 0.646355 0.989514
Si Si5 0.608064 0.926048 0.777000
Si Si6 0.571193 0.479016 0.259087
Si Si7 0.435747 0.244711 0.713540
O O1 0.711843 0.304639 0.241486
O O2 0.956846 0.099753 0.297959
O O3 0.826371 0.068731 0.508285
O O4 0.853056 0.014216 0.990181
O O5 0.938969 0.783424 0.565793
O O6 0.155018 0.311062 0.764821
O O7 0.000000 0.500000 0.500000
O O8 0.912733 0.466467 0.830194
O O9 0.676260 0.671644 0.065327
O O10 0.743614 0.781385 0.844090
O O11 0.589887 0.838355 0.528139
O O12 0.574792 0.085798 0.760489
O O13 0.500000 0.000000 0.000000
O O14 0.500000 0.500000 0.500000
O O15 0.571650 0.620235 0.326812
O O16 0.500000 0.500000 0.000000
#
# Coordination Sequence:
#
# PCOD9037370 Si02
#       7
#     2   2   2   2   2   2   2
#     4  10  24  48  71  99 135 192 233 283 347 413
#     4  10  24  46  74  99 138 183 237 283 346 418
#     4  11  25  40  63 111 136 170 226 289 353 410
#     4  10  23  40  66 102 139 178 220 278 357 423
#     4   9  20  42  66 101 126 183 228 271 350 421
#     4  12  29  48  71 109 140 184 243 296 352 412
#     4  10  23  44  71  95 136 184 226 286 347 424
#
# _framework density 21.716550999999999
#
# number of rings (size 3 to 8) (size 9 to 14) (size 15 to 20)
#    0.000    1.714    0.000    1.714   12.000    3.429 
#   15.429    0.000    0.000    0.000    0.000    0.000 
#    0.000    0.000    0.000    0.000    0.000    0.000 
#
# Total GULP energy -78199.770144 kJ/mol
# GULP energy per Si atom -5585.697867 kJ/mol
# Density = 2.166712 g / cm^3
# Si number density = 21.716551 Si / 1000 Ang^3
#
#
#
# Elastic Constant Matrix: (Units=GPa)
#
#
# Indices 1 2 3 4 5 6 
#
# 1 61.7865 58.0183 29.5541 3.6230 -0.2670 20.4836
# 2 58.0183 163.7496 55.7080 -8.1788 26.2813 14.8232
# 3 29.5541 55.7080 100.5510 -7.8864 8.7333 13.5387
# 4 3.6230 -8.1788 -7.8864 44.1785 -1.7729 10.9987
# 5 -0.2670 26.2813 8.7333 -1.7729 29.9145 2.1570
# 6 20.4836 14.8232 13.5387 10.9987 2.1570 36.9055
#
#
#
# Elastic Compliance Matrix: (Units=1/GPa)
#
#
# Indices 1 2 3 4 5 6 
#
# 1 0.032640 -0.011512 -0.002673 -0.001635 0.012006 -0.012726
# 2 -0.011512 0.012744 -0.002957 0.001744 -0.010509 0.002450
# 3 -0.002673 -0.002957 0.013039 0.002676 -0.000868 -0.002859
# 4 -0.001635 0.001744 0.002676 0.025656 -0.000201 -0.008409
# 5 0.012006 -0.010509 -0.000868 -0.000201 0.043341 -0.004598
# 6 -0.012726 0.002450 -0.002859 -0.008409 -0.004598 0.036999
#
#
# Mechanical properties :
#
#
# Convention : Reuss Voigt Hill
#
# Bulk Modulus (GPa) = 41.42748 68.07198 54.74973
# Shear Modulus (GPa) = 24.18387 34.38681 29.28534
#
# Velocity S-wave (km/s) = 3.34071 3.98356 3.67621
# Velocity P-wave (km/s) = 5.83081 7.25066 6.57915
#
# Compressibility (1/GPa) = 0.02413857
#
# Stress axis : x y z
#
# Youngs Moduli (GPa) = 30.63724 78.47086 76.69010
#
# Poissons Ratio (x) = 0.90335 0.20501
# Poissons Ratio (y) = 0.35269 0.22678
# Poissons Ratio (z) = 0.08190 0.23205
#
# Static dielectric constant tensor:
#      x y z
#    x 1.746070 -0.063990 -0.019000 
#    y -0.063990 1.796610 -0.019860 
#    z -0.019000 -0.019860 1.813240 
# 
# From -- ./inp_files/95358.got.cif
#   From: 2010.05.17/outbox.cif.g08.bks.cpg/sg2_48_cif.got.tgz:95358.got - 2010.06.03 11:33:40.
