data_PCOD9037749
_publ_section_title
;
Structure prediction by ZEFSAII (Michael W. Deem and Ramdas Pophale) SiO2 
 PCOD9037749
Probable space group: P -1
;
_chemical_formula_sum "Si O2"
_cell_formula_units_Z 15
_cell_length_a 7.007011
_cell_length_b 16.522239
_cell_length_c 8.314818
_cell_angle_alpha 115.476038
_cell_angle_beta 91.265577
_cell_angle_gamma 48.241560
_cell_volume 596.207616
_symmetry_space_group_name_H-M "P -1"
_symmetry_group_IT_number 2
_symmetry_cell_setting 'triclinic'
loop_
_space_group_symop_operation_xyz
x,y,z
-x,-y,-z
loop_
_atom_site_type_symbol
_atom_site_label
_atom_site_fract_x
_atom_site_fract_y
_atom_site_fract_z
Si Si1 0.918185 0.918341 0.141603
Si Si2 0.959459 0.574283 0.220462
Si Si3 0.207801 0.972545 0.344499
Si Si4 0.035299 0.387220 0.253959
Si Si5 0.861716 0.764518 0.192157
Si Si6 0.473736 0.213834 0.384053
Si Si7 0.500000 0.500000 0.500000
Si Si8 0.065607 0.806408 0.706024
O O1 0.959947 0.829611 0.203705
O O2 0.159238 0.911504 0.155668
O O3 0.626216 0.068274 0.291077
O O4 0.909396 0.874162 0.930324
O O5 0.030261 0.651477 0.234901
O O6 0.647118 0.695257 0.383494
O O7 0.105849 0.466864 0.271598
O O8 0.000000 0.500000 0.000000
O O9 0.529749 0.874982 0.309702
O O10 0.000000 0.000000 0.500000
O O11 0.109837 0.100178 0.371907
O O12 0.226502 0.291485 0.320870
O O13 0.713670 0.486272 0.377526
O O14 0.094308 0.307685 0.031189
O O15 0.700379 0.197307 0.291572
O O16 0.236659 0.656688 0.584707
#
# Coordination Sequence:
#
# PCOD9037749 Si02
#       8
#     2   2   2   2   2   2   1   2
#     4  11  24  43  68 101 129 168 224 271 323 394
#     4  10  23  41  62  91 131 173 212 265 324 385
#     4  11  25  43  68  98 135 171 214 272 332 386
#     4  11  23  42  67  94 127 174 219 269 324 387
#     4  11  23  44  68  94 133 177 214 266 334 389
#     4  11  22  41  69  92 127 170 219 272 327 384
#     4  12  24  38  68  94 134 164 222 268 326 384
#     4  11  23  43  66  97 131 165 218 277 320 387
#
# _framework density 25.159020999999999
#
# number of rings (size 3 to 8) (size 9 to 14) (size 15 to 20)
#    0.000    1.067    2.667    5.200    1.867    3.200 
#    0.000    0.000    0.000    5.600    0.000    0.000 
#    0.000    0.000    0.000    0.000    0.000    0.000 
#
# Total GULP energy -83577.705406 kJ/mol
# GULP energy per Si atom -5571.847027 kJ/mol
# Density = 2.510176 g / cm^3
# Si number density = 25.159021 Si / 1000 Ang^3
#
#
#
# Elastic Constant Matrix: (Units=GPa)
#
#
# Indices 1 2 3 4 5 6 
#
# 1 52.5936 28.6559 12.6962 2.5589 -10.7796 6.8864
# 2 28.6559 182.0191 41.4195 14.6569 9.2489 48.5229
# 3 12.6962 41.4195 148.4804 0.9989 -8.0081 -6.2272
# 4 2.5589 14.6569 0.9989 34.7200 5.7027 -2.6788
# 5 -10.7796 9.2489 -8.0081 5.7027 26.2511 1.0707
# 6 6.8864 48.5229 -6.2272 -2.6788 1.0707 45.4538
#
#
#
# Elastic Compliance Matrix: (Units=1/GPa)
#
#
# Indices 1 2 3 4 5 6 
#
# 1 0.023790 -0.004311 -0.000169 -0.001788 0.011601 0.000597
# 2 -0.004311 0.010446 -0.003258 -0.004010 -0.005122 -0.011060
# 3 -0.000169 -0.003258 0.008012 0.000999 0.003119 0.004587
# 4 -0.001788 -0.004010 0.000999 0.032148 -0.006275 0.006731
# 5 0.011601 -0.005122 0.003119 -0.006275 0.046868 0.002664
# 6 0.000597 -0.011060 0.004587 0.006731 0.002664 0.034679
#
#
# Mechanical properties :
#
#
# Convention : Reuss Voigt Hill
#
# Bulk Modulus (GPa) = 37.35436 60.95960 49.15698
# Shear Modulus (GPa) = 27.72490 41.30642 34.51566
#
# Velocity S-wave (km/s) = 3.32322 4.05633 3.70794
# Velocity P-wave (km/s) = 5.44101 6.79858 6.15732
#
# Compressibility (1/GPa) = 0.02677064
#
# Stress axis : x y z
#
# Youngs Moduli (GPa) = 42.03422 95.73305 124.81069
#
# Poissons Ratio (x) = 0.41275 0.02107
# Poissons Ratio (y) = 0.18123 0.40668
# Poissons Ratio (z) = 0.00710 0.31193
#
# Static dielectric constant tensor:
#      x y z
#    x 1.965360 0.030860 0.058500 
#    y 0.030860 2.042970 -0.042080 
#    z 0.058500 -0.042080 2.012050 
# 
# From -- ./inp_files/207649.got.cif
#   From: 2010.05.17/outbox.cif.g08.bks.cpg/sg2_104_cif.got.tgz:207649.got - 2010.06.03 11:33:40.
