data_PCOD9037536
_publ_section_title
;
Structure prediction by ZEFSAII (Michael W. Deem and Ramdas Pophale) SiO2 
 PCOD9037536
Probable space group: P -1
;
_chemical_formula_sum "Si O2"
_cell_formula_units_Z 12
_cell_length_a 12.868925
_cell_length_b 22.853627
_cell_length_c 7.268665
_cell_angle_alpha 146.944720
_cell_angle_beta 39.044777
_cell_angle_gamma 158.592457
_cell_volume 425.523796
_symmetry_space_group_name_H-M "P -1"
_symmetry_group_IT_number 2
_symmetry_cell_setting 'triclinic'
loop_
_space_group_symop_operation_xyz
x,y,z
-x,-y,-z
loop_
_atom_site_type_symbol
_atom_site_label
_atom_site_fract_x
_atom_site_fract_y
_atom_site_fract_z
Si Si1 0.703428 0.905634 0.651604
Si Si2 0.497302 0.558563 0.462808
Si Si3 0.886908 0.430427 0.262089
Si Si4 0.884783 0.199881 0.755394
Si Si5 0.685069 0.875874 0.163415
Si Si6 0.914427 0.247224 0.254608
O O1 0.449386 0.724160 0.646223
O O2 0.639036 0.859057 0.400897
O O3 0.000000 0.000000 0.500000
O O4 0.748065 0.053093 0.040876
O O5 0.500000 0.500000 0.500000
O O6 0.239939 0.388266 0.237257
O O7 0.812251 0.692561 0.320733
O O8 0.487610 0.679036 0.838539
O O9 0.054638 0.607021 0.376163
O O10 0.000000 0.500000 0.500000
O O11 0.914293 0.317164 0.890273
O O12 0.685580 0.999721 0.426121
O O13 0.802308 0.190661 0.049013
O O14 0.000000 0.000000 0.000000
#
# Coordination Sequence:
#
# PCOD9037536 Si02
#       6
#     2   2   2   2   2   2
#     4  11  24  40  71  98 125 172 230 267 317 395
#     4  11  22  38  65  96 129 169 219 263 330 390
#     4  10  24  41  69  97 133 168 224 274 327 372
#     4   9  21  42  64  88 128 171 216 270 319 379
#     4   9  21  38  62  93 131 169 213 267 332 379
#     4  10  23  40  68  95 127 168 225 269 318 385
#
# _framework density 28.200538000000002
#
# number of rings (size 3 to 8) (size 9 to 14) (size 15 to 20)
#    0.000    2.000    0.000    1.500   16.333    6.000 
#    0.000    1.667    0.000    0.000    0.000    0.000 
#    0.000    0.000    0.000    0.000    0.000    0.000 
#
# Total GULP energy -67066.211360 kJ/mol
# GULP energy per Si atom -5588.850947 kJ/mol
# Density = 2.813635 g / cm^3
# Si number density = 28.200538 Si / 1000 Ang^3
#
#
#
# Elastic Constant Matrix: (Units=GPa)
#
#
# Indices 1 2 3 4 5 6 
#
# 1 132.5503 47.6197 61.1408 8.4491 -3.9306 -11.0914
# 2 47.6197 119.1529 62.2978 11.4507 3.8622 18.2389
# 3 61.1408 62.2978 173.2312 20.0037 -21.1289 -13.2561
# 4 8.4491 11.4507 20.0037 50.2856 10.2186 -10.8947
# 5 -3.9306 3.8622 -21.1289 10.2186 40.2862 0.7563
# 6 -11.0914 18.2389 -13.2561 -10.8947 0.7563 53.1739
#
#
#
# Elastic Compliance Matrix: (Units=1/GPa)
#
#
# Indices 1 2 3 4 5 6 
#
# 1 0.009932 -0.003312 -0.002172 0.000562 -0.000047 0.002782
# 2 -0.003312 0.013239 -0.004336 -0.001471 -0.003370 -0.006566
# 3 -0.002172 -0.004336 0.009355 -0.002971 0.005814 0.002675
# 4 0.000562 -0.001471 -0.002971 0.023894 -0.007515 0.004884
# 5 -0.000047 -0.003370 0.005814 -0.007515 0.030084 0.000628
# 6 0.002782 -0.006566 0.002675 0.004884 0.000628 0.023297
#
#
# Mechanical properties :
#
#
# Convention : Reuss Voigt Hill
#
# Bulk Modulus (GPa) = 77.60007 85.22789 81.41398
# Shear Modulus (GPa) = 37.38719 45.67421 41.53070
#
# Velocity S-wave (km/s) = 3.64505 4.02882 3.84173
# Velocity P-wave (km/s) = 6.72995 7.20621 6.97215
#
# Compressibility (1/GPa) = 0.01288659
#
# Stress axis : x y z
#
# Youngs Moduli (GPa) = 100.68919 75.53633 106.89115
#
# Poissons Ratio (x) = 0.25016 0.23217
# Poissons Ratio (y) = 0.33346 0.46344
# Poissons Ratio (z) = 0.21870 0.32750
#
# Static dielectric constant tensor:
#      x y z
#    x 5.737180 -0.142030 0.889440 
#    y -0.142030 2.461300 -0.191770 
#    z 0.889440 -0.191770 2.527460 
# 
# From -- ./inp_files/170087.got.cif
#   From: 2010.05.17/outbox.cif.g08.bks.cpg/sg2_86_cif.got.tgz:170087.got - 2010.06.03 11:33:40.
