data_PCOD9037764
_publ_section_title
;
Structure prediction by ZEFSAII (Michael W. Deem and Ramdas Pophale) SiO2 
 PCOD9037764
Probable space group: P -1
;
_chemical_formula_sum "Si O2"
_cell_formula_units_Z 16
_cell_length_a 17.650184
_cell_length_b 5.144115
_cell_length_c 28.695384
_cell_angle_alpha 112.505003
_cell_angle_beta 159.241343
_cell_angle_gamma 77.697780
_cell_volume 765.100003
_symmetry_space_group_name_H-M "P -1"
_symmetry_group_IT_number 2
_symmetry_cell_setting 'triclinic'
loop_
_space_group_symop_operation_xyz
x,y,z
-x,-y,-z
loop_
_atom_site_type_symbol
_atom_site_label
_atom_site_fract_x
_atom_site_fract_y
_atom_site_fract_z
Si Si1 0.494204 0.071083 0.630812
Si Si2 0.892907 0.354209 0.083624
Si Si3 0.897953 0.335297 0.380539
Si Si4 0.632749 0.720538 0.234822
Si Si5 0.325607 0.882048 0.622937
Si Si6 0.745831 0.728359 0.849564
Si Si7 0.987858 0.771139 0.077819
Si Si8 0.357160 0.714292 0.433283
O O1 0.594684 0.446554 0.708592
O O2 0.743794 0.043700 0.774169
O O3 0.351221 0.984225 0.590972
O O4 0.360857 0.861535 0.496085
O O5 0.990737 0.552834 0.106122
O O6 0.088038 0.528894 0.247386
O O7 0.891912 0.016783 0.055648
O O8 0.631794 0.339654 0.936140
O O9 0.684093 0.420427 0.248628
O O10 0.000000 0.500000 0.500000
O O11 0.113002 0.533279 0.483200
O O12 0.807457 0.970644 0.314776
O O13 0.693136 0.888532 0.332389
O O14 0.571075 0.868512 0.775098
O O15 0.812834 0.575994 0.922429
O O16 0.000000 0.000000 0.000000
O O17 0.500000 0.500000 0.500000
O O18 0.500000 0.000000 0.500000
#
# Coordination Sequence:
#
# PCOD9037764 Si02
#       8
#     2   2   2   2   2   2   2   2
#     4  12  26  39  64  92 136 179 215 261 324 387
#     4  12  23  42  67  91 125 178 216 267 317 374
#     4  10  23  41  62  94 129 166 211 270 325 394
#     4  11  23  41  65  92 129 165 218 267 330 381
#     4  11  24  37  64  92 134 166 210 263 336 387
#     4  12  25  38  59  99 139 170 207 255 331 411
#     4  12  23  40  61  93 135 167 209 256 322 392
#     4  12  26  45  65  91 133 177 227 268 309 382
#
# _framework density 20.912299999999998
#
# number of rings (size 3 to 8) (size 9 to 14) (size 15 to 20)
#    0.000    0.500    5.000    4.125    8.750    0.000 
#    0.000    0.000    0.000    1.500    0.000    0.000 
#    0.000    0.000    0.000    0.000    0.000    0.000 
#
# Total GULP energy -89446.915463 kJ/mol
# GULP energy per Si atom -5590.432216 kJ/mol
# Density = 2.086470 g / cm^3
# Si number density = 20.912300 Si / 1000 Ang^3
#
#
#
# Elastic Constant Matrix: (Units=GPa)
#
#
# Indices 1 2 3 4 5 6 
#
# 1 92.3756 22.3985 33.9837 15.4260 7.5085 14.7900
# 2 22.3985 84.3010 15.6332 -4.0139 -4.4259 12.3805
# 3 33.9837 15.6332 100.2598 -0.3963 -1.5909 -5.2468
# 4 15.4260 -4.0139 -0.3963 33.8108 -4.7067 2.7927
# 5 7.5085 -4.4259 -1.5909 -4.7067 42.3498 6.3580
# 6 14.7900 12.3805 -5.2468 2.7927 6.3580 27.3481
#
#
#
# Elastic Compliance Matrix: (Units=1/GPa)
#
#
# Indices 1 2 3 4 5 6 
#
# 1 0.016179 -0.002775 -0.005500 -0.007634 -0.003157 -0.007035
# 2 -0.002775 0.014183 -0.001537 0.003920 0.003311 -0.006385
# 3 -0.005500 -0.001537 0.012394 0.002095 0.000660 0.005681
# 4 -0.007634 0.003920 0.002095 0.034565 0.006009 -0.002171
# 5 -0.003157 0.003311 0.000660 0.006009 0.026166 -0.006361
# 6 -0.007035 -0.006385 0.005681 -0.002171 -0.006361 0.046051
#
#
# Mechanical properties :
#
#
# Convention : Reuss Voigt Hill
#
# Bulk Modulus (GPa) = 43.22920 46.77412 45.00166
# Shear Modulus (GPa) = 28.26885 34.36313 31.31599
#
# Velocity S-wave (km/s) = 3.68065 4.05804 3.87394
# Velocity P-wave (km/s) = 6.22731 6.66125 6.44793
#
# Compressibility (1/GPa) = 0.02313251
#
# Stress axis : x y z
#
# Youngs Moduli (GPa) = 61.80684 70.50856 80.68416
#
# Poissons Ratio (x) = 0.19566 0.44375
# Poissons Ratio (y) = 0.17151 0.12401
# Poissons Ratio (z) = 0.33993 0.10837
#
# Static dielectric constant tensor:
#      x y z
#    x 1.799290 0.021190 0.027550 
#    y 0.021190 1.810060 -0.010840 
#    z 0.027550 -0.010840 1.769840 
# 
# From -- ./inp_files/623804.got.cif
#   From: 2010.05.17/outbox.cif.g08.bks.cpg/sg2_312_cif.got.tgz:623804.got - 2010.06.03 11:33:40.
