data_PCOD9037359
_publ_section_title
;
Structure prediction by ZEFSAII (Michael W. Deem and Ramdas Pophale) SiO2 
 PCOD9037359
Probable space group: P -1
;
_chemical_formula_sum "Si O2"
_cell_formula_units_Z 14
_cell_length_a 12.652827
_cell_length_b 13.902000
_cell_length_c 12.147658
_cell_angle_alpha 138.605954
_cell_angle_beta 35.670841
_cell_angle_gamma 149.486067
_cell_volume 623.458535
_symmetry_space_group_name_H-M "P -1"
_symmetry_group_IT_number 2
_symmetry_cell_setting 'triclinic'
loop_
_space_group_symop_operation_xyz
x,y,z
-x,-y,-z
loop_
_atom_site_type_symbol
_atom_site_label
_atom_site_fract_x
_atom_site_fract_y
_atom_site_fract_z
Si Si1 0.276682 0.860767 0.148568
Si Si2 0.350180 0.065825 0.667867
Si Si3 0.497374 0.785754 0.576635
Si Si4 0.474019 0.619176 0.040132
Si Si5 0.930339 0.873493 0.342525
Si Si6 0.961639 0.448454 0.749510
Si Si7 0.896108 0.790496 0.683548
O O1 0.055169 0.789899 0.196692
O O2 0.199058 0.672642 0.112048
O O3 0.356285 0.006880 0.309912
O O4 0.500000 0.000000 0.000000
O O5 0.463265 0.192964 0.569601
O O6 0.389358 0.179263 0.840409
O O7 0.500000 0.000000 0.500000
O O8 0.074546 0.891765 0.723846
O O9 0.645155 0.723488 0.440901
O O10 0.221127 0.652782 0.725862
O O11 0.207080 0.538244 0.171684
O O12 0.500000 0.500000 0.000000
O O13 0.623346 0.655009 0.836609
O O14 0.042731 0.031501 0.285730
O O15 0.000000 0.000000 0.500000
O O16 0.037233 0.328860 0.532287
#
# Coordination Sequence:
#
# PCOD9037359 Si02
#       7
#     2   2   2   2   2   2   2
#     4  11  22  44  69  95 136 175 222 285 341 405
#     4  11  21  43  71  92 133 188 224 273 345 398
#     4  10  23  40  65  99 129 174 227 271 339 408
#     4  12  27  42  63 105 138 178 233 284 335 403
#     4   9  18  41  65  94 125 168 224 268 334 402
#     4  12  24  45  69  98 140 178 224 285 341 406
#     4  11  22  43  69  97 132 181 230 275 337 412
#
# _framework density 22.455383999999999
#
# number of rings (size 3 to 8) (size 9 to 14) (size 15 to 20)
#    0.000    1.143    5.714    2.143    2.000    2.286 
#   10.286    0.000    0.000    0.000    0.000    0.000 
#    0.000    0.000    0.000    0.000    0.000    0.000 
#
# Total GULP energy -78090.830721 kJ/mol
# GULP energy per Si atom -5577.916480 kJ/mol
# Density = 2.240427 g / cm^3
# Si number density = 22.455384 Si / 1000 Ang^3
#
#
#
# Elastic Constant Matrix: (Units=GPa)
#
#
# Indices 1 2 3 4 5 6 
#
# 1 132.3951 26.8683 19.1142 -12.7687 -29.1969 11.9769
# 2 26.8683 69.2015 15.5894 -15.3533 -12.6109 15.3399
# 3 19.1142 15.5894 78.2155 -12.8908 -0.5333 2.1011
# 4 -12.7687 -15.3533 -12.8908 34.0005 -2.0256 -5.4240
# 5 -29.1969 -12.6109 -0.5333 -2.0256 30.4506 -6.3682
# 6 11.9769 15.3399 2.1011 -5.4240 -6.3682 32.2153
#
#
#
# Elastic Compliance Matrix: (Units=1/GPa)
#
#
# Indices 1 2 3 4 5 6 
#
# 1 0.010543 -0.001017 -0.001744 0.003281 0.009698 -0.000853
# 2 -0.001017 0.019411 -0.002275 0.006876 0.006155 -0.006342
# 3 -0.001744 -0.002275 0.014246 0.003776 -0.001891 0.001064
# 4 0.003281 0.006876 0.003776 0.036229 0.009131 0.003165
# 5 0.009698 0.006155 -0.001891 0.009131 0.046150 0.004247
# 6 -0.000853 -0.006342 0.001064 0.003165 0.004247 0.035681
#
#
# Mechanical properties :
#
#
# Convention : Reuss Voigt Hill
#
# Bulk Modulus (GPa) = 29.30087 44.77289 37.03688
# Shear Modulus (GPa) = 27.21720 33.88262 30.54991
#
# Velocity S-wave (km/s) = 3.48524 3.88865 3.69246
# Velocity P-wave (km/s) = 5.41042 6.33593 5.89138
#
# Compressibility (1/GPa) = 0.03412868
#
# Stress axis : x y z
#
# Youngs Moduli (GPa) = 94.84564 51.51785 70.19676
#
# Poissons Ratio (x) = 0.05237 0.12244
# Poissons Ratio (y) = 0.09641 0.15969
# Poissons Ratio (z) = 0.16543 0.11720
#
# Static dielectric constant tensor:
#      x y z
#    x 1.872140 -0.055930 -0.064210 
#    y -0.055930 1.818920 0.014350 
#    z -0.064210 0.014350 2.011250 
# 
# From -- ./inp_files/433181.got.cif
#   From: 2010.05.17/outbox.cif.g08.bks.cpg/sg2_217_cif.got.tgz:433181.got - 2010.06.03 11:33:40.
