data_PCOD9037295
_publ_section_title
;
Structure prediction by ZEFSAII (Michael W. Deem and Ramdas Pophale) SiO2 
 PCOD9037295
Probable space group: P -1
;
_chemical_formula_sum "Si O2"
_cell_formula_units_Z 16
_cell_length_a 14.290393
_cell_length_b 5.112630
_cell_length_c 11.809822
_cell_angle_alpha 100.352465
_cell_angle_beta 129.544253
_cell_angle_gamma 74.714674
_cell_volume 641.747987
_symmetry_space_group_name_H-M "P -1"
_symmetry_group_IT_number 2
_symmetry_cell_setting 'triclinic'
loop_
_space_group_symop_operation_xyz
x,y,z
-x,-y,-z
loop_
_atom_site_type_symbol
_atom_site_label
_atom_site_fract_x
_atom_site_fract_y
_atom_site_fract_z
Si Si1 0.239054 0.381537 0.727344
Si Si2 0.520425 0.630717 0.212558
Si Si3 0.728787 0.843837 0.505081
Si Si4 0.150013 0.613176 0.069145
Si Si5 0.311408 0.026593 0.160048
Si Si6 0.485105 0.688564 0.612329
Si Si7 0.048307 0.024016 0.206339
Si Si8 0.090221 0.985727 0.675662
O O1 0.384569 0.391870 0.820775
O O2 0.204766 0.265375 0.569571
O O3 0.190156 0.180311 0.759299
O O4 0.166498 0.680731 0.716780
O O5 0.610838 0.700268 0.391058
O O6 0.480787 0.389103 0.233800
O O7 0.399196 0.860204 0.117105
O O8 0.655929 0.152487 0.473338
O O9 0.832233 0.836021 0.677547
O O10 0.205548 0.293470 0.079039
O O11 0.078623 0.747128 0.135946
O O12 0.258683 0.785585 0.158360
O O13 0.057876 0.746612 0.910417
O O14 0.412533 0.129424 0.322504
O O15 0.500000 0.500000 0.500000
O O16 0.999389 0.946932 0.282238
O O17 0.000000 0.000000 0.500000
#
# Coordination Sequence:
#
# PCOD9037295 Si02
#       8
#     2   2   2   2   2   2   2   2
#     4  10  23  40  65 100 133 164 218 271 358 392
#     4   9  21  38  67  99 135 169 214 284 349 392
#     4   9  21  37  62 101 134 175 205 285 342 401
#     4  11  27  47  65 100 133 195 225 268 326 404
#     4  11  23  44  69  94 136 178 235 270 330 410
#     4  11  21  36  65 104 136 178 221 283 349 404
#     4  11  26  45  68  95 144 180 231 275 328 411
#     4  12  23  42  66  99 131 180 220 283 338 395
#
# _framework density 24.931903999999999
#
# number of rings (size 3 to 8) (size 9 to 14) (size 15 to 20)
#    0.750    0.750    2.500    1.875    1.750    5.000 
#    2.250    0.000    0.000    4.500    0.000    0.000 
#    0.000    0.000    0.000    0.000    0.000    0.000 
#
# Total GULP energy -89206.574207 kJ/mol
# GULP energy per Si atom -5575.410888 kJ/mol
# Density = 2.487516 g / cm^3
# Si number density = 24.931904 Si / 1000 Ang^3
#
#
#
# Elastic Constant Matrix: (Units=GPa)
#
#
# Indices 1 2 3 4 5 6 
#
# 1 118.6494 42.9989 20.0145 -11.7939 8.7025 1.1378
# 2 42.9989 102.4188 -9.3372 -16.0523 -2.5572 2.9565
# 3 20.0145 -9.3372 44.6897 -10.5683 1.2036 -3.8762
# 4 -11.7939 -16.0523 -10.5683 16.5912 4.3377 7.7535
# 5 8.7025 -2.5572 1.2036 4.3377 21.5272 0.0889
# 6 1.1378 2.9565 -3.8762 7.7535 0.0889 30.6794
#
#
#
# Elastic Compliance Matrix: (Units=1/GPa)
#
#
# Indices 1 2 3 4 5 6 
#
# 1 0.011994 -0.005546 -0.006221 0.001041 -0.005365 -0.000944
# 2 -0.005546 0.016591 0.010607 0.021632 -0.000716 -0.005518
# 3 -0.006221 0.010607 0.034434 0.030892 -0.004358 -0.004236
# 4 0.001041 0.021632 0.030892 0.121338 -0.023909 -0.028816
# 5 -0.005365 -0.000716 -0.004358 -0.023909 0.053575 0.005605
# 6 -0.000944 -0.005518 -0.004236 -0.028816 0.005605 0.039893
#
#
# Mechanical properties :
#
#
# Convention : Reuss Voigt Hill
#
# Bulk Modulus (GPa) = 16.47529 41.45670 28.96600
# Shear Modulus (GPa) = 16.64564 27.89835 22.27199
#
# Velocity S-wave (km/s) = 2.58668 3.34875 2.99208
# Velocity P-wave (km/s) = 3.94255 5.62283 4.85592
#
# Compressibility (1/GPa) = 0.06069697
#
# Stress axis : x y z
#
# Youngs Moduli (GPa) = 83.37775 60.27334 29.04074
#
# Poissons Ratio (x) = 0.33428 0.18068
# Poissons Ratio (y) = 0.46243 -0.30802
# Poissons Ratio (z) = 0.51873 -0.63929
#
# Static dielectric constant tensor:
#      x y z
#    x 2.095300 0.122590 0.055010 
#    y 0.122590 2.107420 0.048420 
#    z 0.055010 0.048420 2.028640 
# 
# From -- ./inp_files/524841.got.cif
#   From: 2010.05.17/outbox.cif.g08.bks.cpg/sg2_263_cif.got.tgz:524841.got - 2010.06.03 11:33:40.
