data_PCOD9037851
_publ_section_title
;
Structure prediction by ZEFSAII (Michael W. Deem and Ramdas Pophale) SiO2 
 PCOD9037851
Probable space group: P -1
;
_chemical_formula_sum "Si O2"
_cell_formula_units_Z 16
_cell_length_a 12.856679
_cell_length_b 18.485035
_cell_length_c 8.694365
_cell_angle_alpha 121.347467
_cell_angle_beta 148.606625
_cell_angle_gamma 41.723429
_cell_volume 674.406757
_symmetry_space_group_name_H-M "P -1"
_symmetry_group_IT_number 2
_symmetry_cell_setting 'triclinic'
loop_
_space_group_symop_operation_xyz
x,y,z
-x,-y,-z
loop_
_atom_site_type_symbol
_atom_site_label
_atom_site_fract_x
_atom_site_fract_y
_atom_site_fract_z
Si Si1 0.127759 0.548982 0.785664
Si Si2 0.843738 0.145567 0.114639
Si Si3 0.487182 0.788148 0.935189
Si Si4 0.373518 0.253913 0.415887
Si Si5 0.407350 0.937278 0.738795
Si Si6 0.428183 0.378566 0.363948
Si Si7 0.278501 0.608454 0.482871
Si Si8 0.018020 0.712335 0.584544
O O1 0.897087 0.650953 0.722484
O O2 0.168160 0.599066 0.747333
O O3 0.000000 0.500000 0.500000
O O4 0.420823 0.462258 0.140823
O O5 0.704856 0.195749 0.161958
O O6 0.892778 0.221381 0.181616
O O7 0.622696 0.165732 0.749894
O O8 0.138276 0.024514 0.392576
O O9 0.342840 0.888555 0.738683
O O10 0.649189 0.668100 0.915458
O O11 0.701433 0.786105 0.288304
O O12 0.368883 0.174959 0.208052
O O13 0.434024 0.320269 0.460436
O O14 0.500000 0.000000 0.000000
O O15 0.254126 0.514342 0.317088
O O16 0.703037 0.340532 0.592655
O O17 0.072502 0.690738 0.447708
#
# Coordination Sequence:
#
# PCOD9037851 Si02
#       8
#     2   2   2   2   2   2   2   2
#     4  12  24  42  68 104 146 186 235 286 356 412
#     4  12  23  47  71 102 140 183 235 290 355 419
#     4  11  23  44  70 100 137 190 231 293 353 419
#     4  11  25  44  71 104 147 183 235 292 353 419
#     4  11  25  46  74 105 138 186 238 296 356 421
#     4  10  23  41  63  99 142 184 235 288 352 412
#     4  11  23  39  65 100 140 190 234 287 345 421
#     4  12  23  41  71 100 143 182 241 284 352 415
#
# _framework density 23.724554999999999
#
# number of rings (size 3 to 8) (size 9 to 14) (size 15 to 20)
#    0.000    0.750    3.750    4.125    0.000    6.000 
#    0.000    3.750    0.000    0.000    0.000    0.000 
#    0.000    0.000    0.000    0.000    0.000    0.000 
#
# Total GULP energy -89441.462326 kJ/mol
# GULP energy per Si atom -5590.091395 kJ/mol
# Density = 2.367056 g / cm^3
# Si number density = 23.724555 Si / 1000 Ang^3
#
#
#
# Elastic Constant Matrix: (Units=GPa)
#
#
# Indices 1 2 3 4 5 6 
#
# 1 107.2703 30.6707 22.0450 1.7180 7.0162 9.1472
# 2 30.6707 77.1083 45.2988 20.7359 3.7501 -2.0388
# 3 22.0450 45.2988 113.3877 1.5773 -3.9039 0.9431
# 4 1.7180 20.7359 1.5773 35.3371 1.7888 0.3071
# 5 7.0162 3.7501 -3.9039 1.7888 35.3054 -1.8093
# 6 9.1472 -2.0388 0.9431 0.3071 -1.8093 46.8608
#
#
#
# Elastic Compliance Matrix: (Units=1/GPa)
#
#
# Indices 1 2 3 4 5 6 
#
# 1 0.011071 -0.004859 -0.000292 0.002447 -0.001966 -0.002458
# 2 -0.004859 0.023442 -0.008314 -0.013083 -0.001670 0.002157
# 3 -0.000292 -0.008314 0.012213 0.004248 0.002051 -0.000499
# 4 0.002447 -0.013083 0.004248 0.035705 -0.000507 -0.001386
# 5 -0.001966 -0.001670 0.002051 -0.000507 0.029217 0.001401
# 6 -0.002458 0.002157 -0.000499 -0.001386 0.001401 0.021987
#
#
# Mechanical properties :
#
#
# Convention : Reuss Voigt Hill
#
# Bulk Modulus (GPa) = 50.51749 54.86611 52.69180
# Shear Modulus (GPa) = 29.91070 36.81746 33.36408
#
# Velocity S-wave (km/s) = 3.55455 3.94365 3.75415
# Velocity P-wave (km/s) = 6.17949 6.62669 6.40699
#
# Compressibility (1/GPa) = 0.01979512
#
# Stress axis : x y z
#
# Youngs Moduli (GPa) = 90.32836 42.65800 81.87801
#
# Poissons Ratio (x) = 0.20728 0.02394
# Poissons Ratio (y) = 0.43892 0.68073
# Poissons Ratio (z) = 0.02641 0.35466
#
# Static dielectric constant tensor:
#      x y z
#    x 1.928530 0.008270 -0.039000 
#    y 0.008270 1.937950 -0.010370 
#    z -0.039000 -0.010370 1.911370 
# 
# From -- ./inp_files/279742.got.cif
#   From: 2010.05.17/outbox.cif.g08.bks.cpg/sg2_140_cif.got.tgz:279742.got - 2010.06.03 11:33:40.
