data_PCOD9037111
_publ_section_title
;
Structure prediction by ZEFSAII (Michael W. Deem and Ramdas Pophale) SiO2 
 PCOD9037111
Probable space group: P -1
;
_chemical_formula_sum "Si O2"
_cell_formula_units_Z 14
_cell_length_a 14.660528
_cell_length_b 6.613381
_cell_length_c 12.883962
_cell_angle_alpha 69.623383
_cell_angle_beta 36.261784
_cell_angle_gamma 53.824973
_cell_volume 574.672549
_symmetry_space_group_name_H-M "P -1"
_symmetry_group_IT_number 2
_symmetry_cell_setting 'triclinic'
loop_
_space_group_symop_operation_xyz
x,y,z
-x,-y,-z
loop_
_atom_site_type_symbol
_atom_site_label
_atom_site_fract_x
_atom_site_fract_y
_atom_site_fract_z
Si Si1 0.210955 0.179772 0.437798
Si Si2 0.144374 0.275586 0.260187
Si Si3 0.710535 0.459612 0.022202
Si Si4 0.506109 0.776101 0.726783
Si Si5 0.777975 0.370417 0.204666
Si Si6 0.394778 0.895122 0.517219
Si Si7 0.107945 0.096889 0.109156
O O1 0.196595 0.110588 0.346248
O O2 0.021866 0.436395 0.604244
O O3 0.054483 0.724854 0.853631
O O4 0.289501 0.953947 0.491448
O O5 0.308126 0.304063 0.063046
O O6 0.078251 0.194663 0.235838
O O7 0.844574 0.193880 0.883830
O O8 0.808497 0.420141 0.050166
O O9 0.530602 0.448955 0.209896
O O10 0.641381 0.736847 0.703193
O O11 0.582943 0.861168 0.545393
O O12 0.303826 0.029559 0.895535
O O13 0.594098 0.629579 0.369344
O O14 0.728317 0.151265 0.284238
#
# Coordination Sequence:
#
# PCOD9037111 Si02
#       7
#     2   2   2   2   2   2   2
#     4   9  22  44  63  95 122 169 205 272 302 377
#     4  11  22  43  72  84 131 166 212 254 326 359
#     4  10  23  40  61 100 121 171 203 261 307 381
#     4   8  21  40  58  92 128 152 213 250 317 348
#     4  11  21  40  66  91 133 166 210 250 326 364
#     4   9  21  41  61  94 126 165 206 265 302 379
#     4  10  23  41  61 101 119 170 207 259 306 381
#
# _framework density 24.361699999999999
#
# number of rings (size 3 to 8) (size 9 to 14) (size 15 to 20)
#    1.714    0.571    0.000    2.143    0.000    6.286 
#    2.571    6.429    0.000    0.000    0.000    0.000 
#    0.000    0.000    0.000    0.000    0.000    0.000 
#
# Total GULP energy -78107.138964 kJ/mol
# GULP energy per Si atom -5579.081355 kJ/mol
# Density = 2.430625 g / cm^3
# Si number density = 24.361700 Si / 1000 Ang^3
#
#
#
# Elastic Constant Matrix: (Units=GPa)
#
#
# Indices 1 2 3 4 5 6 
#
# 1 73.6190 5.5527 35.9822 0.2808 7.7123 8.4617
# 2 5.5527 49.5985 23.5673 -0.6557 5.7713 5.3434
# 3 35.9822 23.5673 73.2474 -3.8449 14.3418 2.7772
# 4 0.2808 -0.6557 -3.8449 17.4347 7.9433 6.6492
# 5 7.7123 5.7713 14.3418 7.9433 43.8983 9.9095
# 6 8.4617 5.3434 2.7772 6.6492 9.9095 29.2178
#
#
#
# Elastic Compliance Matrix: (Units=1/GPa)
#
#
# Indices 1 2 3 4 5 6 
#
# 1 0.018910 0.003249 -0.010379 -0.000935 0.000986 -0.005206
# 2 0.003249 0.024758 -0.009398 0.000522 0.000227 -0.004771
# 3 -0.010379 -0.009398 0.023272 0.006679 -0.006472 0.003188
# 4 -0.000935 0.000522 0.006679 0.068870 -0.011811 -0.012127
# 5 0.000986 0.000227 -0.006472 -0.011811 0.028325 -0.006631
# 6 -0.005206 -0.004771 0.003188 -0.012127 -0.006631 0.041312
#
#
# Mechanical properties :
#
#
# Convention : Reuss Voigt Hill
#
# Bulk Modulus (GPa) = 29.51362 36.29658 32.90510
# Shear Modulus (GPa) = 20.01607 26.86768 23.44188
#
# Velocity S-wave (km/s) = 2.86950 3.32454 3.10537
# Velocity P-wave (km/s) = 4.80830 5.44685 5.13751
#
# Compressibility (1/GPa) = 0.03388266
#
# Stress axis : x y z
#
# Youngs Moduli (GPa) = 52.88179 40.39060 42.97026
#
# Poissons Ratio (x) = -0.13121 0.44601
# Poissons Ratio (y) = -0.17179 0.40383
# Poissons Ratio (z) = 0.54888 0.37959
#
# Static dielectric constant tensor:
#      x y z
#    x 1.997240 0.051930 -0.029960 
#    y 0.051930 1.923740 -0.048380 
#    z -0.029960 -0.048380 1.963440 
# 
# From -- ./inp_files/441005.got.cif
#   From: 2010.05.17/outbox.cif.g08.bks.cpg/sg2_221_cif.got.tgz:441005.got - 2010.06.03 11:33:40.
