data_PCOD9037074
_publ_section_title
;
Structure prediction by ZEFSAII (Michael W. Deem and Ramdas Pophale) SiO2 
 PCOD9037074
Probable space group: P -1
;
_chemical_formula_sum "Si O2"
_cell_formula_units_Z 14
_cell_length_a 7.737043
_cell_length_b 9.467374
_cell_length_c 13.973734
_cell_angle_alpha 141.263031
_cell_angle_beta 114.356863
_cell_angle_gamma 76.937379
_cell_volume 575.208624
_symmetry_space_group_name_H-M "P -1"
_symmetry_group_IT_number 2
_symmetry_cell_setting 'triclinic'
loop_
_space_group_symop_operation_xyz
x,y,z
-x,-y,-z
loop_
_atom_site_type_symbol
_atom_site_label
_atom_site_fract_x
_atom_site_fract_y
_atom_site_fract_z
Si Si1 0.341514 0.160377 0.661425
Si Si2 0.678703 0.863506 0.141892
Si Si3 0.557140 0.595108 0.668407
Si Si4 0.264747 0.889305 0.013857
Si Si5 0.854197 0.294298 0.308768
Si Si6 0.723829 0.281015 0.691119
Si Si7 0.150252 0.497728 0.909083
O O1 0.363886 0.059395 0.719341
O O2 0.549459 0.232266 0.700056
O O3 0.221698 0.364122 0.761805
O O4 0.234223 0.964049 0.465495
O O5 0.484967 0.844037 0.026887
O O6 0.841548 0.053309 0.235115
O O7 0.645880 0.415105 0.656715
O O8 0.500000 0.500000 0.500000
O O9 0.356793 0.638856 0.691056
O O10 0.703591 0.836648 0.828772
O O11 0.133317 0.776388 0.836878
O O12 0.195832 0.760522 0.028699
O O13 0.000000 0.500000 0.500000
O O14 0.929148 0.418658 0.838405
O O15 0.732253 0.616426 0.044350
#
# Coordination Sequence:
#
# PCOD9037074 Si02
#       7
#     2   2   2   2   2   2   2
#     4   9  22  38  68  97 148 180 237 289 360 411
#     4   9  21  43  66 100 138 185 230 294 353 418
#     4  11  25  44  70  99 153 186 235 298 366 421
#     4  11  23  45  74 102 142 194 233 298 363 424
#     4  11  25  44  76 106 136 190 249 287 358 438
#     4  11  21  41  65 107 137 194 230 297 353 427
#     4  10  23  39  74  98 138 185 244 286 351 426
#
# _framework density 24.338995000000001
#
# number of rings (size 3 to 8) (size 9 to 14) (size 15 to 20)
#    0.857    0.857    0.000    5.143    4.000    2.857 
#    0.000    0.714    0.000    0.000    0.000    0.000 
#    0.000    0.000    0.000    0.000    0.000    0.000 
#
# Total GULP energy -78284.693677 kJ/mol
# GULP energy per Si atom -5591.763834 kJ/mol
# Density = 2.428360 g / cm^3
# Si number density = 24.338995 Si / 1000 Ang^3
#
#
#
# Elastic Constant Matrix: (Units=GPa)
#
#
# Indices 1 2 3 4 5 6 
#
# 1 70.4739 2.8955 17.3700 -2.9248 -4.6378 12.4451
# 2 2.8955 121.9215 38.4804 7.4476 10.5579 1.0987
# 3 17.3700 38.4804 134.9870 7.7757 10.5414 11.3628
# 4 -2.9248 7.4476 7.7757 38.9417 3.5003 11.1525
# 5 -4.6378 10.5579 10.5414 3.5003 39.1487 5.0473
# 6 12.4451 1.0987 11.3628 11.1525 5.0473 23.6724
#
#
#
# Elastic Compliance Matrix: (Units=1/GPa)
#
#
# Indices 1 2 3 4 5 6 
#
# 1 0.016985 -0.000353 -0.001699 0.004506 0.003578 -0.010983
# 2 -0.000353 0.009267 -0.002527 -0.001751 -0.001990 0.002217
# 3 -0.001699 -0.002527 0.008712 -0.000501 -0.001483 -0.002619
# 4 0.004506 -0.001751 -0.000501 0.031239 0.000524 -0.016876
# 5 0.003578 -0.001990 -0.001483 0.000524 0.027791 -0.007249
# 6 -0.010983 0.002217 -0.002619 -0.016876 -0.007249 0.058668
#
#
# Mechanical properties :
#
#
# Convention : Reuss Voigt Hill
#
# Bulk Modulus (GPa) = 38.75091 49.43048 44.09070
# Shear Modulus (GPa) = 29.33870 38.26166 33.80018
#
# Velocity S-wave (km/s) = 3.47568 3.96919 3.73060
# Velocity P-wave (km/s) = 5.66242 6.43111 6.05897
#
# Compressibility (1/GPa) = 0.02580584
#
# Stress axis : x y z
#
# Youngs Moduli (GPa) = 58.87518 107.90816 114.78122
#
# Poissons Ratio (x) = 0.03811 0.19506
# Poissons Ratio (y) = 0.02079 0.29002
# Poissons Ratio (z) = 0.10005 0.27265
#
# Static dielectric constant tensor:
#      x y z
#    x 1.904310 0.016140 -0.039040 
#    y 0.016140 1.939950 -0.028430 
#    z -0.039040 -0.028430 1.994780 
# 
# From -- ./inp_files/391638.got.cif
#   From: 2010.05.17/outbox.cif.g08.bks.cpg/sg2_196_cif.got.tgz:391638.got - 2010.06.03 11:33:40.
