data_PCOD9037716
_publ_section_title
;
Structure prediction by ZEFSAII (Michael W. Deem and Ramdas Pophale) SiO2 
 PCOD9037716
Probable space group: P -1
;
_chemical_formula_sum "Si O2"
_cell_formula_units_Z 12
_cell_length_a 13.916586
_cell_length_b 7.819972
_cell_length_c 11.201955
_cell_angle_alpha 133.199156
_cell_angle_beta 32.925685
_cell_angle_gamma 127.809300
_cell_volume 480.764174
_symmetry_space_group_name_H-M "P -1"
_symmetry_group_IT_number 2
_symmetry_cell_setting 'triclinic'
loop_
_space_group_symop_operation_xyz
x,y,z
-x,-y,-z
loop_
_atom_site_type_symbol
_atom_site_label
_atom_site_fract_x
_atom_site_fract_y
_atom_site_fract_z
Si Si1 0.297723 0.214096 0.891738
Si Si2 0.142832 0.844512 0.018523
Si Si3 0.707577 0.979748 0.801960
Si Si4 0.760200 0.627569 0.404865
Si Si5 0.172935 0.657179 0.346203
Si Si6 0.374029 0.048174 0.480733
O O1 0.456416 0.073920 0.709259
O O2 0.303640 0.193989 0.734324
O O3 0.298361 0.469947 0.070408
O O4 0.126892 0.054550 0.043132
O O5 0.242549 0.951659 0.083088
O O6 0.951541 0.733036 0.206669
O O7 0.242868 0.644991 0.751521
O O8 0.831548 0.157188 0.670872
O O9 0.742566 0.714558 0.600147
O O10 0.500000 0.000000 0.000000
O O11 0.617156 0.761464 0.544401
O O12 0.254428 0.822866 0.445747
O O13 0.000000 0.500000 0.500000
#
# Coordination Sequence:
#
# PCOD9037716 Si02
#       6
#     2   2   2   2   2   2
#     4  11  23  39  64  93 124 164 210 259 312 371
#     4  11  23  39  64  93 124 164 210 259 312 371
#     4  11  24  42  66  93 127 166 206 258 313 372
#     4  10  23  41  61  89 124 164 209 257 310 370
#     4  11  24  42  66  93 127 166 206 258 313 372
#     4  10  23  41  61  89 124 164 209 257 310 370
#
# _framework density 24.960265
#
# number of rings (size 3 to 8) (size 9 to 14) (size 15 to 20)
#    0.000    1.333    0.000    6.000    0.000   12.000 
#    0.000    0.000    0.000    0.000    0.000    0.000 
#    0.000    0.000    0.000    0.000    0.000    0.000 
#
# Total GULP energy -67147.703781 kJ/mol
# GULP energy per Si atom -5595.641982 kJ/mol
# Density = 2.490345 g / cm^3
# Si number density = 24.960265 Si / 1000 Ang^3
#
#
#
# Elastic Constant Matrix: (Units=GPa)
#
#
# Indices 1 2 3 4 5 6 
#
# 1 66.5667 11.0108 28.1408 5.8789 17.6514 5.4833
# 2 11.0108 75.9491 30.9893 22.1341 12.5299 4.6495
# 3 28.1408 30.9893 146.9468 45.5586 19.1829 13.3721
# 4 5.8789 22.1341 45.5586 58.1149 -3.9244 6.2736
# 5 17.6514 12.5299 19.1829 -3.9244 20.2929 -1.4668
# 6 5.4833 4.6495 13.3721 6.2736 -1.4668 24.3196
#
#
#
# Elastic Compliance Matrix: (Units=1/GPa)
#
#
# Indices 1 2 3 4 5 6 
#
# 1 0.020873 0.001663 -0.000218 -0.003359 -0.020006 -0.005245
# 2 0.001663 0.017616 0.000654 -0.008069 -0.014712 -0.002908
# 3 -0.000218 0.000654 0.012138 -0.010152 -0.014011 -0.004976
# 4 -0.003359 -0.008069 -0.010152 0.029992 0.023413 0.001557
# 5 -0.020006 -0.014712 -0.014011 0.023413 0.094599 0.014694
# 6 -0.005245 -0.002908 -0.004976 0.001557 0.014694 0.046078
#
#
# Mechanical properties :
#
#
# Convention : Reuss Voigt Hill
#
# Bulk Modulus (GPa) = 18.23963 47.74935 32.99449
# Shear Modulus (GPa) = 21.24284 35.16692 28.20488
#
# Velocity S-wave (km/s) = 2.92047 3.75763 3.36518
# Velocity P-wave (km/s) = 4.32383 6.16425 5.32417
#
# Compressibility (1/GPa) = 0.05482566
#
# Stress axis : x y z
#
# Youngs Moduli (GPa) = 47.90864 56.76703 82.38351
#
# Poissons Ratio (x) = -0.09442 0.01793
# Poissons Ratio (y) = -0.07969 -0.05384
# Poissons Ratio (z) = 0.01043 -0.03710
#
# Static dielectric constant tensor:
#      x y z
#    x 1.935700 0.003560 -0.021270 
#    y 0.003560 1.985590 -0.070130 
#    z -0.021270 -0.070130 2.097320 
# 
# From -- ./inp_files/160563.got.cif
#   From: 2010.05.17/outbox.cif.g08.bks.cpg/sg2_81_cif.got.tgz:160563.got - 2010.06.03 11:33:40.
