data_PCOD9037066
_publ_section_title
;
Structure prediction by ZEFSAII (Michael W. Deem and Ramdas Pophale) SiO2 
 PCOD9037066
Probable space group: P -1
;
_chemical_formula_sum "Si O2"
_cell_formula_units_Z 16
_cell_length_a 7.770286
_cell_length_b 17.682325
_cell_length_c 10.165787
_cell_angle_alpha 55.781336
_cell_angle_beta 85.927990
_cell_angle_gamma 129.484210
_cell_volume 660.482372
_symmetry_space_group_name_H-M "P -1"
_symmetry_group_IT_number 2
_symmetry_cell_setting 'triclinic'
loop_
_space_group_symop_operation_xyz
x,y,z
-x,-y,-z
loop_
_atom_site_type_symbol
_atom_site_label
_atom_site_fract_x
_atom_site_fract_y
_atom_site_fract_z
Si Si1 0.162067 0.315932 0.672113
Si Si2 0.168917 0.141083 0.958021
Si Si3 0.178565 0.034298 0.335975
Si Si4 0.634944 0.576410 0.061922
Si Si5 0.274987 0.822507 0.714124
Si Si6 0.307822 0.266562 0.464725
Si Si7 0.161680 0.615575 0.748950
Si Si8 0.772841 0.479456 0.668784
O O1 0.500000 0.500000 0.500000
O O2 0.178197 0.245464 0.628306
O O3 0.042074 0.360462 0.577217
O O4 0.046565 0.194435 0.908183
O O5 0.148000 0.081769 0.158948
O O6 0.535821 0.318055 0.752207
O O7 0.000000 0.000000 0.000000
O O8 0.982498 0.858188 0.490024
O O9 0.522871 0.161977 0.228282
O O10 0.000000 0.000000 0.500000
O O11 0.986651 0.740892 0.877121
O O12 0.500000 0.500000 0.000000
O O13 0.578533 0.454356 0.248525
O O14 0.443262 0.563988 0.168888
O O15 0.161254 0.720883 0.689563
O O16 0.500000 0.000000 0.500000
O O17 0.489808 0.255328 0.427084
O O18 0.992203 0.521614 0.713618
O O19 0.000000 0.500000 0.000000
#
# Coordination Sequence:
#
# PCOD9037066 Si02
#       8
#     2   2   2   2   2   2   2   2
#     4   9  21  45  67  95 125 186 234 284 334 418
#     4  11  23  43  73  94 136 181 235 286 347 406
#     4  12  26  41  69 104 139 180 225 291 357 405
#     4  11  21  39  64  95 138 183 221 278 348 415
#     4  12  26  38  62 101 149 176 226 283 351 412
#     4  11  22  39  69  94 136 177 237 273 345 407
#     4  12  22  40  63 104 144 179 228 291 344 419
#     4  10  23  39  72  95 133 184 237 278 347 416
#
# _framework density 24.224720000000001
#
# number of rings (size 3 to 8) (size 9 to 14) (size 15 to 20)
#    0.000    1.000    5.000    1.500    5.250    0.000 
#    0.000    2.500    2.750    1.500    0.000    0.000 
#    0.000    0.000    0.000    0.000    0.000    0.000 
#
# Total GULP energy -89107.836050 kJ/mol
# GULP energy per Si atom -5569.239753 kJ/mol
# Density = 2.416958 g / cm^3
# Si number density = 24.224720 Si / 1000 Ang^3
#
#
#
# Elastic Constant Matrix: (Units=GPa)
#
#
# Indices 1 2 3 4 5 6 
#
# 1 63.5496 23.0548 28.1080 2.5854 -2.6761 11.4927
# 2 23.0548 147.3864 24.4482 -11.2243 2.4916 6.0388
# 3 28.1080 24.4482 115.7453 -13.6621 28.1506 12.1980
# 4 2.5854 -11.2243 -13.6621 46.3186 1.1585 5.0174
# 5 -2.6761 2.4916 28.1506 1.1585 39.9844 -2.5231
# 6 11.4927 6.0388 12.1980 5.0174 -2.5231 45.6419
#
#
#
# Elastic Compliance Matrix: (Units=1/GPa)
#
#
# Indices 1 2 3 4 5 6 
#
# 1 0.019998 -0.002404 -0.005815 -0.003282 0.005520 -0.002497
# 2 -0.002404 0.007430 -0.000678 0.001784 -0.000224 -0.000405
# 3 -0.005815 -0.000678 0.013584 0.004766 -0.010249 -0.003167
# 4 -0.003282 0.001784 0.004766 0.024115 -0.004612 -0.003590
# 5 0.005520 -0.000224 -0.010249 -0.004612 0.032976 0.003709
# 6 -0.002497 -0.000405 -0.003167 -0.003590 0.003709 0.024038
#
#
# Mechanical properties :
#
#
# Convention : Reuss Voigt Hill
#
# Bulk Modulus (GPa) = 43.07211 53.10035 48.08623
# Shear Modulus (GPa) = 33.85839 43.12699 38.49269
#
# Velocity S-wave (km/s) = 3.74261 4.22392 3.99053
# Velocity P-wave (km/s) = 6.04111 6.76433 6.41292
#
# Compressibility (1/GPa) = 0.02321688
#
# Stress axis : x y z
#
# Youngs Moduli (GPa) = 50.00595 134.59559 73.61671
#
# Poissons Ratio (x) = 0.32362 0.42809
# Poissons Ratio (y) = 0.12024 0.04989
# Poissons Ratio (z) = 0.29079 0.09121
#
# Static dielectric constant tensor:
#      x y z
#    x 2.079850 0.011700 0.052780 
#    y 0.011700 2.006150 0.062580 
#    z 0.052780 0.062580 2.150220 
# 
# From -- ./inp_files/405481.got.cif
#   From: 2010.05.17/outbox.cif.g08.bks.cpg/sg2_203_cif.got.tgz:405481.got - 2010.06.03 11:33:40.
