data_PCOD9037932
_publ_section_title
;
Structure prediction by ZEFSAII (Michael W. Deem and Ramdas Pophale) SiO2 
 PCOD9037932
Probable space group: P -1
;
_chemical_formula_sum "Si O2"
_cell_formula_units_Z 12
_cell_length_a 9.372369
_cell_length_b 12.465065
_cell_length_c 9.176120
_cell_angle_alpha 63.935274
_cell_angle_beta 82.129196
_cell_angle_gamma 34.560352
_cell_volume 490.195450
_symmetry_space_group_name_H-M "P -1"
_symmetry_group_IT_number 2
_symmetry_cell_setting 'triclinic'
loop_
_space_group_symop_operation_xyz
x,y,z
-x,-y,-z
loop_
_atom_site_type_symbol
_atom_site_label
_atom_site_fract_x
_atom_site_fract_y
_atom_site_fract_z
Si Si1 0.817275 0.774589 0.646352
Si Si2 0.463674 0.663124 0.137325
Si Si3 0.268763 0.895405 0.517140
Si Si4 0.000879 0.185780 0.911678
Si Si5 0.256108 0.427338 0.116167
Si Si6 0.244208 0.540930 0.501836
O O1 0.819532 0.657649 0.817471
O O2 0.032401 0.605412 0.581844
O O3 0.500000 0.000000 0.500000
O O4 0.841427 0.893454 0.625877
O O5 0.261306 0.709963 0.065609
O O6 0.600563 0.507644 0.354163
O O7 0.683382 0.560190 0.056146
O O8 0.271916 0.912561 0.060583
O O9 0.450869 0.765625 0.718575
O O10 0.507127 0.693760 0.486081
O O11 0.000000 0.000000 0.500000
O O12 0.974014 0.329390 0.912494
O O13 0.945101 0.249499 0.709327
#
# Coordination Sequence:
#
# PCOD9037932 Si02
#       6
#     2   2   2   2   2   2
#     4  10  23  43  68  99 140 179 226 277 340 405
#     4  11  24  40  68 101 136 175 227 282 335 402
#     4  10  24  40  71 105 134 175 232 280 337 406
#     4  10  23  41  64  98 136 176 224 280 339 396
#     4  10  23  43  64  95 138 183 216 280 342 400
#     4  11  25  42  71 100 134 179 229 279 341 402
#
# _framework density 24.480029999999999
#
# number of rings (size 3 to 8) (size 9 to 14) (size 15 to 20)
#    0.000    1.667    0.000    3.000   11.667    9.333 
#    0.000    1.667    0.000    0.000    0.000    0.000 
#    0.000    0.000    0.000    0.000    0.000    0.000 
#
# Total GULP energy -67139.723282 kJ/mol
# GULP energy per Si atom -5594.976940 kJ/mol
# Density = 2.442431 g / cm^3
# Si number density = 24.480030 Si / 1000 Ang^3
#
#
#
# Elastic Constant Matrix: (Units=GPa)
#
#
# Indices 1 2 3 4 5 6 
#
# 1 107.8117 43.3531 31.1924 -3.9426 -19.8391 -3.6978
# 2 43.3531 130.6787 35.7586 -7.8945 -12.0701 -7.2689
# 3 31.1924 35.7586 138.4625 -2.7894 -22.1661 -2.0148
# 4 -3.9426 -7.8945 -2.7894 39.8082 -2.7382 -13.6795
# 5 -19.8391 -12.0701 -22.1661 -2.7382 35.4578 -8.6102
# 6 -3.6978 -7.2689 -2.0148 -13.6795 -8.6102 43.8219
#
#
#
# Elastic Compliance Matrix: (Units=1/GPa)
#
#
# Indices 1 2 3 4 5 6 
#
# 1 0.011919 -0.002951 -0.000944 0.001647 0.005713 0.002110
# 2 -0.002951 0.009426 -0.001471 0.002339 0.001363 0.002245
# 3 -0.000944 -0.001471 0.008615 0.000998 0.004753 0.001318
# 4 0.001647 0.002339 0.000998 0.030281 0.007471 0.011493
# 5 0.005713 0.001363 0.004753 0.007471 0.038017 0.010729
# 6 0.002110 0.002245 0.001318 0.011493 0.010729 0.029126
#
#
# Mechanical properties :
#
#
# Convention : Reuss Voigt Hill
#
# Bulk Modulus (GPa) = 52.01189 66.39568 59.20378
# Shear Modulus (GPa) = 34.59531 41.59417 38.09474
#
# Velocity S-wave (km/s) = 3.76334 4.12649 3.94909
# Velocity P-wave (km/s) = 6.33849 7.06295 6.71050
#
# Compressibility (1/GPa) = 0.01922637
#
# Stress axis : x y z
#
# Youngs Moduli (GPa) = 83.89679 106.08699 116.07390
#
# Poissons Ratio (x) = 0.31310 0.10963
# Poissons Ratio (y) = 0.24761 0.17080
# Poissons Ratio (z) = 0.07924 0.15610
#
# Static dielectric constant tensor:
#      x y z
#    x 1.974190 -0.007740 0.080630 
#    y -0.007740 1.897060 0.016560 
#    z 0.080630 0.016560 2.012730 
# 
# From -- ./inp_files/184987.got.cif
#   From: 2010.05.17/outbox.cif.g08.bks.cpg/sg2_93_cif.got.tgz:184987.got - 2010.06.03 11:33:40.
