data_PCOD9037598
_publ_section_title
;
Structure prediction by ZEFSAII (Michael W. Deem and Ramdas Pophale) SiO2 
 PCOD9037598
Probable space group: P -1
;
_chemical_formula_sum "Si O2"
_cell_formula_units_Z 16
_cell_length_a 12.276713
_cell_length_b 5.674719
_cell_length_c 11.782869
_cell_angle_alpha 94.800601
_cell_angle_beta 127.465202
_cell_angle_gamma 79.725724
_cell_volume 640.777168
_symmetry_space_group_name_H-M "P -1"
_symmetry_group_IT_number 2
_symmetry_cell_setting 'triclinic'
loop_
_space_group_symop_operation_xyz
x,y,z
-x,-y,-z
loop_
_atom_site_type_symbol
_atom_site_label
_atom_site_fract_x
_atom_site_fract_y
_atom_site_fract_z
Si Si1 0.975243 0.471147 0.615291
Si Si2 0.236557 0.645788 0.366124
Si Si3 0.542686 0.041937 0.398830
Si Si4 0.113603 0.931980 0.742825
Si Si5 0.651400 0.955139 0.234211
Si Si6 0.407999 0.346548 0.005134
Si Si7 0.290747 0.382084 0.164238
Si Si8 0.952276 0.857043 0.067907
O O1 0.049385 0.691423 0.715061
O O2 0.000000 0.500000 0.500000
O O3 0.827564 0.517198 0.589415
O O4 0.023008 0.182761 0.651527
O O5 0.345443 0.778617 0.505449
O O6 0.310246 0.531203 0.294770
O O7 0.095664 0.784512 0.224333
O O8 0.623075 0.879351 0.341240
O O9 0.394189 0.140133 0.251721
O O10 0.500000 0.000000 0.500000
O O11 0.230278 0.886762 0.716537
O O12 0.152650 0.005575 0.898515
O O13 0.510125 0.119140 0.110749
O O14 0.686758 0.741769 0.156488
O O15 0.335810 0.473836 0.075316
O O16 0.500000 0.500000 0.000000
O O17 0.133609 0.338616 0.045056
O O18 0.000000 0.000000 0.000000
#
# Coordination Sequence:
#
# PCOD9037598 Si02
#       8
#     2   2   2   2   2   2   2   2
#     4  11  25  45  71 103 143 192 238 293 363 436
#     4  11  25  43  67 107 142 185 241 298 363 435
#     4  11  25  44  67  98 142 189 234 293 365 429
#     4  11  24  43  71 106 140 184 244 299 357 426
#     4  10  23  43  64 102 139 180 244 295 353 434
#     4  10  23  40  69  97 135 187 239 293 357 421
#     4  11  23  44  66 101 137 179 242 290 358 428
#     4  11  23  42  69 102 139 186 236 294 360 423
#
# _framework density 24.969681000000001
#
# number of rings (size 3 to 8) (size 9 to 14) (size 15 to 20)
#    0.000    1.250    1.250    3.375    3.500    5.000 
#    0.000    0.000    0.000    0.000    0.000    0.000 
#    0.000    0.000    0.000    0.000    0.000    0.000 
#
# Total GULP energy -89113.044032 kJ/mol
# GULP energy per Si atom -5569.565252 kJ/mol
# Density = 2.491285 g / cm^3
# Si number density = 24.969681 Si / 1000 Ang^3
#
#
#
# Elastic Constant Matrix: (Units=GPa)
#
#
# Indices 1 2 3 4 5 6 
#
# 1 141.7305 15.3640 50.2042 -22.6493 -40.1831 31.1113
# 2 15.3640 51.7744 30.3616 -10.8084 -0.2302 2.0985
# 3 50.2042 30.3616 72.7526 -3.7179 -25.4778 2.2773
# 4 -22.6493 -10.8084 -3.7179 39.1415 8.4090 -0.9648
# 5 -40.1831 -0.2302 -25.4778 8.4090 70.6220 -0.6572
# 6 31.1113 2.0985 2.2773 -0.9648 -0.6572 37.6189
#
#
#
# Elastic Compliance Matrix: (Units=1/GPa)
#
#
# Indices 1 2 3 4 5 6 
#
# 1 0.015026 0.003165 -0.009491 0.007489 0.004135 -0.011764
# 2 0.003165 0.029684 -0.015715 0.009518 -0.004934 -0.003164
# 3 -0.009491 -0.015715 0.028241 -0.008220 0.005780 0.006906
# 4 0.007489 0.009518 -0.008220 0.032143 -0.002551 -0.005447
# 5 0.004135 -0.004934 0.005780 -0.002551 0.018855 -0.003230
# 6 -0.011764 -0.003164 0.006906 -0.005447 -0.003230 0.035874
#
#
# Mechanical properties :
#
#
# Convention : Reuss Voigt Hill
#
# Bulk Modulus (GPa) = 34.63830 50.90190 42.77010
# Shear Modulus (GPa) = 23.41632 40.83165 32.12398
#
# Velocity S-wave (km/s) = 3.06566 4.04821 3.59070
# Velocity P-wave (km/s) = 5.14133 6.50234 5.86147
#
# Compressibility (1/GPa) = 0.02886978
#
# Stress axis : x y z
#
# Youngs Moduli (GPa) = 66.55218 33.68822 35.41009
#
# Poissons Ratio (x) = -0.10664 0.33607
# Poissons Ratio (y) = -0.21066 0.55646
# Poissons Ratio (z) = 0.63164 0.52940
#
# Static dielectric constant tensor:
#      x y z
#    x 2.245910 -0.180460 0.133860 
#    y -0.180460 2.161760 -0.051520 
#    z 0.133860 -0.051520 2.133120 
# 
# From -- ./inp_files/410919.got.cif
#   From: 2010.05.17/outbox.cif.g08.bks.cpg/sg2_206_cif.got.tgz:410919.got - 2010.06.03 11:33:40.
