data_PCOD9037318
_publ_section_title
;
Structure prediction by ZEFSAII (Michael W. Deem and Ramdas Pophale) SiO2 
 PCOD9037318
Probable space group: P -1
;
_chemical_formula_sum "Si O2"
_cell_formula_units_Z 14
_cell_length_a 8.229074
_cell_length_b 21.931856
_cell_length_c 12.378832
_cell_angle_alpha 26.430164
_cell_angle_beta 54.752068
_cell_angle_gamma 38.770102
_cell_volume 560.904256
_symmetry_space_group_name_H-M "P -1"
_symmetry_group_IT_number 2
_symmetry_cell_setting 'triclinic'
loop_
_space_group_symop_operation_xyz
x,y,z
-x,-y,-z
loop_
_atom_site_type_symbol
_atom_site_label
_atom_site_fract_x
_atom_site_fract_y
_atom_site_fract_z
Si Si1 0.780830 0.350546 0.745456
Si Si2 0.317649 0.698362 0.824145
Si Si3 0.521946 0.185915 0.594263
Si Si4 0.784716 0.831674 0.941991
Si Si5 0.242136 0.561565 0.748046
Si Si6 0.032407 0.958571 0.181718
Si Si7 0.117870 0.467920 0.744575
O O1 0.485213 0.518685 0.653015
O O2 0.804537 0.429663 0.505683
O O3 0.027574 0.281394 0.841729
O O4 0.816038 0.172387 0.986211
O O5 0.272210 0.837750 0.531896
O O6 0.016238 0.797149 0.831561
O O7 0.500000 0.500000 0.000000
O O8 0.555858 0.607054 0.970200
O O9 0.668553 0.127923 0.745665
O O10 0.207661 0.404776 0.367263
O O11 0.513080 0.045212 0.759550
O O12 0.699401 0.743528 0.044141
O O13 0.029617 0.798112 0.473181
O O14 0.121099 0.499227 0.820037
O O15 0.000000 0.000000 0.000000
#
# Coordination Sequence:
#
# PCOD9037318 Si02
#       7
#     2   2   2   2   2   2   2
#     4  10  23  41  62  89 128 169 207 249 312 378
#     4  11  20  45  70  85 122 169 212 255 304 376
#     4  11  24  42  65  94 125 164 213 253 311 369
#     4  10  23  40  65  92 121 166 208 256 311 370
#     4  11  24  41  65  93 125 166 211 255 309 369
#     4  11  22  40  64  92 121 166 209 252 306 369
#     4  12  23  39  61  97 129 164 199 264 315 360
#
# _framework density 24.959696000000001
#
# number of rings (size 3 to 8) (size 9 to 14) (size 15 to 20)
#    0.000    1.143    4.286    2.143    0.000    5.143 
#    0.000    0.714    0.000    0.000    0.000    0.000 
#    0.000    0.000    0.000    0.000    0.000    0.000 
#
# Total GULP energy -78158.352113 kJ/mol
# GULP energy per Si atom -5582.739437 kJ/mol
# Density = 2.490289 g / cm^3
# Si number density = 24.959696 Si / 1000 Ang^3
#
#
#
# Elastic Constant Matrix: (Units=GPa)
#
#
# Indices 1 2 3 4 5 6 
#
# 1 104.1696 16.4265 18.0945 0.6482 -2.7594 40.2420
# 2 16.4265 52.8797 17.4077 -4.4204 0.7047 22.5441
# 3 18.0945 17.4077 51.9005 -8.4110 -15.5273 16.5810
# 4 0.6482 -4.4204 -8.4110 49.2750 24.0820 -8.2951
# 5 -2.7594 0.7047 -15.5273 24.0820 38.4064 -8.5421
# 6 40.2420 22.5441 16.5810 -8.2951 -8.5421 42.2417
#
#
#
# Elastic Compliance Matrix: (Units=1/GPa)
#
#
# Indices 1 2 3 4 5 6 
#
# 1 0.015916 0.002693 -0.002129 -0.002070 -0.002162 -0.016608
# 2 0.002693 0.027408 -0.007243 0.002658 -0.008356 -0.015517
# 3 -0.002129 -0.007243 0.026316 -0.002122 0.011382 -0.002551
# 4 -0.002070 0.002658 -0.002122 0.030160 -0.019205 0.003425
# 5 -0.002162 -0.008356 0.011382 -0.019205 0.044289 0.007236
# 6 -0.016608 -0.015517 -0.002551 0.003425 0.007236 0.050914
#
#
# Mechanical properties :
#
#
# Convention : Reuss Voigt Hill
#
# Bulk Modulus (GPa) = 17.76776 34.75635 26.26205
# Shear Modulus (GPa) = 22.01460 36.45271 29.23365
#
# Velocity S-wave (km/s) = 2.97308 3.82575 3.42604
# Velocity P-wave (km/s) = 4.34967 5.78535 5.11810
#
# Compressibility (1/GPa) = 0.05628172
#
# Stress axis : x y z
#
# Youngs Moduli (GPa) = 62.82792 36.48587 38.00039
#
# Poissons Ratio (x) = -0.09825 0.08089
# Poissons Ratio (y) = -0.16919 0.27525
# Poissons Ratio (z) = 0.13374 0.26428
#
# Static dielectric constant tensor:
#      x y z
#    x 2.055270 -0.005990 -0.107030 
#    y -0.005990 1.929260 0.102860 
#    z -0.107030 0.102860 2.456420 
# 
# From -- ./inp_files/261129.got.cif
#   From: 2010.05.17/outbox.cif.g08.bks.cpg/sg2_131_cif.got.tgz:261129.got - 2010.06.03 11:33:40.
