data_PCOD9037353
_publ_section_title
;
Structure prediction by ZEFSAII (Michael W. Deem and Ramdas Pophale) SiO2 
 PCOD9037353
Probable space group: P -1
;
_chemical_formula_sum "Si O2"
_cell_formula_units_Z 16
_cell_length_a 26.580349
_cell_length_b 9.182147
_cell_length_c 5.331391
_cell_angle_alpha 94.017385
_cell_angle_beta 61.476190
_cell_angle_gamma 140.271867
_cell_volume 619.992101
_symmetry_space_group_name_H-M "P -1"
_symmetry_group_IT_number 2
_symmetry_cell_setting 'triclinic'
loop_
_space_group_symop_operation_xyz
x,y,z
-x,-y,-z
loop_
_atom_site_type_symbol
_atom_site_label
_atom_site_fract_x
_atom_site_fract_y
_atom_site_fract_z
Si Si1 0.879794 0.093648 0.538521
Si Si2 0.408037 0.535078 0.269958
Si Si3 0.471995 0.269967 0.499182
Si Si4 0.245016 0.638933 0.247443
Si Si5 0.708921 0.023980 0.434504
Si Si6 0.898004 0.865633 0.133996
Si Si7 0.257908 0.404562 0.897938
Si Si8 0.103617 0.561956 0.312857
O O1 0.870879 0.247036 0.543096
O O2 0.981735 0.296698 0.500175
O O3 0.903370 0.042944 0.239938
O O4 0.773067 0.798437 0.876291
O O5 0.488581 0.717020 0.335545
O O6 0.324729 0.483513 0.520749
O O7 0.347362 0.249288 0.402941
O O8 0.464384 0.657570 0.882523
O O9 0.500000 0.500000 0.500000
O O10 0.352376 0.028007 0.656485
O O11 0.298832 0.884014 0.302694
O O12 0.193510 0.422016 0.549099
O O13 0.148818 0.512382 0.317509
O O14 0.307810 0.653529 0.935644
O O15 0.827274 0.259639 0.080186
O O16 0.857739 0.787983 0.938052
O O17 0.000000 0.000000 0.000000
#
# Coordination Sequence:
#
# PCOD9037353 Si02
#       8
#     2   2   2   2   2   2   2   2
#     4  10  23  40  65  98 136 180 231 290 346 421
#     4  11  25  44  75 106 137 185 237 293 352 429
#     4  10  24  44  72 108 138 179 236 293 360 424
#     4  11  25  39  65  95 137 180 228 285 351 423
#     4  11  23  40  69 100 134 178 226 299 351 416
#     4  11  23  42  63  92 135 193 233 277 348 427
#     4  11  24  43  67  96 140 189 228 285 352 421
#     4  11  23  40  65 102 136 173 235 292 356 407
#
# _framework density 25.806781000000001
#
# number of rings (size 3 to 8) (size 9 to 14) (size 15 to 20)
#    0.000    1.250    1.250    4.500   10.500    2.000 
#    0.000    4.375    0.000    0.000    0.000    0.000 
#    0.000    0.000    0.000    0.000    0.000    0.000 
#
# Total GULP energy -89573.942111 kJ/mol
# GULP energy per Si atom -5598.371382 kJ/mol
# Density = 2.574804 g / cm^3
# Si number density = 25.806781 Si / 1000 Ang^3
#
#
#
# Elastic Constant Matrix: (Units=GPa)
#
#
# Indices 1 2 3 4 5 6 
#
# 1 93.8882 42.8049 22.8833 9.4619 -14.4237 -4.2335
# 2 42.8049 121.7288 40.0751 44.1174 -16.1746 -25.6021
# 3 22.8833 40.0751 108.6525 18.0347 -18.5396 -5.3508
# 4 9.4619 44.1174 18.0347 45.8916 -5.1066 -3.1567
# 5 -14.4237 -16.1746 -18.5396 -5.1066 37.2088 6.0049
# 6 -4.2335 -25.6021 -5.3508 -3.1567 6.0049 44.3621
#
#
#
# Elastic Compliance Matrix: (Units=1/GPa)
#
#
# Indices 1 2 3 4 5 6 
#
# 1 0.013516 -0.005708 -0.000853 0.003228 0.003148 -0.002304
# 2 -0.005708 0.018337 -0.002502 -0.014757 0.001109 0.008536
# 3 -0.000853 -0.002502 0.011201 -0.001421 0.004102 -0.000831
# 4 0.003228 -0.014757 -0.001421 0.035461 -0.000061 -0.005848
# 5 0.003148 0.001109 0.004102 -0.000061 0.031060 -0.002774
# 6 -0.002304 0.008536 -0.000831 -0.005848 -0.002774 0.027107
#
#
# Mechanical properties :
#
#
# Convention : Reuss Voigt Hill
#
# Bulk Modulus (GPa) = 40.11718 59.53292 49.82505
# Shear Modulus (GPa) = 30.65272 40.05957 35.35615
#
# Velocity S-wave (km/s) = 3.45015 3.94418 3.70541
# Velocity P-wave (km/s) = 5.60806 6.62276 6.13642
#
# Compressibility (1/GPa) = 0.02492697
#
# Stress axis : x y z
#
# Youngs Moduli (GPa) = 73.98854 54.53529 89.27674
#
# Poissons Ratio (x) = 0.31127 0.07619
# Poissons Ratio (y) = 0.42230 0.22338
# Poissons Ratio (z) = 0.06314 0.13646
#
# Static dielectric constant tensor:
#      x y z
#    x 2.036600 0.052160 0.010240 
#    y 0.052160 2.043770 -0.031960 
#    z 0.010240 -0.031960 2.094490 
# 
# From -- ./inp_files/126464.got.cif
#   From: 2010.05.17/outbox.cif.g08.bks.cpg/sg2_64_cif.got.tgz:126464.got - 2010.06.03 11:33:40.
