data_PCOD9037631
_publ_section_title
;
Structure prediction by ZEFSAII (Michael W. Deem and Ramdas Pophale) SiO2 
 PCOD9037631
Probable space group: P -1
;
_chemical_formula_sum "Si O2"
_cell_formula_units_Z 16
_cell_length_a 8.965051
_cell_length_b 17.903403
_cell_length_c 5.206112
_cell_angle_alpha 69.641184
_cell_angle_beta 105.258137
_cell_angle_gamma 122.341261
_cell_volume 658.744047
_symmetry_space_group_name_H-M "P -1"
_symmetry_group_IT_number 2
_symmetry_cell_setting 'triclinic'
loop_
_space_group_symop_operation_xyz
x,y,z
-x,-y,-z
loop_
_atom_site_type_symbol
_atom_site_label
_atom_site_fract_x
_atom_site_fract_y
_atom_site_fract_z
Si Si1 0.552382 0.144012 0.730777
Si Si2 0.701288 0.310717 0.241861
Si Si3 0.348574 0.177759 0.961585
Si Si4 0.793246 0.692951 0.212738
Si Si5 0.156749 0.979803 0.169565
Si Si6 0.414094 0.551806 0.049568
Si Si7 0.916989 0.634727 0.821313
Si Si8 0.297559 0.941635 0.757262
O O1 0.683315 0.234491 0.528976
O O2 0.383992 0.157913 0.710048
O O3 0.473392 0.042688 0.692896
O O4 0.643538 0.131747 0.046046
O O5 0.888884 0.353646 0.133682
O O6 0.538809 0.255174 0.043993
O O7 0.650915 0.387919 0.218291
O O8 0.209294 0.211889 0.912125
O O9 0.298848 0.083579 0.188030
O O10 0.582006 0.618002 0.223652
O O11 0.890310 0.690684 0.514683
O O12 0.874614 0.668193 0.032130
O O13 0.168497 0.922131 0.481164
O O14 0.203732 0.948761 0.964399
O O15 0.000000 0.000000 0.000000
O O16 0.233067 0.470206 0.177036
O O17 0.500000 0.500000 0.000000
#
# Coordination Sequence:
#
# PCOD9037631 Si02
#       8
#     2   2   2   2   2   2   2   2
#     4  10  23  40  70  97 133 182 228 288 340 411
#     4  11  23  42  68 101 140 176 230 287 342 407
#     4  10  24  42  67  96 137 179 232 277 345 410
#     4  10  24  43  70  96 139 179 227 277 340 407
#     4  11  23  43  66  98 132 185 227 284 343 412
#     4   9  21  44  71  97 137 183 227 275 343 417
#     4  11  24  44  65 105 133 180 222 285 343 405
#     4  10  23  42  68  95 135 173 235 279 345 404
#
# _framework density 24.288646
#
# number of rings (size 3 to 8) (size 9 to 14) (size 15 to 20)
#    0.000    1.750    1.250    1.125    8.750    2.500 
#    2.250    3.125    0.000    0.000    0.000    0.000 
#    0.000    0.000    0.000    0.000    0.000    0.000 
#
# Total GULP energy -89302.141183 kJ/mol
# GULP energy per Si atom -5581.383824 kJ/mol
# Density = 2.423336 g / cm^3
# Si number density = 24.288646 Si / 1000 Ang^3
#
#
#
# Elastic Constant Matrix: (Units=GPa)
#
#
# Indices 1 2 3 4 5 6 
#
# 1 143.9468 40.8063 55.5610 -13.8149 21.6617 -2.2855
# 2 40.8063 63.4300 26.6235 -17.2635 -0.1180 -15.1131
# 3 55.5610 26.6235 129.9298 0.4962 8.2825 -7.2591
# 4 -13.8149 -17.2635 0.4962 31.1729 -2.5572 10.4534
# 5 21.6617 -0.1180 8.2825 -2.5572 27.0208 -1.9131
# 6 -2.2855 -15.1131 -7.2591 10.4534 -1.9131 37.5492
#
#
#
# Elastic Compliance Matrix: (Units=1/GPa)
#
#
# Indices 1 2 3 4 5 6 
#
# 1 0.011334 -0.006174 -0.003262 0.002139 -0.008154 -0.003437
# 2 -0.006174 0.025075 -0.002607 0.009456 0.007245 0.006949
# 3 -0.003262 -0.002607 0.009770 -0.003640 -0.000621 0.001622
# 4 0.002139 0.009456 -0.003640 0.041271 0.002773 -0.008116
# 5 -0.008154 0.007245 -0.000621 0.002773 0.044298 0.003785
# 6 -0.003437 0.006949 0.001622 -0.008116 0.003785 0.031985
#
#
# Mechanical properties :
#
#
# Convention : Reuss Voigt Hill
#
# Bulk Modulus (GPa) = 45.26693 64.80980 55.03836
# Shear Modulus (GPa) = 25.61690 33.43629 29.52660
#
# Velocity S-wave (km/s) = 3.25112 3.71431 3.49041
# Velocity P-wave (km/s) = 5.72456 6.71833 6.24125
#
# Compressibility (1/GPa) = 0.02209118
#
# Stress axis : x y z
#
# Youngs Moduli (GPa) = 88.22856 39.88095 102.35672
#
# Poissons Ratio (x) = 0.24624 0.33389
# Poissons Ratio (y) = 0.54475 0.26689
# Poissons Ratio (z) = 0.28780 0.10399
#
# Static dielectric constant tensor:
#      x y z
#    x 2.047120 0.030620 0.015820 
#    y 0.030620 2.039470 0.008330 
#    z 0.015820 0.008330 1.970270 
# 
# From -- ./inp_files/46775.got.cif
#   From: 2010.05.17/outbox.cif.g08.bks.cpg/sg2_24_cif.got.tgz:46775.got - 2010.06.03 11:33:40.
