data_PCOD9037785
_publ_section_title
;
Structure prediction by ZEFSAII (Michael W. Deem and Ramdas Pophale) SiO2 
 PCOD9037785
Probable space group: P -1
;
_chemical_formula_sum "Si O2"
_cell_formula_units_Z 14
_cell_length_a 14.625668
_cell_length_b 12.375488
_cell_length_c 21.473428
_cell_angle_alpha 151.505364
_cell_angle_beta 21.186274
_cell_angle_gamma 151.642558
_cell_volume 627.455792
_symmetry_space_group_name_H-M "P -1"
_symmetry_group_IT_number 2
_symmetry_cell_setting 'triclinic'
loop_
_space_group_symop_operation_xyz
x,y,z
-x,-y,-z
loop_
_atom_site_type_symbol
_atom_site_label
_atom_site_fract_x
_atom_site_fract_y
_atom_site_fract_z
Si Si1 0.439773 0.494217 0.962768
Si Si2 0.520879 0.106336 0.950538
Si Si3 0.130137 0.188695 0.456890
Si Si4 0.064800 0.155387 0.782445
Si Si5 0.191011 0.670788 0.734766
Si Si6 0.678274 0.113005 0.597893
Si Si7 0.968681 0.473466 0.104960
O O1 0.617448 0.356114 0.747742
O O2 0.500000 0.500000 0.000000
O O3 0.513248 0.763658 0.025862
O O4 0.121356 0.349446 0.081731
O O5 0.760070 0.319842 0.938953
O O6 0.622554 0.885454 0.761660
O O7 0.245469 0.016743 0.117914
O O8 0.206073 0.452897 0.571789
O O9 0.915525 0.153762 0.519282
O O10 0.000000 0.000000 0.500000
O O11 0.142121 0.385848 0.804275
O O12 0.246501 0.002261 0.570209
O O13 0.050777 0.263648 0.914213
O O14 0.223569 0.616949 0.759484
O O15 0.409343 0.919107 0.700046
#
# Coordination Sequence:
#
# PCOD9037785 Si02
#       7
#     2   2   2   2   2   2   2
#     4  11  23  47  68  97 132 176 224 274 332 390
#     4  11  24  43  67  96 139 173 216 279 332 384
#     4  12  22  40  68 103 128 170 228 278 326 384
#     4  11  25  41  65  98 137 179 213 267 336 400
#     4  11  25  42  71 100 133 173 221 285 327 385
#     4  12  26  43  69 100 134 176 227 266 332 401
#     4  10  23  41  62  99 134 170 214 270 334 386
#
# _framework density 22.312328999999998
#
# number of rings (size 3 to 8) (size 9 to 14) (size 15 to 20)
#    0.000    0.857    5.714    0.857    8.000    1.714 
#    0.000    2.857    0.000    0.000    0.000    0.000 
#    0.000    0.000    0.000    0.000    0.000    0.000 
#
# Total GULP energy -78357.829418 kJ/mol
# GULP energy per Si atom -5596.987816 kJ/mol
# Density = 2.226155 g / cm^3
# Si number density = 22.312329 Si / 1000 Ang^3
#
#
#
# Elastic Constant Matrix: (Units=GPa)
#
#
# Indices 1 2 3 4 5 6 
#
# 1 58.1234 14.6793 18.9648 15.4921 3.1344 0.9713
# 2 14.6793 63.6352 24.6796 0.2763 -3.1428 3.4368
# 3 18.9648 24.6796 153.8860 22.2099 1.5095 1.1657
# 4 15.4921 0.2763 22.2099 45.2995 3.6742 9.3878
# 5 3.1344 -3.1428 1.5095 3.6742 36.3839 10.1146
# 6 0.9713 3.4368 1.1657 9.3878 10.1146 19.8007
#
#
#
# Elastic Compliance Matrix: (Units=1/GPa)
#
#
# Indices 1 2 3 4 5 6 
#
# 1 0.020731 -0.004876 -0.000701 -0.007494 -0.002766 0.004837
# 2 -0.004876 0.018488 -0.002935 0.004060 0.003545 -0.006533
# 3 -0.000701 -0.002935 0.007607 -0.003894 -0.000764 0.002332
# 4 -0.007494 0.004060 -0.003894 0.029504 0.002444 -0.015345
# 5 -0.002766 0.003545 -0.000764 0.002444 0.032934 -0.018417
# 6 0.004837 -0.006533 0.002332 -0.015345 -0.018417 0.067946
#
#
# Mechanical properties :
#
#
# Convention : Reuss Voigt Hill
#
# Bulk Modulus (GPa) = 33.55452 43.58797 38.57124
# Shear Modulus (GPa) = 24.48973 34.78488 29.63730
#
# Velocity S-wave (km/s) = 3.31658 3.95270 3.64853
# Velocity P-wave (km/s) = 5.45321 6.35685 5.92229
#
# Compressibility (1/GPa) = 0.02980224
#
# Stress axis : x y z
#
# Youngs Moduli (GPa) = 48.23777 54.08915 131.45403
#
# Poissons Ratio (x) = 0.26372 0.09212
# Poissons Ratio (y) = 0.23519 0.38587
# Poissons Ratio (z) = 0.03380 0.15878
#
# Static dielectric constant tensor:
#      x y z
#    x 1.872790 0.010290 -0.010540 
#    y 0.010290 1.802630 0.015080 
#    z -0.010540 0.015080 1.826690 
# 
# From -- ./inp_files/183851.got.cif
#   From: 2010.05.17/outbox.cif.g08.bks.cpg/sg2_92_cif.got.tgz:183851.got - 2010.06.03 11:33:40.
