data_PCOD9037946
_publ_section_title
;
Structure prediction by ZEFSAII (Michael W. Deem and Ramdas Pophale) SiO2 
 PCOD9037946
Probable space group: P -1
;
_chemical_formula_sum "Si O2"
_cell_formula_units_Z 14
_cell_length_a 9.026710
_cell_length_b 27.039447
_cell_length_c 9.418740
_cell_angle_alpha 143.227929
_cell_angle_beta 44.997191
_cell_angle_gamma 154.989701
_cell_volume 580.228062
_symmetry_space_group_name_H-M "P -1"
_symmetry_group_IT_number 2
_symmetry_cell_setting 'triclinic'
loop_
_space_group_symop_operation_xyz
x,y,z
-x,-y,-z
loop_
_atom_site_type_symbol
_atom_site_label
_atom_site_fract_x
_atom_site_fract_y
_atom_site_fract_z
Si Si1 0.776189 0.344971 0.814313
Si Si2 0.278565 0.361364 0.411491
Si Si3 0.871577 0.305026 0.961304
Si Si4 0.492269 0.386537 0.630743
Si Si5 0.082590 0.096197 0.548982
Si Si6 0.471035 0.189689 0.239949
Si Si7 0.796984 0.134243 0.010046
O O1 0.732710 0.310623 0.931388
O O2 0.454433 0.249027 0.703280
O O3 0.960239 0.316896 0.580485
O O4 0.000000 0.500000 0.000000
O O5 0.500000 0.500000 0.500000
O O6 0.473325 0.387252 0.475334
O O7 0.143025 0.249248 0.137396
O O8 0.113706 0.302180 0.747862
O O9 0.551121 0.190017 0.023485
O O10 0.179249 0.456653 0.176296
O O11 0.547157 0.310709 0.466991
O O12 0.123388 0.076350 0.315890
O O13 0.000000 0.000000 0.500000
O O14 0.822200 0.088264 0.744629
O O15 0.720482 0.204253 0.184356
O O16 0.500000 0.000000 0.000000
#
# Coordination Sequence:
#
# PCOD9037946 Si02
#       7
#     2   2   2   2   2   2   2
#     4  11  23  41  69 106 139 179 231 283 340 415
#     4  11  23  41  69 106 139 179 231 283 340 415
#     4  10  23  41  65 102 144 180 227 283 346 412
#     4  10  23  41  65 102 144 180 227 283 346 412
#     4  12  25  46  70  99 136 184 236 284 347 418
#     4  12  23  42  71  96 134 180 228 286 349 396
#     4  12  25  46  70  99 136 184 236 284 347 418
#
# _framework density 24.128443000000001
#
# number of rings (size 3 to 8) (size 9 to 14) (size 15 to 20)
#    0.000    0.857    2.857    3.857    4.000    2.286 
#    0.000    2.857    0.000    5.143    0.000    0.000 
#    0.000    0.000    0.000    0.000    0.000    0.000 
#
# Total GULP energy -78179.301983 kJ/mol
# GULP energy per Si atom -5584.235856 kJ/mol
# Density = 2.407353 g / cm^3
# Si number density = 24.128443 Si / 1000 Ang^3
#
#
#
# Elastic Constant Matrix: (Units=GPa)
#
#
# Indices 1 2 3 4 5 6 
#
# 1 120.4385 38.0909 45.1479 -8.9712 -5.8073 -29.8095
# 2 38.0909 114.7503 36.7392 -27.3333 17.2013 -30.7181
# 3 45.1479 36.7392 84.4707 -27.5376 -13.1935 -6.6524
# 4 -8.9712 -27.3333 -27.5376 58.1439 -2.1339 4.7192
# 5 -5.8073 17.2013 -13.1935 -2.1339 48.4253 -5.8440
# 6 -29.8095 -30.7181 -6.6524 4.7192 -5.8440 41.5285
#
#
#
# Elastic Compliance Matrix: (Units=1/GPa)
#
#
# Indices 1 2 3 4 5 6 
#
# 1 0.012805 -0.000647 -0.006442 -0.001999 0.000892 0.008034
# 2 -0.000647 0.014338 -0.004969 0.003424 -0.005384 0.008198
# 3 -0.006442 -0.004969 0.020274 0.006903 0.006222 -0.004961
# 4 -0.001999 0.003424 0.006903 0.021827 0.001377 -0.000083
# 5 0.000892 -0.005384 0.006222 0.001377 0.024540 0.000951
# 6 0.008034 0.008198 -0.004961 -0.000083 0.000951 0.035259
#
#
# Mechanical properties :
#
#
# Convention : Reuss Voigt Hill
#
# Bulk Modulus (GPa) = 42.91881 62.17949 52.54915
# Shear Modulus (GPa) = 31.07000 42.93162 37.00081
#
# Velocity S-wave (km/s) = 3.59234 4.22275 3.92023
# Velocity P-wave (km/s) = 5.91885 7.04284 6.50517
#
# Compressibility (1/GPa) = 0.02329981
#
# Stress axis : x y z
#
# Youngs Moduli (GPa) = 78.09365 69.74682 49.32319
#
# Poissons Ratio (x) = 0.04515 0.31775
# Poissons Ratio (y) = 0.05055 0.24509
# Poissons Ratio (z) = 0.50310 0.34658
#
# Static dielectric constant tensor:
#      x y z
#    x 1.794400 -0.078100 0.104630 
#    y -0.078100 1.837620 0.055480 
#    z 0.104630 0.055480 1.863840 
# 
# From -- ./inp_files/226611.got.cif
#   From: 2010.05.17/outbox.cif.g08.bks.cpg/sg2_114_cif.got.tgz:226611.got - 2010.06.03 11:33:40.
