data_PCOD9037331
_publ_section_title
;
Structure prediction by ZEFSAII (Michael W. Deem and Ramdas Pophale) SiO2 
 PCOD9037331
Probable space group: P -1
;
_chemical_formula_sum "Si O2"
_cell_formula_units_Z 16
_cell_length_a 9.123568
_cell_length_b 7.822361
_cell_length_c 14.038237
_cell_angle_alpha 112.207509
_cell_angle_beta 132.696919
_cell_angle_gamma 86.898955
_cell_volume 650.914149
_symmetry_space_group_name_H-M "P -1"
_symmetry_group_IT_number 2
_symmetry_cell_setting 'triclinic'
loop_
_space_group_symop_operation_xyz
x,y,z
-x,-y,-z
loop_
_atom_site_type_symbol
_atom_site_label
_atom_site_fract_x
_atom_site_fract_y
_atom_site_fract_z
Si Si1 0.197753 0.796594 0.839173
Si Si2 0.830403 0.620248 0.072355
Si Si3 0.616716 0.876865 0.154341
Si Si4 0.770157 0.459348 0.352121
Si Si5 0.503810 0.278416 0.735184
Si Si6 0.494661 0.261852 0.352746
Si Si7 0.268324 0.599157 0.324878
Si Si8 0.071816 0.000851 0.139619
O O1 0.216542 0.599662 0.763245
O O2 0.236643 0.935994 0.793602
O O3 0.386283 0.862937 0.010412
O O4 0.993540 0.829232 0.799675
O O5 0.698587 0.705094 0.108476
O O6 0.021457 0.555212 0.187433
O O7 0.945370 0.800380 0.091339
O O8 0.676399 0.448755 0.906349
O O9 0.601398 0.872354 0.260062
O O10 0.685293 0.640585 0.362050
O O11 0.608644 0.293897 0.308489
O O12 0.000000 0.500000 0.500000
O O13 0.615271 0.261179 0.680963
O O14 0.365500 0.420157 0.325460
O O15 0.662450 0.310507 0.521932
O O16 0.320564 0.061747 0.256487
O O17 0.000000 0.000000 0.000000
#
# Coordination Sequence:
#
# PCOD9037331 Si02
#       8
#     2   2   2   2   2   2   2   2
#     4  10  24  42  65  97 131 169 219 264 332 383
#     4  11  23  41  62 101 129 166 225 270 325 381
#     4  10  23  40  65  95 131 167 212 278 321 386
#     4  11  25  43  68  95 130 174 220 267 323 393
#     4  11  23  40  65 101 129 166 226 270 322 386
#     4  10  25  44  64  94 130 174 221 261 328 392
#     4  10  24  41  64  92 132 169 219 268 324 383
#     4  11  25  41  68  95 132 173 218 269 324 390
#
# _framework density 24.580812999999999
#
# number of rings (size 3 to 8) (size 9 to 14) (size 15 to 20)
#    0.000    1.500    1.250    2.250   14.000    0.500 
#    0.000    0.625    0.000    0.000    0.000    0.000 
#    0.000    0.000    0.000    0.000    0.000    0.000 
#
# Total GULP energy -89511.462117 kJ/mol
# GULP energy per Si atom -5594.466382 kJ/mol
# Density = 2.452487 g / cm^3
# Si number density = 24.580813 Si / 1000 Ang^3
#
#
#
# Elastic Constant Matrix: (Units=GPa)
#
#
# Indices 1 2 3 4 5 6 
#
# 1 150.0455 18.9414 20.6936 -20.1341 -1.6325 10.7690
# 2 18.9414 69.8403 2.1721 -28.6993 0.8735 28.5926
# 3 20.6936 2.1721 76.9685 -23.8671 19.4235 -3.6251
# 4 -20.1341 -28.6993 -23.8671 31.0146 -0.6667 -0.2077
# 5 -1.6325 0.8735 19.4235 -0.6667 44.0455 -2.7156
# 6 10.7690 28.5926 -3.6251 -0.2077 -2.7156 46.5455
#
#
#
# Elastic Compliance Matrix: (Units=1/GPa)
#
#
# Indices 1 2 3 4 5 6 
#
# 1 0.007524 0.001444 -0.000470 0.005850 0.000385 -0.002616
# 2 0.001444 0.052554 0.019041 0.063788 -0.010360 -0.031454
# 3 -0.000470 0.019041 0.026899 0.037683 -0.012306 -0.010043
# 4 0.005850 0.063788 0.037683 0.123420 -0.018148 -0.038111
# 5 0.000385 -0.010360 -0.012306 -0.018148 0.028501 0.006898
# 6 -0.002616 -0.031454 -0.010043 -0.038111 0.006898 0.040862
#
#
# Mechanical properties :
#
#
# Convention : Reuss Voigt Hill
#
# Bulk Modulus (GPa) = 7.87358 42.27429 25.07393
# Shear Modulus (GPa) = 17.72647 41.32425 29.52536
#
# Velocity S-wave (km/s) = 2.68834 4.10464 3.46953
# Velocity P-wave (km/s) = 3.58418 6.30076 5.12571
#
# Compressibility (1/GPa) = 0.12700701
#
# Stress axis : x y z
#
# Youngs Moduli (GPa) = 132.90685 19.02822 37.17622
#
# Poissons Ratio (x) = -0.02747 0.01748
# Poissons Ratio (y) = -0.19190 -0.70789
# Poissons Ratio (z) = 0.06248 -0.36233
#
# Static dielectric constant tensor:
#      x y z
#    x 1.907690 0.010960 -0.003360 
#    y 0.010960 2.121070 0.016150 
#    z -0.003360 0.016150 1.931000 
# 
# From -- ./inp_files/495547.got.cif
#   From: 2010.05.17/outbox.cif.g08.bks.cpg/sg2_248_cif.got.tgz:495547.got - 2010.06.03 11:33:40.
