data_PCOD9037007
_publ_section_title
;
Structure prediction by ZEFSAII (Michael W. Deem and Ramdas Pophale) SiO2 
 PCOD9037007
Probable space group: P -1
;
_chemical_formula_sum "Si O2"
_cell_formula_units_Z 16
_cell_length_a 8.273667
_cell_length_b 8.620078
_cell_length_c 26.138733
_cell_angle_alpha 137.507837
_cell_angle_beta 46.537255
_cell_angle_gamma 101.580216
_cell_volume 713.400681
_symmetry_space_group_name_H-M "P -1"
_symmetry_group_IT_number 2
_symmetry_cell_setting 'triclinic'
loop_
_space_group_symop_operation_xyz
x,y,z
-x,-y,-z
loop_
_atom_site_type_symbol
_atom_site_label
_atom_site_fract_x
_atom_site_fract_y
_atom_site_fract_z
Si Si1 0.505178 0.668174 0.587007
Si Si2 0.335053 0.707996 0.739294
Si Si3 0.793642 0.344798 0.141771
Si Si4 0.874552 0.265485 0.633690
Si Si5 0.189071 0.812511 0.257289
Si Si6 0.828112 0.382624 0.994858
Si Si7 0.106225 0.376794 0.365120
Si Si8 0.966968 0.331418 0.844502
O O1 0.500000 0.500000 0.500000
O O2 0.435462 0.566603 0.627714
O O3 0.798683 0.621323 0.517475
O O4 0.254165 0.008051 0.715749
O O5 0.256920 0.579569 0.768306
O O6 0.603057 0.690445 0.695811
O O7 0.047210 0.040877 0.877714
O O8 0.469007 0.521512 0.238543
O O9 0.957823 0.454519 0.111739
O O10 0.000000 0.000000 0.000000
O O11 0.958338 0.140365 0.643632
O O12 0.937568 0.479926 0.647417
O O13 0.000000 0.000000 0.500000
O O14 0.117388 0.670868 0.195284
O O15 0.133833 0.090056 0.306139
O O16 0.527425 0.582248 0.136259
O O17 0.761362 0.404068 0.954035
O O18 0.000000 0.500000 0.000000
#
# Coordination Sequence:
#
# PCOD9037007 Si02
#       8
#     2   2   2   2   2   2   2   2
#     4  11  23  42  63  99 136 172 222 275 340 413
#     4  10  23  39  68  95 126 178 226 276 338 399
#     4  11  24  45  68  98 133 177 231 285 343 411
#     4  11  27  44  69 104 135 180 241 283 336 415
#     4  12  25  44  68 101 141 180 222 289 348 403
#     4  11  21  42  69  99 128 176 232 278 332 413
#     4  11  24  41  70  95 134 177 226 272 345 399
#     4  11  25  42  69  99 139 178 226 285 348 408
#
# _framework density 22.427789000000001
#
# number of rings (size 3 to 8) (size 9 to 14) (size 15 to 20)
#    0.000    1.000    2.500    3.750    8.750    1.000 
#    0.000    3.125    0.000    0.000    0.000    0.000 
#    0.000    0.000    0.000    0.000    0.000    0.000 
#
# Total GULP energy -89206.499594 kJ/mol
# GULP energy per Si atom -5575.406225 kJ/mol
# Density = 2.237674 g / cm^3
# Si number density = 22.427789 Si / 1000 Ang^3
#
#
#
# Elastic Constant Matrix: (Units=GPa)
#
#
# Indices 1 2 3 4 5 6 
#
# 1 55.6567 31.5735 19.5703 -11.1148 2.0102 -16.8039
# 2 31.5735 137.5277 40.6990 -18.8859 16.4982 -29.5269
# 3 19.5703 40.6990 94.1895 -15.1511 -1.5976 -9.4185
# 4 -11.1148 -18.8859 -15.1511 34.8047 -0.0368 12.0187
# 5 2.0102 16.4982 -1.5976 -0.0368 38.1748 -9.5226
# 6 -16.8039 -29.5269 -9.4185 12.0187 -9.5226 30.2670
#
#
#
# Elastic Compliance Matrix: (Units=1/GPa)
#
#
# Indices 1 2 3 4 5 6 
#
# 1 0.023522 -0.002605 -0.002481 0.001638 0.002229 0.009797
# 2 -0.002605 0.010808 -0.003310 0.001311 -0.003026 0.006594
# 3 -0.002481 -0.003310 0.013025 0.003574 0.001755 -0.001420
# 4 0.001638 0.001311 0.003574 0.035640 -0.003447 -0.011936
# 5 0.002229 -0.003026 0.001755 -0.003447 0.029848 0.009591
# 6 0.009797 0.006594 -0.001420 -0.011936 0.009591 0.052227
#
#
# Mechanical properties :
#
#
# Convention : Reuss Voigt Hill
#
# Bulk Modulus (GPa) = 32.71883 52.33996 42.52940
# Shear Modulus (GPa) = 26.03505 33.68471 29.85988
#
# Velocity S-wave (km/s) = 3.41080 3.87966 3.65276
# Velocity P-wave (km/s) = 5.48923 6.59218 6.06582
#
# Compressibility (1/GPa) = 0.03056344
#
# Stress axis : x y z
#
# Youngs Moduli (GPa) = 42.51384 92.52687 76.77461
#
# Poissons Ratio (x) = 0.24105 0.19046
# Poissons Ratio (y) = 0.11076 0.25410
# Poissons Ratio (z) = 0.10547 0.30623
#
# Static dielectric constant tensor:
#      x y z
#    x 1.879500 -0.081310 -0.002160 
#    y -0.081310 1.969920 -0.017990 
#    z -0.002160 -0.017990 1.801620 
# 
# From -- ./inp_files/616720.got.cif
#   From: 2010.05.17/outbox.cif.g08.bks.cpg/sg2_309_cif.got.tgz:616720.got - 2010.06.03 11:33:40.
