data_PCOD9037816
_publ_section_title
;
Structure prediction by ZEFSAII (Michael W. Deem and Ramdas Pophale) SiO2 
 PCOD9037816
Probable space group: P -1
;
_chemical_formula_sum "Si O2"
_cell_formula_units_Z 14
_cell_length_a 6.670057
_cell_length_b 11.705645
_cell_length_c 14.714140
_cell_angle_alpha 46.836875
_cell_angle_beta 122.194210
_cell_angle_gamma 130.627937
_cell_volume 628.015786
_symmetry_space_group_name_H-M "P -1"
_symmetry_group_IT_number 2
_symmetry_cell_setting 'triclinic'
loop_
_space_group_symop_operation_xyz
x,y,z
-x,-y,-z
loop_
_atom_site_type_symbol
_atom_site_label
_atom_site_fract_x
_atom_site_fract_y
_atom_site_fract_z
Si Si1 0.725723 0.935980 0.608511
Si Si2 0.460673 0.315680 0.748166
Si Si3 0.486340 0.803486 0.805262
Si Si4 0.224606 0.202733 0.942486
Si Si5 0.642447 0.369181 0.431513
Si Si6 0.942964 0.490170 0.268141
Si Si7 0.672184 0.898438 0.346835
O O1 0.718465 0.910457 0.728982
O O2 0.612408 0.746993 0.632977
O O3 0.500000 0.000000 0.500000
O O4 0.024471 0.061855 0.578534
O O5 0.406501 0.237077 0.878543
O O6 0.314567 0.437751 0.638093
O O7 0.376806 0.168246 0.731475
O O8 0.765336 0.453475 0.727611
O O9 0.270296 0.642239 0.782695
O O10 0.356415 0.926128 0.739600
O O11 0.604561 0.754457 0.947692
O O12 0.095121 0.334514 0.831521
O O13 0.000000 0.000000 0.000000
O O14 0.881359 0.401492 0.401886
O O15 0.557911 0.249011 0.565578
#
# Coordination Sequence:
#
# PCOD9037816 Si02
#       7
#     2   2   2   2   2   2   2
#     4  11  23  41  65  95 127 166 214 263 312 377
#     4  11  25  42  64  95 131 172 209 264 315 382
#     4  11  24  41  68  95 128 170 212 266 315 376
#     4  11  24  45  66  93 129 167 218 266 316 376
#     4  10  23  41  63  93 132 167 209 263 310 382
#     4  10  24  43  66  95 129 167 217 262 319 370
#     4  12  24  39  66  98 129 173 211 253 327 377
#
# _framework density 22.292432999999999
#
# number of rings (size 3 to 8) (size 9 to 14) (size 15 to 20)
#    0.000    1.143    1.429    3.857    4.000    5.714 
#    0.000    0.000    0.000    0.000    0.000    0.000 
#    0.000    0.000    0.000    0.000    0.000    0.000 
#
# Total GULP energy -78293.257370 kJ/mol
# GULP energy per Si atom -5592.375526 kJ/mol
# Density = 2.224169 g / cm^3
# Si number density = 22.292433 Si / 1000 Ang^3
#
#
#
# Elastic Constant Matrix: (Units=GPa)
#
#
# Indices 1 2 3 4 5 6 
#
# 1 80.3443 36.9716 30.3698 3.6890 -30.3708 -4.5381
# 2 36.9716 87.4023 9.1854 -6.1056 -11.3183 -7.6980
# 3 30.3698 9.1854 83.5305 8.8576 -27.2091 -2.3554
# 4 3.6890 -6.1056 8.8576 35.9689 -8.1920 -0.7665
# 5 -30.3708 -11.3183 -27.2091 -8.1920 43.0762 -5.2586
# 6 -4.5381 -7.6980 -2.3554 -0.7665 -5.2586 52.0388
#
#
#
# Elastic Compliance Matrix: (Units=1/GPa)
#
#
# Indices 1 2 3 4 5 6 
#
# 1 0.021298 -0.007036 -0.003222 0.000041 0.011362 0.001819
# 2 -0.007036 0.014727 0.000703 0.003117 0.000148 0.001658
# 3 -0.003222 0.000703 0.015797 -0.001651 0.007736 0.001295
# 4 0.000041 0.003117 -0.001651 0.030060 0.005694 0.001408
# 5 0.011362 0.000148 0.007736 0.005694 0.037878 0.005274
# 6 0.001819 0.001658 0.001295 0.001408 0.005274 0.020233
#
#
# Mechanical properties :
#
#
# Convention : Reuss Voigt Hill
#
# Bulk Modulus (GPa) = 30.56933 44.92564 37.74748
# Shear Modulus (GPa) = 29.41085 37.86678 33.63882
#
# Velocity S-wave (km/s) = 3.63618 4.12593 3.88877
# Velocity P-wave (km/s) = 5.60105 6.54937 6.09369
#
# Compressibility (1/GPa) = 0.03271253
#
# Stress axis : x y z
#
# Youngs Moduli (GPa) = 46.95303 67.90412 63.30281
#
# Poissons Ratio (x) = 0.47778 0.20394
# Poissons Ratio (y) = 0.33036 -0.04451
# Poissons Ratio (z) = 0.15126 -0.04774
#
# Static dielectric constant tensor:
#      x y z
#    x 1.835670 0.009630 0.004160 
#    y 0.009630 1.825480 -0.000360 
#    z 0.004160 -0.000360 1.814660 
# 
# From -- ./inp_files/25828.got.cif
#   From: 2010.05.17/outbox.cif.g08.bks.cpg/sg2_13_cif.got.tgz:25828.got - 2010.06.03 11:33:40.
