data_PCOD9037068
_publ_section_title
;
Structure prediction by ZEFSAII (Michael W. Deem and Ramdas Pophale) SiO2 
 PCOD9037068
Probable space group: P -1
;
_chemical_formula_sum "Si O2"
_cell_formula_units_Z 16
_cell_length_a 16.633453
_cell_length_b 13.956120
_cell_length_c 8.506171
_cell_angle_alpha 44.585942
_cell_angle_beta 43.271949
_cell_angle_gamma 35.751847
_cell_volume 753.685685
_symmetry_space_group_name_H-M "P -1"
_symmetry_group_IT_number 2
_symmetry_cell_setting 'triclinic'
loop_
_space_group_symop_operation_xyz
x,y,z
-x,-y,-z
loop_
_atom_site_type_symbol
_atom_site_label
_atom_site_fract_x
_atom_site_fract_y
_atom_site_fract_z
Si Si1 0.558975 0.340241 0.490548
Si Si2 0.698866 0.527471 0.532855
Si Si3 0.765713 0.300484 0.969406
Si Si4 0.970663 0.671414 0.403948
Si Si5 0.749136 0.035591 0.158649
Si Si6 0.691309 0.017665 0.903737
Si Si7 0.028648 0.330824 0.230052
Si Si8 0.462774 0.111173 0.579715
O O1 0.500000 0.500000 0.500000
O O2 0.415613 0.390454 0.541387
O O3 0.675362 0.323470 0.223984
O O4 0.634916 0.167449 0.685020
O O5 0.679592 0.689069 0.454266
O O6 0.864692 0.382256 0.408388
O O7 0.664142 0.440214 0.815862
O O8 0.824646 0.119043 0.018539
O O9 0.887519 0.328847 0.798913
O O10 0.921923 0.695534 0.627352
O O11 0.000000 0.500000 0.500000
O O12 0.850210 0.833125 0.281290
O O13 0.603551 0.111442 0.383922
O O14 0.707760 0.071505 0.991941
O O15 0.848086 0.841594 0.836171
O O16 0.573614 0.976793 0.136502
O O17 0.000000 0.500000 0.000000
O O18 0.500000 0.000000 0.500000
#
# Coordination Sequence:
#
# PCOD9037068 Si02
#       8
#     2   2   2   2   2   2   2   2
#     4  12  27  43  67 104 140 182 230 289 350 407
#     4  11  24  45  70  97 138 188 227 281 346 414
#     4  11  25  46  70  96 140 184 234 277 346 426
#     4  11  26  44  71 100 136 187 234 278 343 424
#     4  11  23  45  71 100 139 185 234 281 346 416
#     4  11  25  44  70 107 143 179 234 291 347 400
#     4  11  23  43  68 103 142 173 228 291 348 399
#     4  10  23  39  72  99 134 180 235 278 345 406
#
# _framework density 21.229009000000001
#
# number of rings (size 3 to 8) (size 9 to 14) (size 15 to 20)
#    0.000    1.000    2.500    3.000    8.750    4.500 
#    0.000    3.750    0.000    0.000    0.000    0.000 
#    0.000    0.000    0.000    0.000    0.000    0.000 
#
# Total GULP energy -89410.731626 kJ/mol
# GULP energy per Si atom -5588.170727 kJ/mol
# Density = 2.118069 g / cm^3
# Si number density = 21.229009 Si / 1000 Ang^3
#
#
#
# Elastic Constant Matrix: (Units=GPa)
#
#
# Indices 1 2 3 4 5 6 
#
# 1 85.6402 41.3265 41.6045 2.6706 4.0350 3.7362
# 2 41.3265 132.0895 65.5973 -10.3963 4.7866 8.6011
# 3 41.6045 65.5973 169.3674 -9.0029 14.0242 -3.5091
# 4 2.6706 -10.3963 -9.0029 44.2573 -4.9574 2.2148
# 5 4.0350 4.7866 14.0242 -4.9574 38.0277 -8.8590
# 6 3.7362 8.6011 -3.5091 2.2148 -8.8590 40.2781
#
#
#
# Elastic Compliance Matrix: (Units=1/GPa)
#
#
# Indices 1 2 3 4 5 6 
#
# 1 0.014640 -0.003529 -0.002303 -0.002222 -0.000747 -0.000847
# 2 -0.003529 0.010565 -0.003154 0.002164 -0.000054 -0.002334
# 3 -0.002303 -0.003154 0.007913 0.000737 -0.001921 0.001113
# 4 -0.002222 0.002164 0.000737 0.023722 0.002567 -0.000932
# 5 -0.000747 -0.000054 -0.001921 0.002567 0.028851 0.006118
# 6 -0.000847 -0.002334 0.001113 -0.000932 0.006118 0.026898
#
#
# Mechanical properties :
#
#
# Convention : Reuss Voigt Hill
#
# Bulk Modulus (GPa) = 66.02574 76.01709 71.02142
# Shear Modulus (GPa) = 36.87006 40.41720 38.64363
#
# Velocity S-wave (km/s) = 4.17199 4.36807 4.27115
# Velocity P-wave (km/s) = 7.37404 7.83108 7.60600
#
# Compressibility (1/GPa) = 0.01514561
#
# Stress axis : x y z
#
# Youngs Moduli (GPa) = 68.30491 94.64830 126.37437
#
# Poissons Ratio (x) = 0.33405 0.29107
# Poissons Ratio (y) = 0.24107 0.39858
# Poissons Ratio (z) = 0.15732 0.29852
#
# Static dielectric constant tensor:
#      x y z
#    x 1.812870 -0.001560 -0.036310 
#    y -0.001560 1.780930 0.006280 
#    z -0.036310 0.006280 1.770110 
# 
# From -- ./inp_files/298265.got.cif
#   From: 2010.05.17/outbox.cif.g08.bks.cpg/sg2_150_cif.got.tgz:298265.got - 2010.06.03 11:33:40.
