data_PCOD9037196
_publ_section_title
;
Structure prediction by ZEFSAII (Michael W. Deem and Ramdas Pophale) SiO2 
 PCOD9037196
Probable space group: P -1
;
_chemical_formula_sum "Si O2"
_cell_formula_units_Z 14
_cell_length_a 16.339843
_cell_length_b 6.984979
_cell_length_c 7.169408
_cell_angle_alpha 74.321303
_cell_angle_beta 84.151421
_cell_angle_gamma 121.325888
_cell_volume 643.083782
_symmetry_space_group_name_H-M "P -1"
_symmetry_group_IT_number 2
_symmetry_cell_setting 'triclinic'
loop_
_space_group_symop_operation_xyz
x,y,z
-x,-y,-z
loop_
_atom_site_type_symbol
_atom_site_label
_atom_site_fract_x
_atom_site_fract_y
_atom_site_fract_z
Si Si1 0.138009 0.610144 0.037792
Si Si2 0.813485 0.934064 0.291086
Si Si3 0.061693 0.253288 0.808605
Si Si4 0.650569 0.314077 0.005194
Si Si5 0.022758 0.795846 0.537690
Si Si6 0.609652 0.556282 0.274478
Si Si7 0.483007 0.758347 0.274027
O O1 0.058253 0.424318 0.255614
O O2 0.102851 0.465454 0.889590
O O3 0.246417 0.664892 0.038699
O O4 0.145859 0.855687 0.930810
O O5 0.849483 0.757710 0.296697
O O6 0.695324 0.769768 0.331347
O O7 0.866428 0.075540 0.434255
O O8 0.999138 0.272517 0.654961
O O9 0.000000 0.000000 0.000000
O O10 0.656023 0.501716 0.103724
O O11 0.561698 0.045782 0.164634
O O12 0.613770 0.335199 0.806138
O O13 0.000000 0.000000 0.500000
O O14 0.537739 0.637353 0.212978
O O15 0.547796 0.325893 0.484708
#
# Coordination Sequence:
#
# PCOD9037196 Si02
#       7
#     2   2   2   2   2   2   2
#     4  12  23  41  63  92 129 162 201 258 303 364
#     4  11  23  41  62  93 128 159 207 250 305 367
#     4  11  23  42  65  87 125 168 203 249 309 358
#     4  11  23  40  67  89 123 163 205 249 314 360
#     4  10  23  40  63  92 124 162 206 247 301 369
#     4  11  22  42  65  90 123 163 204 253 309 361
#     4  10  24  42  63  92 123 157 209 261 301 359
#
# _framework density 21.770102999999999
#
# number of rings (size 3 to 8) (size 9 to 14) (size 15 to 20)
#    0.000    1.143    5.714    1.286    4.000    0.571 
#    0.000    0.000    0.000    0.000    0.000    0.000 
#    0.000    0.000    0.000    0.000    0.000    0.000 
#
# Total GULP energy -78254.608395 kJ/mol
# GULP energy per Si atom -5589.614885 kJ/mol
# Density = 2.172055 g / cm^3
# Si number density = 21.770103 Si / 1000 Ang^3
#
#
#
# Elastic Constant Matrix: (Units=GPa)
#
#
# Indices 1 2 3 4 5 6 
#
# 1 102.0019 37.6454 12.0540 13.8088 26.9170 12.6692
# 2 37.6454 78.0091 33.9275 4.5896 11.5364 5.4680
# 3 12.0540 33.9275 62.2324 0.8408 21.6997 3.7007
# 4 13.8088 4.5896 0.8408 31.5143 3.1849 5.3254
# 5 26.9170 11.5364 21.6997 3.1849 29.6620 1.0070
# 6 12.6692 5.4680 3.7007 5.3254 1.0070 42.0079
#
#
#
# Elastic Compliance Matrix: (Units=1/GPa)
#
#
# Indices 1 2 3 4 5 6 
#
# 1 0.018036 -0.008977 0.008025 -0.004300 -0.018149 -0.003998
# 2 -0.008977 0.021484 -0.013344 0.000055 0.009517 0.000851
# 3 0.008025 -0.013344 0.030430 0.000555 -0.024316 -0.002851
# 4 -0.004300 0.000055 0.000555 0.034122 -0.000084 -0.003083
# 5 -0.018149 0.009517 -0.024316 -0.000084 0.064114 0.004851
# 6 -0.003998 0.000851 -0.002851 -0.003083 0.004851 0.025426
#
#
# Mechanical properties :
#
#
# Convention : Reuss Voigt Hill
#
# Bulk Modulus (GPa) = 24.17878 45.49969 34.83924
# Shear Modulus (GPa) = 21.18725 31.21129 26.19927
#
# Velocity S-wave (km/s) = 3.12304 3.79050 3.47284
# Velocity P-wave (km/s) = 4.91274 6.33266 5.66735
#
# Compressibility (1/GPa) = 0.04135857
#
# Stress axis : x y z
#
# Youngs Moduli (GPa) = 55.44331 46.54618 32.86233
#
# Poissons Ratio (x) = 0.41783 -0.26370
# Poissons Ratio (y) = 0.49770 0.43850
# Poissons Ratio (z) = -0.44491 0.62110
#
# Static dielectric constant tensor:
#      x y z
#    x 1.806250 0.001390 0.006390 
#    y 0.001390 1.818330 0.017440 
#    z 0.006390 0.017440 1.796080 
# 
# From -- ./inp_files/44945.got.cif
#   From: 2010.05.17/outbox.cif.g08.bks.cpg/sg2_23_cif.got.tgz:44945.got - 2010.06.03 11:33:40.
