data_PCOD9037403
_publ_section_title
;
Structure prediction by ZEFSAII (Michael W. Deem and Ramdas Pophale) SiO2 
 PCOD9037403
Probable space group: P -1
;
_chemical_formula_sum "Si O2"
_cell_formula_units_Z 16
_cell_length_a 13.932315
_cell_length_b 9.627528
_cell_length_c 7.995448
_cell_angle_alpha 89.204257
_cell_angle_beta 97.792275
_cell_angle_gamma 135.515586
_cell_volume 739.229739
_symmetry_space_group_name_H-M "P -1"
_symmetry_group_IT_number 2
_symmetry_cell_setting 'triclinic'
loop_
_space_group_symop_operation_xyz
x,y,z
-x,-y,-z
loop_
_atom_site_type_symbol
_atom_site_label
_atom_site_fract_x
_atom_site_fract_y
_atom_site_fract_z
Si Si1 0.078379 0.274200 0.362689
Si Si2 0.379764 0.646699 0.318464
Si Si3 0.574678 0.594272 0.834870
Si Si4 0.605513 0.900798 0.626477
Si Si5 0.893883 0.953390 0.850065
Si Si6 0.937413 0.378843 0.159096
Si Si7 0.648231 0.148773 0.945004
Si Si8 0.922093 0.228769 0.639548
O O1 0.237833 0.487384 0.390670
O O2 0.091216 0.128671 0.308939
O O3 0.986288 0.273771 0.214205
O O4 0.009139 0.237174 0.522058
O O5 0.442081 0.564110 0.272630
O O6 0.494304 0.831823 0.463042
O O7 0.334566 0.684353 0.141806
O O8 0.546479 0.698798 0.705900
O O9 0.740725 0.781574 0.893069
O O10 0.500000 0.500000 0.000000
O O11 0.637430 0.033823 0.787423
O O12 0.756411 0.049196 0.568040
O O13 0.929671 0.146935 0.811582
O O14 0.000000 0.000000 0.000000
O O15 0.010109 0.552035 0.313151
O O16 0.772295 0.232237 0.097400
O O17 0.000000 0.500000 0.000000
O O18 0.500000 0.000000 0.000000
#
# Coordination Sequence:
#
# PCOD9037403 Si02
#       8
#     2   2   2   2   2   2   2   2
#     4  11  24  41  66  95 127 169 208 257 322 372
#     4  11  24  43  64  94 131 165 209 263 313 376
#     4  10  23  42  66  94 125 168 212 255 319 370
#     4  11  24  43  64  94 131 165 209 263 313 376
#     4  10  23  40  66  96 127 160 212 266 307 374
#     4  12  23  44  66  90 131 166 212 264 310 372
#     4  12  27  42  66  96 125 168 216 259 314 372
#     4  11  24  41  66  95 127 169 208 257 322 372
#
# _framework density 21.644151000000001
#
# number of rings (size 3 to 8) (size 9 to 14) (size 15 to 20)
#    0.000    1.000    2.500    3.000    7.000    2.000 
#    0.000    0.000    0.000    0.000    0.000    0.000 
#    0.000    0.000    0.000    0.000    0.000    0.000 
#
# Total GULP energy -89343.998015 kJ/mol
# GULP energy per Si atom -5583.999876 kJ/mol
# Density = 2.159489 g / cm^3
# Si number density = 21.644151 Si / 1000 Ang^3
#
#
#
# Elastic Constant Matrix: (Units=GPa)
#
#
# Indices 1 2 3 4 5 6 
#
# 1 85.8992 34.8180 19.9887 -2.6154 -7.2377 18.6611
# 2 34.8180 67.6872 28.3979 -3.8897 -12.2612 5.3434
# 3 19.9887 28.3979 63.3229 -2.4065 -9.8963 28.0962
# 4 -2.6154 -3.8897 -2.4065 18.2205 14.1532 -3.4277
# 5 -7.2377 -12.2612 -9.8963 14.1532 54.3362 -9.3732
# 6 18.6611 5.3434 28.0962 -3.4277 -9.3732 40.1694
#
#
#
# Elastic Compliance Matrix: (Units=1/GPa)
#
#
# Indices 1 2 3 4 5 6 
#
# 1 0.016454 -0.008961 0.002387 -0.000195 -0.000780 -0.008320
# 2 -0.008961 0.024349 -0.012060 0.001557 0.003476 0.010303
# 3 0.002387 -0.012060 0.029330 -0.002174 0.000020 -0.020200
# 4 -0.000195 0.001557 -0.002174 0.069113 -0.017518 0.003214
# 5 -0.000780 0.003476 0.000020 -0.017518 0.024354 0.004074
# 6 -0.008320 0.010303 -0.020200 0.003214 0.004074 0.042743
#
#
# Mechanical properties :
#
#
# Convention : Reuss Voigt Hill
#
# Bulk Modulus (GPa) = 30.42707 42.59094 36.50900
# Shear Modulus (GPa) = 19.64126 31.45887 25.55006
#
# Velocity S-wave (km/s) = 3.01568 3.81656 3.43951
# Velocity P-wave (km/s) = 5.11998 6.25636 5.71648
#
# Compressibility (1/GPa) = 0.03286547
#
# Stress axis : x y z
#
# Youngs Moduli (GPa) = 60.77468 41.06967 34.09438
#
# Poissons Ratio (x) = 0.36803 -0.08139
# Poissons Ratio (y) = 0.54461 0.41118
# Poissons Ratio (z) = -0.14507 0.49530
#
# Static dielectric constant tensor:
#      x y z
#    x 1.779710 -0.048420 -0.049230 
#    y -0.048420 1.762210 -0.044730 
#    z -0.049230 -0.044730 1.659560 
# 
# From -- ./inp_files/186836.got.cif
#   From: 2010.05.17/outbox.cif.g08.bks.cpg/sg2_94_cif.got.tgz:186836.got - 2010.06.03 11:33:40.
