data_PCOD9037821
_publ_section_title
;
Structure prediction by ZEFSAII (Michael W. Deem and Ramdas Pophale) SiO2 
 PCOD9037821
Probable space group: P -1
;
_chemical_formula_sum "Si O2"
_cell_formula_units_Z 14
_cell_length_a 23.159412
_cell_length_b 9.191003
_cell_length_c 5.094992
_cell_angle_alpha 81.976808
_cell_angle_beta 106.345318
_cell_angle_gamma 41.050246
_cell_volume 567.020161
_symmetry_space_group_name_H-M "P -1"
_symmetry_group_IT_number 2
_symmetry_cell_setting 'triclinic'
loop_
_space_group_symop_operation_xyz
x,y,z
-x,-y,-z
loop_
_atom_site_type_symbol
_atom_site_label
_atom_site_fract_x
_atom_site_fract_y
_atom_site_fract_z
Si Si1 0.739840 0.088935 0.449237
Si Si2 0.337541 0.427503 0.802206
Si Si3 0.959088 0.958992 0.263899
Si Si4 0.880396 0.810975 0.232651
Si Si5 0.382364 0.944824 0.629275
Si Si6 0.824938 0.453237 0.628323
Si Si7 0.491357 0.870759 0.299853
O O1 0.696595 0.337413 0.247281
O O2 0.798921 0.905022 0.313105
O O3 0.642451 0.177340 0.375055
O O4 0.825313 0.922323 0.845124
O O5 0.242740 0.499650 0.686151
O O6 0.431725 0.151426 0.152907
O O7 0.385468 0.345464 0.585338
O O8 0.901193 0.936815 0.313139
O O9 0.067270 0.687551 0.309944
O O10 0.000000 0.000000 0.500000
O O11 0.874084 0.217902 0.911867
O O12 0.000000 0.500000 0.500000
O O13 0.261774 0.269104 0.399820
O O14 0.441451 0.883419 0.981356
O O15 0.454113 0.848039 0.499287
#
# Coordination Sequence:
#
# PCOD9037821 Si02
#       7
#     2   2   2   2   2   2   2
#     4  12  26  44  71  98 137 182 223 279 336 400
#     4  10  23  46  69 102 134 175 229 278 338 400
#     4  11  24  39  65  97 127 179 221 279 324 397
#     4  12  27  44  66  99 139 182 225 276 333 398
#     4  11  25  44  68 100 134 181 218 280 337 401
#     4  10  23  41  63  94 134 170 226 271 334 396
#     4  10  25  44  72  99 136 176 222 284 337 399
#
# _framework density 24.690477999999999
#
# number of rings (size 3 to 8) (size 9 to 14) (size 15 to 20)
#    0.000    1.143    1.429    3.000   10.000    7.429 
#    0.000    0.000    0.000    0.000    0.000    0.000 
#    0.000    0.000    0.000    0.000    0.000    0.000 
#
# Total GULP energy -78316.051160 kJ/mol
# GULP energy per Si atom -5594.003654 kJ/mol
# Density = 2.463428 g / cm^3
# Si number density = 24.690478 Si / 1000 Ang^3
#
#
#
# Elastic Constant Matrix: (Units=GPa)
#
#
# Indices 1 2 3 4 5 6 
#
# 1 130.5116 2.7933 13.5160 -1.8277 -12.4571 -2.3582
# 2 2.7933 71.4318 11.8062 -8.7809 -16.3635 -12.9768
# 3 13.5160 11.8062 82.5910 -0.1414 -0.8095 -3.9074
# 4 -1.8277 -8.7809 -0.1414 33.9354 -9.7713 -5.5769
# 5 -12.4571 -16.3635 -0.8095 -9.7713 31.0861 2.0030
# 6 -2.3582 -12.9768 -3.9074 -5.5769 2.0030 47.8251
#
#
#
# Elastic Compliance Matrix: (Units=1/GPa)
#
#
# Indices 1 2 3 4 5 6 
#
# 1 0.008277 0.001407 -0.001471 0.002274 0.004686 0.000739
# 2 0.001407 0.019830 -0.002637 0.010110 0.013735 0.005838
# 3 -0.001471 -0.002637 0.012712 -0.001270 -0.002058 0.000189
# 4 0.002274 0.010110 -0.001270 0.038407 0.017855 0.006483
# 5 0.004686 0.013735 -0.002058 0.017855 0.046583 0.003921
# 6 0.000739 0.005838 0.000189 0.006483 0.003921 0.023137
#
#
# Mechanical properties :
#
#
# Convention : Reuss Voigt Hill
#
# Bulk Modulus (GPa) = 28.23478 37.86281 33.04879
# Shear Modulus (GPa) = 30.09259 39.66393 34.87826
#
# Velocity S-wave (km/s) = 3.49491 4.01240 3.76256
# Velocity P-wave (km/s) = 5.26746 6.06911 5.68244
#
# Compressibility (1/GPa) = 0.03541732
#
# Stress axis : x y z
#
# Youngs Moduli (GPa) = 120.81871 50.42855 78.66545
#
# Poissons Ratio (x) = -0.07094 0.11570
# Poissons Ratio (y) = -0.16996 0.20742
# Poissons Ratio (z) = 0.17770 0.13297
#
# Static dielectric constant tensor:
#      x y z
#    x 1.838030 -0.027470 -0.070480 
#    y -0.027470 2.026900 -0.042420 
#    z -0.070480 -0.042420 1.855320 
# 
# From -- ./inp_files/78422.got.cif
#   From: 2010.05.17/outbox.cif.g08.bks.cpg/sg2_40_cif.got.tgz:78422.got - 2010.06.03 11:33:40.
