data_PCOD9037472
_publ_section_title
;
Structure prediction by ZEFSAII (Michael W. Deem and Ramdas Pophale) SiO2 
 PCOD9037472
Probable space group: P -1
;
_chemical_formula_sum "Si O2"
_cell_formula_units_Z 14
_cell_length_a 17.234616
_cell_length_b 15.569185
_cell_length_c 8.392452
_cell_angle_alpha 125.083878
_cell_angle_beta 104.982807
_cell_angle_gamma 25.463296
_cell_volume 532.723926
_symmetry_space_group_name_H-M "P -1"
_symmetry_group_IT_number 2
_symmetry_cell_setting 'triclinic'
loop_
_space_group_symop_operation_xyz
x,y,z
-x,-y,-z
loop_
_atom_site_type_symbol
_atom_site_label
_atom_site_fract_x
_atom_site_fract_y
_atom_site_fract_z
Si Si1 0.130445 0.440034 0.859133
Si Si2 0.473571 0.819480 0.654305
Si Si3 0.012242 0.227477 0.145281
Si Si4 0.660089 0.358289 0.175146
Si Si5 0.083613 0.317604 0.490267
Si Si6 0.274535 0.379161 0.156168
Si Si7 0.122026 0.931182 0.367559
O O1 0.327044 0.247086 0.885189
O O2 0.833126 0.785424 0.141482
O O3 0.043647 0.639392 0.901686
O O4 0.234289 0.208097 0.573366
O O5 0.554499 0.597109 0.449619
O O6 0.499642 0.837560 0.862918
O O7 0.716685 0.571231 0.424290
O O8 0.184801 0.088370 0.207192
O O9 0.174346 0.917662 0.905978
O O10 0.405579 0.611253 0.248850
O O11 0.830171 0.163169 0.892579
O O12 0.000000 0.500000 0.500000
O O13 0.852233 0.549522 0.717973
O O14 0.056618 0.740405 0.385935
O O15 0.000000 0.000000 0.500000
#
# Coordination Sequence:
#
# PCOD9037472 Si02
#       7
#     2   2   2   2   2   2   2
#     4  11  24  43  69  97 131 179 220 279 331 385
#     4  11  24  41  67  95 138 175 218 269 334 396
#     4  10  23  40  67  97 131 179 222 269 338 392
#     4  11  23  43  67  96 142 179 214 275 335 401
#     4   9  20  44  70  94 132 177 225 277 333 385
#     4  11  23  43  64 103 131 170 229 271 324 399
#     4  11  25  41  67 103 139 174 226 269 329 403
#
# _framework density 26.280028000000001
#
# number of rings (size 3 to 8) (size 9 to 14) (size 15 to 20)
#    0.000    1.429    4.286    0.857    4.000    2.857 
#    0.000    4.286    0.000    9.429    0.000    0.000 
#    0.000    0.000    0.000    0.000    0.000    0.000 
#
# Total GULP energy -78378.946579 kJ/mol
# GULP energy per Si atom -5598.496184 kJ/mol
# Density = 2.622021 g / cm^3
# Si number density = 26.280028 Si / 1000 Ang^3
#
#
#
# Elastic Constant Matrix: (Units=GPa)
#
#
# Indices 1 2 3 4 5 6 
#
# 1 168.5421 44.4332 67.4454 -7.3506 8.8350 3.2935
# 2 44.4332 94.5572 24.1442 -11.2839 18.3183 -6.9676
# 3 67.4454 24.1442 70.1426 0.7507 21.8071 -14.7601
# 4 -7.3506 -11.2839 0.7507 57.4496 -6.1363 12.8073
# 5 8.8350 18.3183 21.8071 -6.1363 63.3474 -6.1651
# 6 3.2935 -6.9676 -14.7601 12.8073 -6.1651 38.5426
#
#
#
# Elastic Compliance Matrix: (Units=1/GPa)
#
#
# Indices 1 2 3 4 5 6 
#
# 1 0.012116 -0.003148 -0.013136 0.003046 0.003345 -0.007112
# 2 -0.003148 0.012971 -0.000208 0.001483 -0.002944 0.001570
# 3 -0.013136 -0.000208 0.032706 -0.006257 -0.008580 0.014317
# 4 0.003046 0.001483 -0.006257 0.020384 0.002421 -0.008775
# 5 0.003345 -0.002944 -0.008580 0.002421 0.019179 -0.001840
# 6 -0.007112 0.001570 0.014317 -0.008775 -0.001840 0.034941
#
#
# Mechanical properties :
#
#
# Convention : Reuss Voigt Hill
#
# Bulk Modulus (GPa) = 40.30770 67.25415 53.78093
# Shear Modulus (GPa) = 28.80981 45.01587 36.91284
#
# Velocity S-wave (km/s) = 3.31458 4.14325 3.75186
# Velocity P-wave (km/s) = 5.47902 6.96675 6.26718
#
# Compressibility (1/GPa) = 0.02480916
#
# Stress axis : x y z
#
# Youngs Moduli (GPa) = 82.53365 77.09517 30.57524
#
# Poissons Ratio (x) = 0.24270 0.40164
# Poissons Ratio (y) = 0.25982 0.00636
# Poissons Ratio (z) = 1.08417 0.01604
#
# Static dielectric constant tensor:
#      x y z
#    x 2.033740 -0.003220 -0.039580 
#    y -0.003220 2.032690 -0.041590 
#    z -0.039580 -0.041590 2.118860 
# 
# From -- ./inp_files/315951.got.cif
#   From: 2010.05.17/outbox.cif.g08.bks.cpg/sg2_158_cif.got.tgz:315951.got - 2010.06.03 11:33:40.
