data_PCOD9037223
_publ_section_title
;
Structure prediction by ZEFSAII (Michael W. Deem and Ramdas Pophale) SiO2 
 PCOD9037223
Probable space group: P -1
;
_chemical_formula_sum "Si O2"
_cell_formula_units_Z 15
_cell_length_a 10.061254
_cell_length_b 9.723129
_cell_length_c 15.061792
_cell_angle_alpha 95.848712
_cell_angle_beta 132.223402
_cell_angle_gamma 116.416142
_cell_volume 778.482282
_symmetry_space_group_name_H-M "P -1"
_symmetry_group_IT_number 2
_symmetry_cell_setting 'triclinic'
loop_
_space_group_symop_operation_xyz
x,y,z
-x,-y,-z
loop_
_atom_site_type_symbol
_atom_site_label
_atom_site_fract_x
_atom_site_fract_y
_atom_site_fract_z
Si Si1 0.950957 0.515160 0.619395
Si Si2 0.417033 0.664581 0.717426
Si Si3 0.365757 0.464939 0.080716
Si Si4 0.000000 0.500000 0.000000
Si Si5 0.278309 0.886003 0.462274
Si Si6 0.727247 0.067818 0.165610
Si Si7 0.550976 0.036500 0.783096
Si Si8 0.171303 0.191727 0.811270
O O1 0.725429 0.432830 0.446320
O O2 0.865700 0.337646 0.625440
O O3 0.190225 0.588533 0.676027
O O4 0.049020 0.701744 0.726382
O O5 0.546273 0.599101 0.810620
O O6 0.593741 0.894231 0.805620
O O7 0.608953 0.649658 0.148370
O O8 0.206702 0.299207 0.923506
O O9 0.214030 0.509374 0.056785
O O10 0.798685 0.260122 0.902507
O O11 0.088839 0.906386 0.356324
O O12 0.500000 0.000000 0.500000
O O13 0.388973 0.959941 0.615279
O O14 0.623799 0.011117 0.216270
O O15 0.805893 0.957115 0.167230
O O16 0.500000 0.000000 0.000000
#
# Coordination Sequence:
#
# PCOD9037223 Si02
#       8
#     2   2   2   1   2   2   2   2
#     4   9  19  37  64  90 127 163 214 267 315 381
#     4   9  18  39  63  92 122 168 216 262 318 382
#     4  11  23  39  65  95 127 176 213 266 322 383
#     4  12  24  42  60  96 138 160 214 274 318 374
#     4  11  23  41  66  94 133 172 210 269 325 383
#     4  11  23  39  64  96 127 168 220 270 314 378
#     4  10  23  40  63  96 132 169 216 265 326 378
#     4  11  23  40  64  95 129 171 221 255 323 394
#
# _framework density 19.268260999999999
#
# number of rings (size 3 to 8) (size 9 to 14) (size 15 to 20)
#    0.000    1.600    2.667    3.200    1.867    3.200 
#    0.000    3.333    0.000    0.000    0.000    0.000 
#    0.000    0.000    0.000    0.000    0.000    0.000 
#
# Total GULP energy -83528.350386 kJ/mol
# GULP energy per Si atom -5568.556692 kJ/mol
# Density = 1.922441 g / cm^3
# Si number density = 19.268261 Si / 1000 Ang^3
#
#
#
# Elastic Constant Matrix: (Units=GPa)
#
#
# Indices 1 2 3 4 5 6 
#
# 1 82.5372 39.0857 40.1703 -15.2323 7.4460 -18.2504
# 2 39.0857 150.8875 67.1945 14.5379 6.1062 -25.6770
# 3 40.1703 67.1945 65.5304 -2.3327 0.8604 -6.9481
# 4 -15.2323 14.5379 -2.3327 45.3651 -0.2556 7.2852
# 5 7.4460 6.1062 0.8604 -0.2556 17.5500 3.0243
# 6 -18.2504 -25.6770 -6.9481 7.2852 3.0243 27.6429
#
#
#
# Elastic Compliance Matrix: (Units=1/GPa)
#
#
# Indices 1 2 3 4 5 6 
#
# 1 0.023671 0.004542 -0.017164 0.002925 -0.013538 0.016243
# 2 0.004542 0.019173 -0.020581 -0.008817 -0.011020 0.019165
# 3 -0.017164 -0.020581 0.044492 0.006884 0.016302 -0.022864
# 4 0.002925 -0.008817 0.006884 0.028221 0.004038 -0.012408
# 5 -0.013538 -0.011020 0.016302 0.004038 0.069918 -0.023791
# 6 0.016243 0.019165 -0.022864 -0.012408 -0.023791 0.064827
#
#
# Mechanical properties :
#
#
# Convention : Reuss Voigt Hill
#
# Bulk Modulus (GPa) = 47.77754 65.76180 56.76967
# Shear Modulus (GPa) = 15.44711 28.27859 21.86285
#
# Velocity S-wave (km/s) = 2.83448 3.83512 3.37212
# Velocity P-wave (km/s) = 5.96340 7.33584 6.68493
#
# Compressibility (1/GPa) = 0.02093034
#
# Stress axis : x y z
#
# Youngs Moduli (GPa) = 42.24547 52.15598 22.47583
#
# Poissons Ratio (x) = -0.23688 0.38576
# Poissons Ratio (y) = -0.19187 0.46259
# Poissons Ratio (z) = 0.72508 1.07345
#
# Static dielectric constant tensor:
#      x y z
#    x 1.620050 0.012050 -0.011200 
#    y 0.012050 1.688410 0.014270 
#    z -0.011200 0.014270 1.664320 
# 
# From -- ./inp_files/493250.got.cif
#   From: 2010.05.17/outbox.cif.g08.bks.cpg/sg2_247_cif.got.tgz:493250.got - 2010.06.03 11:33:40.
