data_PCOD9037970
_publ_section_title
;
Structure prediction by ZEFSAII (Michael W. Deem and Ramdas Pophale) SiO2 
 PCOD9037970
Probable space group: P -1
;
_chemical_formula_sum "Si O2"
_cell_formula_units_Z 12
_cell_length_a 6.221584
_cell_length_b 7.186776
_cell_length_c 14.788878
_cell_angle_alpha 63.295337
_cell_angle_beta 57.164579
_cell_angle_gamma 63.788225
_cell_volume 478.761762
_symmetry_space_group_name_H-M "P -1"
_symmetry_group_IT_number 2
_symmetry_cell_setting 'triclinic'
loop_
_space_group_symop_operation_xyz
x,y,z
-x,-y,-z
loop_
_atom_site_type_symbol
_atom_site_label
_atom_site_fract_x
_atom_site_fract_y
_atom_site_fract_z
Si Si1 0.761904 0.884480 0.079201
Si Si2 0.585791 0.659974 0.514376
Si Si3 0.037457 0.849097 0.669349
Si Si4 0.149678 0.709678 0.333498
Si Si5 0.233284 0.261334 0.087906
Si Si6 0.083887 0.576071 0.199213
O O1 0.811758 0.730474 0.189073
O O2 0.492335 0.072729 0.096408
O O3 0.786063 0.741643 0.013985
O O4 0.000000 0.000000 0.000000
O O5 0.500000 0.500000 0.500000
O O6 0.321736 0.835599 0.566439
O O7 0.833418 0.731889 0.402457
O O8 0.696790 0.510554 0.607865
O O9 0.017794 0.800741 0.792276
O O10 0.950445 0.641736 0.697255
O O11 0.837037 0.083910 0.655192
O O12 0.218057 0.699888 0.213508
O O13 0.236754 0.477991 0.094410
#
# Coordination Sequence:
#
# PCOD9037970 Si02
#       6
#     2   2   2   2   2   2
#     4  11  22  41  67  92 127 169 213 257 320 377
#     4  11  23  45  66  94 131 166 211 265 312 379
#     4  10  23  41  65  94 128 167 209 260 315 372
#     4  11  24  42  66  95 128 170 212 256 321 375
#     4   9  23  41  61  95 128 165 209 266 308 368
#     4  10  23  42  64  95 128 165 212 263 310 375
#
# _framework density 25.064658999999999
#
# number of rings (size 3 to 8) (size 9 to 14) (size 15 to 20)
#    1.000    0.667    1.667    2.000    2.333    4.000 
#    3.000    0.000    0.000    0.000    0.000    0.000 
#    0.000    0.000    0.000    0.000    0.000    0.000 
#
# Total GULP energy -67004.527771 kJ/mol
# GULP energy per Si atom -5583.710648 kJ/mol
# Density = 2.500761 g / cm^3
# Si number density = 25.064659 Si / 1000 Ang^3
#
#
#
# Elastic Constant Matrix: (Units=GPa)
#
#
# Indices 1 2 3 4 5 6 
#
# 1 73.0337 27.3546 33.8533 18.7877 12.3998 7.9183
# 2 27.3546 133.8445 6.4781 20.7906 23.8814 14.4012
# 3 33.8533 6.4781 67.6719 20.0867 3.2780 1.8501
# 4 18.7877 20.7906 20.0867 35.5242 2.8385 -3.9567
# 5 12.3998 23.8814 3.2780 2.8385 55.7890 -3.6735
# 6 7.9183 14.4012 1.8501 -3.9567 -3.6735 19.5807
#
#
#
# Elastic Compliance Matrix: (Units=1/GPa)
#
#
# Indices 1 2 3 4 5 6 
#
# 1 0.021277 -0.001251 -0.008123 -0.006612 -0.003972 -0.008998
# 2 -0.001251 0.010737 0.002393 -0.007718 -0.004728 -0.010063
# 3 -0.008123 0.002393 0.021516 -0.009532 -0.000161 -0.002465
# 4 -0.006612 -0.007718 -0.009532 0.043301 0.004370 0.018821
# 5 -0.003972 -0.004728 -0.000161 0.004370 0.021275 0.009974
# 6 -0.008998 -0.010063 -0.002465 0.018821 0.009974 0.068018
#
#
# Mechanical properties :
#
#
# Convention : Reuss Voigt Hill
#
# Bulk Modulus (GPa) = 25.27317 45.54689 35.41003
# Shear Modulus (GPa) = 23.44374 35.96972 29.70673
#
# Velocity S-wave (km/s) = 3.06164 3.79235 3.44641
# Velocity P-wave (km/s) = 4.75429 6.11450 5.47678
#
# Compressibility (1/GPa) = 0.03956765
#
# Stress axis : x y z
#
# Youngs Moduli (GPa) = 46.99843 93.13919 46.47617
#
# Poissons Ratio (x) = 0.11656 0.37754
# Poissons Ratio (y) = 0.05882 -0.11123
# Poissons Ratio (z) = 0.38178 -0.22291
#
# Static dielectric constant tensor:
#      x y z
#    x 1.946350 0.038830 -0.040480 
#    y 0.038830 2.007050 -0.040690 
#    z -0.040480 -0.040690 2.047160 
# 
# From -- ./inp_files/479587.got.cif
#   From: 2010.05.17/outbox.cif.g08.bks.cpg/sg2_240_cif.got.tgz:479587.got - 2010.06.03 11:33:40.
