data_PCOD9037775
_publ_section_title
;
Structure prediction by ZEFSAII (Michael W. Deem and Ramdas Pophale) SiO2 
 PCOD9037775
Probable space group: P -1
;
_chemical_formula_sum "Si O2"
_cell_formula_units_Z 16
_cell_length_a 14.550513
_cell_length_b 11.681332
_cell_length_c 14.704038
_cell_angle_alpha 67.296709
_cell_angle_beta 133.125205
_cell_angle_gamma 150.579512
_cell_volume 727.165401
_symmetry_space_group_name_H-M "P -1"
_symmetry_group_IT_number 2
_symmetry_cell_setting 'triclinic'
loop_
_space_group_symop_operation_xyz
x,y,z
-x,-y,-z
loop_
_atom_site_type_symbol
_atom_site_label
_atom_site_fract_x
_atom_site_fract_y
_atom_site_fract_z
Si Si1 0.044846 0.754625 0.979555
Si Si2 0.824332 0.775706 0.528999
Si Si3 0.371790 0.019966 0.388206
Si Si4 0.220861 0.220246 0.187025
Si Si5 0.163695 0.563598 0.897797
Si Si6 0.921358 0.056555 0.665972
Si Si7 0.151425 0.835426 0.818212
Si Si8 0.475134 0.687181 0.764214
O O1 0.024845 0.720220 0.869751
O O2 0.850705 0.699943 0.894363
O O3 0.943666 0.551605 0.035791
O O4 0.368654 0.086289 0.125999
O O5 0.513383 0.472501 0.368296
O O6 0.990073 0.798809 0.664870
O O7 0.812133 0.859992 0.578996
O O8 0.000000 0.000000 0.500000
O O9 0.316748 0.053741 0.429482
O O10 0.051230 0.712853 0.221519
O O11 0.500000 0.000000 0.500000
O O12 0.559992 0.259866 0.366239
O O13 0.301016 0.220168 0.148850
O O14 0.998751 0.948333 0.185975
O O15 0.127019 0.674819 0.811182
O O16 0.502844 0.830927 0.041538
O O17 0.191928 0.369893 0.709001
#
# Coordination Sequence:
#
# PCOD9037775 Si02
#       8
#     2   2   2   2   2   2   2   2
#     4  11  22  41  66  94 130 170 215 266 322 386
#     4  12  24  42  67  97 136 168 219 271 325 388
#     4  10  24  43  67  93 133 172 215 272 319 386
#     4  11  23  39  63  97 133 167 211 267 327 379
#     4  10  24  43  65  95 129 172 221 263 322 387
#     4  11  23  41  63  95 128 170 212 263 330 382
#     4  11  24  43  67  93 131 175 214 269 322 386
#     4  10  23  41  62  97 132 166 218 258 325 393
#
# _framework density 22.003249
#
# number of rings (size 3 to 8) (size 9 to 14) (size 15 to 20)
#    0.000    1.250    2.500    2.625    3.500    1.000 
#    0.000    5.000    0.000    0.000    0.000    0.000 
#    0.000    0.000    0.000    0.000    0.000    0.000 
#
# Total GULP energy -89487.926055 kJ/mol
# GULP energy per Si atom -5592.995378 kJ/mol
# Density = 2.195317 g / cm^3
# Si number density = 22.003249 Si / 1000 Ang^3
#
#
#
# Elastic Constant Matrix: (Units=GPa)
#
#
# Indices 1 2 3 4 5 6 
#
# 1 70.7967 14.8944 19.8586 -10.3638 -1.0765 -1.6229
# 2 14.8944 128.5421 33.1667 -13.2129 9.0686 7.0050
# 3 19.8586 33.1667 79.4884 -10.6398 9.1155 -12.6936
# 4 -10.3638 -13.2129 -10.6398 24.6914 -2.7200 5.9985
# 5 -1.0765 9.0686 9.1155 -2.7200 26.5934 -11.5680
# 6 -1.6229 7.0050 -12.6936 5.9985 -11.5680 27.1633
#
#
#
# Elastic Compliance Matrix: (Units=1/GPa)
#
#
# Indices 1 2 3 4 5 6 
#
# 1 0.016004 -0.000533 -0.003431 0.005381 0.002230 -0.000748
# 2 -0.000533 0.010173 -0.004143 0.004773 -0.004956 -0.007756
# 3 -0.003431 -0.004143 0.016743 0.001523 -0.000830 0.007997
# 4 0.005381 0.004773 0.001523 0.048611 -0.002106 -0.011829
# 5 0.002230 -0.004956 -0.000830 -0.002106 0.049218 0.022449
# 6 -0.000748 -0.007756 0.007997 -0.011829 0.022449 0.054680
#
#
# Mechanical properties :
#
#
# Convention : Reuss Voigt Hill
#
# Bulk Modulus (GPa) = 37.44407 46.07407 41.75907
# Shear Modulus (GPa) = 22.67120 29.75012 26.21066
#
# Velocity S-wave (km/s) = 3.21340 3.68105 3.45515
# Velocity P-wave (km/s) = 5.55179 6.24916 5.91077
#
# Compressibility (1/GPa) = 0.02670650
#
# Stress axis : x y z
#
# Youngs Moduli (GPa) = 62.48465 98.29676 59.72816
#
# Poissons Ratio (x) = 0.05235 0.20493
# Poissons Ratio (y) = 0.03328 0.24746
# Poissons Ratio (z) = 0.21439 0.40725
#
# Static dielectric constant tensor:
#      x y z
#    x 1.808640 0.007470 -0.018440 
#    y 0.007470 1.842580 -0.002310 
#    z -0.018440 -0.002310 1.829680 
# 
# From -- ./inp_files/455261.got.cif
#   From: 2010.05.17/outbox.cif.g08.bks.cpg/sg2_228_cif.got.tgz:455261.got - 2010.06.03 11:33:40.
