data_PCOD9037104
_publ_section_title
;
Structure prediction by ZEFSAII (Michael W. Deem and Ramdas Pophale) SiO2 
 PCOD9037104
Probable space group: P -1
;
_chemical_formula_sum "Si O2"
_cell_formula_units_Z 14
_cell_length_a 10.232782
_cell_length_b 10.878273
_cell_length_c 9.606749
_cell_angle_alpha 58.207228
_cell_angle_beta 42.257358
_cell_angle_gamma 59.562968
_cell_volume 598.352078
_symmetry_space_group_name_H-M "P -1"
_symmetry_group_IT_number 2
_symmetry_cell_setting 'triclinic'
loop_
_space_group_symop_operation_xyz
x,y,z
-x,-y,-z
loop_
_atom_site_type_symbol
_atom_site_label
_atom_site_fract_x
_atom_site_fract_y
_atom_site_fract_z
Si Si1 0.979016 0.758694 0.874320
Si Si2 0.543461 0.812066 0.764970
Si Si3 0.302624 0.494802 0.252495
Si Si4 0.102975 0.066836 0.600509
Si Si5 0.889987 0.232149 0.922332
Si Si6 0.461189 0.175779 0.914675
Si Si7 0.813976 0.316975 0.502231
O O1 0.037628 0.740073 0.998988
O O2 0.101725 0.645179 0.734358
O O3 0.748947 0.766961 0.023700
O O4 0.028771 0.919850 0.704657
O O5 0.691647 0.677837 0.653335
O O6 0.660161 0.945398 0.585607
O O7 0.323522 0.819339 0.875781
O O8 0.533394 0.773925 0.958921
O O9 0.276657 0.554134 0.394919
O O10 0.500000 0.500000 0.000000
O O11 0.141131 0.610734 0.226412
O O12 0.990223 0.200187 0.510526
O O13 0.028047 0.112367 0.788226
O O14 0.636696 0.231536 0.667234
O O15 0.500000 0.000000 0.000000
#
# Coordination Sequence:
#
# PCOD9037104 Si02
#       7
#     2   2   2   2   2   2   2
#     4  12  24  38  59  98 130 147 203 257 311 353
#     4  11  21  40  68  85 115 166 213 238 293 369
#     4   9  19  42  66  84 117 164 215 240 289 370
#     4  11  21  38  64  89 119 162 205 243 300 371
#     4  10  23  40  60  91 126 159 195 260 301 350
#     4  12  21  37  64  91 120 162 196 252 303 359
#     4  11  21  37  63  91 118 162 205 252 294 353
#
# _framework density 23.397597999999999
#
# number of rings (size 3 to 8) (size 9 to 14) (size 15 to 20)
#    0.000    1.143    7.143    1.714    0.000    4.000 
#    0.000    3.571    0.000    0.000    0.000    0.000 
#    0.000    0.000    0.000    0.000    0.000    0.000 
#
# Total GULP energy -78290.155906 kJ/mol
# GULP energy per Si atom -5592.153993 kJ/mol
# Density = 2.334434 g / cm^3
# Si number density = 23.397598 Si / 1000 Ang^3
#
#
#
# Elastic Constant Matrix: (Units=GPa)
#
#
# Indices 1 2 3 4 5 6 
#
# 1 156.7906 15.8981 65.0693 29.4015 4.4965 12.8115
# 2 15.8981 57.9211 3.6419 21.8270 9.1719 20.1652
# 3 65.0693 3.6419 98.6747 33.4412 -5.4489 1.2986
# 4 29.4015 21.8270 33.4412 33.5754 14.0785 6.0952
# 5 4.4965 9.1719 -5.4489 14.0785 45.6613 11.7576
# 6 12.8115 20.1652 1.2986 6.0952 11.7576 21.8324
#
#
#
# Elastic Compliance Matrix: (Units=1/GPa)
#
#
# Indices 1 2 3 4 5 6 
#
# 1 0.009400 0.000409 -0.005271 -0.002508 0.000456 -0.005125
# 2 0.000409 0.041840 0.013148 -0.040298 0.014938 -0.036461
# 3 -0.005271 0.013148 0.025147 -0.032989 0.013229 -0.008461
# 4 -0.002508 -0.040298 -0.032989 0.099781 -0.034430 0.031339
# 5 0.000456 0.014938 0.013229 -0.034430 0.037614 -0.025496
# 6 -0.005125 -0.036461 -0.008461 0.031339 -0.025496 0.087973
#
#
# Mechanical properties :
#
#
# Convention : Reuss Voigt Hill
#
# Bulk Modulus (GPa) = 10.75754 53.62279 32.19017
# Shear Modulus (GPa) = 15.81420 35.46562 25.63991
#
# Velocity S-wave (km/s) = 2.60261 3.89753 3.31393
# Velocity P-wave (km/s) = 3.69312 6.57435 5.33204
#
# Compressibility (1/GPa) = 0.09295805
#
# Stress axis : x y z
#
# Youngs Moduli (GPa) = 106.38168 23.90040 39.76611
#
# Poissons Ratio (x) = -0.00976 0.20962
# Poissons Ratio (y) = -0.04346 -0.52285
# Poissons Ratio (z) = 0.56077 -0.31424
#
# Static dielectric constant tensor:
#      x y z
#    x 1.926430 0.027190 -0.002330 
#    y 0.027190 1.968610 -0.029020 
#    z -0.002330 -0.029020 1.921640 
# 
# From -- ./inp_files/175717.got.cif
#   From: 2010.05.17/outbox.cif.g08.bks.cpg/sg2_88_cif.got.tgz:175717.got - 2010.06.03 11:33:40.
