data_PCOD9037061
_publ_section_title
;
Structure prediction by ZEFSAII (Michael W. Deem and Ramdas Pophale) SiO2 
 PCOD9037061
Probable space group: P -1
;
_chemical_formula_sum "Si O2"
_cell_formula_units_Z 14
_cell_length_a 8.415433
_cell_length_b 14.064141
_cell_length_c 7.980685
_cell_angle_alpha 127.773927
_cell_angle_beta 54.331940
_cell_angle_gamma 113.512661
_cell_volume 605.269346
_symmetry_space_group_name_H-M "P -1"
_symmetry_group_IT_number 2
_symmetry_cell_setting 'triclinic'
loop_
_space_group_symop_operation_xyz
x,y,z
-x,-y,-z
loop_
_atom_site_type_symbol
_atom_site_label
_atom_site_fract_x
_atom_site_fract_y
_atom_site_fract_z
Si Si1 0.580063 0.633501 0.147454
Si Si2 0.774383 0.960613 0.123276
Si Si3 0.364904 0.885983 0.041602
Si Si4 0.901826 0.825156 0.214169
Si Si5 0.131572 0.200610 0.407335
Si Si6 0.538659 0.635223 0.562519
Si Si7 0.674760 0.165500 0.606370
O O1 0.810425 0.688077 0.075799
O O2 0.512178 0.642577 0.389396
O O3 0.460324 0.724278 0.208886
O O4 0.500000 0.500000 0.000000
O O5 0.755323 0.870830 0.881166
O O6 0.782774 0.898294 0.232390
O O7 0.657662 0.077867 0.360623
O O8 0.000000 0.000000 0.000000
O O9 0.427815 0.749610 0.819903
O O10 0.365864 0.896095 0.254538
O O11 0.133200 0.870359 0.107527
O O12 0.500000 0.000000 0.000000
O O13 0.851014 0.848593 0.465905
O O14 0.904676 0.204848 0.511826
O O15 0.235838 0.332064 0.492754
O O16 0.500000 0.500000 0.500000
#
# Coordination Sequence:
#
# PCOD9037061 Si02
#       7
#     2   2   2   2   2   2   2
#     4  11  26  48  70  99 140 185 243 295 351 419
#     4  10  23  39  72 101 147 175 234 280 364 412
#     4  11  27  44  75 105 146 188 238 289 362 420
#     4  10  25  46  69 105 142 190 227 293 350 428
#     4   9  23  45  69 102 143 182 232 288 354 420
#     4  11  26  46  70 101 139 188 241 293 356 426
#     4  10  24  44  71 105 138 187 229 294 355 423
#
# _framework density 23.130199000000001
#
# number of rings (size 3 to 8) (size 9 to 14) (size 15 to 20)
#    0.000    1.714    0.000    0.857   16.000    4.571 
#    0.000    6.429    0.000    0.000    0.000    0.000 
#    0.000    0.000    0.000    0.000    0.000    0.000 
#
# Total GULP energy -78036.839664 kJ/mol
# GULP energy per Si atom -5574.059976 kJ/mol
# Density = 2.307755 g / cm^3
# Si number density = 23.130199 Si / 1000 Ang^3
#
#
#
# Elastic Constant Matrix: (Units=GPa)
#
#
# Indices 1 2 3 4 5 6 
#
# 1 118.0262 77.9539 52.9556 12.1069 13.0100 10.9350
# 2 77.9539 185.0286 67.8533 8.5283 -4.1791 23.1796
# 3 52.9556 67.8533 117.3692 7.7412 10.2609 27.9792
# 4 12.1069 8.5283 7.7412 33.1890 6.0255 3.9588
# 5 13.0100 -4.1791 10.2609 6.0255 39.8946 1.6438
# 6 10.9350 23.1796 27.9792 3.9588 1.6438 43.9716
#
#
#
# Elastic Compliance Matrix: (Units=1/GPa)
#
#
# Indices 1 2 3 4 5 6 
#
# 1 0.013560 -0.004668 -0.003297 -0.002482 -0.003752 0.001550
# 2 -0.004668 0.008692 -0.002767 -0.000267 0.003257 -0.001758
# 3 -0.003297 -0.002767 0.013263 -0.000025 -0.002372 -0.006070
# 4 -0.002482 -0.000267 -0.000025 0.032066 -0.003974 -0.001964
# 5 -0.003752 0.003257 -0.002372 -0.003974 0.027839 0.000042
# 6 0.001550 -0.001758 -0.006070 -0.001964 0.000042 0.027321
#
#
# Mechanical properties :
#
#
# Convention : Reuss Voigt Hill
#
# Bulk Modulus (GPa) = 71.16994 90.88329 81.02662
# Shear Modulus (GPa) = 33.58183 38.18844 35.88513
#
# Velocity S-wave (km/s) = 3.81446 4.06768 3.94311
# Velocity P-wave (km/s) = 7.08775 7.83829 7.47245
#
# Compressibility (1/GPa) = 0.01405088
#
# Stress axis : x y z
#
# Youngs Moduli (GPa) = 73.74695 115.04613 75.39582
#
# Poissons Ratio (x) = 0.53708 0.24859
# Poissons Ratio (y) = 0.34428 0.20860
# Poissons Ratio (z) = 0.24315 0.31831
#
# Static dielectric constant tensor:
#      x y z
#    x 2.128800 -0.062890 -0.052930 
#    y -0.062890 2.054560 0.011830 
#    z -0.052930 0.011830 1.916180 
# 
# From -- ./inp_files/203976.got.cif
#   From: 2010.05.17/outbox.cif.g08.bks.cpg/sg2_102_cif.got.tgz:203976.got - 2010.06.03 11:33:40.
