data_PCOD9037286
_publ_section_title
;
Structure prediction by ZEFSAII (Michael W. Deem and Ramdas Pophale) SiO2 
 PCOD9037286
Probable space group: P -1
;
_chemical_formula_sum "Si O2"
_cell_formula_units_Z 16
_cell_length_a 23.808026
_cell_length_b 8.599411
_cell_length_c 6.541596
_cell_angle_alpha 61.678799
_cell_angle_beta 82.754601
_cell_angle_gamma 129.686393
_cell_volume 702.098793
_symmetry_space_group_name_H-M "P -1"
_symmetry_group_IT_number 2
_symmetry_cell_setting 'triclinic'
loop_
_space_group_symop_operation_xyz
x,y,z
-x,-y,-z
loop_
_atom_site_type_symbol
_atom_site_label
_atom_site_fract_x
_atom_site_fract_y
_atom_site_fract_z
Si Si1 0.417647 0.751985 0.853077
Si Si2 0.508602 0.403086 0.858694
Si Si3 0.634278 0.980551 0.167043
Si Si4 0.864234 0.807875 0.200690
Si Si5 0.966571 0.804970 0.435573
Si Si6 0.193261 0.806674 0.976513
Si Si7 0.233757 0.210650 0.026626
Si Si8 0.890876 0.178473 0.293326
O O1 0.500000 0.000000 0.500000
O O2 0.387253 0.869446 0.870106
O O3 0.452463 0.694340 0.039347
O O4 0.328201 0.448846 0.965091
O O5 0.576982 0.687360 0.502864
O O6 0.405771 0.138716 0.967911
O O7 0.500000 0.500000 0.000000
O O8 0.741026 0.198850 0.033093
O O9 0.948826 0.018012 0.867350
O O10 0.776277 0.637268 0.203283
O O11 0.871306 0.978083 0.260746
O O12 0.886245 0.694396 0.398723
O O13 0.914457 0.501250 0.722760
O O14 0.000000 0.000000 0.500000
O O15 0.232499 0.047642 0.967320
O O16 0.180907 0.845534 0.728144
O O17 0.145279 0.969748 0.374603
O O18 0.000000 0.500000 0.000000
#
# Coordination Sequence:
#
# PCOD9037286 Si02
#       8
#     2   2   2   2   2   2   2   2
#     4  12  26  47  73 103 141 191 233 296 363 419
#     4  11  23  48  72 101 138 181 234 294 357 428
#     4  11  26  44  73 103 140 181 239 293 358 425
#     4  10  23  40  64  98 130 181 225 282 336 422
#     4  11  23  41  65  97 143 178 229 282 354 413
#     4  11  25  42  67 101 135 179 231 290 351 419
#     4  11  25  45  67  99 141 174 239 287 348 424
#     4  11  22  43  70  96 136 183 227 286 350 413
#
# _framework density 22.788815
#
# number of rings (size 3 to 8) (size 9 to 14) (size 15 to 20)
#    0.000    1.000    1.250    4.875    5.250    4.000 
#    4.500    0.000    0.000    0.000    0.000    0.000 
#    0.000    0.000    0.000    0.000    0.000    0.000 
#
# Total GULP energy -89318.492612 kJ/mol
# GULP energy per Si atom -5582.405788 kJ/mol
# Density = 2.273695 g / cm^3
# Si number density = 22.788815 Si / 1000 Ang^3
#
#
#
# Elastic Constant Matrix: (Units=GPa)
#
#
# Indices 1 2 3 4 5 6 
#
# 1 138.5828 18.1537 35.3594 18.8047 31.0764 11.3696
# 2 18.1537 54.5500 16.8971 11.9069 12.1725 9.7460
# 3 35.3594 16.8971 85.5268 7.1749 20.0840 11.7224
# 4 18.8047 11.9069 7.1749 35.1333 6.6891 1.6231
# 5 31.0764 12.1725 20.0840 6.6891 43.4070 9.5023
# 6 11.3696 9.7460 11.7224 1.6231 9.5023 38.4587
#
#
#
# Elastic Compliance Matrix: (Units=1/GPa)
#
#
# Indices 1 2 3 4 5 6 
#
# 1 0.009493 -0.000477 -0.002296 -0.003484 -0.004927 -0.000621
# 2 -0.000477 0.021850 -0.002427 -0.005923 -0.002945 -0.003679
# 3 -0.002296 -0.002427 0.014314 -0.000045 -0.003827 -0.002122
# 4 -0.003484 -0.005923 -0.000045 0.032496 -0.001151 0.001458
# 5 -0.004927 -0.002945 -0.003827 -0.001151 0.030226 -0.004050
# 6 -0.000621 -0.003679 -0.002122 0.001458 -0.004050 0.028704
#
#
# Mechanical properties :
#
#
# Convention : Reuss Voigt Hill
#
# Bulk Modulus (GPa) = 28.36326 46.60890 37.48608
# Shear Modulus (GPa) = 31.40026 37.28308 34.34167
#
# Velocity S-wave (km/s) = 3.71601 4.04917 3.88616
# Velocity P-wave (km/s) = 5.55741 6.50830 6.05156
#
# Compressibility (1/GPa) = 0.03525687
#
# Stress axis : x y z
#
# Youngs Moduli (GPa) = 105.34335 45.76752 69.86036
#
# Poissons Ratio (x) = 0.02184 0.16039
# Poissons Ratio (y) = 0.05026 0.16954
# Poissons Ratio (z) = 0.24186 0.11107
#
# Static dielectric constant tensor:
#      x y z
#    x 1.999750 0.043530 0.102350 
#    y 0.043530 1.831690 -0.000710 
#    z 0.102350 -0.000710 1.898040 
# 
# From -- ./inp_files/122832.got.cif
#   From: 2010.05.17/outbox.cif.g08.bks.cpg/sg2_62_cif.got.tgz:122832.got - 2010.06.03 11:33:40.
