data_PCOD9037307
_publ_section_title
;
Structure prediction by ZEFSAII (Michael W. Deem and Ramdas Pophale) SiO2 
 PCOD9037307
Probable space group: P -1
;
_chemical_formula_sum "Si O2"
_cell_formula_units_Z 16
_cell_length_a 15.317449
_cell_length_b 11.927731
_cell_length_c 15.439573
_cell_angle_alpha 119.772477
_cell_angle_beta 151.036557
_cell_angle_gamma 40.098842
_cell_volume 732.663932
_symmetry_space_group_name_H-M "P -1"
_symmetry_group_IT_number 2
_symmetry_cell_setting 'triclinic'
loop_
_space_group_symop_operation_xyz
x,y,z
-x,-y,-z
loop_
_atom_site_type_symbol
_atom_site_label
_atom_site_fract_x
_atom_site_fract_y
_atom_site_fract_z
Si Si1 0.862112 0.619396 0.306227
Si Si2 0.716181 0.686488 0.882536
Si Si3 0.914754 0.245386 0.516875
Si Si4 0.519233 0.455310 0.400319
Si Si5 0.477308 0.771234 0.875155
Si Si6 0.200542 0.178691 0.363754
Si Si7 0.537721 0.933892 0.289407
Si Si8 0.005700 0.851591 0.984238
O O1 0.724918 0.719107 0.320597
O O2 0.036964 0.652374 0.453957
O O3 0.071278 0.387626 0.364041
O O4 0.580313 0.759361 0.053088
O O5 0.500158 0.689135 0.675606
O O6 0.750092 0.643414 0.998026
O O7 0.598887 0.891862 0.832399
O O8 0.000000 0.500000 0.000000
O O9 0.809519 0.334317 0.556982
O O10 0.672208 0.286021 0.280872
O O11 0.222545 0.001713 0.701079
O O12 0.500000 0.500000 0.500000
O O13 0.264466 0.664593 0.201880
O O14 0.278904 0.079367 0.488864
O O15 0.981965 0.238655 0.128483
O O16 0.500000 0.000000 0.500000
O O17 0.284576 0.014423 0.159844
O O18 0.000000 0.000000 0.000000
#
# Coordination Sequence:
#
# PCOD9037307 Si02
#       8
#     2   2   2   2   2   2   2   2
#     4  12  24  44  75  99 145 183 239 296 367 421
#     4  11  22  41  67 102 142 176 241 295 349 420
#     4  10  23  40  65 103 144 178 231 290 361 424
#     4  11  26  39  70 106 138 185 238 298 350 418
#     4  10  23  42  64 106 141 186 224 292 366 423
#     4  10  25  46  69  95 132 188 238 286 352 434
#     4  11  25  44  72 105 134 188 244 287 358 432
#     4  11  26  49  69 103 147 190 241 292 363 425
#
# _framework density 21.838114999999998
#
# number of rings (size 3 to 8) (size 9 to 14) (size 15 to 20)
#    0.000    1.250    2.500    2.250   10.500    0.000 
#    2.250    0.625    0.000    0.000    0.000    0.000 
#    0.000    0.000    0.000    0.000    0.000    0.000 
#
# Total GULP energy -89228.882362 kJ/mol
# GULP energy per Si atom -5576.805148 kJ/mol
# Density = 2.178841 g / cm^3
# Si number density = 21.838115 Si / 1000 Ang^3
#
#
#
# Elastic Constant Matrix: (Units=GPa)
#
#
# Indices 1 2 3 4 5 6 
#
# 1 113.4340 49.6424 40.3590 18.1886 -1.2864 -17.1478
# 2 49.6424 136.8478 34.4216 -0.1486 -4.7167 -10.0077
# 3 40.3590 34.4216 66.0129 5.3971 -13.6687 -4.9174
# 4 18.1886 -0.1486 5.3971 33.5448 -10.9025 -1.9070
# 5 -1.2864 -4.7167 -13.6687 -10.9025 40.6571 7.6905
# 6 -17.1478 -10.0077 -4.9174 -1.9070 7.6905 50.9773
#
#
#
# Elastic Compliance Matrix: (Units=1/GPa)
#
#
# Indices 1 2 3 4 5 6 
#
# 1 0.014874 -0.003418 -0.007447 -0.008425 -0.005469 0.004124
# 2 -0.003418 0.009309 -0.002812 0.002579 0.000641 0.000406
# 3 -0.007447 -0.002812 0.022467 0.002950 0.008163 -0.002011
# 4 -0.008425 0.002579 0.002950 0.037531 0.011539 -0.002380
# 5 -0.005469 0.000641 0.008163 0.011539 0.031323 -0.005220
# 6 0.004124 0.000406 -0.002011 -0.002380 -0.005220 0.021588
#
#
# Mechanical properties :
#
#
# Convention : Reuss Voigt Hill
#
# Bulk Modulus (GPa) = 51.82824 62.79340 57.31082
# Shear Modulus (GPa) = 29.26038 37.82728 33.54383
#
# Velocity S-wave (km/s) = 3.66440 4.16645 3.92346
# Velocity P-wave (km/s) = 6.45664 7.20848 6.84290
#
# Compressibility (1/GPa) = 0.01929450
#
# Stress axis : x y z
#
# Youngs Moduli (GPa) = 67.23310 107.41879 44.50892
#
# Poissons Ratio (x) = 0.36719 0.33148
# Poissons Ratio (y) = 0.22982 0.12517
# Poissons Ratio (z) = 0.50072 0.30208
#
# Static dielectric constant tensor:
#      x y z
#    x 1.849230 -0.051070 0.008090 
#    y -0.051070 1.886810 -0.042650 
#    z 0.008090 -0.042650 1.882700 
# 
# From -- ./inp_files/532635.got.cif
#   From: 2010.05.17/outbox.cif.g08.bks.cpg/sg2_267_cif.got.tgz:532635.got - 2010.06.03 11:33:40.
