data_PCOD9037424
_publ_section_title
;
Structure prediction by ZEFSAII (Michael W. Deem and Ramdas Pophale) SiO2 
 PCOD9037424
Probable space group: P -1
;
_chemical_formula_sum "Si O2"
_cell_formula_units_Z 16
_cell_length_a 14.581209
_cell_length_b 5.439066
_cell_length_c 15.685098
_cell_angle_alpha 62.210407
_cell_angle_beta 141.176835
_cell_angle_gamma 121.088122
_cell_volume 663.098159
_symmetry_space_group_name_H-M "P -1"
_symmetry_group_IT_number 2
_symmetry_cell_setting 'triclinic'
loop_
_space_group_symop_operation_xyz
x,y,z
-x,-y,-z
loop_
_atom_site_type_symbol
_atom_site_label
_atom_site_fract_x
_atom_site_fract_y
_atom_site_fract_z
Si Si1 0.189143 0.709559 0.627230
Si Si2 0.516545 0.369016 0.625384
Si Si3 0.329097 0.861653 0.868721
Si Si4 0.594644 0.327172 0.345361
Si Si5 0.961279 0.916303 0.344634
Si Si6 0.951828 0.173192 0.124381
Si Si7 0.162624 0.329617 0.108715
Si Si8 0.307501 0.299431 0.046466
O O1 0.330643 0.820421 0.774724
O O2 0.242643 0.612218 0.591635
O O3 0.085642 0.430815 0.646493
O O4 0.097824 0.944053 0.505297
O O5 0.500000 0.500000 0.500000
O O6 0.427880 0.502567 0.612944
O O7 0.693037 0.467983 0.768359
O O8 0.459154 0.022879 0.629506
O O9 0.197146 0.020802 0.756917
O O10 0.272700 0.568711 0.930578
O O11 0.500000 0.000000 0.000000
O O12 0.483776 0.395091 0.181496
O O13 0.018239 0.108977 0.271861
O O14 0.058736 0.113811 0.135689
O O15 0.938236 0.488207 0.040682
O O16 0.777533 0.972577 0.027997
O O17 0.235732 0.208473 0.102505
#
# Coordination Sequence:
#
# PCOD9037424 Si02
#       8
#     2   2   2   2   2   2   2   2
#     4  11  27  46  68 104 146 192 244 307 371 448
#     4  11  25  48  71 107 147 190 249 303 368 446
#     4  12  26  42  75 103 143 195 247 305 373 440
#     4  11  26  45  75 107 145 195 242 311 368 440
#     4  11  25  47  68 101 145 188 248 302 377 439
#     4  11  21  42  66  95 135 182 243 292 371 428
#     4  10  23  40  66  99 135 184 234 305 359 431
#     4  11  22  42  66 102 139 183 245 305 360 433
#
# _framework density 24.129156999999999
#
# number of rings (size 3 to 8) (size 9 to 14) (size 15 to 20)
#    0.000    1.000    3.750    1.875    8.750    1.000 
#    0.000    0.000    0.000    0.000    0.000    0.000 
#    0.000    0.000    0.000    0.000    0.000    0.000 
#
# Total GULP energy -89365.136842 kJ/mol
# GULP energy per Si atom -5585.321053 kJ/mol
# Density = 2.407424 g / cm^3
# Si number density = 24.129157 Si / 1000 Ang^3
#
#
#
# Elastic Constant Matrix: (Units=GPa)
#
#
# Indices 1 2 3 4 5 6 
#
# 1 134.1796 16.0668 64.7274 -7.6574 -0.9503 -8.3028
# 2 16.0668 76.6893 37.9057 -10.9412 -8.2151 -2.8339
# 3 64.7274 37.9057 150.8332 -18.5268 -14.7792 -7.2459
# 4 -7.6574 -10.9412 -18.5268 39.4556 3.7034 0.9619
# 5 -0.9503 -8.2151 -14.7792 3.7034 36.6907 1.0945
# 6 -8.3028 -2.8339 -7.2459 0.9619 1.0945 31.8046
#
#
#
# Elastic Compliance Matrix: (Units=1/GPa)
#
#
# Indices 1 2 3 4 5 6 
#
# 1 0.009551 -0.000048 -0.004157 -0.000011 -0.001484 0.001593
# 2 -0.000048 0.015250 -0.003307 0.002485 0.001817 0.000455
# 3 -0.004157 -0.003307 0.009880 0.002632 0.002845 0.000694
# 4 -0.000011 0.002485 0.002632 0.027375 -0.001148 0.000030
# 5 -0.001484 0.001817 0.002845 -0.001148 0.028901 -0.000537
# 6 0.001593 0.000455 0.000694 0.000030 -0.000537 0.032074
#
#
# Mechanical properties :
#
#
# Convention : Reuss Voigt Hill
#
# Bulk Modulus (GPa) = 50.86973 66.56689 58.71831
# Shear Modulus (GPa) = 34.57638 37.79033 36.18335
#
# Velocity S-wave (km/s) = 3.78957 3.96178 3.87663
# Velocity P-wave (km/s) = 6.34632 6.96959 6.66525
#
# Compressibility (1/GPa) = 0.01965806
#
# Stress axis : x y z
#
# Youngs Moduli (GPa) = 104.69925 65.57315 101.21396
#
# Poissons Ratio (x) = 0.00315 0.42073
# Poissons Ratio (y) = 0.00503 0.33469
# Poissons Ratio (z) = 0.43522 0.21683
#
# Static dielectric constant tensor:
#      x y z
#    x 1.989630 -0.012500 0.039120 
#    y -0.012500 1.988360 0.057730 
#    z 0.039120 0.057730 1.935980 
# 
# From -- ./inp_files/483979.got.cif
#   From: 2010.05.17/outbox.cif.g08.bks.cpg/sg2_242_cif.got.tgz:483979.got - 2010.06.03 11:33:40.
