data_PCOD9037036
_publ_section_title
;
Structure prediction by ZEFSAII (Michael W. Deem and Ramdas Pophale) SiO2 
 PCOD9037036
Probable space group: P -1
;
_chemical_formula_sum "Si O2"
_cell_formula_units_Z 16
_cell_length_a 11.853013
_cell_length_b 5.906257
_cell_length_c 21.726768
_cell_angle_alpha 116.853868
_cell_angle_beta 37.556156
_cell_angle_gamma 126.924505
_cell_volume 740.227573
_symmetry_space_group_name_H-M "P -1"
_symmetry_group_IT_number 2
_symmetry_cell_setting 'triclinic'
loop_
_space_group_symop_operation_xyz
x,y,z
-x,-y,-z
loop_
_atom_site_type_symbol
_atom_site_label
_atom_site_fract_x
_atom_site_fract_y
_atom_site_fract_z
Si Si1 0.513556 0.220236 0.437372
Si Si2 0.093748 0.430162 0.030775
Si Si3 0.683457 0.186401 0.124396
Si Si4 0.323338 0.274974 0.008128
Si Si5 0.491077 0.601697 0.674839
Si Si6 0.141827 0.780476 0.624787
Si Si7 0.962981 0.883285 0.198447
Si Si8 0.066188 0.345473 0.508460
O O1 0.500000 0.500000 0.500000
O O2 0.507966 0.233963 0.368073
O O3 0.723975 0.238217 0.377502
O O4 0.313886 0.970906 0.524035
O O5 0.271784 0.398844 0.985563
O O6 0.864681 0.175327 0.087509
O O7 0.051026 0.655318 0.118589
O O8 0.187721 0.525549 0.933784
O O9 0.515490 0.210455 0.242417
O O10 0.609223 0.955663 0.075240
O O11 0.500000 0.500000 0.000000
O O12 0.104082 0.126353 0.119979
O O13 0.280835 0.308490 0.730843
O O14 0.686782 0.541253 0.586416
O O15 0.018390 0.477561 0.607677
O O16 0.022212 0.954856 0.723629
O O17 0.000000 0.500000 0.500000
O O18 0.000000 0.000000 0.500000
#
# Coordination Sequence:
#
# PCOD9037036 Si02
#       8
#     2   2   2   2   2   2   2   2
#     4  11  20  39  71 100 134 175 232 319 356 411
#     4   9  20  44  64  97 136 171 228 302 348 424
#     4   9  21  40  68  99 129 179 238 283 355 425
#     4  11  24  43  65 101 143 180 225 297 367 423
#     4  11  22  45  71 102 133 184 246 293 362 433
#     4  11  23  41  65 103 137 178 240 294 368 430
#     4  10  23  39  70 102 125 178 240 290 349 432
#     4  12  28  49  67 100 154 198 237 299 368 443
#
# _framework density 21.614975000000001
#
# number of rings (size 3 to 8) (size 9 to 14) (size 15 to 20)
#    0.000    1.500    2.500    2.625    3.500    3.000 
#    9.000    0.000    0.000    0.000    0.000    0.000 
#    0.000    0.000    0.000    0.000    0.000    0.000 
#
# Total GULP energy -89155.477711 kJ/mol
# GULP energy per Si atom -5572.217357 kJ/mol
# Density = 2.156578 g / cm^3
# Si number density = 21.614975 Si / 1000 Ang^3
#
#
#
# Elastic Constant Matrix: (Units=GPa)
#
#
# Indices 1 2 3 4 5 6 
#
# 1 88.0238 22.1943 22.7097 -12.1347 15.6633 -10.2091
# 2 22.1943 89.8325 30.3476 18.7184 13.3765 6.8244
# 3 22.7097 30.3476 113.1791 20.5541 27.0108 3.4051
# 4 -12.1347 18.7184 20.5541 33.7021 8.6605 11.6051
# 5 15.6633 13.3765 27.0108 8.6605 23.1007 9.7721
# 6 -10.2091 6.8244 3.4051 11.6051 9.7721 19.7127
#
#
#
# Elastic Compliance Matrix: (Units=1/GPa)
#
#
# Indices 1 2 3 4 5 6 
#
# 1 0.019602 -0.004985 0.000325 0.009292 -0.021454 0.016986
# 2 -0.004985 0.014682 -0.001646 -0.008163 0.001206 -0.003172
# 3 0.000325 -0.001646 0.014579 -0.007081 -0.018562 0.011590
# 4 0.009292 -0.008163 -0.007081 0.049130 -0.004083 -0.018038
# 5 -0.021454 0.001206 -0.018562 -0.004083 0.104865 -0.057902
# 6 0.016986 -0.003172 0.011590 -0.018038 -0.057902 0.097944
#
#
# Mechanical properties :
#
#
# Convention : Reuss Voigt Hill
#
# Bulk Modulus (GPa) = 27.58603 49.05985 38.32294
# Shear Modulus (GPa) = 15.36102 29.68870 22.52486
#
# Velocity S-wave (km/s) = 2.66872 3.71013 3.23165
# Velocity P-wave (km/s) = 4.72084 6.41092 5.62966
#
# Compressibility (1/GPa) = 0.03625023
#
# Stress axis : x y z
#
# Youngs Moduli (GPa) = 51.01438 68.11094 68.59204
#
# Poissons Ratio (x) = 0.33952 -0.02228
# Poissons Ratio (y) = 0.25430 0.11293
# Poissons Ratio (z) = -0.01657 0.11214
#
# Static dielectric constant tensor:
#      x y z
#    x 1.940700 -0.121070 0.036050 
#    y -0.121070 1.971170 -0.005300 
#    z 0.036050 -0.005300 1.792540 
# 
# From -- ./inp_files/98342.got.cif
#   From: 2010.05.17/outbox.cif.g08.bks.cpg/sg2_50_cif.got.tgz:98342.got - 2010.06.03 11:33:40.
