data_PCOD9037561
_publ_section_title
;
Structure prediction by ZEFSAII (Michael W. Deem and Ramdas Pophale) SiO2 
 PCOD9037561
Probable space group: P -1
;
_chemical_formula_sum "Si O2"
_cell_formula_units_Z 15
_cell_length_a 8.114916
_cell_length_b 18.259415
_cell_length_c 10.351254
_cell_angle_alpha 31.201625
_cell_angle_beta 122.896714
_cell_angle_gamma 131.466249
_cell_volume 594.343358
_symmetry_space_group_name_H-M "P -1"
_symmetry_group_IT_number 2
_symmetry_cell_setting 'triclinic'
loop_
_space_group_symop_operation_xyz
x,y,z
-x,-y,-z
loop_
_atom_site_type_symbol
_atom_site_label
_atom_site_fract_x
_atom_site_fract_y
_atom_site_fract_z
Si Si1 0.121040 0.041849 0.172500
Si Si2 0.000000 0.500000 0.500000
Si Si3 0.491377 0.612724 0.572543
Si Si4 0.853512 0.426901 0.174771
Si Si5 0.608263 0.881417 0.587962
Si Si6 0.646864 0.952563 0.228026
Si Si7 0.192624 0.341096 0.004259
Si Si8 0.105703 0.264944 0.631121
O O1 0.302454 0.046384 0.342970
O O2 0.189194 0.208278 0.877210
O O3 0.890251 0.007780 0.193080
O O4 0.062931 0.899948 0.260148
O O5 0.736790 0.421813 0.539726
O O6 0.974559 0.644690 0.190399
O O7 0.541608 0.761011 0.463147
O O8 0.689659 0.649999 0.505257
O O9 0.427640 0.458284 0.863512
O O10 0.635321 0.265431 0.293320
O O11 0.829078 0.571563 0.010447
O O12 0.977564 0.371528 0.423433
O O13 0.000000 0.500000 0.000000
O O14 0.629300 0.994361 0.306086
O O15 0.788837 0.817367 0.726898
O O16 0.500000 0.000000 0.000000
#
# Coordination Sequence:
#
# PCOD9037561 Si02
#       8
#     2   1   2   2   2   2   2   2
#     4  10  25  42  67  99 128 182 222 280 327 389
#     4   8  20  38  66  98 122 166 220 270 320 390
#     4   9  20  41  68  93 130 174 218 273 324 406
#     4  12  26  41  67  98 135 182 210 276 349 403
#     4  12  24  43  70  98 136 170 234 282 318 400
#     4  11  23  40  67  94 129 179 225 271 330 390
#     4  10  23  40  68  98 132 169 225 275 333 390
#     4  10  23  46  67  93 144 175 218 271 348 397
#
# _framework density 25.237935
#
# number of rings (size 3 to 8) (size 9 to 14) (size 15 to 20)
#    0.800    0.800    1.333    2.400    7.467    1.600 
#    0.000    2.000    0.000    0.000    0.000    0.000 
#    0.000    0.000    0.000    0.000    0.000    0.000 
#
# Total GULP energy -83681.470302 kJ/mol
# GULP energy per Si atom -5578.764687 kJ/mol
# Density = 2.518049 g / cm^3
# Si number density = 25.237935 Si / 1000 Ang^3
#
#
#
# Elastic Constant Matrix: (Units=GPa)
#
#
# Indices 1 2 3 4 5 6 
#
# 1 51.0930 3.7085 6.2322 -9.0142 -8.2716 9.2335
# 2 3.7085 50.2563 12.0709 17.0378 11.5393 -6.1195
# 3 6.2322 12.0709 118.8072 25.3714 -4.4916 4.5572
# 4 -9.0142 17.0378 25.3714 40.8651 4.6629 2.7252
# 5 -8.2716 11.5393 -4.4916 4.6629 45.1851 3.5877
# 6 9.2335 -6.1195 4.5572 2.7252 3.5877 30.5914
#
#
#
# Elastic Compliance Matrix: (Units=1/GPa)
#
#
# Indices 1 2 3 4 5 6 
#
# 1 0.024909 -0.007304 -0.002036 0.009800 0.006026 -0.010256
# 2 -0.007304 0.027892 -0.000413 -0.012735 -0.007974 0.009915
# 3 -0.002036 -0.000413 0.010063 -0.006655 0.001463 -0.000546
# 4 0.009800 -0.012735 -0.006655 0.036459 0.001250 -0.007909
# 5 0.006026 -0.007974 0.001463 0.001250 0.025825 -0.006772
# 6 -0.010256 0.009915 -0.000546 -0.007909 -0.006772 0.039348
#
#
# Mechanical properties :
#
#
# Convention : Reuss Voigt Hill
#
# Bulk Modulus (GPa) = 23.06385 29.35330 26.20858
# Shear Modulus (GPa) = 25.19486 36.53799 30.86642
#
# Velocity S-wave (km/s) = 3.16301 3.80905 3.50096
# Velocity P-wave (km/s) = 4.74319 5.56785 5.17199
#
# Compressibility (1/GPa) = 0.04335790
#
# Stress axis : x y z
#
# Youngs Moduli (GPa) = 40.14686 35.85293 99.37107
#
# Poissons Ratio (x) = 0.26186 0.20234
# Poissons Ratio (y) = 0.29322 0.04103
# Poissons Ratio (z) = 0.08175 0.01480
#
# Static dielectric constant tensor:
#      x y z
#    x 1.996880 -0.091420 -0.017850 
#    y -0.091420 2.115980 0.042520 
#    z -0.017850 0.042520 2.019200 
# 
# From -- ./inp_files/406178.got.cif
#   From: 2010.05.17/outbox.cif.g08.bks.cpg/sg2_204_cif.got.tgz:406178.got - 2010.06.03 11:33:40.
