data_PCOD9037982
_publ_section_title
;
Structure prediction by ZEFSAII (Michael W. Deem and Ramdas Pophale) SiO2 
 PCOD9037982
Probable space group: P -1
;
_chemical_formula_sum "Si O2"
_cell_formula_units_Z 16
_cell_length_a 13.999034
_cell_length_b 7.937034
_cell_length_c 12.915788
_cell_angle_alpha 130.093175
_cell_angle_beta 42.811610
_cell_angle_gamma 133.010833
_cell_volume 682.706272
_symmetry_space_group_name_H-M "P -1"
_symmetry_group_IT_number 2
_symmetry_cell_setting 'triclinic'
loop_
_space_group_symop_operation_xyz
x,y,z
-x,-y,-z
loop_
_atom_site_type_symbol
_atom_site_label
_atom_site_fract_x
_atom_site_fract_y
_atom_site_fract_z
Si Si1 0.644781 0.880719 0.451860
Si Si2 0.277216 0.307805 0.024948
Si Si3 0.480175 0.120578 0.167211
Si Si4 0.599197 0.273648 0.756051
Si Si5 0.655283 0.558859 0.520003
Si Si6 0.956755 0.894511 0.162699
Si Si7 0.797590 0.421525 0.993095
Si Si8 0.989881 0.817554 0.343555
O O1 0.650278 0.715389 0.482840
O O2 0.476076 0.707078 0.477992
O O3 0.793706 0.911382 0.278680
O O4 0.654371 0.147441 0.571755
O O5 0.303702 0.460420 0.171743
O O6 0.273943 0.470497 0.995626
O O7 0.424813 0.245590 0.870411
O O8 0.111865 0.089340 0.070452
O O9 0.388871 0.290110 0.297439
O O10 0.401717 0.905978 0.222729
O O11 0.655505 0.280079 0.126382
O O12 0.500000 0.000000 0.000000
O O13 0.829094 0.589207 0.400061
O O14 0.977984 0.917217 0.278693
O O15 0.926503 0.632983 0.037940
O O16 0.869478 0.259415 0.812992
O O17 0.000000 0.000000 0.500000
#
# Coordination Sequence:
#
# PCOD9037982 Si02
#       8
#     2   2   2   2   2   2   2   2
#     4   9  19  38  64  91 121 164 212 261 323 375
#     4  11  25  43  62  94 138 175 217 254 325 395
#     4  11  19  37  69  94 124 159 217 271 316 369
#     4  10  23  41  65  95 127 174 214 270 318 383
#     4   9  19  36  61  95 124 154 208 273 317 374
#     4  11  24  44  67  95 134 173 212 265 331 387
#     4  12  24  42  66  99 131 173 217 269 318 385
#     4  11  25  42  67 101 128 165 220 274 328 380
#
# _framework density 23.436142
#
# number of rings (size 3 to 8) (size 9 to 14) (size 15 to 20)
#    0.000    1.500    2.500    2.250    7.000    0.500 
#    0.000    0.625    0.000    0.000    0.000    0.000 
#    0.000    0.000    0.000    0.000    0.000    0.000 
#
# Total GULP energy -89395.525536 kJ/mol
# GULP energy per Si atom -5587.220346 kJ/mol
# Density = 2.338280 g / cm^3
# Si number density = 23.436142 Si / 1000 Ang^3
#
#
#
# Elastic Constant Matrix: (Units=GPa)
#
#
# Indices 1 2 3 4 5 6 
#
# 1 33.3167 -3.1229 -0.2243 1.4850 2.2274 7.9495
# 2 -3.1229 88.2094 3.9806 -5.2665 -3.4663 33.6470
# 3 -0.2243 3.9806 104.0667 10.1824 -8.7425 6.8137
# 4 1.4850 -5.2665 10.1824 31.1958 6.9068 -2.9045
# 5 2.2274 -3.4663 -8.7425 6.9068 32.3607 -5.5956
# 6 7.9495 33.6470 6.8137 -2.9045 -5.5956 23.1411
#
#
#
# Elastic Compliance Matrix: (Units=1/GPa)
#
#
# Indices 1 2 3 4 5 6 
#
# 1 0.042066 0.016806 0.001732 -0.001955 -0.007373 -0.041424
# 2 0.016806 0.032836 0.001797 0.000500 -0.006883 -0.055647
# 3 0.001732 0.001797 0.010623 -0.004449 0.002819 -0.006212
# 4 -0.001955 0.000500 -0.004449 0.035811 -0.007997 0.003815
# 5 -0.007373 -0.006883 0.002819 -0.007997 0.036518 0.019537
# 6 -0.041424 -0.055647 -0.006212 0.003815 0.019537 0.145386
#
#
# Mechanical properties :
#
#
# Convention : Reuss Voigt Hill
#
# Bulk Modulus (GPa) = 7.92435 25.20661 16.56548
# Shear Modulus (GPa) = 16.41296 32.33681 24.37489
#
# Velocity S-wave (km/s) = 2.64924 3.71857 3.22849
# Velocity P-wave (km/s) = 3.57023 5.40517 4.58052
#
# Compressibility (1/GPa) = 0.12619338
#
# Stress axis : x y z
#
# Youngs Moduli (GPa) = 23.77226 30.45401 94.13494
#
# Poissons Ratio (x) = -0.51180 -0.16304
# Poissons Ratio (y) = -0.39951 -0.16912
# Poissons Ratio (z) = -0.04117 -0.05471
#
# Static dielectric constant tensor:
#      x y z
#    x 1.943530 0.033790 0.052610 
#    y 0.033790 1.927530 0.006840 
#    z 0.052610 0.006840 1.911740 
# 
# From -- ./inp_files/530227.got.cif
#   From: 2010.05.17/outbox.cif.g08.bks.cpg/sg2_266_cif.got.tgz:530227.got - 2010.06.03 11:33:40.
