data_PCOD9037685
_publ_section_title
;
Structure prediction by ZEFSAII (Michael W. Deem and Ramdas Pophale) SiO2 
 PCOD9037685
Probable space group: P -1
;
_chemical_formula_sum "Si O2"
_cell_formula_units_Z 16
_cell_length_a 20.808111
_cell_length_b 24.955486
_cell_length_c 9.394576
_cell_angle_alpha 140.329608
_cell_angle_beta 150.447701
_cell_angle_gamma 17.792575
_cell_volume 677.452098
_symmetry_space_group_name_H-M "P -1"
_symmetry_group_IT_number 2
_symmetry_cell_setting 'triclinic'
loop_
_space_group_symop_operation_xyz
x,y,z
-x,-y,-z
loop_
_atom_site_type_symbol
_atom_site_label
_atom_site_fract_x
_atom_site_fract_y
_atom_site_fract_z
Si Si1 0.677804 0.230544 0.584930
Si Si2 0.357302 0.490568 0.228337
Si Si3 0.355724 0.079730 0.230032
Si Si4 0.803613 0.975179 0.378766
Si Si5 0.644033 0.602164 0.262122
Si Si6 0.451054 0.157196 0.357222
Si Si7 0.059955 0.565121 0.242386
Si Si8 0.739780 0.293617 0.088621
O O1 0.570737 0.324800 0.418838
O O2 0.831272 0.050852 0.516981
O O3 0.364727 0.401086 0.412128
O O4 0.858006 0.190689 0.953261
O O5 0.500000 0.500000 0.500000
O O6 0.370443 0.431761 0.986236
O O7 0.002291 0.696043 0.996940
O O8 0.533419 0.044678 0.406576
O O9 0.500000 0.000000 0.500000
O O10 0.368640 0.983048 0.977316
O O11 0.648893 0.073594 0.436313
O O12 0.092658 0.763449 0.568967
O O13 0.653774 0.696903 0.470159
O O14 0.910869 0.420340 0.510422
O O15 0.372733 0.724761 0.084353
O O16 0.200183 0.250652 0.978129
O O17 0.000000 0.500000 0.000000
O O18 0.500000 0.500000 0.000000
#
# Coordination Sequence:
#
# PCOD9037685 Si02
#       8
#     2   2   2   2   2   2   2   2
#     4  11  22  41  73 100 135 181 233 292 342 419
#     4  12  27  49  68 102 144 197 234 283 361 428
#     4  12  30  46  66 106 151 185 232 287 361 427
#     4  12  25  45  73 107 139 178 237 294 353 416
#     4  10  23  40  74  98 135 181 241 281 346 416
#     4  11  23  44  70 104 136 178 236 292 349 410
#     4   9  17  38  66 100 125 166 231 283 333 403
#     4  11  23  44  72 104 138 181 238 293 348 412
#
# _framework density 23.617906000000001
#
# number of rings (size 3 to 8) (size 9 to 14) (size 15 to 20)
#    0.000    1.000    5.000    3.000    5.250    2.500 
#    0.000    1.250    0.000    0.000    0.000    0.000 
#    0.000    0.000    0.000    0.000    0.000    0.000 
#
# Total GULP energy -89223.023847 kJ/mol
# GULP energy per Si atom -5576.438990 kJ/mol
# Density = 2.356415 g / cm^3
# Si number density = 23.617906 Si / 1000 Ang^3
#
#
#
# Elastic Constant Matrix: (Units=GPa)
#
#
# Indices 1 2 3 4 5 6 
#
# 1 118.2118 35.3791 60.3588 10.7457 -40.9116 33.4144
# 2 35.3791 66.0763 35.4671 10.6506 -21.0957 32.8123
# 3 60.3588 35.4671 165.5083 21.5662 -53.9352 26.7703
# 4 10.7457 10.6506 21.5662 47.6919 -1.0045 -2.8196
# 5 -40.9116 -21.0957 -53.9352 -1.0045 57.2713 -4.1354
# 6 33.4144 32.8123 26.7703 -2.8196 -4.1354 38.0325
#
#
#
# Elastic Compliance Matrix: (Units=1/GPa)
#
#
# Indices 1 2 3 4 5 6 
#
# 1 0.017086 0.005190 0.001004 -0.006311 0.013566 -0.019188
# 2 0.005190 0.037283 0.004001 -0.013200 0.018194 -0.038542
# 3 0.001004 0.004001 0.011516 -0.006760 0.012078 -0.011627
# 4 -0.006311 -0.013200 -0.006760 0.029432 -0.013604 0.022394
# 5 0.013566 0.018194 0.012078 -0.013604 0.042643 -0.032488
# 6 -0.019188 -0.038542 -0.011627 0.022394 -0.032488 0.082715
#
#
# Mechanical properties :
#
#
# Convention : Reuss Voigt Hill
#
# Bulk Modulus (GPa) = 11.59101 68.02294 39.80698
# Shear Modulus (GPa) = 21.82976 43.17192 32.50084
#
# Velocity S-wave (km/s) = 3.04351 4.28007 3.71362
# Velocity P-wave (km/s) = 4.15560 7.29995 5.93962
#
# Compressibility (1/GPa) = 0.08627373
#
# Stress axis : x y z
#
# Youngs Moduli (GPa) = 58.52596 26.82180 86.83610
#
# Poissons Ratio (x) = -0.13920 -0.08715
# Poissons Ratio (y) = -0.30374 -0.34740
# Poissons Ratio (z) = -0.05874 -0.10730
#
# Static dielectric constant tensor:
#      x y z
#    x 1.888350 -0.085160 0.065610 
#    y -0.085160 2.117430 -0.214230 
#    z 0.065610 -0.214230 2.087550 
# 
# From -- ./inp_files/350029.got.cif
#   From: 2010.05.17/outbox.cif.g08.bks.cpg/sg2_176_cif.got.tgz:350029.got - 2010.06.03 11:33:40.
