data_PCOD9037838
_publ_section_title
;
Structure prediction by ZEFSAII (Michael W. Deem and Ramdas Pophale) SiO2 
 PCOD9037838
Probable space group: P -1
;
_chemical_formula_sum "Si O2"
_cell_formula_units_Z 16
_cell_length_a 17.312236
_cell_length_b 9.703715
_cell_length_c 11.525706
_cell_angle_alpha 106.858460
_cell_angle_beta 138.933127
_cell_angle_gamma 43.299923
_cell_volume 714.220770
_symmetry_space_group_name_H-M "P -1"
_symmetry_group_IT_number 2
_symmetry_cell_setting 'triclinic'
loop_
_space_group_symop_operation_xyz
x,y,z
-x,-y,-z
loop_
_atom_site_type_symbol
_atom_site_label
_atom_site_fract_x
_atom_site_fract_y
_atom_site_fract_z
Si Si1 0.594339 0.798574 0.360863
Si Si2 0.801786 0.100374 0.796998
Si Si3 0.173839 0.443852 0.681021
Si Si4 0.527929 0.358565 0.341109
Si Si5 0.288607 0.305184 0.029650
Si Si6 0.507273 0.410336 0.835371
Si Si7 0.895064 0.686310 0.820479
Si Si8 0.835588 0.226444 0.281805
O O1 0.723329 0.671361 0.356418
O O2 0.547478 0.681768 0.316186
O O3 0.712018 0.774022 0.583875
O O4 0.388547 0.075925 0.156140
O O5 0.724565 0.157572 0.592014
O O6 0.624292 0.366396 0.720748
O O7 0.833337 0.910161 0.837082
O O8 0.000000 0.000000 0.000000
O O9 0.099576 0.683109 0.672163
O O10 0.000000 0.500000 0.500000
O O11 0.304690 0.279182 0.902780
O O12 0.410676 0.326253 0.208034
O O13 0.569731 0.369801 0.261882
O O14 0.060006 0.540832 0.869593
O O15 0.367468 0.533441 0.819604
O O16 0.742180 0.203999 0.079964
O O17 0.000000 0.500000 0.000000
O O18 0.000000 0.000000 0.500000
#
# Coordination Sequence:
#
# PCOD9037838 Si02
#       8
#     2   2   2   2   2   2   2   2
#     4  11  26  44  66 100 140 176 219 274 335 405
#     4  11  25  45  67  97 130 172 231 280 327 391
#     4  11  23  43  69 101 135 173 224 270 332 403
#     4  11  24  44  71  96 128 175 227 276 330 391
#     4  12  24  45  70  99 133 180 222 276 337 395
#     4  10  24  41  63  97 131 172 217 264 331 396
#     4  12  28  45  66 101 138 176 226 278 338 398
#     4  10  23  41  63  96 135 169 214 267 327 398
#
# _framework density 22.402037
#
# number of rings (size 3 to 8) (size 9 to 14) (size 15 to 20)
#    0.000    1.000    5.000    0.375    5.250    3.500 
#    0.000    0.000    0.000    0.000    0.000    0.000 
#    0.000    0.000    0.000    0.000    0.000    0.000 
#
# Total GULP energy -89412.399660 kJ/mol
# GULP energy per Si atom -5588.274979 kJ/mol
# Density = 2.235105 g / cm^3
# Si number density = 22.402037 Si / 1000 Ang^3
#
#
#
# Elastic Constant Matrix: (Units=GPa)
#
#
# Indices 1 2 3 4 5 6 
#
# 1 68.6889 9.6476 18.1892 4.6344 7.1290 15.1561
# 2 9.6476 69.6164 29.2144 5.7444 18.1278 21.3379
# 3 18.1892 29.2144 151.4934 14.4009 2.3812 24.9038
# 4 4.6344 5.7444 14.4009 34.1275 11.1557 2.6468
# 5 7.1290 18.1278 2.3812 11.1557 42.0596 6.4656
# 6 15.1561 21.3379 24.9038 2.6468 6.4656 38.8385
#
#
#
# Elastic Compliance Matrix: (Units=1/GPa)
#
#
# Indices 1 2 3 4 5 6 
#
# 1 0.016237 0.000414 -0.001008 -0.000830 -0.001799 -0.005562
# 2 0.000414 0.019718 -0.002447 0.000699 -0.007347 -0.008250
# 3 -0.001008 -0.002447 0.008059 -0.003291 0.002191 -0.003570
# 4 -0.000830 0.000699 -0.003291 0.033552 -0.009069 0.001274
# 5 -0.001799 -0.007347 0.002191 -0.009069 0.029681 -0.000989
# 6 -0.005562 -0.008250 -0.003570 0.001274 -0.000989 0.034818
#
#
# Mechanical properties :
#
#
# Convention : Reuss Voigt Hill
#
# Bulk Modulus (GPa) = 26.36217 44.87789 35.62003
# Shear Modulus (GPa) = 31.09637 38.52160 34.80898
#
# Velocity S-wave (km/s) = 3.72977 4.15125 3.94614
# Velocity P-wave (km/s) = 5.50832 6.56153 6.05785
#
# Compressibility (1/GPa) = 0.03793315
#
# Stress axis : x y z
#
# Youngs Moduli (GPa) = 61.58796 50.71452 124.08146
#
# Poissons Ratio (x) = -0.02101 0.12507
# Poissons Ratio (y) = -0.02552 0.30362
# Poissons Ratio (z) = 0.06208 0.12410
#
# Static dielectric constant tensor:
#      x y z
#    x 1.962010 -0.104010 -0.048820 
#    y -0.104010 1.901510 0.032050 
#    z -0.048820 0.032050 1.823720 
# 
# From -- ./inp_files/95559.got.cif
#   From: 2010.05.17/outbox.cif.g08.bks.cpg/sg2_48_cif.got.tgz:95559.got - 2010.06.03 11:33:40.
