data_PCOD9037490
_publ_section_title
;
Structure prediction by ZEFSAII (Michael W. Deem and Ramdas Pophale) SiO2 
 PCOD9037490
Probable space group: P -1
;
_chemical_formula_sum "Si O2"
_cell_formula_units_Z 14
_cell_length_a 9.275426
_cell_length_b 12.651279
_cell_length_c 8.197417
_cell_angle_alpha 102.305532
_cell_angle_beta 124.416600
_cell_angle_gamma 118.440274
_cell_volume 521.202702
_symmetry_space_group_name_H-M "P -1"
_symmetry_group_IT_number 2
_symmetry_cell_setting 'triclinic'
loop_
_space_group_symop_operation_xyz
x,y,z
-x,-y,-z
loop_
_atom_site_type_symbol
_atom_site_label
_atom_site_fract_x
_atom_site_fract_y
_atom_site_fract_z
Si Si1 0.156826 0.176863 0.604349
Si Si2 0.112023 0.162659 0.188107
Si Si3 0.218522 0.490946 0.074292
Si Si4 0.285754 0.849538 0.193724
Si Si5 0.341794 0.920695 0.709994
Si Si6 0.521096 0.611769 0.812559
Si Si7 0.196756 0.613382 0.419204
O O1 0.197170 0.187924 0.438574
O O2 0.958874 0.186569 0.506574
O O3 0.372264 0.290807 0.919792
O O4 0.000000 0.000000 0.500000
O O5 0.308221 0.285923 0.208445
O O6 0.877145 0.140907 0.017247
O O7 0.000000 0.000000 0.000000
O O8 0.948315 0.313138 0.912690
O O9 0.105940 0.501575 0.849462
O O10 0.426203 0.492471 0.173750
O O11 0.292417 0.606234 0.304617
O O12 0.500000 0.000000 0.500000
O O13 0.508091 0.910979 0.234204
O O14 0.338668 0.791835 0.609904
O O15 0.500000 0.000000 0.000000
O O16 0.252561 0.545169 0.564808
#
# Coordination Sequence:
#
# PCOD9037490 Si02
#       7
#     2   2   2   2   2   2   2
#     4  12  23  37  60  99 135 171 217 276 333 387
#     4  11  22  37  59  93 133 165 216 277 326 385
#     4  10  23  40  67  99 131 174 221 271 329 399
#     4  11  21  38  63  94 125 165 217 267 328 383
#     4  12  22  39  63  94 132 169 214 273 325 385
#     4  11  22  41  66  93 131 176 220 267 328 397
#     4  11  22  42  67  97 130 178 220 266 338 390
#
# _framework density 26.860951
#
# number of rings (size 3 to 8) (size 9 to 14) (size 15 to 20)
#    0.000    0.857    5.714    3.000    0.000    0.000 
#    0.000    0.714    0.000    9.429    0.000    0.000 
#    0.000    0.000    0.000    0.000    0.000    0.000 
#
# Total GULP energy -78143.411589 kJ/mol
# GULP energy per Si atom -5581.672256 kJ/mol
# Density = 2.679981 g / cm^3
# Si number density = 26.860951 Si / 1000 Ang^3
#
#
#
# Elastic Constant Matrix: (Units=GPa)
#
#
# Indices 1 2 3 4 5 6 
#
# 1 106.7883 54.8190 63.3379 -3.7956 -6.3872 -2.3683
# 2 54.8190 82.1269 82.2613 -15.4189 -5.5274 -16.5880
# 3 63.3379 82.2613 226.0073 -32.5260 -21.7064 -20.2726
# 4 -3.7956 -15.4189 -32.5260 61.4155 -10.9932 0.6243
# 5 -6.3872 -5.5274 -21.7064 -10.9932 45.4460 -5.0159
# 6 -2.3683 -16.5880 -20.2726 0.6243 -5.0159 60.9915
#
#
#
# Elastic Compliance Matrix: (Units=1/GPa)
#
#
# Indices 1 2 3 4 5 6 
#
# 1 0.014891 -0.009632 -0.001257 -0.002226 -0.000491 -0.002477
# 2 -0.009632 0.026041 -0.005939 0.002780 0.000170 0.004720
# 3 -0.001257 -0.005939 0.007885 0.003274 0.003796 0.001235
# 4 -0.002226 0.002780 0.003274 0.019736 0.006595 0.002098
# 5 -0.000491 0.000170 0.003796 0.006595 0.025732 0.003337
# 6 -0.002477 0.004720 0.001235 0.002098 0.003337 0.018247
#
#
# Mechanical properties :
#
#
# Convention : Reuss Voigt Hill
#
# Bulk Modulus (GPa) = 65.95926 90.63988 78.29957
# Shear Modulus (GPa) = 33.05966 47.87089 40.46527
#
# Velocity S-wave (km/s) = 3.51204 4.22616 3.88554
# Velocity P-wave (km/s) = 6.40742 7.59153 7.02447
#
# Compressibility (1/GPa) = 0.01516087
#
# Stress axis : x y z
#
# Youngs Moduli (GPa) = 67.15548 38.40111 126.81841
#
# Poissons Ratio (x) = 0.36986 0.15943
# Poissons Ratio (y) = 0.64681 0.75322
# Poissons Ratio (z) = 0.08443 0.22808
#
# Static dielectric constant tensor:
#      x y z
#    x 2.185150 -0.102440 0.007060 
#    y -0.102440 1.924480 0.016150 
#    z 0.007060 0.016150 2.004190 
# 
# From -- ./inp_files/208824.got.cif
#   From: 2010.05.17/outbox.cif.g08.bks.cpg/sg2_105_cif.got.tgz:208824.got - 2010.06.03 11:33:40.
