data_PCOD9037060
_publ_section_title
;
Structure prediction by ZEFSAII (Michael W. Deem and Ramdas Pophale) SiO2 
 PCOD9037060
Probable space group: P -1
;
_chemical_formula_sum "Si O2"
_cell_formula_units_Z 14
_cell_length_a 11.475924
_cell_length_b 9.382724
_cell_length_c 9.506417
_cell_angle_alpha 43.772653
_cell_angle_beta 113.565366
_cell_angle_gamma 109.523694
_cell_volume 647.401685
_symmetry_space_group_name_H-M "P -1"
_symmetry_group_IT_number 2
_symmetry_cell_setting 'triclinic'
loop_
_space_group_symop_operation_xyz
x,y,z
-x,-y,-z
loop_
_atom_site_type_symbol
_atom_site_label
_atom_site_fract_x
_atom_site_fract_y
_atom_site_fract_z
Si Si1 0.993334 0.233409 0.781489
Si Si2 0.378942 0.040474 0.319935
Si Si3 0.371298 0.962323 0.051484
Si Si4 0.152446 0.629898 0.138138
Si Si5 0.990390 0.233990 0.283452
Si Si6 0.716375 0.645824 0.141709
Si Si7 0.816920 0.251071 0.435750
O O1 0.131273 0.330337 0.816309
O O2 0.885116 0.334933 0.744746
O O3 0.947663 0.257812 0.583707
O O4 0.000000 0.000000 0.000000
O O5 0.386940 0.925868 0.253143
O O6 0.500000 0.000000 0.500000
O O7 0.253658 0.968660 0.400575
O O8 0.358755 0.270820 0.087515
O O9 0.284522 0.768554 0.085005
O O10 0.310265 0.187622 0.867993
O O11 0.500000 0.000000 0.000000
O O12 0.115783 0.388512 0.260896
O O13 0.049771 0.740572 0.914684
O O14 0.866884 0.294583 0.271661
O O15 0.000000 0.000000 0.500000
O O16 0.706769 0.400541 0.323187
#
# Coordination Sequence:
#
# PCOD9037060 Si02
#       7
#     2   2   2   2   2   2   2
#     4  12  18  39  70 100 129 164 219 273 336 407
#     4  10  24  43  65  95 134 176 235 274 319 397
#     4  10  23  45  69  94 138 183 223 274 335 401
#     4  11  23  43  61  97 144 170 218 281 342 397
#     4  11  27  37  63 101 138 172 216 274 352 399
#     4  10  23  39  71  99 129 170 222 279 332 400
#     4  12  23  40  70  99 129 175 224 276 341 403
#
# _framework density 21.624905999999999
#
# number of rings (size 3 to 8) (size 9 to 14) (size 15 to 20)
#    0.857    0.286    5.714    1.286    2.000    0.571 
#    0.000    2.143    3.143    0.000    0.000    0.000 
#    0.000    0.000    0.000    0.000    0.000    0.000 
#
# Total GULP energy -77937.481195 kJ/mol
# GULP energy per Si atom -5566.962942 kJ/mol
# Density = 2.157569 g / cm^3
# Si number density = 21.624906 Si / 1000 Ang^3
#
#
#
# Elastic Constant Matrix: (Units=GPa)
#
#
# Indices 1 2 3 4 5 6 
#
# 1 95.6548 25.1134 -0.8085 -5.2354 -7.8210 11.7314
# 2 25.1134 84.0640 22.6612 -16.1877 5.2165 11.9991
# 3 -0.8085 22.6612 78.8721 -12.8326 21.1227 -2.0073
# 4 -5.2354 -16.1877 -12.8326 43.3379 1.3213 3.8983
# 5 -7.8210 5.2165 21.1227 1.3213 35.6766 0.8957
# 6 11.7314 11.9991 -2.0073 3.8983 0.8957 24.1394
#
#
#
# Elastic Compliance Matrix: (Units=1/GPa)
#
#
# Indices 1 2 3 4 5 6 
#
# 1 0.012113 -0.003074 0.000174 0.000684 0.003091 -0.004570
# 2 -0.003074 0.015950 -0.003753 0.005178 -0.000786 -0.007554
# 3 0.000174 -0.003753 0.017036 0.003693 -0.009710 0.002961
# 4 0.000684 0.005178 0.003693 0.026908 -0.003619 -0.006810
# 5 0.003091 -0.000786 -0.009710 -0.003619 0.034771 -0.002625
# 6 -0.004570 -0.007554 0.002961 -0.006810 -0.002625 0.048845
#
#
# Mechanical properties :
#
#
# Convention : Reuss Voigt Hill
#
# Bulk Modulus (GPa) = 31.45296 39.16924 35.31110
# Shear Modulus (GPa) = 27.85112 34.73910 31.29511
#
# Velocity S-wave (km/s) = 3.59265 4.01239 3.80831
# Velocity P-wave (km/s) = 5.63790 6.29429 5.97511
#
# Compressibility (1/GPa) = 0.03179351
#
# Stress axis : x y z
#
# Youngs Moduli (GPa) = 82.55399 62.69645 58.70038
#
# Poissons Ratio (x) = 0.19271 -0.01024
# Poissons Ratio (y) = 0.25374 0.22033
# Poissons Ratio (z) = -0.01440 0.23533
#
# Static dielectric constant tensor:
#      x y z
#    x 1.760790 0.022150 -0.019920 
#    y 0.022150 1.836440 -0.039820 
#    z -0.019920 -0.039820 1.752510 
# 
# From -- ./inp_files/236896.got.cif
#   From: 2010.05.17/outbox.cif.g08.bks.cpg/sg2_119_cif.got.tgz:236896.got - 2010.06.03 11:33:40.
