data_PCOD9037277
_publ_section_title
;
Structure prediction by ZEFSAII (Michael W. Deem and Ramdas Pophale) SiO2 
 PCOD9037277
Probable space group: P -1
;
_chemical_formula_sum "Si O2"
_cell_formula_units_Z 14
_cell_length_a 11.418009
_cell_length_b 5.424401
_cell_length_c 14.866682
_cell_angle_alpha 110.204377
_cell_angle_beta 139.517174
_cell_angle_gamma 74.292040
_cell_volume 560.956446
_symmetry_space_group_name_H-M "P -1"
_symmetry_group_IT_number 2
_symmetry_cell_setting 'triclinic'
loop_
_space_group_symop_operation_xyz
x,y,z
-x,-y,-z
loop_
_atom_site_type_symbol
_atom_site_label
_atom_site_fract_x
_atom_site_fract_y
_atom_site_fract_z
Si Si1 0.876873 0.139607 0.371110
Si Si2 0.459666 0.026995 0.755670
Si Si3 0.713834 0.619672 0.880477
Si Si4 0.100705 0.827941 0.160000
Si Si5 0.792180 0.671850 0.487214
Si Si6 0.334652 0.540622 0.976258
Si Si7 0.083752 0.438815 0.270368
O O1 0.823128 0.434559 0.405296
O O2 0.020549 0.160809 0.377969
O O3 0.690410 0.991252 0.254271
O O4 0.000000 0.000000 0.500000
O O5 0.362642 0.156369 0.629002
O O6 0.619706 0.185311 0.914892
O O7 0.548135 0.748451 0.747755
O O8 0.755234 0.321335 0.837732
O O9 0.661108 0.647256 0.958026
O O10 0.903918 0.761685 0.997049
O O11 0.113912 0.660038 0.239989
O O12 0.115147 0.139861 0.216267
O O13 0.786531 0.543331 0.565507
O O14 0.500000 0.500000 0.000000
O O15 0.128701 0.531479 0.821471
#
# Coordination Sequence:
#
# PCOD9037277 Si02
#       7
#     2   2   2   2   2   2   2
#     4   9  21  37  61  88 131 189 217 261 333 423
#     4  11  22  41  65  95 136 179 222 275 347 416
#     4  10  23  43  69  95 135 181 228 279 344 406
#     4  10  24  45  72  98 134 185 236 282 334 397
#     4  10  23  40  64  95 137 182 224 275 343 416
#     4  11  26  40  66 105 138 171 224 290 348 405
#     4  11  25  44  70 104 137 177 232 289 335 399
#
# _framework density 24.957376
#
# number of rings (size 3 to 8) (size 9 to 14) (size 15 to 20)
#    0.000    1.714    1.429    0.857   14.000    3.429 
#    0.000    1.429    0.000    0.000    0.000    0.000 
#    0.000    0.000    0.000    0.000    0.000    0.000 
#
# Total GULP energy -78204.449984 kJ/mol
# GULP energy per Si atom -5586.032142 kJ/mol
# Density = 2.490057 g / cm^3
# Si number density = 24.957376 Si / 1000 Ang^3
#
#
#
# Elastic Constant Matrix: (Units=GPa)
#
#
# Indices 1 2 3 4 5 6 
#
# 1 116.8643 38.8435 30.1240 -20.8726 -6.8918 -8.4565
# 2 38.8435 132.2871 42.5845 -43.3898 -0.2887 -17.2208
# 3 30.1240 42.5845 83.5337 -31.4716 -2.0244 -3.1647
# 4 -20.8726 -43.3898 -31.4716 52.8263 6.1454 6.8224
# 5 -6.8918 -0.2887 -2.0244 6.1454 30.5808 -3.2823
# 6 -8.4565 -17.2208 -3.1647 6.8224 -3.2823 43.6109
#
#
#
# Elastic Compliance Matrix: (Units=1/GPa)
#
#
# Indices 1 2 3 4 5 6 
#
# 1 0.010100 -0.001829 -0.002353 0.000701 0.002082 0.001113
# 2 -0.001829 0.011606 -0.002497 0.007146 -0.001603 0.002809
# 3 -0.002353 -0.002497 0.016771 0.007322 -0.001071 -0.001451
# 4 0.000701 0.007146 0.007322 0.030301 -0.005558 -0.001669
# 5 0.002082 -0.001603 -0.001071 -0.005558 0.034540 0.003162
# 6 0.001113 0.002809 -0.001451 -0.001669 0.003162 0.024649
#
#
# Mechanical properties :
#
#
# Convention : Reuss Voigt Hill
#
# Bulk Modulus (GPa) = 39.81219 61.75435 50.78327
# Shear Modulus (GPa) = 33.40059 40.14580 36.77319
#
# Velocity S-wave (km/s) = 3.66225 4.01505 3.84271
# Velocity P-wave (km/s) = 5.81975 6.80381 6.33093
#
# Compressibility (1/GPa) = 0.02511794
#
# Stress axis : x y z
#
# Youngs Moduli (GPa) = 99.01153 86.15981 59.62782
#
# Poissons Ratio (x) = 0.15758 0.14032
# Poissons Ratio (y) = 0.18108 0.14891
# Poissons Ratio (z) = 0.23301 0.21516
#
# Static dielectric constant tensor:
#      x y z
#    x 2.074920 0.105810 -0.009280 
#    y 0.105810 2.113360 -0.029890 
#    z -0.009280 -0.029890 2.056680 
# 
# From -- ./inp_files/65624.got.cif
#   From: 2010.05.17/outbox.cif.g08.bks.cpg/sg2_33_cif.got.tgz:65624.got - 2010.06.03 11:33:40.
