data_PCOD9037022
_publ_section_title
;
Structure prediction by ZEFSAII (Michael W. Deem and Ramdas Pophale) SiO2 
 PCOD9037022
Probable space group: P -1
;
_chemical_formula_sum "Si O2"
_cell_formula_units_Z 16
_cell_length_a 14.194370
_cell_length_b 8.470675
_cell_length_c 11.845422
_cell_angle_alpha 109.016782
_cell_angle_beta 31.908137
_cell_angle_gamma 92.058232
_cell_volume 623.712785
_symmetry_space_group_name_H-M "P -1"
_symmetry_group_IT_number 2
_symmetry_cell_setting 'triclinic'
loop_
_space_group_symop_operation_xyz
x,y,z
-x,-y,-z
loop_
_atom_site_type_symbol
_atom_site_label
_atom_site_fract_x
_atom_site_fract_y
_atom_site_fract_z
Si Si1 0.021671 0.624428 0.907935
Si Si2 0.433432 0.579803 0.461494
Si Si3 0.448183 0.344299 0.073195
Si Si4 0.396060 0.003684 0.319399
Si Si5 0.912201 0.608565 0.409825
Si Si6 0.986889 0.960790 0.184102
Si Si7 0.230720 0.711940 0.096589
Si Si8 0.350341 0.969231 0.730168
O O1 0.249724 0.542281 0.613809
O O2 0.940682 0.564682 0.865721
O O3 0.973979 0.815561 0.070503
O O4 0.000000 0.500000 0.000000
O O5 0.500000 0.500000 0.500000
O O6 0.354656 0.796560 0.616605
O O7 0.602342 0.483765 0.175212
O O8 0.633913 0.233595 0.948296
O O9 0.458553 0.177374 0.944576
O O10 0.500000 0.500000 0.000000
O O11 0.226176 0.438465 0.378164
O O12 0.247112 0.199106 0.451288
O O13 0.525969 0.055382 0.286560
O O14 0.243858 0.933944 0.514287
O O15 0.066226 0.675460 0.321839
O O16 0.121037 0.844464 0.130000
O O17 0.109648 0.065982 0.035635
O O18 0.500000 0.000000 0.500000
#
# Coordination Sequence:
#
# PCOD9037022 Si02
#       8
#     2   2   2   2   2   2   2   2
#     4  11  17  33  66 107 135 152 208 277 337 379
#     4  11  19  36  66  98 133 163 218 272 317 393
#     4  12  29  47  63  92 136 179 223 272 329 397
#     4  11  25  45  68  93 134 172 227 274 325 387
#     4  11  23  42  72 100 123 175 224 276 325 389
#     4  10  23  39  69 104 130 170 220 282 327 391
#     4  11  22  40  70  94 123 171 228 267 320 385
#     4  11  25  40  63 100 140 177 208 267 343 398
#
# _framework density 25.652832
#
# number of rings (size 3 to 8) (size 9 to 14) (size 15 to 20)
#    0.000    1.000    6.250    1.875    3.500    4.000 
#    2.250    0.000    0.000    0.000    0.000    0.000 
#    0.000    0.000    0.000    0.000    0.000    0.000 
#
# Total GULP energy -89274.290528 kJ/mol
# GULP energy per Si atom -5579.643158 kJ/mol
# Density = 2.559445 g / cm^3
# Si number density = 25.652832 Si / 1000 Ang^3
#
#
#
# Elastic Constant Matrix: (Units=GPa)
#
#
# Indices 1 2 3 4 5 6 
#
# 1 70.8792 1.9457 13.0158 -6.3645 -5.9018 0.0795
# 2 1.9457 90.5078 24.6658 -19.8472 5.6178 7.1888
# 3 13.0158 24.6658 121.2151 -39.7806 1.5886 10.8640
# 4 -6.3645 -19.8472 -39.7806 53.9070 18.5234 -6.0430
# 5 -5.9018 5.6178 1.5886 18.5234 38.1240 -6.6848
# 6 0.0795 7.1888 10.8640 -6.0430 -6.6848 29.0276
#
#
#
# Elastic Compliance Matrix: (Units=1/GPa)
#
#
# Indices 1 2 3 4 5 6 
#
# 1 0.014644 -0.000210 -0.001868 -0.000574 0.002874 0.001253
# 2 -0.000210 0.013053 -0.000282 0.006097 -0.005452 -0.003113
# 3 -0.001868 -0.000282 0.012464 0.010726 -0.006661 -0.003891
# 4 -0.000574 0.006097 0.010726 0.034812 -0.018806 -0.002606
# 5 0.002874 -0.005452 -0.006661 -0.018806 0.038431 0.008771
# 6 0.001253 -0.003113 -0.003891 -0.002606 0.008771 0.038151
#
#
# Mechanical properties :
#
#
# Convention : Reuss Voigt Hill
#
# Bulk Modulus (GPa) = 28.21599 40.20631 34.21115
# Shear Modulus (GPa) = 29.74633 40.41004 35.07819
#
# Velocity S-wave (km/s) = 3.40894 3.97327 3.70188
# Velocity P-wave (km/s) = 5.14952 6.06271 5.62468
#
# Compressibility (1/GPa) = 0.03544090
#
# Stress axis : x y z
#
# Youngs Moduli (GPa) = 68.28875 76.61124 80.23245
#
# Poissons Ratio (x) = 0.01605 0.14989
# Poissons Ratio (y) = 0.01431 0.02263
# Poissons Ratio (z) = 0.12757 0.02161
#
# Static dielectric constant tensor:
#      x y z
#    x 2.956860 -0.862580 2.919950 
#    y -0.862580 2.857510 -2.644710 
#    z 2.919950 -2.644710 12.167790 
# 
# From -- ./inp_files/447734.got.cif
#   From: 2010.05.17/outbox.cif.g08.bks.cpg/sg2_224_cif.got.tgz:447734.got - 2010.06.03 11:33:40.
