data_PCOD9037311
_publ_section_title
;
Structure prediction by ZEFSAII (Michael W. Deem and Ramdas Pophale) SiO2 
 PCOD9037311
Probable space group: P -1
;
_chemical_formula_sum "Si O2"
_cell_formula_units_Z 12
_cell_length_a 11.249133
_cell_length_b 20.110474
_cell_length_c 9.648603
_cell_angle_alpha 34.966989
_cell_angle_beta 26.024652
_cell_angle_gamma 36.136663
_cell_volume 526.387333
_symmetry_space_group_name_H-M "P -1"
_symmetry_group_IT_number 2
_symmetry_cell_setting 'triclinic'
loop_
_space_group_symop_operation_xyz
x,y,z
-x,-y,-z
loop_
_atom_site_type_symbol
_atom_site_label
_atom_site_fract_x
_atom_site_fract_y
_atom_site_fract_z
Si Si1 0.737415 0.991526 0.880691
Si Si2 0.542289 0.480274 0.296871
Si Si3 0.052730 0.362219 0.313591
Si Si4 0.370292 0.352374 0.461922
Si Si5 0.449289 0.245971 0.848067
Si Si6 0.022681 0.737385 0.149993
O O1 0.629520 0.108145 0.893277
O O2 0.828071 0.867885 0.082733
O O3 0.000000 0.000000 0.500000
O O4 0.500000 0.000000 0.000000
O O5 0.436619 0.467103 0.272062
O O6 0.635965 0.341551 0.486053
O O7 0.250049 0.547891 0.564272
O O8 0.763808 0.554519 0.956261
O O9 0.989578 0.280086 0.643330
O O10 0.230772 0.285013 0.135044
O O11 0.309185 0.278291 0.787348
O O12 0.113909 0.358781 0.617555
O O13 0.661746 0.280868 0.205231
#
# Coordination Sequence:
#
# PCOD9037311 Si02
#       6
#     2   2   2   2   2   2
#     4  12  22  42  67  88 121 158 210 254 293 370
#     4  10  23  41  64  89 125 167 205 242 304 367
#     4  12  25  39  64  91 134 153 202 259 306 360
#     4  10  23  40  65  89 123 159 216 235 306 367
#     4  10  24  42  66  92 119 170 205 245 306 368
#     4  12  23  42  61  99 118 163 202 261 307 346
#
# _framework density 22.796900999999998
#
# number of rings (size 3 to 8) (size 9 to 14) (size 15 to 20)
#    1.000    0.000    3.333    3.000    0.000    8.667 
#    0.000    0.000    0.000    6.000    0.000    0.000 
#    0.000    0.000    0.000    0.000    0.000    0.000 
#
# Total GULP energy -67125.672267 kJ/mol
# GULP energy per Si atom -5593.806022 kJ/mol
# Density = 2.274501 g / cm^3
# Si number density = 22.796901 Si / 1000 Ang^3
#
#
#
# Elastic Constant Matrix: (Units=GPa)
#
#
# Indices 1 2 3 4 5 6 
#
# 1 67.4870 20.9295 44.7952 1.0502 14.0353 8.0691
# 2 20.9295 149.1766 54.2829 -8.2075 13.1701 9.9094
# 3 44.7952 54.2829 120.1334 22.1374 6.3415 2.9355
# 4 1.0502 -8.2075 22.1374 32.8552 -1.8907 7.0189
# 5 14.0353 13.1701 6.3415 -1.8907 58.9740 6.3276
# 6 8.0691 9.9094 2.9355 7.0189 6.3276 30.1970
#
#
#
# Elastic Compliance Matrix: (Units=1/GPa)
#
#
# Indices 1 2 3 4 5 6 
#
# 1 0.022550 0.001793 -0.010315 0.007890 -0.003689 -0.006672
# 2 0.001793 0.009487 -0.006135 0.007331 -0.001173 -0.004454
# 3 -0.010315 -0.006135 0.017359 -0.014176 0.000838 0.006201
# 4 0.007890 0.007331 -0.014176 0.044541 0.000905 -0.013679
# 5 -0.003689 -0.001173 0.000838 0.000905 0.018332 -0.002763
# 6 -0.006672 -0.004454 0.006201 -0.013679 -0.002763 0.039516
#
#
# Mechanical properties :
#
#
# Convention : Reuss Voigt Hill
#
# Bulk Modulus (GPa) = 49.79693 64.09025 56.94359
# Shear Modulus (GPa) = 26.62482 38.85787 32.74135
#
# Velocity S-wave (km/s) = 3.42118 4.13307 3.79386
# Velocity P-wave (km/s) = 6.12349 7.13799 6.65012
#
# Compressibility (1/GPa) = 0.02008156
#
# Stress axis : x y z
#
# Youngs Moduli (GPa) = 44.34497 105.40455 57.60722
#
# Poissons Ratio (x) = -0.18894 0.59420
# Poissons Ratio (y) = -0.07949 0.35344
# Poissons Ratio (z) = 0.45741 0.64670
#
# Static dielectric constant tensor:
#      x y z
#    x 1.929190 0.009860 0.026910 
#    y 0.009860 1.863120 -0.031690 
#    z 0.026910 -0.031690 1.832280 
# 
# From -- ./inp_files/458002.got.cif
#   From: 2010.05.17/outbox.cif.g08.bks.cpg/sg2_230_cif.got.tgz:458002.got - 2010.06.03 11:33:40.
