data_PCOD9037284
_publ_section_title
;
Structure prediction by ZEFSAII (Michael W. Deem and Ramdas Pophale) SiO2 
 PCOD9037284
Probable space group: P -1
;
_chemical_formula_sum "Si O2"
_cell_formula_units_Z 14
_cell_length_a 7.820364
_cell_length_b 23.370446
_cell_length_c 6.956178
_cell_angle_alpha 49.177329
_cell_angle_beta 57.492473
_cell_angle_gamma 42.067851
_cell_volume 641.185773
_symmetry_space_group_name_H-M "P -1"
_symmetry_group_IT_number 2
_symmetry_cell_setting 'triclinic'
loop_
_space_group_symop_operation_xyz
x,y,z
-x,-y,-z
loop_
_atom_site_type_symbol
_atom_site_label
_atom_site_fract_x
_atom_site_fract_y
_atom_site_fract_z
Si Si1 0.294602 0.023018 0.298377
Si Si2 0.012823 0.974149 0.829368
Si Si3 0.551570 0.822919 0.706701
Si Si4 0.658931 0.462933 0.288893
Si Si5 0.815711 0.678354 0.527745
Si Si6 0.447916 0.636199 0.739597
Si Si7 0.907263 0.772173 0.936996
O O1 0.272165 0.115866 0.146234
O O2 0.226774 0.015494 0.137639
O O3 0.529974 0.918136 0.460310
O O4 0.062144 0.038181 0.531699
O O5 0.271953 0.867796 0.862754
O O6 0.000000 0.000000 0.000000
O O7 0.618909 0.763387 0.605375
O O8 0.763138 0.762549 0.872569
O O9 0.500000 0.500000 0.500000
O O10 0.618164 0.393890 0.348840
O O11 0.953559 0.406258 0.296866
O O12 0.558067 0.550645 0.014430
O O13 0.662801 0.650898 0.560214
O O14 0.930307 0.713728 0.235586
O O15 0.186193 0.729275 0.782705
#
# Coordination Sequence:
#
# PCOD9037284 Si02
#       7
#     2   2   2   2   2   2   2
#     4   9  22  40  61  94 139 181 230 277 327 398
#     4   9  20  39  62  92 129 186 233 273 338 390
#     4  10  23  40  64  97 139 181 230 275 332 400
#     4  11  24  51  73 102 137 178 223 284 355 411
#     4  12  26  45  72 105 139 179 227 284 346 403
#     4  11  26  46  74 102 139 172 230 285 340 423
#     4  12  24  43  68 103 137 180 235 280 338 406
#
# _framework density 21.834544999999999
#
# number of rings (size 3 to 8) (size 9 to 14) (size 15 to 20)
#    0.857    0.571    2.857    1.714    2.000    3.429 
#    2.571    0.000    0.000    0.000    0.000    0.000 
#    0.000    0.000    0.000    0.000    0.000    0.000 
#
# Total GULP energy -78213.664586 kJ/mol
# GULP energy per Si atom -5586.690328 kJ/mol
# Density = 2.178485 g / cm^3
# Si number density = 21.834545 Si / 1000 Ang^3
#
#
#
# Elastic Constant Matrix: (Units=GPa)
#
#
# Indices 1 2 3 4 5 6 
#
# 1 74.9557 15.2103 4.3673 9.9394 18.7869 -2.0936
# 2 15.2103 95.3088 12.9497 13.2347 3.3206 -3.8280
# 3 4.3673 12.9497 44.5904 16.3584 20.4172 9.6397
# 4 9.9394 13.2347 16.3584 31.2161 1.4618 8.3943
# 5 18.7869 3.3206 20.4172 1.4618 31.8332 -3.3722
# 6 -2.0936 -3.8280 9.6397 8.3943 -3.3722 35.8729
#
#
#
# Elastic Compliance Matrix: (Units=1/GPa)
#
#
# Indices 1 2 3 4 5 6 
#
# 1 0.018765 -0.002608 0.010523 -0.009173 -0.017288 -0.001489
# 2 -0.002608 0.011942 -0.004579 -0.002918 0.003723 0.003385
# 3 0.010523 -0.004579 0.051920 -0.023553 -0.039223 -0.012002
# 4 -0.009173 -0.002918 -0.023553 0.048826 0.018134 -0.004238
# 5 -0.017288 0.003723 -0.039223 0.018134 0.066820 0.011967
# 6 -0.001489 0.003385 -0.012002 -0.004238 0.011967 0.033492
#
#
# Mechanical properties :
#
#
# Convention : Reuss Voigt Hill
#
# Bulk Modulus (GPa) = 11.19823 31.10106 21.14965
# Shear Modulus (GPa) = 19.61853 31.93961 25.77907
#
# Velocity S-wave (km/s) = 3.00077 3.82881 3.43979
# Velocity P-wave (km/s) = 4.14076 5.81560 5.04813
#
# Compressibility (1/GPa) = 0.08929984
#
# Stress axis : x y z
#
# Youngs Moduli (GPa) = 53.28980 83.73812 19.26022
#
# Poissons Ratio (x) = 0.21840 -0.20267
# Poissons Ratio (y) = 0.13899 0.08819
# Poissons Ratio (z) = -0.56076 0.38341
#
# Static dielectric constant tensor:
#      x y z
#    x 1.816820 -0.018680 -0.009520 
#    y -0.018680 1.792870 -0.000740 
#    z -0.009520 -0.000740 1.793820 
# 
# From -- ./inp_files/55240.got.cif
#   From: 2010.05.17/outbox.cif.g08.bks.cpg/sg2_28_cif.got.tgz:55240.got - 2010.06.03 11:33:40.
