data_PCOD9037818
_publ_section_title
;
Structure prediction by ZEFSAII (Michael W. Deem and Ramdas Pophale) SiO2 
 PCOD9037818
Probable space group: P -1
;
_chemical_formula_sum "Si O2"
_cell_formula_units_Z 16
_cell_length_a 9.630829
_cell_length_b 12.376935
_cell_length_c 28.297483
_cell_angle_alpha 27.851626
_cell_angle_beta 27.927120
_cell_angle_gamma 38.064017
_cell_volume 737.752087
_symmetry_space_group_name_H-M "P -1"
_symmetry_group_IT_number 2
_symmetry_cell_setting 'triclinic'
loop_
_space_group_symop_operation_xyz
x,y,z
-x,-y,-z
loop_
_atom_site_type_symbol
_atom_site_label
_atom_site_fract_x
_atom_site_fract_y
_atom_site_fract_z
Si Si1 0.427164 0.024752 0.566489
Si Si2 0.125353 0.647910 0.199056
Si Si3 0.587570 0.208620 0.038531
Si Si4 0.810785 0.010129 0.218597
Si Si5 0.168571 0.646277 0.994026
Si Si6 0.488180 0.487553 0.778764
Si Si7 0.240356 0.804212 0.517647
Si Si8 0.824183 0.140526 0.747820
O O1 0.450550 0.763911 0.681013
O O2 0.500000 0.000000 0.500000
O O3 0.670258 0.169220 0.464952
O O4 0.106502 0.143567 0.627199
O O5 0.402634 0.586430 0.173599
O O6 0.974565 0.873805 0.180059
O O7 0.898062 0.441679 0.353634
O O8 0.213010 0.693442 0.101418
O O9 0.753775 0.209047 0.038423
O O10 0.447505 0.972329 0.153920
O O11 0.312897 0.391872 0.056320
O O12 0.540745 0.862981 0.376608
O O13 0.048922 0.024884 0.183637
O O14 0.701011 0.243308 0.135834
O O15 0.821940 0.621823 0.098806
O O16 0.725200 0.377404 0.712411
O O17 0.000000 0.000000 0.500000
#
# Coordination Sequence:
#
# PCOD9037818 Si02
#       8
#     2   2   2   2   2   2   2   2
#     4  11  25  43  65  92 131 168 211 261 313 376
#     4  11  23  40  65  93 125 166 214 260 310 377
#     4  11  24  40  64  96 128 164 211 260 319 379
#     4  10  23  41  63  94 126 163 212 263 310 377
#     4  11  24  40  64  95 129 165 207 264 321 371
#     4  11  23  43  66  93 127 166 212 263 314 374
#     4  11  22  41  64  90 122 169 210 253 314 370
#     4  10  23  43  66  95 124 165 216 257 317 377
#
# _framework density 21.687501000000001
#
# number of rings (size 3 to 8) (size 9 to 14) (size 15 to 20)
#    0.000    1.250    2.500    2.625    3.500    6.500 
#    0.000    0.000    0.000    0.000    0.000    0.000 
#    0.000    0.000    0.000    0.000    0.000    0.000 
#
# Total GULP energy -89474.400259 kJ/mol
# GULP energy per Si atom -5592.150016 kJ/mol
# Density = 2.163814 g / cm^3
# Si number density = 21.687501 Si / 1000 Ang^3
#
#
#
# Elastic Constant Matrix: (Units=GPa)
#
#
# Indices 1 2 3 4 5 6 
#
# 1 120.2016 16.1936 25.6177 15.9227 -15.9451 8.1607
# 2 16.1936 72.9408 4.8402 10.9802 0.5167 11.5598
# 3 25.6177 4.8402 31.8181 12.5133 -14.6658 -3.3992
# 4 15.9227 10.9802 12.5133 30.9324 12.1952 2.0946
# 5 -15.9451 0.5167 -14.6658 12.1952 33.5137 3.6641
# 6 8.1607 11.5598 -3.3992 2.0946 3.6641 29.5838
#
#
#
# Elastic Compliance Matrix: (Units=1/GPa)
#
#
# Indices 1 2 3 4 5 6 
#
# 1 0.011132 -0.000782 -0.004077 -0.005961 0.006083 -0.003565
# 2 -0.000782 0.015653 0.001845 -0.006817 0.003289 -0.005614
# 3 -0.004077 0.001845 0.077454 -0.049784 0.049308 0.006721
# 4 -0.005961 -0.006817 -0.049784 0.078960 -0.053204 -0.000413
# 5 0.006083 0.003289 0.049308 -0.053204 0.073913 -0.002685
# 6 -0.003565 -0.005614 0.006721 -0.000413 -0.002685 0.038113
#
#
# Mechanical properties :
#
#
# Convention : Reuss Voigt Hill
#
# Bulk Modulus (GPa) = 10.18186 35.36261 22.77224
# Shear Modulus (GPa) = 14.97047 30.69326 22.83187
#
# Velocity S-wave (km/s) = 2.63017 3.76606 3.24816
# Velocity P-wave (km/s) = 3.73212 5.93733 4.95886
#
# Compressibility (1/GPa) = 0.09821384
#
# Stress axis : x y z
#
# Youngs Moduli (GPa) = 89.83043 63.88389 12.91081
#
# Poissons Ratio (x) = 0.04994 0.05263
# Poissons Ratio (y) = 0.07022 -0.02382
# Poissons Ratio (z) = 0.36620 -0.11788
#
# Static dielectric constant tensor:
#      x y z
#    x 1.781930 -0.022090 0.035870 
#    y -0.022090 1.803510 -0.013740 
#    z 0.035870 -0.013740 1.800870 
# 
# From -- ./inp_files/214764.got.cif
#   From: 2010.05.17/outbox.cif.g08.bks.cpg/sg2_108_cif.got.tgz:214764.got - 2010.06.03 11:33:40.
