data_PCOD9037640
_publ_section_title
;
Structure prediction by ZEFSAII (Michael W. Deem and Ramdas Pophale) SiO2 
 PCOD9037640
Probable space group: P -1
;
_chemical_formula_sum "Si O2"
_cell_formula_units_Z 14
_cell_length_a 12.718558
_cell_length_b 25.716683
_cell_length_c 5.301015
_cell_angle_alpha 69.483548
_cell_angle_beta 96.702924
_cell_angle_gamma 153.707533
_cell_volume 632.563459
_symmetry_space_group_name_H-M "P -1"
_symmetry_group_IT_number 2
_symmetry_cell_setting 'triclinic'
loop_
_space_group_symop_operation_xyz
x,y,z
-x,-y,-z
loop_
_atom_site_type_symbol
_atom_site_label
_atom_site_fract_x
_atom_site_fract_y
_atom_site_fract_z
Si Si1 0.507185 0.465283 0.314255
Si Si2 0.348627 0.892995 0.425038
Si Si3 0.146775 0.594091 0.127129
Si Si4 0.622026 0.976687 0.974806
Si Si5 0.838479 0.811490 0.342147
Si Si6 0.933699 0.315957 0.969724
Si Si7 0.257439 0.164047 0.233295
O O1 0.500000 0.500000 0.500000
O O2 0.283042 0.308957 0.497039
O O3 0.779901 0.560840 0.269033
O O4 0.500000 0.500000 0.000000
O O5 0.551721 0.942114 0.309281
O O6 0.500000 0.000000 0.500000
O O7 0.089314 0.735866 0.709604
O O8 0.276384 0.910078 0.199838
O O9 0.100771 0.637413 0.050173
O O10 0.000000 0.500000 0.500000
O O11 0.463589 0.732530 0.938556
O O12 0.000000 0.500000 0.000000
O O13 0.325607 0.825384 0.031382
O O14 0.837687 0.040580 0.807563
O O15 0.720156 0.787744 0.588190
O O16 0.793781 0.822047 0.048858
O O17 0.000000 0.000000 0.500000
#
# Coordination Sequence:
#
# PCOD9037640 Si02
#       7
#     2   2   2   2   2   2   2
#     4  12  28  46  70 104 148 189 230 284 358 436
#     4   9  21  38  65 100 136 173 235 280 341 415
#     4  12  28  49  76 102 142 189 247 298 350 421
#     4  10  23  40  71 101 139 179 233 282 351 422
#     4  12  27  47  73 104 151 186 232 299 366 417
#     4  11  25  43  72  97 136 184 237 279 352 415
#     4  12  27  49  75 109 142 187 246 306 365 418
#
# _framework density 22.132166999999999
#
# number of rings (size 3 to 8) (size 9 to 14) (size 15 to 20)
#    0.000    0.857    0.000    5.571   16.000    0.000 
#    0.000    0.000    0.000    0.000    0.000    0.000 
#    0.000    0.000    0.000    0.000    0.000    0.000 
#
# Total GULP energy -78090.887240 kJ/mol
# GULP energy per Si atom -5577.920517 kJ/mol
# Density = 2.208179 g / cm^3
# Si number density = 22.132167 Si / 1000 Ang^3
#
#
#
# Elastic Constant Matrix: (Units=GPa)
#
#
# Indices 1 2 3 4 5 6 
#
# 1 136.9701 62.3126 48.1025 -5.7754 -29.6854 -8.6149
# 2 62.3126 106.8016 59.4661 -1.2247 -3.6254 -8.1815
# 3 48.1025 59.4661 111.1191 8.5126 -13.0037 -6.2313
# 4 -5.7754 -1.2247 8.5126 44.4304 4.8112 -10.7751
# 5 -29.6854 -3.6254 -13.0037 4.8112 58.7853 -10.0946
# 6 -8.6149 -8.1815 -6.2313 -10.7751 -10.0946 47.7100
#
#
#
# Elastic Compliance Matrix: (Units=1/GPa)
#
#
# Indices 1 2 3 4 5 6 
#
# 1 0.011844 -0.005735 -0.001384 0.001653 0.005621 0.002537
# 2 -0.005735 0.016436 -0.006800 0.001505 -0.003422 0.000510
# 3 -0.001384 -0.006800 0.013749 -0.003211 0.002206 0.000121
# 4 0.001653 0.001505 -0.003211 0.024820 -0.000859 0.005561
# 5 0.005621 -0.003422 0.002206 -0.000859 0.021052 0.004976
# 6 0.002537 0.000510 0.000121 0.005561 0.004976 0.023830
#
#
# Mechanical properties :
#
#
# Convention : Reuss Voigt Hill
#
# Bulk Modulus (GPa) = 70.47778 77.18369 73.83074
# Shear Modulus (GPa) = 34.65011 42.51911 38.58461
#
# Velocity S-wave (km/s) = 3.96106 4.38784 4.17990
# Velocity P-wave (km/s) = 7.26864 7.78592 7.53172
#
# Compressibility (1/GPa) = 0.01418887
#
# Stress axis : x y z
#
# Youngs Moduli (GPa) = 84.43247 60.84293 72.73386
#
# Poissons Ratio (x) = 0.34895 0.10069
# Poissons Ratio (y) = 0.48424 0.49460
# Poissons Ratio (z) = 0.11689 0.41374
#
# Static dielectric constant tensor:
#      x y z
#    x 1.835970 0.058190 -0.055570 
#    y 0.058190 1.828060 0.005330 
#    z -0.055570 0.005330 1.647680 
# 
# From -- ./inp_files/78641.got.cif
#   From: 2010.05.17/outbox.cif.g08.bks.cpg/sg2_40_cif.got.tgz:78641.got - 2010.06.03 11:33:40.
