data_PCOD9037248
_publ_section_title
;
Structure prediction by ZEFSAII (Michael W. Deem and Ramdas Pophale) SiO2 
 PCOD9037248
Probable space group: P -1
;
_chemical_formula_sum "Si O2"
_cell_formula_units_Z 14
_cell_length_a 29.097043
_cell_length_b 5.377371
_cell_length_c 11.482233
_cell_angle_alpha 109.759951
_cell_angle_beta 157.081308
_cell_angle_gamma 70.003070
_cell_volume 656.138139
_symmetry_space_group_name_H-M "P -1"
_symmetry_group_IT_number 2
_symmetry_cell_setting 'triclinic'
loop_
_space_group_symop_operation_xyz
x,y,z
-x,-y,-z
loop_
_atom_site_type_symbol
_atom_site_label
_atom_site_fract_x
_atom_site_fract_y
_atom_site_fract_z
Si Si1 0.038978 0.357939 0.689859
Si Si2 0.101688 0.267701 0.192369
Si Si3 0.443535 0.803718 0.427692
Si Si4 0.177546 0.986976 0.811705
Si Si5 0.513432 0.121520 0.866897
Si Si6 0.636747 0.651993 0.237600
Si Si7 0.050085 0.158796 0.312606
O O1 0.000000 0.500000 0.500000
O O2 0.934133 0.179260 0.450727
O O3 0.030956 0.573922 0.805476
O O4 0.162070 0.199642 0.915170
O O5 0.222850 0.365379 0.446718
O O6 0.112404 0.156978 0.332367
O O7 0.000000 0.500000 0.000000
O O8 0.045436 0.056258 0.946119
O O9 0.500000 0.500000 0.500000
O O10 0.500000 0.000000 0.500000
O O11 0.465839 0.946956 0.624817
O O12 0.302490 0.820680 0.079601
O O13 0.147667 0.113219 0.635044
O O14 0.411324 0.264412 0.733327
O O15 0.587491 0.370603 0.042928
O O16 0.589510 0.901284 0.086615
#
# Coordination Sequence:
#
# PCOD9037248 Si02
#       7
#     2   2   2   2   2   2   2
#     4   9  20  40  68  94 131 176 226 278 346 409
#     4  11  25  40  66 104 133 177 223 289 355 415
#     4  12  29  45  70 107 143 189 235 286 355 423
#     4  10  23  44  66  99 136 182 226 287 347 416
#     4  10  24  48  70 101 132 188 236 289 338 410
#     4  10  24  47  74  97 137 181 238 290 344 401
#     4  10  23  40  64 104 136 176 225 280 364 415
#
# _framework density 21.336970000000001
#
# number of rings (size 3 to 8) (size 9 to 14) (size 15 to 20)
#    0.000    1.714    0.000    1.714   10.000    6.857 
#    5.143    0.000    0.000    0.000    0.000    0.000 
#    0.000    0.000    0.000    0.000    0.000    0.000 
#
# Total GULP energy -78163.114002 kJ/mol
# GULP energy per Si atom -5583.079572 kJ/mol
# Density = 2.128841 g / cm^3
# Si number density = 21.336970 Si / 1000 Ang^3
#
#
#
# Elastic Constant Matrix: (Units=GPa)
#
#
# Indices 1 2 3 4 5 6 
#
# 1 55.4812 29.7460 51.6014 -6.8865 8.7111 -6.8946
# 2 29.7460 146.1795 59.4821 0.1255 6.1802 -13.5238
# 3 51.6014 59.4821 115.6114 -14.6623 19.5237 -19.4976
# 4 -6.8865 0.1255 -14.6623 36.1324 -8.9184 -0.0216
# 5 8.7111 6.1802 19.5237 -8.9184 33.0253 8.6201
# 6 -6.8946 -13.5238 -19.4976 -0.0216 8.6201 34.4106
#
#
#
# Elastic Compliance Matrix: (Units=1/GPa)
#
#
# Indices 1 2 3 4 5 6 
#
# 1 0.031037 -0.000930 -0.013827 0.000523 0.000878 -0.002201
# 2 -0.000930 0.008838 -0.004322 -0.001848 0.000459 0.000722
# 3 -0.013827 -0.004322 0.020679 0.003473 -0.009333 0.009588
# 4 0.000523 -0.001848 0.003473 0.030807 0.006546 -0.000274
# 5 0.000878 0.000459 -0.009333 0.006546 0.041230 -0.015256
# 6 -0.002201 0.000722 0.009588 -0.000274 -0.015256 0.038158
#
#
# Mechanical properties :
#
#
# Convention : Reuss Voigt Hill
#
# Bulk Modulus (GPa) = 44.65500 66.54790 55.60145
# Shear Modulus (GPa) = 23.10837 32.47650 27.79243
#
# Velocity S-wave (km/s) = 3.29450 3.90561 3.61300
# Velocity P-wave (km/s) = 5.95361 7.18297 6.59699
#
# Compressibility (1/GPa) = 0.02239391
#
# Stress axis : x y z
#
# Youngs Moduli (GPa) = 32.21975 113.14959 48.35932
#
# Poissons Ratio (x) = 0.10527 0.66868
# Poissons Ratio (y) = 0.02998 0.20901
# Poissons Ratio (z) = 0.44551 0.48903
#
# Static dielectric constant tensor:
#      x y z
#    x 1.818120 0.020460 -0.043020 
#    y 0.020460 1.804380 0.002920 
#    z -0.043020 0.002920 1.742430 
# 
# From -- ./inp_files/362802.got.cif
#   From: 2010.05.17/outbox.cif.g08.bks.cpg/sg2_182_cif.got.tgz:362802.got - 2010.06.03 11:33:40.
