data_PCOD9037531
_publ_section_title
;
Structure prediction by ZEFSAII (Michael W. Deem and Ramdas Pophale) SiO2 
 PCOD9037531
Probable space group: P -1
;
_chemical_formula_sum "Si O2"
_cell_formula_units_Z 16
_cell_length_a 14.063345
_cell_length_b 11.562661
_cell_length_c 21.452665
_cell_angle_alpha 150.319492
_cell_angle_beta 148.452643
_cell_angle_gamma 51.109820
_cell_volume 813.974427
_symmetry_space_group_name_H-M "P -1"
_symmetry_group_IT_number 2
_symmetry_cell_setting 'triclinic'
loop_
_space_group_symop_operation_xyz
x,y,z
-x,-y,-z
loop_
_atom_site_type_symbol
_atom_site_label
_atom_site_fract_x
_atom_site_fract_y
_atom_site_fract_z
Si Si1 0.989406 0.118261 0.182081
Si Si2 0.816090 0.251735 0.926449
Si Si3 0.326751 0.729062 0.751546
Si Si4 0.835426 0.575423 0.696530
Si Si5 0.105579 0.357236 0.952820
Si Si6 0.517419 0.789241 0.601471
Si Si7 0.605437 0.648986 0.778331
Si Si8 0.933265 0.775879 0.581370
O O1 0.059031 0.333986 0.268644
O O2 0.018805 0.219138 0.315660
O O3 0.119640 0.950534 0.169291
O O4 0.756525 0.911102 0.951481
O O5 0.604372 0.077222 0.758940
O O6 0.812962 0.470710 0.982356
O O7 0.992283 0.368956 0.130676
O O8 0.407752 0.659925 0.700638
O O9 0.269286 0.492190 0.658754
O O10 0.121640 0.762974 0.645927
O O11 0.500000 0.000000 0.000000
O O12 0.712286 0.752111 0.717220
O O13 0.654101 0.297869 0.482545
O O14 0.276851 0.360423 0.097164
O O15 0.950145 0.060837 0.711545
O O16 0.000000 0.500000 0.000000
O O17 0.437209 0.587637 0.403583
#
# Coordination Sequence:
#
# PCOD9037531 Si02
#       8
#     2   2   2   2   2   2   2   2
#     4  10  17  33  52  76 112 141 181 227 273 319
#     4  11  20  34  49  75 118 152 178 214 268 344
#     4  11  20  38  57  79 112 136 201 236 270 322
#     4  10  20  32  50  75 110 149 188 226 266 327
#     4  11  20  36  53  81 125 151 177 214 283 358
#     4  10  20  32  51  77 109 148 189 228 268 321
#     4  11  21  33  55  85 108 148 182 229 283 326
#     4  10  22  37  57  83 109 150 179 237 284 318
#
# _framework density 19.656637
#
# number of rings (size 3 to 8) (size 9 to 14) (size 15 to 20)
#    0.000    1.500    6.250    3.000    1.750    0.500 
#    2.250    0.000    0.000    0.000    0.000   11.375 
#    0.000    0.000    0.000    0.000    0.000    0.000 
#
# Total GULP energy -89198.446617 kJ/mol
# GULP energy per Si atom -5574.902914 kJ/mol
# Density = 1.961190 g / cm^3
# Si number density = 19.656637 Si / 1000 Ang^3
#
#
#
# Elastic Constant Matrix: (Units=GPa)
#
#
# Indices 1 2 3 4 5 6 
#
# 1 80.7373 35.5578 39.0351 5.1877 34.5798 16.8206
# 2 35.5578 58.6736 44.5714 22.5919 8.4540 22.3240
# 3 39.0351 44.5714 118.7452 23.9730 35.4758 19.7832
# 4 5.1877 22.5919 23.9730 36.7050 14.0365 3.1773
# 5 34.5798 8.4540 35.4758 14.0365 42.6572 5.9782
# 6 16.8206 22.3240 19.7832 3.1773 5.9782 39.0762
#
#
#
# Elastic Compliance Matrix: (Units=1/GPa)
#
#
# Indices 1 2 3 4 5 6 
#
# 1 0.037917 -0.032607 0.005319 0.025285 -0.037480 0.003292
# 2 -0.032607 0.064268 -0.014776 -0.039615 0.041590 -0.018341
# 3 0.005319 -0.014776 0.016256 0.003915 -0.016202 0.000083
# 4 0.025285 -0.039615 0.003915 0.058602 -0.036672 0.010611
# 5 -0.037480 0.041590 -0.016202 -0.036672 0.072173 -0.007484
# 6 0.003292 -0.018341 0.000083 0.010611 -0.007484 0.034892
#
#
# Mechanical properties :
#
#
# Convention : Reuss Voigt Hill
#
# Bulk Modulus (GPa) = 29.14449 55.16498 42.15473
# Shear Modulus (GPa) = 13.16916 32.95379 23.06147
#
# Velocity S-wave (km/s) = 2.59117 4.09892 3.42894
# Velocity P-wave (km/s) = 4.87967 7.10821 6.09663
#
# Compressibility (1/GPa) = 0.03431180
#
# Stress axis : x y z
#
# Youngs Moduli (GPa) = 26.37341 15.55974 61.51744
#
# Poissons Ratio (x) = 0.50736 -0.32721
# Poissons Ratio (y) = 0.85996 0.90901
# Poissons Ratio (z) = -0.14028 0.22992
#
# Static dielectric constant tensor:
#      x y z
#    x 1.724630 0.017740 0.018740 
#    y 0.017740 1.723080 0.012560 
#    z 0.018740 0.012560 1.812190 
# 
# From -- ./inp_files/464580.got.cif
#   From: 2010.05.17/outbox.cif.g08.bks.cpg/sg2_233_cif.got.tgz:464580.got - 2010.06.03 11:33:40.
