data_PCOD9037349
_publ_section_title
;
Structure prediction by ZEFSAII (Michael W. Deem and Ramdas Pophale) SiO2 
 PCOD9037349
Probable space group: P -1
;
_chemical_formula_sum "Si O2"
_cell_formula_units_Z 12
_cell_length_a 14.226292
_cell_length_b 7.687825
_cell_length_c 5.147682
_cell_angle_alpha 63.304386
_cell_angle_beta 77.703056
_cell_angle_gamma 78.521449
_cell_volume 487.991011
_symmetry_space_group_name_H-M "P -1"
_symmetry_group_IT_number 2
_symmetry_cell_setting 'triclinic'
loop_
_space_group_symop_operation_xyz
x,y,z
-x,-y,-z
loop_
_atom_site_type_symbol
_atom_site_label
_atom_site_fract_x
_atom_site_fract_y
_atom_site_fract_z
Si Si1 0.691740 0.142669 0.944971
Si Si2 0.907880 0.395754 0.194864
Si Si3 0.560523 0.862702 0.346913
Si Si4 0.903616 0.134158 0.876021
Si Si5 0.712485 0.559933 0.389753
Si Si6 0.576686 0.406944 0.229631
O O1 0.651788 0.233848 0.179906
O O2 0.609825 0.001246 0.021055
O O3 0.802526 0.041772 0.957388
O O4 0.700007 0.341996 0.646828
O O5 0.926498 0.239253 0.522514
O O6 0.822349 0.552528 0.248791
O O7 0.878958 0.291008 0.018324
O O8 0.000000 0.500000 0.000000
O O9 0.659730 0.733399 0.477495
O O10 0.488052 0.698107 0.455553
O O11 0.500000 0.000000 0.500000
O O12 0.000000 0.000000 0.000000
O O13 0.643607 0.566863 0.174852
O O14 0.500000 0.500000 0.000000
#
# Coordination Sequence:
#
# PCOD9037349 Si02
#       6
#     2   2   2   2   2   2
#     4  10  23  43  64  97 133 180 231 280 355 414
#     4  11  25  46  74 106 137 192 235 291 367 428
#     4  10  23  40  65  98 128 179 231 274 344 413
#     4  11  24  47  73 102 147 179 236 305 359 417
#     4  11  23  44  68  92 143 179 227 294 346 418
#     4  11  21  42  64  92 137 176 225 280 344 406
#
# _framework density 24.590616000000001
#
# number of rings (size 3 to 8) (size 9 to 14) (size 15 to 20)
#    0.000    1.333    3.333    1.500    2.333    0.667 
#    9.000    0.000    0.000    0.000    0.000    0.000 
#    0.000    0.000    0.000    0.000    0.000    0.000 
#
# Total GULP energy -66954.764754 kJ/mol
# GULP energy per Si atom -5579.563730 kJ/mol
# Density = 2.453465 g / cm^3
# Si number density = 24.590616 Si / 1000 Ang^3
#
#
#
# Elastic Constant Matrix: (Units=GPa)
#
#
# Indices 1 2 3 4 5 6 
#
# 1 158.0275 32.2236 67.7845 -6.9512 -42.6017 -39.4918
# 2 32.2236 95.6891 16.0198 -10.1252 -19.2249 -22.7114
# 3 67.7845 16.0198 144.4095 -3.1291 -28.8887 -2.5933
# 4 -6.9512 -10.1252 -3.1291 28.5740 -0.3129 -2.3713
# 5 -42.6017 -19.2249 -28.8887 -0.3129 46.9299 12.9478
# 6 -39.4918 -22.7114 -2.5933 -2.3713 12.9478 50.1962
#
#
#
# Elastic Compliance Matrix: (Units=1/GPa)
#
#
# Indices 1 2 3 4 5 6 
#
# 1 0.011770 0.000105 -0.004109 0.003154 0.006103 0.007670
# 2 0.000105 0.013025 -0.000555 0.005055 0.003678 0.005237
# 3 -0.004109 -0.000555 0.009412 -0.000446 0.002870 -0.003759
# 4 0.003154 0.005055 -0.000446 0.038014 0.003346 0.005678
# 5 0.006103 0.003678 0.002870 0.003346 0.030442 -0.001081
# 6 0.007670 0.005237 -0.003759 0.005678 -0.001081 0.028678
#
#
# Mechanical properties :
#
#
# Convention : Reuss Voigt Hill
#
# Bulk Modulus (GPa) = 39.85928 70.02021 54.93975
# Shear Modulus (GPa) = 33.59673 43.94656 38.77165
#
# Velocity S-wave (km/s) = 3.70028 4.23203 3.97506
# Velocity P-wave (km/s) = 5.87371 7.23991 6.59230
#
# Compressibility (1/GPa) = 0.02508826
#
# Stress axis : x y z
#
# Youngs Moduli (GPa) = 84.96142 76.77585 106.24416
#
# Poissons Ratio (x) = -0.00803 0.43661
# Poissons Ratio (y) = -0.00889 0.05893
# Poissons Ratio (z) = 0.34915 0.04258
#
# Static dielectric constant tensor:
#      x y z
#    x 2.037880 0.067530 0.072040 
#    y 0.067530 2.166460 -0.020310 
#    z 0.072040 -0.020310 2.013380 
# 
# From -- ./inp_files/32753.got.cif
#   From: 2010.05.17/outbox.cif.g08.bks.cpg/sg2_17_cif.got.tgz:32753.got - 2010.06.03 11:33:40.
