data_PCOD9037237
_publ_section_title
;
Structure prediction by ZEFSAII (Michael W. Deem and Ramdas Pophale) SiO2 
 PCOD9037237
Probable space group: P -1
;
_chemical_formula_sum "Si O2"
_cell_formula_units_Z 16
_cell_length_a 17.448001
_cell_length_b 8.881527
_cell_length_c 20.538903
_cell_angle_alpha 137.201779
_cell_angle_beta 20.344521
_cell_angle_gamma 126.041735
_cell_volume 681.700228
_symmetry_space_group_name_H-M "P -1"
_symmetry_group_IT_number 2
_symmetry_cell_setting 'triclinic'
loop_
_space_group_symop_operation_xyz
x,y,z
-x,-y,-z
loop_
_atom_site_type_symbol
_atom_site_label
_atom_site_fract_x
_atom_site_fract_y
_atom_site_fract_z
Si Si1 0.997007 0.026234 0.290959
Si Si2 0.013771 0.821199 0.990175
Si Si3 0.546919 0.071469 0.747466
Si Si4 0.762084 0.731961 0.738606
Si Si5 0.191178 0.494934 0.901227
Si Si6 0.272713 0.975110 0.263688
Si Si7 0.013700 0.237327 0.210503
Si Si8 0.357248 0.473943 0.512255
O O1 0.752308 0.099227 0.549993
O O2 0.199086 0.052704 0.184422
O O3 0.943339 0.215058 0.333691
O O4 0.094895 0.747466 0.098392
O O5 0.243855 0.585234 0.707333
O O6 0.797426 0.734544 0.138155
O O7 0.031130 0.975666 0.086288
O O8 0.000000 0.000000 0.000000
O O9 0.620115 0.048677 0.757139
O O10 0.548009 0.812198 0.647159
O O11 0.269824 0.256640 0.014891
O O12 0.762196 0.796271 0.682912
O O13 0.000000 0.500000 0.500000
O O14 0.497229 0.752678 0.977366
O O15 0.437647 0.451530 0.655122
O O16 0.000000 0.500000 0.000000
O O17 0.000000 0.000000 0.500000
O O18 0.842429 0.432778 0.357380
#
# Coordination Sequence:
#
# PCOD9037237 Si02
#       8
#     2   2   2   2   2   2   2   2
#     4  12  24  45  68 101 137 183 227 283 346 407
#     4  10  23  40  63  99 134 181 230 276 336 400
#     4  12  24  44  69  97 137 178 231 281 346 415
#     4  11  26  48  74 104 143 180 231 292 355 422
#     4  12  23  42  70 100 137 184 228 281 345 404
#     4  11  24  47  73 103 138 178 230 291 356 424
#     4  11  25  43  63  99 141 176 232 283 335 412
#     4  11  25  42  68  95 138 188 227 284 343 403
#
# _framework density 23.470728000000001
#
# number of rings (size 3 to 8) (size 9 to 14) (size 15 to 20)
#    0.000    0.750    6.250    0.000    3.500    5.500 
#    2.250    0.000    0.000    0.000    0.000    0.000 
#    0.000    0.000    0.000    0.000    0.000    0.000 
#
# Total GULP energy -89393.061180 kJ/mol
# GULP energy per Si atom -5587.066324 kJ/mol
# Density = 2.341731 g / cm^3
# Si number density = 23.470728 Si / 1000 Ang^3
#
#
#
# Elastic Constant Matrix: (Units=GPa)
#
#
# Indices 1 2 3 4 5 6 
#
# 1 85.4089 9.1902 22.6041 -5.0828 1.1092 -9.6228
# 2 9.1902 61.4391 32.1321 -23.7495 4.9733 -6.1135
# 3 22.6041 32.1321 125.8864 -39.3066 -10.9889 -14.8597
# 4 -5.0828 -23.7495 -39.3066 50.3058 -11.4342 4.0273
# 5 1.1092 4.9733 -10.9889 -11.4342 44.1872 -7.4914
# 6 -9.6228 -6.1135 -14.8597 4.0273 -7.4914 39.2200
#
#
#
# Elastic Compliance Matrix: (Units=1/GPa)
#
#
# Indices 1 2 3 4 5 6 
#
# 1 0.012568 -0.000929 -0.002225 -0.001240 -0.000732 0.002083
# 2 -0.000929 0.020891 -0.002886 0.007203 -0.001012 0.001002
# 3 -0.002225 -0.002886 0.013373 0.010117 0.007067 0.004382
# 4 -0.001240 0.007203 0.010117 0.033273 0.010909 0.003319
# 5 -0.000732 -0.001012 0.007067 0.010909 0.028473 0.006659
# 6 0.002083 0.001002 0.004382 0.003319 0.006659 0.028756
#
#
# Mechanical properties :
#
#
# Convention : Reuss Voigt Hill
#
# Bulk Modulus (GPa) = 28.77636 44.50968 36.64302
# Shear Modulus (GPa) = 31.05645 40.66313 35.85979
#
# Velocity S-wave (km/s) = 3.64153 4.16685 3.91301
# Velocity P-wave (km/s) = 5.47431 6.49271 6.00514
#
# Compressibility (1/GPa) = 0.03475075
#
# Stress axis : x y z
#
# Youngs Moduli (GPa) = 79.56988 47.86776 74.77732
#
# Poissons Ratio (x) = 0.04448 0.16635
# Poissons Ratio (y) = 0.07394 0.21584
# Poissons Ratio (z) = 0.17702 0.13817
#
# Static dielectric constant tensor:
#      x y z
#    x 1.796500 -0.095520 -0.152300 
#    y -0.095520 1.887130 -0.107720 
#    z -0.152300 -0.107720 1.651030 
# 
# From -- ./inp_files/599546.got.cif
#   From: 2010.05.17/outbox.cif.g08.bks.cpg/sg2_300_cif.got.tgz:599546.got - 2010.06.03 11:33:40.
