data_PCOD9037123
_publ_section_title
;
Structure prediction by ZEFSAII (Michael W. Deem and Ramdas Pophale) SiO2 
 PCOD9037123
Probable space group: P -1
;
_chemical_formula_sum "Si O2"
_cell_formula_units_Z 16
_cell_length_a 5.249801
_cell_length_b 14.787880
_cell_length_c 12.059800
_cell_angle_alpha 85.747570
_cell_angle_beta 96.104170
_cell_angle_gamma 107.605601
_cell_volume 886.460105
_symmetry_space_group_name_H-M "P -1"
_symmetry_group_IT_number 2
_symmetry_cell_setting 'triclinic'
loop_
_space_group_symop_operation_xyz
x,y,z
-x,-y,-z
loop_
_atom_site_type_symbol
_atom_site_label
_atom_site_fract_x
_atom_site_fract_y
_atom_site_fract_z
Si Si1 0.699576 0.903215 0.806079
Si Si2 0.706552 0.986133 0.147749
Si Si3 0.251448 0.825632 0.076237
Si Si4 0.256845 0.483332 0.077303
Si Si5 0.221951 0.987715 0.426815
Si Si6 0.919170 0.839954 0.268641
Si Si7 0.521436 0.676542 0.160763
Si Si8 0.212441 0.275582 0.077549
O O1 0.461053 0.946094 0.824056
O O2 0.655054 0.792722 0.842408
O O3 0.988813 0.956495 0.872151
O O4 0.747755 0.934541 0.676918
O O5 0.522050 0.910580 0.059724
O O6 0.731108 0.909836 0.249823
O O7 0.310681 0.735889 0.144311
O O8 0.080890 0.860482 0.157605
O O9 0.086891 0.785478 0.963581
O O10 0.369259 0.565239 0.166545
O O11 0.204224 0.374505 0.121531
O O12 0.500000 0.500000 0.000000
O O13 0.000000 0.500000 0.000000
O O14 0.118424 0.883465 0.373010
O O15 0.500000 0.000000 0.500000
O O16 0.000000 0.000000 0.500000
O O17 0.741502 0.730728 0.256594
O O18 0.651752 0.699426 0.040870
#
# Coordination Sequence:
#
# PCOD9037123 Si02
#       8
#     2   2   2   2   2   2   2   2
#     4  11  23  36  52  76 106 139 178 216 255 316
#     4  10  19  34  48  69 107 136 173 204 248 299
#     4  10  17  33  51  77 107 145 173 205 245 308
#     4  10  19  35  52  76 107 144 179 212 249 299
#     4  11  22  38  56  74 101 136 175 224 271 309
#     4   9  19  35  54  79 103 135 180 215 256 320
#     4   9  19  33  54  78 110 142 175 214 252 305
#     4  10  22  33  51  79 110 144 177 209 255 304
#
# _framework density 18.049319000000001
#
# number of rings (size 3 to 8) (size 9 to 14) (size 15 to 20)
#    0.000    2.000    3.750    1.500    3.500    1.000 
#    0.000    0.000    0.000    0.000    0.000    1.750 
#    0.000    0.000    0.000    0.000    0.000    0.000 
#
# Total GULP energy -89107.198364 kJ/mol
# GULP energy per Si atom -5569.199898 kJ/mol
# Density = 1.800824 g / cm^3
# Si number density = 18.049319 Si / 1000 Ang^3
#
#
#
# Elastic Constant Matrix: (Units=GPa)
#
#
# Indices 1 2 3 4 5 6 
#
# 1 110.0455 48.0287 22.7957 5.3850 10.1432 -3.0143
# 2 48.0287 158.6304 42.4279 21.3173 21.0919 -10.4437
# 3 22.7957 42.4279 63.2349 12.6495 8.6340 6.2457
# 4 5.3850 21.3173 12.6495 21.0165 5.0358 7.1170
# 5 10.1432 21.0919 8.6340 5.0358 23.0840 4.9437
# 6 -3.0143 -10.4437 6.2457 7.1170 4.9437 26.4787
#
#
#
# Elastic Compliance Matrix: (Units=1/GPa)
#
#
# Indices 1 2 3 4 5 6 
#
# 1 0.010803 -0.002524 -0.002275 0.001390 -0.002061 0.000782
# 2 -0.002524 0.011073 -0.004594 -0.009126 -0.007220 0.008965
# 3 -0.002275 -0.004594 0.021458 -0.005706 -0.000401 -0.005524
# 4 0.001390 -0.009126 -0.005706 0.066780 -0.000431 -0.019965
# 5 -0.002061 -0.007220 -0.000401 -0.000431 0.053834 -0.012923
# 6 0.000782 0.008965 -0.005524 -0.019965 -0.012923 0.050473
#
#
# Mechanical properties :
#
#
# Convention : Reuss Voigt Hill
#
# Bulk Modulus (GPa) = 40.73451 62.04616 51.39033
# Shear Modulus (GPa) = 20.71327 28.69306 24.70317
#
# Velocity S-wave (km/s) = 3.39129 3.99143 3.70354
# Velocity P-wave (km/s) = 6.16051 7.46275 6.84268
#
# Compressibility (1/GPa) = 0.02454921
#
# Stress axis : x y z
#
# Youngs Moduli (GPa) = 92.56479 90.30696 46.60175
#
# Poissons Ratio (x) = 0.22790 0.10603
# Poissons Ratio (y) = 0.23360 0.21409
# Poissons Ratio (z) = 0.21060 0.41488
#
# Static dielectric constant tensor:
#      x y z
#    x 1.705770 0.011050 0.041690 
#    y 0.011050 1.691010 0.019190 
#    z 0.041690 0.019190 1.606330 
# 
# From -- ./inp_files/366918.got.cif
#   From: 2010.05.17/outbox.cif.g08.bks.cpg/sg2_184_cif.got.tgz:366918.got - 2010.06.03 11:33:40.
