data_PCOD9037459
_publ_section_title
;
Structure prediction by ZEFSAII (Michael W. Deem and Ramdas Pophale) SiO2 
 PCOD9037459
Probable space group: P -1
;
_chemical_formula_sum "Si O2"
_cell_formula_units_Z 14
_cell_length_a 8.715432
_cell_length_b 4.948887
_cell_length_c 15.027127
_cell_angle_alpha 114.775914
_cell_angle_beta 84.043239
_cell_angle_gamma 88.467696
_cell_volume 583.535725
_symmetry_space_group_name_H-M "P -1"
_symmetry_group_IT_number 2
_symmetry_cell_setting 'triclinic'
loop_
_space_group_symop_operation_xyz
x,y,z
-x,-y,-z
loop_
_atom_site_type_symbol
_atom_site_label
_atom_site_fract_x
_atom_site_fract_y
_atom_site_fract_z
Si Si1 0.630244 0.231134 0.440996
Si Si2 0.867396 0.329163 0.286360
Si Si3 0.106963 0.354401 0.845020
Si Si4 0.396967 0.737262 0.358962
Si Si5 0.829554 0.538469 0.776756
Si Si6 0.530963 0.870471 0.812805
Si Si7 0.605349 0.494529 0.080218
O O1 0.500000 0.500000 0.500000
O O2 0.761694 0.313531 0.376267
O O3 0.690995 0.187875 0.532724
O O4 0.534679 0.952120 0.381425
O O5 0.813506 0.555567 0.241544
O O6 0.043802 0.411206 0.300070
O O7 0.881978 0.999583 0.197058
O O8 0.210081 0.493769 0.933281
O O9 0.931305 0.474894 0.849974
O O10 0.270800 0.731450 0.286095
O O11 0.467106 0.391691 0.296992
O O12 0.708100 0.826594 0.830156
O O13 0.433777 0.770193 0.889232
O O14 0.459683 0.187877 0.829911
O O15 0.500000 0.500000 0.000000
#
# Coordination Sequence:
#
# PCOD9037459 Si02
#       7
#     2   2   2   2   2   2   2
#     4  11  24  36  62 103 139 176 236 279 326 378
#     4  10  23  40  67  94 135 183 227 272 325 401
#     4  10  23  42  67  96 132 178 223 270 345 395
#     4   9  23  40  63  96 134 185 226 277 328 394
#     4   8  23  42  70  94 132 190 219 272 341 401
#     4  10  24  43  71  96 134 178 225 268 340 408
#     4  12  25  43  72 104 133 169 224 283 337 412
#
# _framework density 23.991674
#
# number of rings (size 3 to 8) (size 9 to 14) (size 15 to 20)
#    1.714    0.286    0.000    2.143   12.000    1.714 
#    0.000    2.857    0.000    0.000    0.000    0.000 
#    0.000    0.000    0.000    0.000    0.000    0.000 
#
# Total GULP energy -78070.991140 kJ/mol
# GULP energy per Si atom -5576.499367 kJ/mol
# Density = 2.393707 g / cm^3
# Si number density = 23.991674 Si / 1000 Ang^3
#
#
#
# Elastic Constant Matrix: (Units=GPa)
#
#
# Indices 1 2 3 4 5 6 
#
# 1 123.3769 14.8258 7.6436 -5.7709 28.1047 -2.4302
# 2 14.8258 84.6583 11.2789 5.1820 2.2967 5.5689
# 3 7.6436 11.2789 45.8338 -14.4064 22.2098 9.7374
# 4 -5.7709 5.1820 -14.4064 28.9932 -0.5269 -2.8560
# 5 28.1047 2.2967 22.2098 -0.5269 37.2814 -6.6014
# 6 -2.4302 5.5689 9.7374 -2.8560 -6.6014 40.0612
#
#
#
# Elastic Compliance Matrix: (Units=1/GPa)
#
#
# Indices 1 2 3 4 5 6 
#
# 1 0.011214 -0.002832 0.007674 0.006061 -0.013215 -0.002537
# 2 -0.002832 0.013610 -0.008059 -0.006850 0.006073 0.000408
# 3 0.007674 -0.008059 0.053880 0.027428 -0.039854 -0.016122
# 4 0.006061 -0.006850 0.027428 0.049660 -0.020710 -0.005219
# 5 -0.013215 0.006073 -0.039854 -0.020710 0.062857 0.016923
# 6 -0.002537 0.000408 -0.016122 -0.005219 0.016923 0.031086
#
#
# Mechanical properties :
#
#
# Convention : Reuss Voigt Hill
#
# Bulk Modulus (GPa) = 13.83710 35.70727 24.77219
# Shear Modulus (GPa) = 19.77609 35.94187 27.85898
#
# Velocity S-wave (km/s) = 2.87416 3.87473 3.41133
# Velocity P-wave (km/s) = 4.09809 5.91046 5.08566
#
# Compressibility (1/GPa) = 0.07226948
#
# Stress axis : x y z
#
# Youngs Moduli (GPa) = 89.17522 73.47749 18.55979
#
# Poissons Ratio (x) = 0.20808 -0.14244
# Poissons Ratio (y) = 0.25254 0.14958
# Poissons Ratio (z) = -0.68437 0.59219
#
# Static dielectric constant tensor:
#      x y z
#    x 1.990960 -0.013790 0.049490 
#    y -0.013790 1.950880 -0.051820 
#    z 0.049490 -0.051820 1.986880 
# 
# From -- ./inp_files/286407.got.cif
#   From: 2010.05.17/outbox.cif.g08.bks.cpg/sg2_144_cif.got.tgz:286407.got - 2010.06.03 11:33:40.
