data_PCOD9037006
_publ_section_title
;
Structure prediction by ZEFSAII (Michael W. Deem and Ramdas Pophale) SiO2 
 PCOD9037006
Probable space group: P -1
;
_chemical_formula_sum "Si O2"
_cell_formula_units_Z 12
_cell_length_a 11.191313
_cell_length_b 8.038124
_cell_length_c 10.984814
_cell_angle_alpha 44.416713
_cell_angle_beta 46.573616
_cell_angle_gamma 57.405619
_cell_volume 500.055697
_symmetry_space_group_name_H-M "P -1"
_symmetry_group_IT_number 2
_symmetry_cell_setting 'triclinic'
loop_
_space_group_symop_operation_xyz
x,y,z
-x,-y,-z
loop_
_atom_site_type_symbol
_atom_site_label
_atom_site_fract_x
_atom_site_fract_y
_atom_site_fract_z
Si Si1 0.881549 0.732861 0.942626
Si Si2 0.955475 0.840589 0.319118
Si Si3 0.229994 0.172307 0.287612
Si Si4 0.613734 0.761952 0.503262
Si Si5 0.690447 0.396843 0.848798
Si Si6 0.441343 0.123640 0.781067
O O1 0.687270 0.741547 0.106503
O O2 0.960685 0.916017 0.880466
O O3 0.883841 0.799630 0.764381
O O4 0.000000 0.500000 0.000000
O O5 0.374237 0.859514 0.946907
O O6 0.434794 0.271716 0.583772
O O7 0.807022 0.809544 0.347624
O O8 0.394303 0.455200 0.283086
O O9 0.311564 0.419809 0.132352
O O10 0.133577 0.136277 0.498898
O O11 0.115551 0.652482 0.296266
O O12 0.630427 0.044709 0.723569
O O13 0.500000 0.000000 0.500000
#
# Coordination Sequence:
#
# PCOD9037006 Si02
#       6
#     2   2   2   2   2   2
#     4  11  27  40  61  91 126 169 207 250 308 371
#     4  10  23  42  64  91 124 164 202 262 307 363
#     4  11  21  43  63  89 128 163 204 249 315 368
#     4  11  21  38  68  99 120 153 215 256 310 360
#     4  10  23  39  68  95 124 161 201 264 309 358
#     4  11  24  42  65  93 126 164 203 261 306 368
#
# _framework density 23.997328
#
# number of rings (size 3 to 8) (size 9 to 14) (size 15 to 20)
#    0.000    1.333    3.333    3.500    7.000    1.333 
#    0.000    0.833    0.000    0.000    0.000    0.000 
#    0.000    0.000    0.000    0.000    0.000    0.000 
#
# Total GULP energy -67074.685904 kJ/mol
# GULP energy per Si atom -5589.557159 kJ/mol
# Density = 2.394271 g / cm^3
# Si number density = 23.997328 Si / 1000 Ang^3
#
#
#
# Elastic Constant Matrix: (Units=GPa)
#
#
# Indices 1 2 3 4 5 6 
#
# 1 78.8376 27.0182 12.4544 -19.5056 9.3045 -29.5182
# 2 27.0182 143.1207 23.1808 15.7167 -7.6758 -44.1872
# 3 12.4544 23.1808 49.8431 9.1611 -11.5680 -15.1798
# 4 -19.5056 15.7167 9.1611 36.1594 -10.1347 -7.5458
# 5 9.3045 -7.6758 -11.5680 -10.1347 26.2555 4.7533
# 6 -29.5182 -44.1872 -15.1798 -7.5458 4.7533 45.7734
#
#
#
# Elastic Compliance Matrix: (Units=1/GPa)
#
#
# Indices 1 2 3 4 5 6 
#
# 1 0.025601 -0.000812 -0.005773 0.016891 -0.008498 0.017477
# 2 -0.000812 0.010301 -0.001492 -0.002758 0.000045 0.008466
# 3 -0.005773 -0.001492 0.026180 -0.005813 0.010637 0.001456
# 4 0.016891 -0.002758 -0.005813 0.043578 0.005122 0.012954
# 5 -0.008498 0.000045 0.010637 0.005122 0.048887 -0.006142
# 6 0.017477 0.008466 0.001456 0.012954 -0.006142 0.044546
#
#
# Mechanical properties :
#
#
# Convention : Reuss Voigt Hill
#
# Bulk Modulus (GPa) = 21.77380 44.12310 32.94845
# Shear Modulus (GPa) = 21.68657 35.58087 28.63372
#
# Velocity S-wave (km/s) = 3.00943 3.85476 3.45803
# Velocity P-wave (km/s) = 4.60095 6.18376 5.45012
#
# Compressibility (1/GPa) = 0.04592676
#
# Stress axis : x y z
#
# Youngs Moduli (GPa) = 39.06153 97.07489 38.19710
#
# Poissons Ratio (x) = 0.07887 0.22051
# Poissons Ratio (y) = 0.03174 0.05699
# Poissons Ratio (z) = 0.22550 0.14485
#
# Static dielectric constant tensor:
#      x y z
#    x 1.932700 0.031670 -0.089590 
#    y 0.031670 1.967550 0.001720 
#    z -0.089590 0.001720 1.961170 
# 
# From -- ./inp_files/462679.got.cif
#   From: 2010.05.17/outbox.cif.g08.bks.cpg/sg2_232_cif.got.tgz:462679.got - 2010.06.03 11:33:40.
