data_PCOD9037750
_publ_section_title
;
Structure prediction by ZEFSAII (Michael W. Deem and Ramdas Pophale) SiO2 
 PCOD9037750
Probable space group: P -1
;
_chemical_formula_sum "Si O2"
_cell_formula_units_Z 14
_cell_length_a 21.219451
_cell_length_b 17.043436
_cell_length_c 16.855047
_cell_angle_alpha 19.281436
_cell_angle_beta 17.456070
_cell_angle_gamma 19.453869
_cell_volume 545.481946
_symmetry_space_group_name_H-M "P -1"
_symmetry_group_IT_number 2
_symmetry_cell_setting 'triclinic'
loop_
_space_group_symop_operation_xyz
x,y,z
-x,-y,-z
loop_
_atom_site_type_symbol
_atom_site_label
_atom_site_fract_x
_atom_site_fract_y
_atom_site_fract_z
Si Si1 0.549414 0.657733 0.078969
Si Si2 0.943585 0.086621 0.119097
Si Si3 0.304841 0.901584 0.986633
Si Si4 0.798669 0.785282 0.450364
Si Si5 0.186945 0.711411 0.578479
Si Si6 0.942037 0.571033 0.135664
Si Si7 0.605446 0.870179 0.933838
O O1 0.545725 0.793165 0.752719
O O2 0.755836 0.375991 0.093616
O O3 0.614557 0.892398 0.800207
O O4 0.373535 0.732318 0.147142
O O5 0.095076 0.909964 0.177498
O O6 0.820840 0.966550 0.320968
O O7 0.136725 0.127074 0.793784
O O8 0.467494 0.170334 0.841265
O O9 0.229258 0.203697 0.816505
O O10 0.000000 0.500000 0.500000
O O11 0.438878 0.703573 0.259770
O O12 0.173669 0.506286 0.726183
O O13 0.102478 0.692516 0.784654
O O14 0.000000 0.000000 0.500000
O O15 0.119634 0.309123 0.214070
#
# Coordination Sequence:
#
# PCOD9037750 Si02
#       7
#     2   2   2   2   2   2   2
#     4  10  23  45  64 101 139 174 237 273 338 408
#     4  11  24  50  71  99 141 174 222 293 339 414
#     4  12  24  44  70 101 133 181 223 282 347 409
#     4  11  25  48  75 102 135 174 228 283 352 416
#     4   9  23  39  60  93 133 176 227 274 329 399
#     4  11  22  40  66  92 135 183 227 278 344 391
#     4  10  23  41  62  91 137 181 226 278 330 393
#
# _framework density 25.665378
#
# number of rings (size 3 to 8) (size 9 to 14) (size 15 to 20)
#    0.857    0.571    2.857    1.714    4.000    2.857 
#   10.286    0.000    0.000    0.000    0.000    0.000 
#    0.000    0.000    0.000    0.000    0.000    0.000 
#
# Total GULP energy -78087.192183 kJ/mol
# GULP energy per Si atom -5577.656585 kJ/mol
# Density = 2.560696 g / cm^3
# Si number density = 25.665378 Si / 1000 Ang^3
#
#
#
# Elastic Constant Matrix: (Units=GPa)
#
#
# Indices 1 2 3 4 5 6 
#
# 1 120.5056 45.9152 18.0514 14.9720 4.8265 -12.1281
# 2 45.9152 155.2556 15.6341 26.0345 -1.5115 7.3766
# 3 18.0514 15.6341 59.5180 25.9549 1.5219 1.0564
# 4 14.9720 26.0345 25.9549 30.0060 -0.4291 -3.2547
# 5 4.8265 -1.5115 1.5219 -0.4291 34.3546 -0.8927
# 6 -12.1281 7.3766 1.0564 -3.2547 -0.8927 52.4699
#
#
#
# Elastic Compliance Matrix: (Units=1/GPa)
#
#
# Indices 1 2 3 4 5 6 
#
# 1 0.010083 -0.002834 -0.002127 -0.000457 -0.001382 0.002720
# 2 -0.002834 0.008544 0.002201 -0.008156 0.000512 -0.002398
# 3 -0.002127 0.002201 0.028053 -0.025453 -0.001242 -0.002966
# 4 -0.000457 -0.008156 -0.025453 0.063271 0.001766 0.005508
# 5 -0.001382 0.000512 -0.001242 0.001766 0.029408 0.000243
# 6 0.002720 -0.002398 -0.002966 0.005508 0.000243 0.020430
#
#
# Mechanical properties :
#
#
# Convention : Reuss Voigt Hill
#
# Bulk Modulus (GPa) = 24.29554 54.94231 39.61892
# Shear Modulus (GPa) = 27.92871 40.41136 34.17003
#
# Velocity S-wave (km/s) = 3.30235 3.97236 3.65275
# Velocity P-wave (km/s) = 4.90178 6.51868 5.76718
#
# Compressibility (1/GPa) = 0.04115982
#
# Stress axis : x y z
#
# Youngs Moduli (GPa) = 99.18103 117.04234 35.64710
#
# Poissons Ratio (x) = 0.33166 0.07583
# Poissons Ratio (y) = 0.28105 -0.07847
# Poissons Ratio (z) = 0.21099 -0.25764
#
# Static dielectric constant tensor:
#      x y z
#    x 2.086420 -0.037750 0.023900 
#    y -0.037750 1.999420 0.130440 
#    z 0.023900 0.130440 2.275880 
# 
# From -- ./inp_files/578388.got.cif
#   From: 2010.05.17/outbox.cif.g08.bks.cpg/sg2_290_cif.got.tgz:578388.got - 2010.06.03 11:33:40.
