data_PCOD9037745
_publ_section_title
;
Structure prediction by ZEFSAII (Michael W. Deem and Ramdas Pophale) SiO2 
 PCOD9037745
Probable space group: P -1
;
_chemical_formula_sum "Si O2"
_cell_formula_units_Z 16
_cell_length_a 5.226855
_cell_length_b 21.952656
_cell_length_c 21.171525
_cell_angle_alpha 159.589096
_cell_angle_beta 111.019570
_cell_angle_gamma 79.075312
_cell_volume 706.055421
_symmetry_space_group_name_H-M "P -1"
_symmetry_group_IT_number 2
_symmetry_cell_setting 'triclinic'
loop_
_space_group_symop_operation_xyz
x,y,z
-x,-y,-z
loop_
_atom_site_type_symbol
_atom_site_label
_atom_site_fract_x
_atom_site_fract_y
_atom_site_fract_z
Si Si1 0.805893 0.766208 0.135419
Si Si2 0.651721 0.851731 0.488205
Si Si3 0.211638 0.583527 0.662490
Si Si4 0.074722 0.813084 0.325609
Si Si5 0.285450 0.493701 0.903068
Si Si6 0.313169 0.587543 0.452332
Si Si7 0.319586 0.002003 0.049277
Si Si8 0.326270 0.584551 0.301138
O O1 0.062586 0.751949 0.191535
O O2 0.528294 0.703596 0.100581
O O3 0.666912 0.611694 0.916119
O O4 0.007114 0.981317 0.333843
O O5 0.388110 0.887611 0.465003
O O6 0.585749 0.649383 0.252778
O O7 0.589099 0.787310 0.493131
O O8 0.501315 0.537681 0.636094
O O9 0.000000 0.500000 0.500000
O O10 0.008595 0.484648 0.610020
O O11 0.287542 0.808884 0.893633
O O12 0.830897 0.612544 0.142746
O O13 0.000000 0.000000 0.500000
O O14 0.978080 0.436652 0.780865
O O15 0.507678 0.805755 0.707219
O O16 0.292761 0.583638 0.371546
O O17 0.500000 0.000000 0.000000
O O18 0.000000 0.000000 0.000000
#
# Coordination Sequence:
#
# PCOD9037745 Si02
#       8
#     2   2   2   2   2   2   2   2
#     4  11  23  40  67  90 131 166 232 276 348 414
#     4  10  23  43  63  91 129 167 229 283 339 415
#     4  12  24  44  77 111 146 183 237 295 356 421
#     4  11  22  38  64  97 124 171 225 294 354 405
#     4  10  23  41  62  90 130 171 224 282 345 406
#     4  12  26  47  73 106 152 186 242 293 351 439
#     4  12  23  43  74 108 142 185 226 290 359 409
#     4  10  27  44  63  93 134 184 220 277 348 416
#
# _framework density 22.661110000000001
#
# number of rings (size 3 to 8) (size 9 to 14) (size 15 to 20)
#    0.000    1.000    3.750    1.875    5.250    5.500 
#    2.250    0.000    0.000    0.000    0.000    0.000 
#    0.000    0.000    0.000    0.000    0.000    0.000 
#
# Total GULP energy -89293.858630 kJ/mol
# GULP energy per Si atom -5580.866164 kJ/mol
# Density = 2.260953 g / cm^3
# Si number density = 22.661110 Si / 1000 Ang^3
#
#
#
# Elastic Constant Matrix: (Units=GPa)
#
#
# Indices 1 2 3 4 5 6 
#
# 1 78.8609 -0.0626 23.0238 5.4030 7.7663 18.0576
# 2 -0.0626 82.5150 21.6904 -15.0214 4.1320 38.1686
# 3 23.0238 21.6904 143.1139 9.8679 13.4804 15.0653
# 4 5.4030 -15.0214 9.8679 33.7969 14.6084 -10.1462
# 5 7.7663 4.1320 13.4804 14.6084 42.3844 18.3112
# 6 18.0576 38.1686 15.0653 -10.1462 18.3112 43.0151
#
#
#
# Elastic Compliance Matrix: (Units=1/GPa)
#
#
# Indices 1 2 3 4 5 6 
#
# 1 0.016993 0.006758 -0.002123 -0.006999 0.006592 -0.016844
# 2 0.006758 0.025651 -0.002674 -0.002620 0.010950 -0.029941
# 3 -0.002123 -0.002674 0.007984 -0.002576 -0.001153 0.000351
# 4 -0.006999 -0.002620 -0.002576 0.051958 -0.028807 0.030684
# 5 0.006592 0.010950 -0.001153 -0.028807 0.048730 -0.039619
# 6 -0.016844 -0.029941 0.000351 0.030684 -0.039619 0.080866
#
#
# Mechanical properties :
#
#
# Convention : Reuss Voigt Hill
#
# Bulk Modulus (GPa) = 18.33182 43.75477 31.04330
# Shear Modulus (GPa) = 20.28854 41.16182 30.72518
#
# Velocity S-wave (km/s) = 2.99541 4.26656 3.68619
# Velocity P-wave (km/s) = 4.48000 6.60466 5.64322
#
# Compressibility (1/GPa) = 0.05454995
#
# Stress axis : x y z
#
# Youngs Moduli (GPa) = 58.84766 38.98418 125.25716
#
# Poissons Ratio (x) = -0.26346 0.26596
# Poissons Ratio (y) = -0.39770 0.33492
# Poissons Ratio (z) = 0.12495 0.10424
#
# Static dielectric constant tensor:
#      x y z
#    x 1.959650 0.016740 0.001890 
#    y 0.016740 1.865010 0.046300 
#    z 0.001890 0.046300 1.889590 
# 
# From -- ./inp_files/584343.got.cif
#   From: 2010.05.17/outbox.cif.g08.bks.cpg/sg2_293_cif.got.tgz:584343.got - 2010.06.03 11:33:40.
