data_PCOD9037400
_publ_section_title
;
Structure prediction by ZEFSAII (Michael W. Deem and Ramdas Pophale) SiO2 
 PCOD9037400
Probable space group: P -1
;
_chemical_formula_sum "Si O2"
_cell_formula_units_Z 16
_cell_length_a 11.253916
_cell_length_b 14.666308
_cell_length_c 15.348956
_cell_angle_alpha 36.575961
_cell_angle_beta 149.240085
_cell_angle_gamma 142.530800
_cell_volume 726.113302
_symmetry_space_group_name_H-M "P -1"
_symmetry_group_IT_number 2
_symmetry_cell_setting 'triclinic'
loop_
_space_group_symop_operation_xyz
x,y,z
-x,-y,-z
loop_
_atom_site_type_symbol
_atom_site_label
_atom_site_fract_x
_atom_site_fract_y
_atom_site_fract_z
Si Si1 0.613786 0.573765 0.390633
Si Si2 0.405623 0.287577 0.914305
Si Si3 0.160870 0.630470 0.758495
Si Si4 0.052167 0.952881 0.895642
Si Si5 0.109921 0.305613 0.882714
Si Si6 0.482214 0.790742 0.406253
Si Si7 0.333191 0.958602 0.513617
Si Si8 0.571142 0.151666 0.861573
O O1 0.650028 0.627275 0.271732
O O2 0.473441 0.380377 0.446771
O O3 0.473662 0.689997 0.251349
O O4 0.869929 0.604847 0.582087
O O5 0.254988 0.328109 0.867581
O O6 0.283003 0.093465 0.974037
O O7 0.694144 0.336659 0.083548
O O8 0.198439 0.470570 0.865929
O O9 0.303863 0.787095 0.669832
O O10 0.931037 0.044728 0.684576
O O11 0.146039 0.824773 0.001817
O O12 0.869555 0.849718 0.933259
O O13 0.813414 0.259565 0.723276
O O14 0.596355 0.904378 0.472332
O O15 0.554092 0.877378 0.290898
O O16 0.500000 0.000000 0.500000
O O17 0.500000 0.000000 0.000000
#
# Coordination Sequence:
#
# PCOD9037400 Si02
#       8
#     2   2   2   2   2   2   2   2
#     4  11  25  44  68  96 134 172 224 276 318 392
#     4  12  22  41  68  96 134 175 214 265 344 384
#     4  11  24  41  63 101 129 173 220 263 333 394
#     4  11  23  43  64  97 131 173 219 270 328 391
#     4  10  23  40  66  95 135 168 217 273 326 404
#     4  10  25  42  68  97 131 176 217 271 337 381
#     4  12  24  41  65 102 138 169 217 269 331 406
#     4  11  21  46  68  90 129 176 225 278 320 380
#
# _framework density 22.035129999999999
#
# number of rings (size 3 to 8) (size 9 to 14) (size 15 to 20)
#    0.000    1.000    2.500    4.125    3.500    1.000 
#    2.250    2.500    0.000    0.000    0.000    0.000 
#    0.000    0.000    0.000    0.000    0.000    0.000 
#
# Total GULP energy -89336.705250 kJ/mol
# GULP energy per Si atom -5583.544078 kJ/mol
# Density = 2.198498 g / cm^3
# Si number density = 22.035130 Si / 1000 Ang^3
#
#
#
# Elastic Constant Matrix: (Units=GPa)
#
#
# Indices 1 2 3 4 5 6 
#
# 1 84.1544 23.7562 21.7041 -2.2908 -23.6528 -12.9068
# 2 23.7562 139.5939 44.8598 -6.9263 -17.0890 -23.4034
# 3 21.7041 44.8598 96.7032 -0.8205 -16.4156 -10.8824
# 4 -2.2908 -6.9263 -0.8205 37.6569 -1.1286 -2.2351
# 5 -23.6528 -17.0890 -16.4156 -1.1286 24.0847 0.4242
# 6 -12.9068 -23.4034 -10.8824 -2.2351 0.4242 20.9082
#
#
#
# Elastic Compliance Matrix: (Units=1/GPa)
#
#
# Indices 1 2 3 4 5 6 
#
# 1 0.019159 0.001601 -0.000154 0.002846 0.019743 0.013442
# 2 0.001601 0.010798 -0.002783 0.002941 0.007267 0.011794
# 3 -0.000154 -0.002783 0.013229 0.000183 0.006836 0.003556
# 4 0.002846 0.002941 0.000183 0.027934 0.006174 0.008005
# 5 0.019743 0.007267 0.006836 0.006174 0.070607 0.023108
# 6 0.013442 0.011794 0.003556 0.008005 0.023108 0.071565
#
#
# Mechanical properties :
#
#
# Convention : Reuss Voigt Hill
#
# Bulk Modulus (GPa) = 24.68329 55.67685 40.18007
# Shear Modulus (GPa) = 21.78948 31.87207 26.83077
#
# Velocity S-wave (km/s) = 3.14801 3.80731 3.49325
# Velocity P-wave (km/s) = 4.94362 6.68204 5.87746
#
# Compressibility (1/GPa) = 0.04051323
#
# Stress axis : x y z
#
# Youngs Moduli (GPa) = 52.19504 92.60707 75.59356
#
# Poissons Ratio (x) = -0.14825 0.01168
# Poissons Ratio (y) = -0.08356 0.21036
# Poissons Ratio (z) = 0.00806 0.25770
#
# Static dielectric constant tensor:
#      x y z
#    x 1.848510 0.007110 -0.002050 
#    y 0.007110 1.824580 0.000920 
#    z -0.002050 0.000920 1.869700 
# 
# From -- ./inp_files/273390.got.cif
#   From: 2010.05.17/outbox.cif.g08.bks.cpg/sg2_137_cif.got.tgz:273390.got - 2010.06.03 11:33:40.
