data_PCOD9037850
_publ_section_title
;
Structure prediction by ZEFSAII (Michael W. Deem and Ramdas Pophale) SiO2 
 PCOD9037850
Probable space group: P -1
;
_chemical_formula_sum "Si O2"
_cell_formula_units_Z 12
_cell_length_a 11.646025
_cell_length_b 8.630090
_cell_length_c 12.724714
_cell_angle_alpha 79.967380
_cell_angle_beta 33.421141
_cell_angle_gamma 101.790234
_cell_volume 530.169551
_symmetry_space_group_name_H-M "P -1"
_symmetry_group_IT_number 2
_symmetry_cell_setting 'triclinic'
loop_
_space_group_symop_operation_xyz
x,y,z
-x,-y,-z
loop_
_atom_site_type_symbol
_atom_site_label
_atom_site_fract_x
_atom_site_fract_y
_atom_site_fract_z
Si Si1 0.441482 0.533839 0.287452
Si Si2 0.883787 0.344944 0.710557
Si Si3 0.149658 0.033906 0.189764
Si Si4 0.168649 0.159480 0.758243
Si Si5 0.631353 0.714028 0.820809
Si Si6 0.761410 0.496037 0.223320
O O1 0.340029 0.340500 0.311641
O O2 0.641059 0.548758 0.215641
O O3 0.163453 0.475966 0.547943
O O4 0.594748 0.748306 0.083517
O O5 0.000000 0.500000 0.500000
O O6 0.802961 0.121293 0.789184
O O7 0.619846 0.287654 0.975574
O O8 0.120139 0.119282 0.310159
O O9 0.943748 0.934645 0.260369
O O10 0.490882 0.276709 0.498597
O O11 0.142318 0.331228 0.784966
O O12 0.000000 0.000000 0.000000
O O13 0.500000 0.500000 0.000000
O O14 0.000000 0.500000 0.000000
#
# Coordination Sequence:
#
# PCOD9037850 Si02
#       6
#     2   2   2   2   2   2
#     4  11  24  46  65  98 143 179 229 290 345 418
#     4  12  23  42  67  97 138 188 223 281 355 414
#     4  11  23  43  67 101 138 181 233 281 349 421
#     4  11  24  47  71  99 141 184 234 295 348 414
#     4  10  23  41  63  99 139 173 226 282 342 416
#     4  11  26  47  72 101 138 186 241 295 348 411
#
# _framework density 22.634267000000001
#
# number of rings (size 3 to 8) (size 9 to 14) (size 15 to 20)
#    0.000    1.000    6.667    0.500    2.333    1.333 
#    0.000    1.667    0.000    0.000    0.000    0.000 
#    0.000    0.000    0.000    0.000    0.000    0.000 
#
# Total GULP energy -66808.411393 kJ/mol
# GULP energy per Si atom -5567.367616 kJ/mol
# Density = 2.258275 g / cm^3
# Si number density = 22.634267 Si / 1000 Ang^3
#
#
#
# Elastic Constant Matrix: (Units=GPa)
#
#
# Indices 1 2 3 4 5 6 
#
# 1 137.4392 40.1515 53.3787 -15.1287 15.1214 4.6235
# 2 40.1515 99.1137 36.9424 -14.6243 -9.2422 9.5118
# 3 53.3787 36.9424 138.9017 5.6446 4.0898 1.8761
# 4 -15.1287 -14.6243 5.6446 47.0874 -8.4898 -5.0255
# 5 15.1214 -9.2422 4.0898 -8.4898 42.5022 -10.1348
# 6 4.6235 9.5118 1.8761 -5.0255 -10.1348 46.2104
#
#
#
# Elastic Compliance Matrix: (Units=1/GPa)
#
#
# Indices 1 2 3 4 5 6 
#
# 1 0.009931 -0.002884 -0.003005 0.001893 -0.003704 -0.000884
# 2 -0.002884 0.013482 -0.002789 0.004392 0.004908 -0.000819
# 3 -0.003005 -0.002789 0.009257 -0.003144 -0.001075 -0.000079
# 4 0.001893 0.004392 -0.003144 0.025066 0.006342 0.003151
# 5 -0.003704 0.004908 -0.001075 0.006342 0.028813 0.006413
# 6 -0.000884 -0.000819 -0.000079 0.003151 0.006413 0.023650
#
#
# Mechanical properties :
#
#
# Convention : Reuss Voigt Hill
#
# Bulk Modulus (GPa) = 65.30766 70.71109 68.00938
# Shear Modulus (GPa) = 37.69026 43.49213 40.59119
#
# Velocity S-wave (km/s) = 4.08510 4.38827 4.23939
# Velocity P-wave (km/s) = 7.15309 7.54880 7.35361
#
# Compressibility (1/GPa) = 0.01531214
#
# Stress axis : x y z
#
# Youngs Moduli (GPa) = 100.68991 74.17374 108.03166
#
# Poissons Ratio (x) = 0.21394 0.32468
# Poissons Ratio (y) = 0.29042 0.30132
# Poissons Ratio (z) = 0.30261 0.20688
#
# Static dielectric constant tensor:
#      x y z
#    x 1.920550 0.043580 0.042670 
#    y 0.043580 2.016030 0.113650 
#    z 0.042670 0.113650 2.088390 
# 
# From -- ./inp_files/511737.got.cif
#   From: 2010.05.17/outbox.cif.g08.bks.cpg/sg2_256_cif.got.tgz:511737.got - 2010.06.03 11:33:40.
