data_PCOD9037387
_publ_section_title
;
Structure prediction by ZEFSAII (Michael W. Deem and Ramdas Pophale) SiO2 
 PCOD9037387
Probable space group: P -1
;
_chemical_formula_sum "Si O2"
_cell_formula_units_Z 16
_cell_length_a 16.138991
_cell_length_b 18.435793
_cell_length_c 5.335147
_cell_angle_alpha 75.239050
_cell_angle_beta 81.558373
_cell_angle_gamma 29.362060
_cell_volume 743.113534
_symmetry_space_group_name_H-M "P -1"
_symmetry_group_IT_number 2
_symmetry_cell_setting 'triclinic'
loop_
_space_group_symop_operation_xyz
x,y,z
-x,-y,-z
loop_
_atom_site_type_symbol
_atom_site_label
_atom_site_fract_x
_atom_site_fract_y
_atom_site_fract_z
Si Si1 0.016621 0.397498 0.068700
Si Si2 0.552381 0.168858 0.545764
Si Si3 0.641414 0.413725 0.214604
Si Si4 0.408447 0.040546 0.256087
Si Si5 0.302490 0.726530 0.289072
Si Si6 0.163037 0.521657 0.424869
Si Si7 0.736019 0.080837 0.037576
Si Si8 0.885044 0.272670 0.859011
O O1 0.212427 0.219980 0.175922
O O2 0.907310 0.451382 0.302022
O O3 0.000000 0.500000 0.000000
O O4 0.951031 0.418232 0.811444
O O5 0.353425 0.343008 0.450999
O O6 0.614706 0.152583 0.797961
O O7 0.581771 0.056934 0.644826
O O8 0.654676 0.124576 0.303893
O O9 0.510629 0.561453 0.320007
O O10 0.718888 0.275437 0.406930
O O11 0.500000 0.500000 0.000000
O O12 0.795705 0.342873 0.109257
O O13 0.500000 0.000000 0.500000
O O14 0.500000 0.000000 0.000000
O O15 0.234914 0.853433 0.079628
O O16 0.207409 0.727488 0.220731
O O17 0.159125 0.614630 0.345428
O O18 0.914280 0.898308 0.084724
#
# Coordination Sequence:
#
# PCOD9037387 Si02
#       8
#     2   2   2   2   2   2   2   2
#     4  12  25  46  72 103 134 173 221 266 329 399
#     4  12  27  46  66 102 135 176 223 272 337 391
#     4   9  21  39  64  92 126 168 231 269 333 388
#     4  12  24  45  75 102 139 175 214 271 334 398
#     4  10  23  40  66  91 130 179 226 273 333 393
#     4  12  26  44  71  98 135 176 221 277 321 392
#     4  12  27  43  66  96 139 175 222 280 332 392
#     4  11  25  41  65  95 131 173 226 274 335 388
#
# _framework density 21.531030000000001
#
# number of rings (size 3 to 8) (size 9 to 14) (size 15 to 20)
#    0.000    0.750    0.000    6.750   12.250    0.500 
#    0.000    0.000    0.000    0.000    0.000    0.000 
#    0.000    0.000    0.000    0.000    0.000    0.000 
#
# Total GULP energy -89434.272935 kJ/mol
# GULP energy per Si atom -5589.642058 kJ/mol
# Density = 2.148202 g / cm^3
# Si number density = 21.531030 Si / 1000 Ang^3
#
#
#
# Elastic Constant Matrix: (Units=GPa)
#
#
# Indices 1 2 3 4 5 6 
#
# 1 112.2493 14.1623 37.0628 -13.3949 -21.0173 27.4328
# 2 14.1623 114.4179 22.2545 -30.0583 -21.1216 -13.4595
# 3 37.0628 22.2545 110.9205 0.5914 -24.2474 5.1282
# 4 -13.3949 -30.0583 0.5914 47.3184 -4.0286 -8.3712
# 5 -21.0173 -21.1216 -24.2474 -4.0286 67.9711 -6.0909
# 6 27.4328 -13.4595 5.1282 -8.3712 -6.0909 40.7758
#
#
#
# Elastic Compliance Matrix: (Units=1/GPa)
#
#
# Indices 1 2 3 4 5 6 
#
# 1 0.012549 -0.001058 -0.003237 0.001700 0.001802 -0.007767
# 2 -0.001058 0.013784 -0.001833 0.010346 0.004660 0.008312
# 3 -0.003237 -0.001833 0.010958 -0.002007 0.002230 0.000116
# 4 0.001700 0.010346 -0.002007 0.030397 0.005688 0.009614
# 5 0.001802 0.004660 0.002230 0.005688 0.018202 0.003932
# 6 -0.007767 0.008312 0.000116 0.009614 0.003932 0.035040
#
#
# Mechanical properties :
#
#
# Convention : Reuss Voigt Hill
#
# Bulk Modulus (GPa) = 39.94431 53.83853 46.89142
# Shear Modulus (GPa) = 35.32797 48.82027 42.07412
#
# Velocity S-wave (km/s) = 4.05507 4.76693 4.42533
# Velocity P-wave (km/s) = 6.36530 7.44026 6.92367
#
# Compressibility (1/GPa) = 0.02503486
#
# Stress axis : x y z
#
# Youngs Moduli (GPa) = 79.68479 72.55050 91.26093
#
# Poissons Ratio (x) = 0.07677 0.29542
# Poissons Ratio (y) = 0.08432 0.16724
# Poissons Ratio (z) = 0.25795 0.13296
#
# Static dielectric constant tensor:
#      x y z
#    x 1.790520 0.034840 0.031990 
#    y 0.034840 1.811740 0.088860 
#    z 0.031990 0.088860 1.918720 
# 
# From -- ./inp_files/37791.got.cif
#   From: 2010.05.17/outbox.cif.g08.bks.cpg/sg2_19_cif.got.tgz:37791.got - 2010.06.03 11:33:40.
