data_PCOD9037485
_publ_section_title
;
Structure prediction by ZEFSAII (Michael W. Deem and Ramdas Pophale) SiO2 
 PCOD9037485
Probable space group: P -1
;
_chemical_formula_sum "Si O2"
_cell_formula_units_Z 16
_cell_length_a 17.389132
_cell_length_b 10.800874
_cell_length_c 20.869600
_cell_angle_alpha 39.890731
_cell_angle_beta 17.346745
_cell_angle_gamma 32.925823
_cell_volume 621.155047
_symmetry_space_group_name_H-M "P -1"
_symmetry_group_IT_number 2
_symmetry_cell_setting 'triclinic'
loop_
_space_group_symop_operation_xyz
x,y,z
-x,-y,-z
loop_
_atom_site_type_symbol
_atom_site_label
_atom_site_fract_x
_atom_site_fract_y
_atom_site_fract_z
Si Si1 0.742524 0.286224 0.349545
Si Si2 0.085168 0.895722 0.323200
Si Si3 0.667355 0.726292 0.694931
Si Si4 0.285806 0.132459 0.756396
Si Si5 0.631476 0.648660 0.894566
Si Si6 0.635431 0.039407 0.811015
Si Si7 0.743646 0.725475 0.407867
Si Si8 0.706722 0.454974 0.176368
O O1 0.500000 0.500000 0.500000
O O2 0.573901 0.160698 0.510828
O O3 0.792586 0.396979 0.205106
O O4 0.023167 0.105548 0.243132
O O5 0.108203 0.944533 0.359767
O O6 0.783114 0.889854 0.560278
O O7 0.382191 0.677490 0.135087
O O8 0.521505 0.703102 0.886143
O O9 0.000000 0.500000 0.500000
O O10 0.438443 0.863944 0.762269
O O11 0.105460 0.269520 0.781186
O O12 0.030202 0.279546 0.954136
O O13 0.967418 0.405443 0.722247
O O14 0.709905 0.826878 0.791524
O O15 0.431134 0.284916 0.840259
O O16 0.500000 0.000000 0.000000
O O17 0.551348 0.605317 0.608506
O O18 0.500000 0.000000 0.500000
#
# Coordination Sequence:
#
# PCOD9037485 Si02
#       8
#     2   2   2   2   2   2   2   2
#     4  10  24  38  62  93 132 167 210 260 316 394
#     4  10  23  42  62  96 130 166 211 268 324 387
#     4  11  24  41  63  92 124 169 224 264 316 384
#     4  10  23  41  61  92 129 166 217 265 321 385
#     4  11  24  41  66  93 129 171 210 269 331 383
#     4  10  23  40  67  98 133 165 217 263 329 407
#     4  11  25  43  65  96 128 171 227 271 319 387
#     4  11  24  42  67  96 132 176 212 268 337 386
#
# _framework density 25.758465999999999
#
# number of rings (size 3 to 8) (size 9 to 14) (size 15 to 20)
#    0.000    1.500    0.000    3.750   10.500    3.500 
#    0.000    0.000    0.000    0.000    0.000    0.000 
#    0.000    0.000    0.000    0.000    0.000    0.000 
#
# Total GULP energy -89365.669892 kJ/mol
# GULP energy per Si atom -5585.354368 kJ/mol
# Density = 2.569984 g / cm^3
# Si number density = 25.758466 Si / 1000 Ang^3
#
#
#
# Elastic Constant Matrix: (Units=GPa)
#
#
# Indices 1 2 3 4 5 6 
#
# 1 69.4800 17.3461 12.0119 -13.1957 15.4310 -21.2308
# 2 17.3461 132.5648 31.3370 -1.9134 -2.0887 -29.4538
# 3 12.0119 31.3370 99.4015 -14.7546 9.5418 -7.5639
# 4 -13.1957 -1.9134 -14.7546 46.9762 -1.6668 1.8483
# 5 15.4310 -2.0887 9.5418 -1.6668 43.9872 1.9631
# 6 -21.2308 -29.4538 -7.5639 1.8483 1.9631 42.7141
#
#
#
# Elastic Compliance Matrix: (Units=1/GPa)
#
#
# Indices 1 2 3 4 5 6 
#
# 1 0.020065 -0.000480 -0.000098 0.004944 -0.007288 0.009746
# 2 -0.000480 0.009553 -0.002714 -0.000796 0.000919 0.005860
# 3 -0.000098 -0.002714 0.011687 0.003439 -0.002505 0.000116
# 4 0.004944 -0.000796 0.003439 0.023602 -0.001694 0.001574
# 5 -0.007288 0.000919 -0.002505 -0.001694 0.026017 -0.004555
# 6 0.009746 0.005860 0.000116 0.001574 -0.004555 0.032458
#
#
# Mechanical properties :
#
#
# Convention : Reuss Voigt Hill
#
# Bulk Modulus (GPa) = 28.80195 46.98181 37.89188
# Shear Modulus (GPa) = 35.32556 42.78560 39.05558
#
# Velocity S-wave (km/s) = 3.70728 4.08000 3.89810
# Velocity P-wave (km/s) = 5.43425 6.36193 5.91630
#
# Compressibility (1/GPa) = 0.03471988
#
# Stress axis : x y z
#
# Youngs Moduli (GPa) = 49.83797 104.67989 85.56199
#
# Poissons Ratio (x) = 0.05029 0.00840
# Poissons Ratio (y) = 0.02394 0.23222
# Poissons Ratio (z) = 0.00490 0.28411
#
# Static dielectric constant tensor:
#      x y z
#    x 0.000000 0.000000 0.000000 
#    y 0.000000 0.000000 0.000000 
#    z 0.000000 0.000000 0.000000 
# 
# From -- ./inp_files/599764.got.cif
#   From: 2010.05.17/outbox.cif.g08.bks.cpg/sg2_300_cif.got.tgz:599764.got - 2010.06.03 11:33:40.
