data_PCOD9037035
_publ_section_title
;
Structure prediction by ZEFSAII (Michael W. Deem and Ramdas Pophale) SiO2 
 PCOD9037035
Probable space group: P -1
;
_chemical_formula_sum "Si O2"
_cell_formula_units_Z 16
_cell_length_a 8.410032
_cell_length_b 12.737819
_cell_length_c 19.193841
_cell_angle_alpha 33.674197
_cell_angle_beta 106.257613
_cell_angle_gamma 132.303597
_cell_volume 615.721260
_symmetry_space_group_name_H-M "P -1"
_symmetry_group_IT_number 2
_symmetry_cell_setting 'triclinic'
loop_
_space_group_symop_operation_xyz
x,y,z
-x,-y,-z
loop_
_atom_site_type_symbol
_atom_site_label
_atom_site_fract_x
_atom_site_fract_y
_atom_site_fract_z
Si Si1 0.189604 0.110381 0.622230
Si Si2 0.408540 0.598413 0.722612
Si Si3 0.213383 0.241066 0.708069
Si Si4 0.349473 0.501571 0.924645
Si Si5 0.777027 0.640179 0.707499
Si Si6 0.052715 0.621176 0.360998
Si Si7 0.669941 0.166756 0.170314
Si Si8 0.064910 0.627871 0.659114
O O1 0.123741 0.154860 0.661632
O O2 0.436058 0.457898 0.417206
O O3 0.367228 0.088562 0.678061
O O4 0.925168 0.779514 0.725849
O O5 0.482239 0.619519 0.799781
O O6 0.461165 0.445444 0.777795
O O7 0.121436 0.457994 0.769688
O O8 0.645793 0.969551 0.513435
O O9 0.125701 0.350947 0.676402
O O10 0.994582 0.877073 0.911133
O O11 0.368039 0.734987 0.822475
O O12 0.500000 0.500000 0.000000
O O13 0.817983 0.483988 0.757651
O O14 0.000000 0.000000 0.500000
O O15 0.000000 0.500000 0.500000
O O16 0.972536 0.397990 0.414484
O O17 0.400969 0.983108 0.191454
O O18 0.000000 0.500000 0.000000
#
# Coordination Sequence:
#
# PCOD9037035 Si02
#       8
#     2   2   2   2   2   2   2   2
#     4  11  24  44  68 105 139 182 241 293 356 433
#     4  10  23  43  72 101 140 192 239 295 351 432
#     4  11  25  40  69 102 141 175 232 302 356 422
#     4  12  23  42  69 104 142 182 232 296 368 417
#     4  10  23  39  70 101 135 186 237 289 348 431
#     4  12  25  42  72 106 140 183 239 304 358 425
#     4  12  25  42  68 104 142 184 226 300 366 422
#     4  10  24  45  69 107 137 192 249 286 354 438
#
# _framework density 25.985786000000001
#
# number of rings (size 3 to 8) (size 9 to 14) (size 15 to 20)
#    0.000    1.000    3.750    2.250    8.750    0.000 
#    0.000    0.625    2.750    3.750    0.000    0.000 
#    0.000    0.000    0.000    0.000    0.000    0.000 
#
# Total GULP energy -89420.422473 kJ/mol
# GULP energy per Si atom -5588.776405 kJ/mol
# Density = 2.592664 g / cm^3
# Si number density = 25.985786 Si / 1000 Ang^3
#
#
#
# Elastic Constant Matrix: (Units=GPa)
#
#
# Indices 1 2 3 4 5 6 
#
# 1 212.5753 52.6853 14.9118 7.0849 -14.4277 -29.8910
# 2 52.6853 92.2787 4.9635 3.2694 -2.5056 -20.2352
# 3 14.9118 4.9635 60.3252 -11.8519 -8.2593 2.7237
# 4 7.0849 3.2694 -11.8519 36.5376 1.9564 1.2445
# 5 -14.4277 -2.5056 -8.2593 1.9564 28.4314 -1.8669
# 6 -29.8910 -20.2352 2.7237 1.2445 -1.8669 47.2394
#
#
#
# Elastic Compliance Matrix: (Units=1/GPa)
#
#
# Indices 1 2 3 4 5 6 
#
# 1 0.006114 -0.002631 -0.001372 -0.001645 0.002781 0.002974
# 2 -0.002631 0.013325 -0.000856 -0.001097 -0.000064 0.004119
# 3 -0.001372 -0.000856 0.018901 0.006332 0.004131 -0.002328
# 4 -0.001645 -0.001097 0.006332 0.030004 -0.001335 -0.002719
# 5 0.002781 -0.000064 0.004131 -0.001335 0.038069 0.003034
# 6 0.002974 0.004119 -0.002328 -0.002719 0.003034 0.025141
#
#
# Mechanical properties :
#
#
# Convention : Reuss Voigt Hill
#
# Bulk Modulus (GPa) = 34.93742 56.70006 45.81874
# Shear Modulus (GPa) = 33.15353 41.94957 37.55155
#
# Velocity S-wave (km/s) = 3.57576 4.02223 3.80555
# Velocity P-wave (km/s) = 5.52468 6.59076 6.08112
#
# Compressibility (1/GPa) = 0.02862260
#
# Stress axis : x y z
#
# Youngs Moduli (GPa) = 163.55004 75.04512 52.90733
#
# Poissons Ratio (x) = 0.19745 0.07257
# Poissons Ratio (y) = 0.43032 0.04530
# Poissons Ratio (z) = 0.22434 0.06425
#
# Static dielectric constant tensor:
#      x y z
#    x 2.076220 0.059650 -0.007790 
#    y 0.059650 2.178150 0.040530 
#    z -0.007790 0.040530 2.029620 
# 
# From -- ./inp_files/559680.got.cif
#   From: 2010.05.17/outbox.cif.g08.bks.cpg/sg2_280_cif.got.tgz:559680.got - 2010.06.03 11:33:40.
