data_PCOD9037242
_publ_section_title
;
Structure prediction by ZEFSAII (Michael W. Deem and Ramdas Pophale) SiO2 
 PCOD9037242
Probable space group: P -1
;
_chemical_formula_sum "Si O2"
_cell_formula_units_Z 14
_cell_length_a 6.821503
_cell_length_b 9.974769
_cell_length_c 20.860651
_cell_angle_alpha 36.580434
_cell_angle_beta 126.317253
_cell_angle_gamma 137.170579
_cell_volume 575.041289
_symmetry_space_group_name_H-M "P -1"
_symmetry_group_IT_number 2
_symmetry_cell_setting 'triclinic'
loop_
_space_group_symop_operation_xyz
x,y,z
-x,-y,-z
loop_
_atom_site_type_symbol
_atom_site_label
_atom_site_fract_x
_atom_site_fract_y
_atom_site_fract_z
Si Si1 0.418561 0.901084 0.903864
Si Si2 0.115468 0.884142 0.620517
Si Si3 0.882990 0.650622 0.360542
Si Si4 0.397166 0.917096 0.273651
Si Si5 0.635938 0.418868 0.794249
Si Si6 0.617212 0.070455 0.566793
Si Si7 0.271369 0.360016 0.129185
O O1 0.540455 0.042730 0.804437
O O2 0.076076 0.783814 0.889919
O O3 0.615253 0.138765 0.900629
O O4 0.430860 0.639374 0.014445
O O5 0.338117 0.081472 0.641794
O O6 0.879611 0.634075 0.710846
O O7 0.343764 0.851047 0.637392
O O8 0.000000 0.000000 0.500000
O O9 0.656653 0.664243 0.267552
O O10 0.700146 0.375599 0.469486
O O11 0.088759 0.878972 0.364620
O O12 0.111302 0.667578 0.345699
O O13 0.364520 0.164495 0.193934
O O14 0.662457 0.545551 0.819815
O O15 0.500000 0.000000 0.500000
#
# Coordination Sequence:
#
# PCOD9037242 Si02
#       7
#     2   2   2   2   2   2   2
#     4  11  25  47  73 105 141 181 241 295 361 415
#     4  11  24  41  66 103 143 185 232 281 348 419
#     4  10  23  40  64 100 135 182 235 279 340 417
#     4  11  24  46  73 103 143 186 237 288 354 424
#     4  12  24  44  71 105 143 184 234 291 354 420
#     4  10  23  41  63  91 140 189 233 282 341 403
#     4  11  25  48  73 103 142 186 230 305 357 419
#
# _framework density 24.346077999999999
#
# number of rings (size 3 to 8) (size 9 to 14) (size 15 to 20)
#    0.000    1.143    4.286    0.857    6.000    1.143 
#    0.000    2.857    0.000    0.000    0.000    0.000 
#    0.000    0.000    0.000    0.000    0.000    0.000 
#
# Total GULP energy -78070.134002 kJ/mol
# GULP energy per Si atom -5576.438143 kJ/mol
# Density = 2.429066 g / cm^3
# Si number density = 24.346078 Si / 1000 Ang^3
#
#
#
# Elastic Constant Matrix: (Units=GPa)
#
#
# Indices 1 2 3 4 5 6 
#
# 1 72.6098 30.0514 7.4449 -3.2633 -23.7304 4.7077
# 2 30.0514 116.9000 12.4063 -1.6140 -8.7741 7.2897
# 3 7.4449 12.4063 82.9457 -7.3725 -27.9454 -0.7391
# 4 -3.2633 -1.6140 -7.3725 32.4447 -4.1877 -1.6320
# 5 -23.7304 -8.7741 -27.9454 -4.1877 50.6640 -3.8389
# 6 4.7077 7.2897 -0.7391 -1.6320 -3.8389 44.1766
#
#
#
# Elastic Compliance Matrix: (Units=1/GPa)
#
#
# Indices 1 2 3 4 5 6 
#
# 1 0.018597 -0.004260 0.002516 0.003459 0.009626 -0.000272
# 2 -0.004260 0.009794 -0.001587 -0.000539 -0.001319 -0.001323
# 3 0.002516 -0.001587 0.015999 0.005202 0.010260 0.001345
# 4 0.003459 -0.000539 0.005202 0.033348 0.007279 0.001672
# 5 0.009626 -0.001319 0.010260 0.007279 0.030452 0.002279
# 6 -0.000272 -0.001323 0.001345 0.001672 0.002279 0.023166
#
#
# Mechanical properties :
#
#
# Convention : Reuss Voigt Hill
#
# Bulk Modulus (GPa) = 26.50612 41.36232 33.93422
# Shear Modulus (GPa) = 33.20209 40.29391 36.74800
#
# Velocity S-wave (km/s) = 3.69691 4.07264 3.88932
# Velocity P-wave (km/s) = 5.39757 6.25631 5.84274
#
# Compressibility (1/GPa) = 0.03772714
#
# Stress axis : x y z
#
# Youngs Moduli (GPa) = 53.77355 102.10355 62.50522
#
# Poissons Ratio (x) = 0.43500 -0.15727
# Poissons Ratio (y) = 0.22910 0.09918
# Poissons Ratio (z) = -0.13530 0.16201
#
# Static dielectric constant tensor:
#      x y z
#    x 2.153490 -0.032650 0.014070 
#    y -0.032650 2.020450 0.000420 
#    z 0.014070 0.000420 2.051620 
# 
# From -- ./inp_files/359009.got.cif
#   From: 2010.05.17/outbox.cif.g08.bks.cpg/sg2_180_cif.got.tgz:359009.got - 2010.06.03 11:33:40.
