data_PCOD9037465
_publ_section_title
;
Structure prediction by ZEFSAII (Michael W. Deem and Ramdas Pophale) SiO2 
 PCOD9037465
Probable space group: P -1
;
_chemical_formula_sum "Si O2"
_cell_formula_units_Z 14
_cell_length_a 10.499806
_cell_length_b 12.760160
_cell_length_c 5.166851
_cell_angle_alpha 89.167559
_cell_angle_beta 119.803013
_cell_angle_gamma 101.529250
_cell_volume 585.637290
_symmetry_space_group_name_H-M "P -1"
_symmetry_group_IT_number 2
_symmetry_cell_setting 'triclinic'
loop_
_space_group_symop_operation_xyz
x,y,z
-x,-y,-z
loop_
_atom_site_type_symbol
_atom_site_label
_atom_site_fract_x
_atom_site_fract_y
_atom_site_fract_z
Si Si1 0.864197 0.007791 0.180765
Si Si2 0.058302 0.445218 0.308705
Si Si3 0.676757 0.099577 0.383129
Si Si4 0.623334 0.885467 0.683571
Si Si5 0.395249 0.559269 0.719328
Si Si6 0.120092 0.778222 0.060534
Si Si7 0.577723 0.297677 0.770027
O O1 0.724636 0.043554 0.183008
O O2 0.923728 0.110697 0.058434
O O3 0.000000 0.000000 0.500000
O O4 0.783233 0.894073 0.980288
O O5 0.237172 0.477125 0.515757
O O6 0.000000 0.500000 0.500000
O O7 0.996936 0.320461 0.178887
O O8 0.000000 0.500000 0.000000
O O9 0.517421 0.131915 0.257144
O O10 0.653926 0.002088 0.572812
O O11 0.822708 0.196427 0.585509
O O12 0.571770 0.794113 0.421477
O O13 0.431963 0.615342 0.471786
O O14 0.500000 0.500000 0.000000
O O15 0.388069 0.651339 0.916930
O O16 0.281516 0.757985 0.128981
#
# Coordination Sequence:
#
# PCOD9037465 Si02
#       7
#     2   2   2   2   2   2   2
#     4  11  24  40  64 100 140 174 221 288 349 410
#     4  12  24  44  71 102 134 183 235 282 340 412
#     4   9  20  40  63  92 129 169 224 275 327 415
#     4   9  21  38  65  97 123 178 226 271 338 409
#     4  12  26  46  68 104 142 174 231 299 347 402
#     4  10  23  40  67  96 128 181 230 271 339 407
#     4  11  24  43  73 101 133 183 231 281 347 412
#
# _framework density 23.905584000000001
#
# number of rings (size 3 to 8) (size 9 to 14) (size 15 to 20)
#    0.000    1.429    2.857    1.714    8.000    3.429 
#    2.571    0.000    0.000    0.000    0.000    0.000 
#    0.000    0.000    0.000    0.000    0.000    0.000 
#
# Total GULP energy -78032.907170 kJ/mol
# GULP energy per Si atom -5573.779084 kJ/mol
# Density = 2.385117 g / cm^3
# Si number density = 23.905584 Si / 1000 Ang^3
#
#
#
# Elastic Constant Matrix: (Units=GPa)
#
#
# Indices 1 2 3 4 5 6 
#
# 1 47.3879 8.9732 33.2076 5.0359 -2.5440 15.9934
# 2 8.9732 100.0462 74.0117 27.8594 26.7432 25.8301
# 3 33.2076 74.0117 199.6822 31.6275 29.8622 31.9867
# 4 5.0359 27.8594 31.6275 76.9080 5.6316 10.3369
# 5 -2.5440 26.7432 29.8622 5.6316 48.8340 9.0824
# 6 15.9934 25.8301 31.9867 10.3369 9.0824 18.7281
#
#
#
# Elastic Compliance Matrix: (Units=1/GPa)
#
#
# Indices 1 2 3 4 5 6 
#
# 1 0.035350 0.007082 -0.003714 0.001197 0.007112 -0.037721
# 2 0.007082 0.020074 -0.003820 -0.002678 -0.003511 -0.024030
# 3 -0.003714 -0.003820 0.008157 -0.001049 -0.002259 -0.003817
# 4 0.001197 -0.002678 -0.001049 0.014815 0.001267 -0.004328
# 5 0.007112 -0.003511 -0.002259 0.001267 0.025992 -0.010678
# 6 -0.037721 -0.024030 -0.003817 -0.004328 -0.010678 0.132836
#
#
# Mechanical properties :
#
#
# Convention : Reuss Voigt Hill
#
# Bulk Modulus (GPa) = 15.95512 64.38902 40.17207
# Shear Modulus (GPa) = 19.30355 44.28894 31.79625
#
# Velocity S-wave (km/s) = 2.84472 4.30892 3.65098
# Velocity P-wave (km/s) = 4.18075 7.19368 5.88335
#
# Compressibility (1/GPa) = 0.06267580
#
# Stress axis : x y z
#
# Youngs Moduli (GPa) = 28.28882 49.81569 122.59749
#
# Poissons Ratio (x) = -0.35277 0.45536
# Poissons Ratio (y) = -0.20033 0.46828
# Poissons Ratio (z) = 0.10507 0.19028
#
# Static dielectric constant tensor:
#      x y z
#    x 1.639370 0.676420 0.334810 
#    y 0.676420 0.540290 -0.792820 
#    z 0.334810 -0.792820 1.527140 
# 
# From -- ./inp_files/70936.got.cif
#   From: 2010.05.17/outbox.cif.g08.bks.cpg/sg2_36_cif.got.tgz:70936.got - 2010.06.03 11:33:40.
