data_PCOD9037515
_publ_section_title
;
Structure prediction by ZEFSAII (Michael W. Deem and Ramdas Pophale) SiO2 
 PCOD9037515
Probable space group: P -1
;
_chemical_formula_sum "Si O2"
_cell_formula_units_Z 14
_cell_length_a 10.083029
_cell_length_b 13.944614
_cell_length_c 11.441221
_cell_angle_alpha 28.909358
_cell_angle_beta 95.191404
_cell_angle_gamma 113.878632
_cell_volume 570.517188
_symmetry_space_group_name_H-M "P -1"
_symmetry_group_IT_number 2
_symmetry_cell_setting 'triclinic'
loop_
_space_group_symop_operation_xyz
x,y,z
-x,-y,-z
loop_
_atom_site_type_symbol
_atom_site_label
_atom_site_fract_x
_atom_site_fract_y
_atom_site_fract_z
Si Si1 0.836638 0.300653 0.292422
Si Si2 0.334187 0.188067 0.340073
Si Si3 0.701112 0.618094 0.407232
Si Si4 0.218359 0.744092 0.256617
Si Si5 0.809365 0.693032 0.974286
Si Si6 0.204169 0.052270 0.730372
Si Si7 0.218693 0.023469 0.159448
O O1 0.762405 0.428559 0.206030
O O2 0.892655 0.212354 0.499823
O O3 0.679091 0.029715 0.498467
O O4 0.000000 0.500000 0.000000
O O5 0.307800 0.131660 0.533813
O O6 0.500000 0.500000 0.000000
O O7 0.175574 0.155850 0.300369
O O8 0.500000 0.500000 0.500000
O O9 0.706926 0.398335 0.604698
O O10 0.754161 0.707015 0.450571
O O11 0.832016 0.884310 0.051510
O O12 0.291233 0.915387 0.200035
O O13 0.000000 0.500000 0.500000
O O14 0.253421 0.925605 0.957785
O O15 0.691433 0.715035 0.029159
O O16 0.994897 0.846590 0.895342
#
# Coordination Sequence:
#
# PCOD9037515 Si02
#       7
#     2   2   2   2   2   2   2
#     4  11  23  41  73 107 138 192 252 303 370 449
#     4  11  27  46  69 110 151 192 246 313 383 452
#     4  11  26  45  71 106 157 200 244 317 385 444
#     4  11  23  44  71 106 142 191 258 306 369 445
#     4  11  23  45  75 102 148 193 252 310 374 450
#     4  11  24  42  72 108 143 197 252 309 375 450
#     4  10  23  40  68 104 140 188 247 303 364 436
#
# _framework density 24.539138999999999
#
# number of rings (size 3 to 8) (size 9 to 14) (size 15 to 20)
#    0.000    1.143    1.429    3.857    6.000    7.429 
#    2.571    0.000    0.000    0.000    0.000    0.000 
#    0.000    0.000    0.000    0.000    0.000    0.000 
#
# Total GULP energy -78113.946247 kJ/mol
# GULP energy per Si atom -5579.567589 kJ/mol
# Density = 2.448329 g / cm^3
# Si number density = 24.539139 Si / 1000 Ang^3
#
#
#
# Elastic Constant Matrix: (Units=GPa)
#
#
# Indices 1 2 3 4 5 6 
#
# 1 123.1518 72.2104 55.5679 -11.7239 24.6079 -30.0091
# 2 72.2104 216.3922 78.8135 -12.3705 19.6800 -52.1434
# 3 55.5679 78.8135 100.2992 16.0064 28.0421 -28.4610
# 4 -11.7239 -12.3705 16.0064 65.2936 -1.8386 19.4947
# 5 24.6079 19.6800 28.0421 -1.8386 37.3596 -13.7590
# 6 -30.0091 -52.1434 -28.4610 19.4947 -13.7590 48.3176
#
#
#
# Elastic Compliance Matrix: (Units=1/GPa)
#
#
# Indices 1 2 3 4 5 6 
#
# 1 0.012427 -0.001705 -0.004775 0.002665 -0.003171 0.001087
# 2 -0.001705 0.007949 -0.004657 0.000889 0.002348 0.005087
# 3 -0.004775 -0.004657 0.022037 -0.009222 -0.009148 0.006105
# 4 0.002665 0.000889 -0.009222 0.021566 0.001695 -0.011036
# 5 -0.003171 0.002348 -0.009148 0.001695 0.036352 0.004844
# 6 0.001087 0.005087 0.006105 -0.011036 0.004844 0.036289
#
#
# Mechanical properties :
#
#
# Convention : Reuss Voigt Hill
#
# Bulk Modulus (GPa) = 49.65500 94.78075 72.21788
# Shear Modulus (GPa) = 30.19199 45.74424 37.96812
#
# Velocity S-wave (km/s) = 3.51145 4.32225 3.93777
# Velocity P-wave (km/s) = 6.05965 7.97604 7.08296
#
# Compressibility (1/GPa) = 0.02013896
#
# Stress axis : x y z
#
# Youngs Moduli (GPa) = 80.47246 125.79819 45.37897
#
# Poissons Ratio (x) = 0.21448 0.21669
# Poissons Ratio (y) = 0.13720 0.21132
# Poissons Ratio (z) = 0.38427 0.58581
#
# Static dielectric constant tensor:
#      x y z
#    x 2.007120 0.006780 -0.038380 
#    y 0.006780 2.003810 -0.039830 
#    z -0.038380 -0.039830 1.982220 
# 
# From -- ./inp_files/430777.got.cif
#   From: 2010.05.17/outbox.cif.g08.bks.cpg/sg2_216_cif.got.tgz:430777.got - 2010.06.03 11:33:40.
