data_PCOD9037434
_publ_section_title
;
Structure prediction by ZEFSAII (Michael W. Deem and Ramdas Pophale) SiO2 
 PCOD9037434
Probable space group: P -1
;
_chemical_formula_sum "Si O2"
_cell_formula_units_Z 12
_cell_length_a 11.526878
_cell_length_b 14.554254
_cell_length_c 5.819005
_cell_angle_alpha 72.339267
_cell_angle_beta 108.319361
_cell_angle_gamma 149.209222
_cell_volume 473.287780
_symmetry_space_group_name_H-M "P -1"
_symmetry_group_IT_number 2
_symmetry_cell_setting 'triclinic'
loop_
_space_group_symop_operation_xyz
x,y,z
-x,-y,-z
loop_
_atom_site_type_symbol
_atom_site_label
_atom_site_fract_x
_atom_site_fract_y
_atom_site_fract_z
Si Si1 0.114670 0.477794 0.656018
Si Si2 0.618892 0.972089 0.077384
Si Si3 0.731087 0.088862 0.558601
Si Si4 0.486629 0.283045 0.577852
Si Si5 0.688813 0.526880 0.885313
Si Si6 0.206174 0.190265 0.121218
O O1 0.367676 0.659231 0.585831
O O2 0.000000 0.500000 0.500000
O O3 0.959488 0.301875 0.550593
O O4 0.139586 0.443706 0.944165
O O5 0.487899 0.783483 0.166395
O O6 0.739479 0.046321 0.346292
O O7 0.500000 0.000000 0.000000
O O8 0.723735 0.032135 0.844218
O O9 0.500000 0.000000 0.500000
O O10 0.615221 0.461413 0.627626
O O11 0.255695 0.164481 0.407072
O O12 0.807354 0.706656 0.887434
O O13 0.442219 0.352171 0.994720
O O14 0.000000 0.000000 0.000000
#
# Coordination Sequence:
#
# PCOD9037434 Si02
#       6
#     2   2   2   2   2   2
#     4  11  25  42  69 101 149 198 238 302 374 444
#     4  10  23  40  67 100 146 187 244 298 362 443
#     4  10  23  42  63  99 147 193 248 296 354 443
#     4  11  25  44  73 103 145 195 247 308 373 449
#     4  10  25  45  70 107 144 181 254 310 372 454
#     4  10  24  49  74 102 139 190 245 318 383 444
#
# _framework density 25.354552000000002
#
# number of rings (size 3 to 8) (size 9 to 14) (size 15 to 20)
#    0.000    1.667    0.000    2.500   14.000    1.333 
#    0.000    0.000    0.000    0.000    0.000    0.000 
#    0.000    0.000    0.000    0.000    0.000    0.000 
#
# Total GULP energy -66855.964238 kJ/mol
# GULP energy per Si atom -5571.330353 kJ/mol
# Density = 2.529684 g / cm^3
# Si number density = 25.354552 Si / 1000 Ang^3
#
#
#
# Elastic Constant Matrix: (Units=GPa)
#
#
# Indices 1 2 3 4 5 6 
#
# 1 83.6107 39.0203 62.6605 11.2889 25.4202 -15.6155
# 2 39.0203 133.2369 54.5199 24.1882 16.5080 -25.1252
# 3 62.6605 54.5199 147.8031 11.6821 6.6140 -16.8546
# 4 11.2889 24.1882 11.6821 59.1252 -4.3310 -7.0928
# 5 25.4202 16.5080 6.6140 -4.3310 46.9670 -0.6953
# 6 -15.6155 -25.1252 -16.8546 -7.0928 -0.6953 42.9196
#
#
#
# Elastic Compliance Matrix: (Units=1/GPa)
#
#
# Indices 1 2 3 4 5 6 
#
# 1 0.023116 -0.000665 -0.008359 -0.002827 -0.011301 0.004088
# 2 -0.000665 0.010656 -0.002743 -0.003412 -0.003250 0.004302
# 3 -0.008359 -0.002743 0.011066 0.000813 0.004004 -0.000102
# 4 -0.002827 -0.003412 0.000813 0.019071 0.004381 0.000516
# 5 -0.011301 -0.003250 0.004004 0.004381 0.028342 -0.003259
# 6 0.004088 0.004302 -0.000102 0.000516 -0.003259 0.027298
#
#
# Mechanical properties :
#
#
# Convention : Reuss Voigt Hill
#
# Bulk Modulus (GPa) = 46.93933 75.22800 61.08367
# Shear Modulus (GPa) = 33.29194 43.69904 38.49549
#
# Velocity S-wave (km/s) = 3.62754 4.15603 3.90075
# Velocity P-wave (km/s) = 6.00823 7.26395 6.66572
#
# Compressibility (1/GPa) = 0.02130410
#
# Stress axis : x y z
#
# Youngs Moduli (GPa) = 43.25937 93.84263 90.36289
#
# Poissons Ratio (x) = 0.06240 0.75539
# Poissons Ratio (y) = 0.02877 0.24787
# Poissons Ratio (z) = 0.36163 0.25741
#
# Static dielectric constant tensor:
#      x y z
#    x 2.061760 -0.018030 0.093070 
#    y -0.018030 2.409660 -0.207990 
#    z 0.093070 -0.207990 2.173010 
# 
# From -- ./inp_files/77488.got.cif
#   From: 2010.05.17/outbox.cif.g08.bks.cpg/sg2_39_cif.got.tgz:77488.got - 2010.06.03 11:33:40.
