data_PCOD9037026
_publ_section_title
;
Structure prediction by ZEFSAII (Michael W. Deem and Ramdas Pophale) SiO2 
 PCOD9037026
Probable space group: P -1
;
_chemical_formula_sum "Si O2"
_cell_formula_units_Z 16
_cell_length_a 20.093857
_cell_length_b 9.425560
_cell_length_c 7.806452
_cell_angle_alpha 55.825769
_cell_angle_beta 145.619650
_cell_angle_gamma 128.708647
_cell_volume 647.997933
_symmetry_space_group_name_H-M "P -1"
_symmetry_group_IT_number 2
_symmetry_cell_setting 'triclinic'
loop_
_space_group_symop_operation_xyz
x,y,z
-x,-y,-z
loop_
_atom_site_type_symbol
_atom_site_label
_atom_site_fract_x
_atom_site_fract_y
_atom_site_fract_z
Si Si1 0.278384 0.014698 0.356091
Si Si2 0.023891 0.877305 0.483844
Si Si3 0.120239 0.674775 0.096327
Si Si4 0.866056 0.531243 0.209260
Si Si5 0.244038 0.112789 0.577138
Si Si6 0.650107 0.179798 0.087198
Si Si7 0.477776 0.170950 0.431596
Si Si8 0.695440 0.490418 0.532918
O O1 0.149580 0.845585 0.170480
O O2 0.368857 0.913163 0.704196
O O3 0.260993 0.135874 0.392459
O O4 0.333439 0.106034 0.231368
O O5 0.901826 0.723107 0.253923
O O6 0.104683 0.007096 0.419102
O O7 0.101450 0.762287 0.816953
O O8 0.000000 0.000000 0.500000
O O9 0.238962 0.609046 0.387833
O O10 0.000000 0.500000 0.000000
O O11 0.770812 0.362893 0.225089
O O12 0.000000 0.500000 0.500000
O O13 0.792148 0.526216 0.877475
O O14 0.299295 0.309737 0.645714
O O15 0.315520 0.969495 0.855079
O O16 0.543617 0.218919 0.727744
O O17 0.556590 0.353046 0.373738
O O18 0.500000 0.000000 0.500000
#
# Coordination Sequence:
#
# PCOD9037026 Si02
#       8
#     2   2   2   2   2   2   2   2
#     4  10  23  39  69  89 129 167 214 260 321 378
#     4  12  25  40  64  95 135 169 212 269 322 380
#     4  12  24  41  66 100 128 168 216 262 320 391
#     4  11  19  40  64  90 125 175 208 257 321 386
#     4  10  24  42  60  93 130 167 215 261 328 373
#     4   9  21  40  63  92 126 166 216 256 322 384
#     4  11  21  42  69  94 123 169 224 263 320 378
#     4  11  24  40  66  93 129 168 220 265 317 388
#
# _framework density 24.691438000000002
#
# number of rings (size 3 to 8) (size 9 to 14) (size 15 to 20)
#    0.750    0.500    3.750    2.625    3.500    1.000 
#    0.000    0.625    0.000    0.000    0.000    0.000 
#    0.000    0.000    0.000    0.000    0.000    0.000 
#
# Total GULP energy -89336.623397 kJ/mol
# GULP energy per Si atom -5583.538962 kJ/mol
# Density = 2.463524 g / cm^3
# Si number density = 24.691438 Si / 1000 Ang^3
#
#
#
# Elastic Constant Matrix: (Units=GPa)
#
#
# Indices 1 2 3 4 5 6 
#
# 1 112.9938 46.2094 -1.1040 1.3930 11.2184 12.1171
# 2 46.2094 163.1645 13.9827 12.1680 17.1942 15.1360
# 3 -1.1040 13.9827 55.1007 19.1712 -3.6068 -0.6949
# 4 1.3930 12.1680 19.1712 23.0440 -1.2885 0.8146
# 5 11.2184 17.1942 -3.6068 -1.2885 22.5996 7.0468
# 6 12.1171 15.1360 -0.6949 0.8146 7.0468 56.6485
#
#
#
# Elastic Compliance Matrix: (Units=1/GPa)
#
#
# Indices 1 2 3 4 5 6 
#
# 1 0.010306 -0.002591 0.000637 0.000107 -0.002671 -0.001174
# 2 -0.002591 0.007788 -0.001256 -0.003143 -0.004736 -0.000908
# 3 0.000637 -0.001256 0.025941 -0.020776 0.003475 0.000384
# 4 0.000107 -0.003143 -0.020776 0.062514 0.002800 -0.000685
# 5 -0.002671 -0.004736 0.003475 0.002800 0.051308 -0.004544
# 6 -0.001174 -0.000908 0.000384 -0.000685 -0.004544 0.018726
#
#
# Mechanical properties :
#
#
# Convention : Reuss Voigt Hill
#
# Bulk Modulus (GPa) = 26.58538 49.93725 38.26132
# Shear Modulus (GPa) = 25.57020 38.60314 32.08667
#
# Velocity S-wave (km/s) = 3.22155 3.95830 3.60878
# Velocity P-wave (km/s) = 4.96269 6.41555 5.73531
#
# Compressibility (1/GPa) = 0.03761465
#
# Stress axis : x y z
#
# Youngs Moduli (GPa) = 97.03547 128.40530 38.54911
#
# Poissons Ratio (x) = 0.33268 -0.02456
# Poissons Ratio (y) = 0.25141 0.04841
# Poissons Ratio (z) = -0.06181 0.16127
#
# Static dielectric constant tensor:
#      x y z
#    x 1.928400 0.026390 0.002810 
#    y 0.026390 1.967290 -0.018080 
#    z 0.002810 -0.018080 2.083350 
# 
# From -- ./inp_files/342582.got.cif
#   From: 2010.05.17/outbox.cif.g08.bks.cpg/sg2_172_cif.got.tgz:342582.got - 2010.06.03 11:33:40.
