data_PCOD9037334
_publ_section_title
;
Structure prediction by ZEFSAII (Michael W. Deem and Ramdas Pophale) SiO2 
 PCOD9037334
Probable space group: P -1
;
_chemical_formula_sum "Si O2"
_cell_formula_units_Z 14
_cell_length_a 18.054742
_cell_length_b 13.052477
_cell_length_c 9.371871
_cell_angle_alpha 151.553178
_cell_angle_beta 133.527528
_cell_angle_gamma 38.499528
_cell_volume 654.899185
_symmetry_space_group_name_H-M "P -1"
_symmetry_group_IT_number 2
_symmetry_cell_setting 'triclinic'
loop_
_space_group_symop_operation_xyz
x,y,z
-x,-y,-z
loop_
_atom_site_type_symbol
_atom_site_label
_atom_site_fract_x
_atom_site_fract_y
_atom_site_fract_z
Si Si1 0.035281 0.563457 0.472502
Si Si2 0.202131 0.087298 0.593236
Si Si3 0.767970 0.377977 0.084520
Si Si4 0.758618 0.841777 0.941086
Si Si5 0.540575 0.362433 0.235465
Si Si6 0.588320 0.627641 0.374636
Si Si7 0.377947 0.131831 0.668985
O O1 0.107165 0.704001 0.776887
O O2 0.128180 0.318686 0.205959
O O3 0.000000 0.500000 0.500000
O O4 0.920090 0.726441 0.422469
O O5 0.305398 0.105557 0.670058
O O6 0.203041 0.154714 0.841316
O O7 0.222921 0.809562 0.255475
O O8 0.673791 0.403059 0.108418
O O9 0.716725 0.665834 0.318604
O O10 0.672885 0.724071 0.669901
O O11 0.674715 0.128065 0.132180
O O12 0.500000 0.500000 0.500000
O O13 0.535178 0.544603 0.328496
O O14 0.453235 0.258473 0.966834
O O15 0.479867 0.852493 0.418385
#
# Coordination Sequence:
#
# PCOD9037334 Si02
#       7
#     2   2   2   2   2   2   2
#     4  11  24  47  68  89 130 173 217 271 319 372
#     4  12  24  42  68  94 131 168 217 266 320 377
#     4  11  24  41  66  96 127 171 216 267 323 380
#     4  10  24  43  67  97 130 171 212 264 322 382
#     4  11  22  40  65  97 134 168 212 259 323 387
#     4  10  23  40  65  95 134 170 210 262 323 386
#     4  11  22  38  64  96 134 168 213 258 324 380
#
# _framework density 21.377334999999999
#
# number of rings (size 3 to 8) (size 9 to 14) (size 15 to 20)
#    0.000    1.143    1.429    4.714    2.000    5.714 
#    0.000    0.714    0.000    0.000    0.000    0.000 
#    0.000    0.000    0.000    0.000    0.000    0.000 
#
# Total GULP energy -78317.626661 kJ/mol
# GULP energy per Si atom -5594.116190 kJ/mol
# Density = 2.132868 g / cm^3
# Si number density = 21.377335 Si / 1000 Ang^3
#
#
#
# Elastic Constant Matrix: (Units=GPa)
#
#
# Indices 1 2 3 4 5 6 
#
# 1 126.9233 48.1850 52.2134 2.1218 -14.2214 -7.7377
# 2 48.1850 145.7454 44.6482 -1.9021 -5.5986 -11.8806
# 3 52.2134 44.6482 106.7225 -12.0376 -18.9292 -3.3875
# 4 2.1218 -1.9021 -12.0376 35.6944 2.9615 -6.4004
# 5 -14.2214 -5.5986 -18.9292 2.9615 32.9618 1.9116
# 6 -7.7377 -11.8806 -3.3875 -6.4004 1.9116 33.0819
#
#
#
# Elastic Compliance Matrix: (Units=1/GPa)
#
#
# Indices 1 2 3 4 5 6 
#
# 1 0.010739 -0.002145 -0.004227 -0.002206 0.001995 0.000766
# 2 -0.002145 0.008528 -0.002619 0.000224 -0.001140 0.002402
# 3 -0.004227 -0.002619 0.013982 0.004389 0.005364 0.000042
# 4 -0.002206 0.000224 0.004389 0.030853 -0.001517 0.006071
# 5 0.001995 -0.001140 0.005364 -0.001517 0.034319 -0.001670
# 6 0.000766 0.002402 0.000042 0.006071 -0.001670 0.032545
#
#
# Mechanical properties :
#
#
# Convention : Reuss Voigt Hill
#
# Bulk Modulus (GPa) = 65.50538 74.38717 69.94627
# Shear Modulus (GPa) = 32.45955 35.97059 34.21507
#
# Velocity S-wave (km/s) = 3.90091 4.10646 4.00500
# Velocity P-wave (km/s) = 7.14131 7.57343 7.36054
#
# Compressibility (1/GPa) = 0.01526592
#
# Stress axis : x y z
#
# Youngs Moduli (GPa) = 93.11503 117.26515 71.52177
#
# Poissons Ratio (x) = 0.25156 0.30235
# Poissons Ratio (y) = 0.19975 0.18731
# Poissons Ratio (z) = 0.39363 0.30710
#
# Static dielectric constant tensor:
#      x y z
#    x 1.749610 -0.017630 0.010750 
#    y -0.017630 1.807160 0.022550 
#    z 0.010750 0.022550 1.777000 
# 
# From -- ./inp_files/28413.got.cif
#   From: 2010.05.17/outbox.cif.g08.bks.cpg/sg2_15_cif.got.tgz:28413.got - 2010.06.03 11:33:40.
