data_PCOD9037265
_publ_section_title
;
Structure prediction by ZEFSAII (Michael W. Deem and Ramdas Pophale) SiO2 
 PCOD9037265
Probable space group: P -1
;
_chemical_formula_sum "Si O2"
_cell_formula_units_Z 16
_cell_length_a 14.078959
_cell_length_b 9.251219
_cell_length_c 21.987329
_cell_angle_alpha 49.557055
_cell_angle_beta 160.791819
_cell_angle_gamma 131.745245
_cell_volume 700.659512
_symmetry_space_group_name_H-M "P -1"
_symmetry_group_IT_number 2
_symmetry_cell_setting 'triclinic'
loop_
_space_group_symop_operation_xyz
x,y,z
-x,-y,-z
loop_
_atom_site_type_symbol
_atom_site_label
_atom_site_fract_x
_atom_site_fract_y
_atom_site_fract_z
Si Si1 0.894922 0.080640 0.013745
Si Si2 0.535414 0.069231 0.919204
Si Si3 0.007892 0.142961 0.409812
Si Si4 0.554057 0.680122 0.099683
Si Si5 0.047642 0.519066 0.395377
Si Si6 0.344747 0.655171 0.296599
Si Si7 0.720226 0.591579 0.784585
Si Si8 0.962574 0.651024 0.177730
O O1 0.197465 0.192010 0.198230
O O2 0.880208 0.855594 0.056149
O O3 0.835651 0.200534 0.886205
O O4 0.656614 0.101302 0.915858
O O5 0.190659 0.975004 0.730000
O O6 0.577927 0.261497 0.932770
O O7 0.651127 0.891065 0.068202
O O8 0.891398 0.315942 0.325336
O O9 0.319030 0.241351 0.541744
O O10 0.000000 0.000000 0.500000
O O11 0.840277 0.586387 0.301357
O O12 0.306920 0.527990 0.954368
O O13 0.377816 0.506914 0.618919
O O14 0.053357 0.655236 0.302092
O O15 0.283710 0.453650 0.277184
O O16 0.234646 0.629423 0.305280
O O17 0.000000 0.500000 0.000000
#
# Coordination Sequence:
#
# PCOD9037265 Si02
#       8
#     2   2   2   2   2   2   2   2
#     4  11  21  41  67  90 133 174 217 276 335 387
#     4  11  22  42  68  94 130 179 217 272 338 390
#     4  11  22  41  69  92 130 173 224 272 329 399
#     4  11  24  42  65  99 134 170 223 277 328 397
#     4  11  23  43  67  97 133 176 221 277 332 389
#     4  10  23  40  64  94 131 175 220 267 330 397
#     4   9  22  42  64  91 130 171 215 272 334 393
#     4  12  23  40  65 100 133 174 220 278 329 393
#
# _framework density 22.835628
#
# number of rings (size 3 to 8) (size 9 to 14) (size 15 to 20)
#    0.000    1.250    3.750    2.250    0.000    3.500 
#    4.500    0.625    0.000    0.000    0.000    0.000 
#    0.000    0.000    0.000    0.000    0.000    0.000 
#
# Total GULP energy -89317.174564 kJ/mol
# GULP energy per Si atom -5582.323410 kJ/mol
# Density = 2.278365 g / cm^3
# Si number density = 22.835628 Si / 1000 Ang^3
#
#
#
# Elastic Constant Matrix: (Units=GPa)
#
#
# Indices 1 2 3 4 5 6 
#
# 1 79.0646 11.3103 19.6012 -3.2587 18.8561 -6.8178
# 2 11.3103 97.3752 23.2388 0.1952 1.2588 -19.9081
# 3 19.6012 23.2388 82.1101 8.2412 10.2634 -13.4516
# 4 -3.2587 0.1952 8.2412 39.5430 -0.5202 -0.3758
# 5 18.8561 1.2588 10.2634 -0.5202 33.0239 -4.0772
# 6 -6.8178 -19.9081 -13.4516 -0.3758 -4.0772 29.3859
#
#
#
# Elastic Compliance Matrix: (Units=1/GPa)
#
#
# Indices 1 2 3 4 5 6 
#
# 1 0.015409 -0.000952 -0.002475 0.001694 -0.007876 0.000726
# 2 -0.000952 0.012422 -0.002340 0.000440 0.001714 0.007367
# 3 -0.002475 -0.002340 0.014775 -0.003266 -0.002622 0.004198
# 4 0.001694 0.000440 -0.003266 0.026108 0.000391 -0.000416
# 5 -0.007876 0.001714 -0.002622 0.000391 0.035920 0.003122
# 6 0.000726 0.007367 0.004198 -0.000416 0.003122 0.041539
#
#
# Mechanical properties :
#
#
# Convention : Reuss Voigt Hill
#
# Bulk Modulus (GPa) = 32.18483 40.76118 36.47301
# Shear Modulus (GPa) = 29.75061 34.01723 31.88392
#
# Velocity S-wave (km/s) = 3.61337 3.86379 3.74068
# Velocity P-wave (km/s) = 5.61545 6.14766 5.88757
#
# Compressibility (1/GPa) = 0.03107054
#
# Stress axis : x y z
#
# Youngs Moduli (GPa) = 64.89910 80.50474 67.68023
#
# Poissons Ratio (x) = 0.07666 0.16754
# Poissons Ratio (y) = 0.06180 0.15836
# Poissons Ratio (z) = 0.16065 0.18837
#
# Static dielectric constant tensor:
#      x y z
#    x 1.854070 0.031390 -0.021740 
#    y 0.031390 1.898610 -0.015680 
#    z -0.021740 -0.015680 1.927230 
# 
# From -- ./inp_files/611751.got.cif
#   From: 2010.05.17/outbox.cif.g08.bks.cpg/sg2_306_cif.got.tgz:611751.got - 2010.06.03 11:33:40.
