data_PCOD9037875
_publ_section_title
;
Structure prediction by ZEFSAII (Michael W. Deem and Ramdas Pophale) SiO2 
 PCOD9037875
Probable space group: P -1
;
_chemical_formula_sum "Si O2"
_cell_formula_units_Z 14
_cell_length_a 12.746562
_cell_length_b 10.142322
_cell_length_c 14.945715
_cell_angle_alpha 37.503644
_cell_angle_beta 27.778308
_cell_angle_gamma 47.983462
_cell_volume 544.613486
_symmetry_space_group_name_H-M "P -1"
_symmetry_group_IT_number 2
_symmetry_cell_setting 'triclinic'
loop_
_space_group_symop_operation_xyz
x,y,z
-x,-y,-z
loop_
_atom_site_type_symbol
_atom_site_label
_atom_site_fract_x
_atom_site_fract_y
_atom_site_fract_z
Si Si1 0.049360 0.668134 0.649966
Si Si2 0.150519 0.335185 0.023835
Si Si3 0.435022 0.303841 0.087189
Si Si4 0.769485 0.758130 0.178200
Si Si5 0.367066 0.574660 0.309984
Si Si6 0.819526 0.930195 0.290258
Si Si7 0.550995 0.052710 0.584054
O O1 0.817047 0.675329 0.768595
O O2 0.096787 0.434004 0.780726
O O3 0.246060 0.708623 0.404882
O O4 0.001938 0.789353 0.714850
O O5 0.250725 0.224753 0.921710
O O6 0.373924 0.447673 0.845004
O O7 0.000000 0.500000 0.000000
O O8 0.444668 0.097211 0.252935
O O9 0.500000 0.500000 0.000000
O O10 0.602598 0.315225 0.869511
O O11 0.529567 0.733282 0.424030
O O12 0.924615 0.977859 0.971587
O O13 0.233689 0.331772 0.529794
O O14 0.644509 0.015183 0.305855
O O15 0.768347 0.034830 0.368911
#
# Coordination Sequence:
#
# PCOD9037875 Si02
#       7
#     2   2   2   2   2   2   2
#     4  10  23  41  64  91 131 169 211 261 313 378
#     4   9  23  40  63  96 128 164 216 265 307 374
#     4  11  23  40  61  96 136 165 205 264 317 381
#     4  11  23  40  66  96 127 166 212 263 320 367
#     4  11  23  42  67  94 127 171 213 255 320 379
#     4  11  24  38  67  99 127 159 212 268 315 371
#     4  11  24  39  64  96 134 160 208 266 323 364
#
# _framework density 25.706306000000001
#
# number of rings (size 3 to 8) (size 9 to 14) (size 15 to 20)
#    0.000    1.429    2.857    1.286   12.000    5.143 
#    0.000    2.857    0.000    5.143    0.000    0.000 
#    0.000    0.000    0.000    0.000    0.000    0.000 
#
# Total GULP energy -78239.779154 kJ/mol
# GULP energy per Si atom -5588.555654 kJ/mol
# Density = 2.564780 g / cm^3
# Si number density = 25.706306 Si / 1000 Ang^3
#
#
#
# Elastic Constant Matrix: (Units=GPa)
#
#
# Indices 1 2 3 4 5 6 
#
# 1 151.4763 30.8080 55.8446 14.0994 50.6592 5.1338
# 2 30.8080 67.2124 26.0779 17.6966 20.5134 1.8190
# 3 55.8446 26.0779 126.4770 24.1918 39.0079 10.5672
# 4 14.0994 17.6966 24.1918 48.2601 21.6056 17.3493
# 5 50.6592 20.5134 39.0079 21.6056 57.1406 11.7682
# 6 5.1338 1.8190 10.5672 17.3493 11.7682 44.6946
#
#
#
# Elastic Compliance Matrix: (Units=1/GPa)
#
#
# Indices 1 2 3 4 5 6 
#
# 1 0.010183 -0.002036 -0.002135 0.002082 -0.007760 0.000653
# 2 -0.002036 0.018391 -0.001352 -0.005299 -0.002383 0.002490
# 3 -0.002135 -0.001352 0.010868 -0.002410 -0.004076 -0.000261
# 4 0.002082 -0.005299 -0.002410 0.030000 -0.007777 -0.009051
# 5 -0.007760 -0.002383 -0.004076 -0.007777 0.031652 -0.003363
# 6 0.000653 0.002490 -0.000261 -0.009051 -0.003363 0.026658
#
#
# Mechanical properties :
#
#
# Convention : Reuss Voigt Hill
#
# Bulk Modulus (GPa) = 35.21857 63.40296 49.31076
# Shear Modulus (GPa) = 33.72350 45.51475 39.61912
#
# Velocity S-wave (km/s) = 3.62591 4.21238 3.93010
# Velocity P-wave (km/s) = 5.59104 6.95534 6.31017
#
# Compressibility (1/GPa) = 0.02839412
#
# Stress axis : x y z
#
# Youngs Moduli (GPa) = 98.20723 54.37303 92.01298
#
# Poissons Ratio (x) = 0.11071 0.19649
# Poissons Ratio (y) = 0.19995 0.12444
# Poissons Ratio (z) = 0.20972 0.07354
#
# Static dielectric constant tensor:
#      x y z
#    x 1.936660 0.434620 -0.021410 
#    y 0.434620 0.254500 0.239190 
#    z -0.021410 0.239190 1.987550 
# 
# From -- ./inp_files/518635.got.cif
#   From: 2010.05.17/outbox.cif.g08.bks.cpg/sg2_260_cif.got.tgz:518635.got - 2010.06.03 11:33:40.
