data_PCOD9037672
_publ_section_title
;
Structure prediction by ZEFSAII (Michael W. Deem and Ramdas Pophale) SiO2 
 PCOD9037672
Probable space group: P -1
;
_chemical_formula_sum "Si O2"
_cell_formula_units_Z 14
_cell_length_a 9.004241
_cell_length_b 9.435307
_cell_length_c 9.469895
_cell_angle_alpha 104.545478
_cell_angle_beta 65.221719
_cell_angle_gamma 114.815290
_cell_volume 660.254554
_symmetry_space_group_name_H-M "P -1"
_symmetry_group_IT_number 2
_symmetry_cell_setting 'triclinic'
loop_
_space_group_symop_operation_xyz
x,y,z
-x,-y,-z
loop_
_atom_site_type_symbol
_atom_site_label
_atom_site_fract_x
_atom_site_fract_y
_atom_site_fract_z
Si Si1 0.949305 0.018027 0.364721
Si Si2 0.120782 0.451221 0.048446
Si Si3 0.054807 0.366150 0.373976
Si Si4 0.389489 0.745760 0.929496
Si Si5 0.549229 0.531343 0.651476
Si Si6 0.745592 0.984299 0.976253
Si Si7 0.708735 0.776022 0.212436
O O1 0.932405 0.187496 0.407006
O O2 0.000000 0.000000 0.500000
O O3 0.779895 0.871762 0.350491
O O4 0.095592 0.015496 0.188703
O O5 0.051760 0.388233 0.212870
O O6 0.285692 0.612458 0.049059
O O7 0.176134 0.322447 0.913824
O O8 0.000000 0.500000 0.000000
O O9 0.248334 0.387938 0.363288
O O10 0.000000 0.500000 0.500000
O O11 0.443496 0.642940 0.767449
O O12 0.269604 0.845355 0.960627
O O13 0.569218 0.869635 0.944608
O O14 0.500000 0.500000 0.500000
O O15 0.475039 0.363250 0.719789
O O16 0.736237 0.905903 0.113020
#
# Coordination Sequence:
#
# PCOD9037672 Si02
#       7
#     2   2   2   2   2   2   2
#     4  12  26  44  67 100 141 176 220 286 348 400
#     4  11  24  42  69  99 136 182 235 281 336 410
#     4  12  28  45  69 102 143 180 229 282 349 411
#     4  10  23  40  72  95 133 174 234 275 345 394
#     4  11  24  47  70 100 140 181 226 284 346 412
#     4  11  22  43  70  99 132 176 230 287 336 407
#     4  11  24  43  72  96 132 177 234 281 340 398
#
# _framework density 21.203942000000001
#
# number of rings (size 3 to 8) (size 9 to 14) (size 15 to 20)
#    0.000    0.857    2.857    3.000   10.000    2.286 
#    0.000    1.429    0.000    0.000    0.000    0.000 
#    0.000    0.000    0.000    0.000    0.000    0.000 
#
# Total GULP energy -78211.382177 kJ/mol
# GULP energy per Si atom -5586.527298 kJ/mol
# Density = 2.115568 g / cm^3
# Si number density = 21.203942 Si / 1000 Ang^3
#
#
#
# Elastic Constant Matrix: (Units=GPa)
#
#
# Indices 1 2 3 4 5 6 
#
# 1 36.3251 9.7176 9.9202 9.3402 7.2813 -6.6363
# 2 9.7176 142.7292 29.8366 25.8793 2.8156 -14.3899
# 3 9.9202 29.8366 78.5994 10.8942 21.2086 -17.9210
# 4 9.3402 25.8793 10.8942 36.9669 -7.2407 1.5022
# 5 7.2813 2.8156 21.2086 -7.2407 32.6047 0.5170
# 6 -6.6363 -14.3899 -17.9210 1.5022 0.5170 41.7458
#
#
#
# Elastic Compliance Matrix: (Units=1/GPa)
#
#
# Indices 1 2 3 4 5 6 
#
# 1 0.033502 0.000378 0.001938 -0.011834 -0.011512 0.006856
# 2 0.000378 0.008698 -0.001598 -0.006050 -0.001181 0.002604
# 3 0.001938 -0.001598 0.020706 -0.008960 -0.015899 0.009165
# 4 -0.011834 -0.006050 -0.008960 0.040873 0.018221 -0.009509
# 5 -0.011512 -0.001181 -0.015899 0.018221 0.047895 -0.010311
# 6 0.006856 0.002604 0.009165 -0.009509 -0.010311 0.030347
#
#
# Mechanical properties :
#
#
# Convention : Reuss Voigt Hill
#
# Bulk Modulus (GPa) = 15.54221 39.62250 27.58236
# Shear Modulus (GPa) = 24.74857 36.14210 30.44533
#
# Velocity S-wave (km/s) = 3.42009 4.13304 3.79335
# Velocity P-wave (km/s) = 4.78976 6.44228 5.67648
#
# Compressibility (1/GPa) = 0.06434090
#
# Stress axis : x y z
#
# Youngs Moduli (GPa) = 29.84919 114.97460 48.29404
#
# Poissons Ratio (x) = -0.04346 -0.09359
# Poissons Ratio (y) = -0.01128 0.07719
# Poissons Ratio (z) = -0.05784 0.18376
#
# Static dielectric constant tensor:
#      x y z
#    x 1.739980 0.198170 -0.231550 
#    y 0.198170 1.348280 0.554420 
#    z -0.231550 0.554420 0.977530 
# 
# From -- ./inp_files/157103.got.cif
#   From: 2010.05.17/outbox.cif.g08.bks.cpg/sg2_79_cif.got.tgz:157103.got - 2010.06.03 11:33:40.
