data_PCOD9037012
_publ_section_title
;
Structure prediction by ZEFSAII (Michael W. Deem and Ramdas Pophale) SiO2 
 PCOD9037012
Probable space group: P -1
;
_chemical_formula_sum "Si O2"
_cell_formula_units_Z 16
_cell_length_a 26.916560
_cell_length_b 17.359927
_cell_length_c 14.298340
_cell_angle_alpha 21.899193
_cell_angle_beta 20.491858
_cell_angle_gamma 18.596735
_cell_volume 696.295748
_symmetry_space_group_name_H-M "P -1"
_symmetry_group_IT_number 2
_symmetry_cell_setting 'triclinic'
loop_
_space_group_symop_operation_xyz
x,y,z
-x,-y,-z
loop_
_atom_site_type_symbol
_atom_site_label
_atom_site_fract_x
_atom_site_fract_y
_atom_site_fract_z
Si Si1 0.636569 0.258218 0.126744
Si Si2 0.376723 0.306275 0.386878
Si Si3 0.390695 0.080307 0.301254
Si Si4 0.919684 0.693471 0.012369
Si Si5 0.764409 0.430073 0.072398
Si Si6 0.988641 0.117216 0.197703
Si Si7 0.310250 0.872049 0.211140
Si Si8 0.467359 0.687480 0.463204
O O1 0.457149 0.345550 0.292573
O O2 0.666647 0.056644 0.377055
O O3 0.620739 0.512270 0.897815
O O4 0.803700 0.106521 0.931642
O O5 0.183994 0.383540 0.656649
O O6 0.500000 0.000000 0.500000
O O7 0.443480 0.922297 0.291052
O O8 0.240906 0.380761 0.204888
O O9 0.562239 0.052054 0.069502
O O10 0.000000 0.500000 0.000000
O O11 0.039984 0.718191 0.844267
O O12 0.777541 0.982922 0.894941
O O13 0.921702 0.284016 0.033222
O O14 0.587888 0.608109 0.248291
O O15 0.720376 0.253650 0.297478
O O16 0.863918 0.026097 0.533273
O O17 0.427729 0.564174 0.369683
#
# Coordination Sequence:
#
# PCOD9037012 Si02
#       8
#     2   2   2   2   2   2   2   2
#     4  11  25  42  68  97 133 183 223 269 344 409
#     4  11  24  45  67  95 140 180 225 273 341 414
#     4  11  22  40  71  98 127 179 232 267 326 407
#     4  12  25  42  70 104 130 178 227 282 345 402
#     4   9  21  40  63  96 133 175 221 276 339 380
#     4  11  24  45  64  98 147 173 216 291 337 402
#     4  10  23  39  68  98 132 165 225 276 335 392
#     4   9  20  40  65  96 129 175 220 282 326 394
#
# _framework density 22.978740999999999
#
# number of rings (size 3 to 8) (size 9 to 14) (size 15 to 20)
#    0.000    1.500    2.500    2.250    5.250    0.500 
#    2.250    0.625    0.000    0.000    0.000    0.000 
#    0.000    0.000    0.000    0.000    0.000    0.000 
#
# Total GULP energy -89351.124892 kJ/mol
# GULP energy per Si atom -5584.445306 kJ/mol
# Density = 2.292644 g / cm^3
# Si number density = 22.978741 Si / 1000 Ang^3
#
#
#
# Elastic Constant Matrix: (Units=GPa)
#
#
# Indices 1 2 3 4 5 6 
#
# 1 74.6509 27.5255 29.8172 -6.2335 -6.6497 -32.8111
# 2 27.5255 57.3954 35.9861 -7.2001 -10.8587 -4.8779
# 3 29.8172 35.9861 145.2295 -24.9899 13.2304 -5.8312
# 4 -6.2335 -7.2001 -24.9899 31.0021 -3.1853 10.5791
# 5 -6.6497 -10.8587 13.2304 -3.1853 37.4537 -5.4121
# 6 -32.8111 -4.8779 -5.8312 10.5791 -5.4121 33.7485
#
#
#
# Elastic Compliance Matrix: (Units=1/GPa)
#
#
# Indices 1 2 3 4 5 6 
#
# 1 0.036306 -0.009561 -0.006610 -0.012237 0.010501 0.038293
# 2 -0.009561 0.026273 -0.004910 0.003051 0.007021 -0.006177
# 3 -0.006610 -0.004910 0.011296 0.009027 -0.007143 -0.009159
# 4 -0.012237 0.003051 0.009027 0.045863 -0.004181 -0.024943
# 5 0.010501 0.007021 -0.007143 -0.004181 0.035216 0.016948
# 6 0.038293 -0.006177 -0.009159 -0.024943 0.016948 0.074922
#
#
# Mechanical properties :
#
#
# Convention : Reuss Voigt Hill
#
# Bulk Modulus (GPa) = 31.53272 51.54817 41.54044
# Shear Modulus (GPa) = 17.69249 32.70400 25.19824
#
# Velocity S-wave (km/s) = 2.77781 3.77666 3.31507
# Velocity P-wave (km/s) = 4.90313 6.44199 5.72450
#
# Compressibility (1/GPa) = 0.03171309
#
# Stress axis : x y z
#
# Youngs Moduli (GPa) = 27.54403 38.06248 88.53041
#
# Poissons Ratio (x) = 0.36392 0.58515
# Poissons Ratio (y) = 0.26335 0.43466
# Poissons Ratio (z) = 0.18205 0.18687
#
# Static dielectric constant tensor:
#      x y z
#    x 1.905500 0.027330 0.029620 
#    y 0.027330 1.905670 -0.029220 
#    z 0.029620 -0.029220 1.897050 
# 
# From -- ./inp_files/536448.got.cif
#   From: 2010.05.17/outbox.cif.g08.bks.cpg/sg2_269_cif.got.tgz:536448.got - 2010.06.03 11:33:40.
