data_PCOD9037597
_publ_section_title
;
Structure prediction by ZEFSAII (Michael W. Deem and Ramdas Pophale) SiO2 
 PCOD9037597
Probable space group: P -1
;
_chemical_formula_sum "Si O2"
_cell_formula_units_Z 16
_cell_length_a 12.881837
_cell_length_b 27.130671
_cell_length_c 18.923841
_cell_angle_alpha 160.827206
_cell_angle_beta 161.619331
_cell_angle_gamma 19.315426
_cell_volume 609.074257
_symmetry_space_group_name_H-M "P -1"
_symmetry_group_IT_number 2
_symmetry_cell_setting 'triclinic'
loop_
_space_group_symop_operation_xyz
x,y,z
-x,-y,-z
loop_
_atom_site_type_symbol
_atom_site_label
_atom_site_fract_x
_atom_site_fract_y
_atom_site_fract_z
Si Si1 0.285039 0.178008 0.015624
Si Si2 0.146362 0.907323 0.858279
Si Si3 0.294613 0.852264 0.603855
Si Si4 0.906957 0.328938 0.170633
Si Si5 0.517761 0.815205 0.122808
Si Si6 0.953032 0.518190 0.319566
Si Si7 0.491964 0.148131 0.596736
Si Si8 0.623765 0.489480 0.796892
O O1 0.568297 0.125327 0.063123
O O2 0.511052 0.157536 0.207434
O O3 0.012189 0.377323 0.107866
O O4 0.103605 0.049877 0.728468
O O5 0.851118 0.836084 0.554924
O O6 0.370292 0.820138 0.955598
O O7 0.869924 0.097405 0.963152
O O8 0.143822 0.712307 0.314656
O O9 0.651107 0.767680 0.666591
O O10 0.837524 0.451474 0.224365
O O11 0.652525 0.436644 0.215107
O O12 0.784817 0.187330 0.878538
O O13 0.650680 0.959470 0.413903
O O14 0.760297 0.630498 0.061683
O O15 0.684755 0.705983 0.377763
O O16 0.350022 0.507955 0.580178
#
# Coordination Sequence:
#
# PCOD9037597 Si02
#       8
#     2   2   2   2   2   2   2   2
#     4   9  18  33  54  78  99 135 185 211 246 300
#     4   9  17  32  53  75 103 136 171 215 251 305
#     4   9  19  33  53  80 104 134 174 218 253 303
#     4  10  20  31  56  81 106 134 166 217 273 301
#     4   9  18  32  50  79 106 131 176 208 261 304
#     4  10  19  35  55  78 103 138 175 215 252 304
#     4  10  20  34  51  81 112 130 166 219 263 310
#     4  10  17  33  52  78 103 135 174 214 253 299
#
# _framework density 26.269375
#
# number of rings (size 3 to 8) (size 9 to 14) (size 15 to 20)
#    0.750    2.000    1.250    2.625    0.000    2.000 
#    0.000    0.000    0.000   12.750    0.000    0.000 
#    0.000    0.000    0.000    0.000    0.000    0.000 
#
# Total GULP energy -89474.025446 kJ/mol
# GULP energy per Si atom -5592.126590 kJ/mol
# Density = 2.620958 g / cm^3
# Si number density = 26.269375 Si / 1000 Ang^3
#
#
#
# Elastic Constant Matrix: (Units=GPa)
#
#
# Indices 1 2 3 4 5 6 
#
# 1 81.7045 27.9615 43.1030 43.0896 17.8476 4.1103
# 2 27.9615 112.4539 50.2974 38.5463 -0.5578 -8.8621
# 3 43.1030 50.2974 181.5780 47.8715 32.5078 0.1017
# 4 43.0896 38.5463 47.8715 58.9803 -3.6996 -1.1906
# 5 17.8476 -0.5578 32.5078 -3.6996 39.4144 7.8355
# 6 4.1103 -8.8621 0.1017 -1.1906 7.8355 14.3608
#
#
#
# Elastic Compliance Matrix: (Units=1/GPa)
#
#
# Indices 1 2 3 4 5 6 
#
# 1 0.026019 -0.000220 0.002459 -0.021862 -0.015696 -0.000848
# 2 -0.000220 0.012513 -0.001575 -0.006620 -0.000546 0.007545
# 3 0.002459 -0.001575 0.009705 -0.009247 -0.010666 0.003309
# 4 -0.021862 -0.006620 -0.009247 0.046073 0.023054 -0.006522
# 5 -0.015696 -0.000546 -0.010666 0.023054 0.047347 -0.019691
# 6 -0.000848 0.007545 0.003309 -0.006522 -0.019691 0.084712
#
#
# Mechanical properties :
#
#
# Convention : Reuss Voigt Hill
#
# Bulk Modulus (GPa) = 20.17566 68.71781 44.44674
# Shear Modulus (GPa) = 20.69852 39.50940 30.10396
#
# Velocity S-wave (km/s) = 2.81006 3.88236 3.38889
# Velocity P-wave (km/s) = 4.26914 6.80534 5.68059
#
# Compressibility (1/GPa) = 0.04956466
#
# Stress axis : x y z
#
# Youngs Moduli (GPa) = 38.43419 79.91733 103.03558
#
# Poissons Ratio (x) = 0.01760 -0.25338
# Poissons Ratio (y) = 0.00847 0.16227
# Poissons Ratio (z) = -0.09451 0.12587
#
# Static dielectric constant tensor:
#      x y z
#    x 2.100500 -0.036320 0.055240 
#    y -0.036320 2.067420 0.030700 
#    z 0.055240 0.030700 2.092560 
# 
# From -- ./inp_files/571178.got.cif
#   From: 2010.05.17/outbox.cif.g08.bks.cpg/sg2_286_cif.got.tgz:571178.got - 2010.06.03 11:33:40.
