data_PCOD9037516
_publ_section_title
;
Structure prediction by ZEFSAII (Michael W. Deem and Ramdas Pophale) SiO2 
 PCOD9037516
Probable space group: P -1
;
_chemical_formula_sum "Si O2"
_cell_formula_units_Z 16
_cell_length_a 9.142639
_cell_length_b 14.290010
_cell_length_c 8.761904
_cell_angle_alpha 74.596925
_cell_angle_beta 82.512814
_cell_angle_gamma 39.813124
_cell_volume 701.569515
_symmetry_space_group_name_H-M "P -1"
_symmetry_group_IT_number 2
_symmetry_cell_setting 'triclinic'
loop_
_space_group_symop_operation_xyz
x,y,z
-x,-y,-z
loop_
_atom_site_type_symbol
_atom_site_label
_atom_site_fract_x
_atom_site_fract_y
_atom_site_fract_z
Si Si1 0.159988 0.044836 0.723764
Si Si2 0.943628 0.217026 0.262521
Si Si3 0.255747 0.870162 0.369772
Si Si4 0.225269 0.137984 0.967287
Si Si5 0.102734 0.427087 0.184173
Si Si6 0.836778 0.770139 0.548494
Si Si7 0.558294 0.281158 0.262002
Si Si8 0.264624 0.303790 0.706734
O O1 0.152379 0.097742 0.866559
O O2 0.257325 0.080804 0.580542
O O3 0.906773 0.131014 0.676818
O O4 0.317486 0.869872 0.777336
O O5 0.941967 0.289509 0.375590
O O6 0.694252 0.311028 0.199302
O O7 0.084290 0.046117 0.356736
O O8 0.091067 0.185304 0.118675
O O9 0.388265 0.767044 0.546690
O O10 0.466833 0.805565 0.269487
O O11 0.181158 0.266947 0.855196
O O12 0.500000 0.000000 0.000000
O O13 0.236851 0.258486 0.282447
O O14 0.292138 0.412176 0.204562
O O15 0.896879 0.526662 0.294032
O O16 0.000000 0.500000 0.000000
O O17 0.793400 0.717537 0.437434
#
# Coordination Sequence:
#
# PCOD9037516 Si02
#       8
#     2   2   2   2   2   2   2   2
#     4  10  23  40  68 105 122 168 215 271 339 370
#     4  11  22  41  67 103 130 164 211 276 340 371
#     4  11  20  41  70  99 133 159 220 274 329 384
#     4  11  24  39  64 102 136 166 210 273 325 386
#     4  12  28  44  63  94 132 182 217 257 323 391
#     4  11  22  42  69  94 128 169 225 269 312 388
#     4  11  23  42  70  94 136 167 218 270 323 390
#     4  11  25  43  64  96 131 175 222 261 316 389
#
# _framework density 22.806009
#
# number of rings (size 3 to 8) (size 9 to 14) (size 15 to 20)
#    0.000    1.000    5.000    1.875    3.500    4.000 
#    0.000    6.250    0.000    0.000    0.000    0.000 
#    0.000    0.000    0.000    0.000    0.000    0.000 
#
# Total GULP energy -89164.473918 kJ/mol
# GULP energy per Si atom -5572.779620 kJ/mol
# Density = 2.275410 g / cm^3
# Si number density = 22.806009 Si / 1000 Ang^3
#
#
#
# Elastic Constant Matrix: (Units=GPa)
#
#
# Indices 1 2 3 4 5 6 
#
# 1 177.0782 57.3400 52.0773 9.7371 18.9417 -16.1691
# 2 57.3400 61.0782 9.0247 -0.4786 18.3912 -14.8493
# 3 52.0773 9.0247 95.6758 -9.8364 3.0362 -2.5447
# 4 9.7371 -0.4786 -9.8364 23.0524 -0.4170 5.4379
# 5 18.9417 18.3912 3.0362 -0.4170 38.9568 -1.4944
# 6 -16.1691 -14.8493 -2.5447 5.4379 -1.4944 39.2204
#
#
#
# Elastic Compliance Matrix: (Units=1/GPa)
#
#
# Indices 1 2 3 4 5 6 
#
# 1 0.010842 -0.008723 -0.005797 -0.007678 -0.000714 0.001829
# 2 -0.008723 0.028496 0.002916 0.003820 -0.009149 0.006504
# 3 -0.005797 0.002916 0.014198 0.008949 0.000370 -0.001591
# 4 -0.007678 0.003820 0.008949 0.052520 0.001474 -0.008364
# 5 -0.000714 -0.009149 0.000370 0.001474 0.030216 -0.002787
# 6 0.001829 0.006504 -0.001591 -0.008364 -0.002787 0.029663
#
#
# Mechanical properties :
#
#
# Convention : Reuss Voigt Hill
#
# Bulk Modulus (GPa) = 32.97108 63.41292 48.19200
# Shear Modulus (GPa) = 25.09376 34.60527 29.84952
#
# Velocity S-wave (km/s) = 3.32070 3.89958 3.62172
# Velocity P-wave (km/s) = 5.40289 6.93839 6.21822
#
# Compressibility (1/GPa) = 0.03032961
#
# Stress axis : x y z
#
# Youngs Moduli (GPa) = 92.23349 35.09234 70.43160
#
# Poissons Ratio (x) = 0.30610 0.40828
# Poissons Ratio (y) = 0.80451 -0.20537
# Poissons Ratio (z) = 0.53466 -0.10233
#
# Static dielectric constant tensor:
#      x y z
#    x 1.883790 0.051720 -0.057410 
#    y 0.051720 2.047630 -0.048710 
#    z -0.057410 -0.048710 1.901290 
# 
# From -- ./inp_files/188528.got.cif
#   From: 2010.05.17/outbox.cif.g08.bks.cpg/sg2_95_cif.got.tgz:188528.got - 2010.06.03 11:33:40.
