data_PCOD9037901
_publ_section_title
;
Structure prediction by ZEFSAII (Michael W. Deem and Ramdas Pophale) SiO2 
 PCOD9037901
Probable space group: P -1
;
_chemical_formula_sum "Si O2"
_cell_formula_units_Z 14
_cell_length_a 21.953634
_cell_length_b 6.365961
_cell_length_c 13.927579
_cell_angle_alpha 91.375891
_cell_angle_beta 22.081194
_cell_angle_gamma 100.799451
_cell_volume 657.112954
_symmetry_space_group_name_H-M "P -1"
_symmetry_group_IT_number 2
_symmetry_cell_setting 'triclinic'
loop_
_space_group_symop_operation_xyz
x,y,z
-x,-y,-z
loop_
_atom_site_type_symbol
_atom_site_label
_atom_site_fract_x
_atom_site_fract_y
_atom_site_fract_z
Si Si1 0.681659 0.794183 0.968110
Si Si2 0.785799 0.207340 0.105734
Si Si3 0.533972 0.705345 0.378307
Si Si4 0.043529 0.761037 0.458654
Si Si5 0.925242 0.309179 0.369040
Si Si6 0.931284 0.924864 0.208212
Si Si7 0.622411 0.462478 0.739293
O O1 0.868373 0.780485 0.671454
O O2 0.605405 0.653494 0.174680
O O3 0.524910 0.717313 0.119570
O O4 0.768751 0.070475 0.863422
O O5 0.649490 0.270014 0.367527
O O6 0.673482 0.960118 0.215141
O O7 0.900860 0.438822 0.878683
O O8 0.928667 0.165472 0.958765
O O9 0.500000 0.500000 0.500000
O O10 0.000000 0.500000 0.500000
O O11 0.077995 0.805531 0.523607
O O12 0.755396 0.363935 0.591500
O O13 0.941502 0.143304 0.259749
O O14 0.740041 0.702379 0.510439
O O15 0.000000 0.000000 0.000000
O O16 0.500000 0.500000 0.000000
#
# Coordination Sequence:
#
# PCOD9037901 Si02
#       7
#     2   2   2   2   2   2   2
#     4  11  25  40  66  98 131 168 226 277 330 407
#     4  10  23  41  64  95 132 170 225 273 339 403
#     4  11  23  40  66  97 133 172 222 282 340 399
#     4  11  23  43  68  96 133 173 222 275 351 402
#     4  11  24  45  69  93 141 180 222 286 345 399
#     4  11  26  43  68  96 137 187 231 275 347 408
#     4  11  26  45  67 102 139 178 235 282 337 416
#
# _framework density 21.305318
#
# number of rings (size 3 to 8) (size 9 to 14) (size 15 to 20)
#    0.000    1.143    0.000    5.143    6.000   10.286 
#    0.000    0.000    0.000    0.000    0.000    0.000 
#    0.000    0.000    0.000    0.000    0.000    0.000 
#
# Total GULP energy -78138.790446 kJ/mol
# GULP energy per Si atom -5581.342175 kJ/mol
# Density = 2.125683 g / cm^3
# Si number density = 21.305318 Si / 1000 Ang^3
#
#
#
# Elastic Constant Matrix: (Units=GPa)
#
#
# Indices 1 2 3 4 5 6 
#
# 1 84.4755 26.1654 50.6380 -4.6051 15.5096 -6.2156
# 2 26.1654 90.4304 37.0919 -14.6242 -2.0668 -3.5943
# 3 50.6380 37.0919 134.0997 -17.9784 -5.5385 -3.9324
# 4 -4.6051 -14.6242 -17.9784 29.8273 0.9121 2.2684
# 5 15.5096 -2.0668 -5.5385 0.9121 42.2144 -1.6369
# 6 -6.2156 -3.5943 -3.9324 2.2684 -1.6369 27.0764
#
#
#
# Elastic Compliance Matrix: (Units=1/GPa)
#
#
# Indices 1 2 3 4 5 6 
#
# 1 0.018171 -0.003043 -0.006609 -0.002635 -0.007535 0.002573
# 2 -0.003043 0.013559 -0.001860 0.004975 0.001450 0.000502
# 3 -0.006609 -0.001860 0.011249 0.004758 0.003698 -0.000305
# 4 -0.002635 0.004975 0.004758 0.038584 0.000908 -0.002431
# 5 -0.007535 0.001450 0.003698 0.000908 0.027015 0.000557
# 6 0.002573 0.000502 -0.000305 -0.002431 0.000557 0.037783
#
#
# Mechanical properties :
#
#
# Convention : Reuss Voigt Hill
#
# Bulk Modulus (GPa) = 50.11166 59.64403 54.87785
# Shear Modulus (GPa) = 28.40320 32.83099 30.61709
#
# Velocity S-wave (km/s) = 3.65519 3.92979 3.79497
# Velocity P-wave (km/s) = 6.43317 6.97471 6.70941
#
# Compressibility (1/GPa) = 0.01995543
#
# Stress axis : x y z
#
# Youngs Moduli (GPa) = 55.03222 73.75114 88.89705
#
# Poissons Ratio (x) = 0.22442 0.58753
# Poissons Ratio (y) = 0.16746 0.16533
# Poissons Ratio (z) = 0.36371 0.13716
#
# Static dielectric constant tensor:
#      x y z
#    x 1.825600 -0.020510 0.062060 
#    y -0.020510 1.908050 -0.070490 
#    z 0.062060 -0.070490 1.836040 
# 
# From -- ./inp_files/69483.got.cif
#   From: 2010.05.17/outbox.cif.g08.bks.cpg/sg2_35_cif.got.tgz:69483.got - 2010.06.03 11:33:40.
