data_PCOD9037831
_publ_section_title
;
Structure prediction by ZEFSAII (Michael W. Deem and Ramdas Pophale) SiO2 
 PCOD9037831
Probable space group: P -1
;
_chemical_formula_sum "Si O2"
_cell_formula_units_Z 16
_cell_length_a 11.124141
_cell_length_b 18.271384
_cell_length_c 7.631424
_cell_angle_alpha 123.327199
_cell_angle_beta 59.396822
_cell_angle_gamma 145.078907
_cell_volume 736.319434
_symmetry_space_group_name_H-M "P -1"
_symmetry_group_IT_number 2
_symmetry_cell_setting 'triclinic'
loop_
_space_group_symop_operation_xyz
x,y,z
-x,-y,-z
loop_
_atom_site_type_symbol
_atom_site_label
_atom_site_fract_x
_atom_site_fract_y
_atom_site_fract_z
Si Si1 0.271625 0.782714 0.346981
Si Si2 0.103177 0.454720 0.887267
Si Si3 0.199311 0.567878 0.320921
Si Si4 0.417731 0.363280 0.896438
Si Si5 0.283742 0.968076 0.788441
Si Si6 0.951416 0.094752 0.792486
Si Si7 0.009293 0.088800 0.364116
Si Si8 0.553064 0.623153 0.689506
O O1 0.262670 0.687771 0.335086
O O2 0.282172 0.870048 0.581980
O O3 0.058731 0.689202 0.266619
O O4 0.481863 0.882765 0.206276
O O5 0.324872 0.561173 0.761666
O O6 0.133511 0.464673 0.086385
O O7 0.000000 0.500000 0.000000
O O8 0.415542 0.624942 0.303351
O O9 0.000000 0.500000 0.500000
O O10 0.187378 0.243194 0.829503
O O11 0.500000 0.500000 0.000000
O O12 0.400167 0.342387 0.092187
O O13 0.126904 0.951330 0.758568
O O14 0.202928 0.928451 0.993318
O O15 0.890884 0.067366 0.598010
O O16 0.961792 0.000337 0.735602
O O17 0.241540 0.241179 0.377123
O O18 0.500000 0.500000 0.500000
#
# Coordination Sequence:
#
# PCOD9037831 Si02
#       8
#     2   2   2   2   2   2   2   2
#     4  10  23  43  64  94 124 180 225 257 345 393
#     4   9  21  38  62  89 123 167 216 255 322 393
#     4  10  23  41  63  95 133 172 214 278 331 395
#     4  11  24  40  65 100 134 172 224 277 336 398
#     4  11  23  44  69  90 136 175 220 281 319 406
#     4  11  25  41  66 101 131 175 223 278 334 397
#     4  11  24  42  67  99 133 173 223 274 339 395
#     4  11  22  39  66  98 130 172 213 280 332 392
#
# _framework density 21.729700999999999
#
# number of rings (size 3 to 8) (size 9 to 14) (size 15 to 20)
#    0.000    1.500    1.250    2.625    7.000    4.000 
#    4.500    1.250    0.000    0.000    0.000    0.000 
#    0.000    0.000    0.000    0.000    0.000    0.000 
#
# Total GULP energy -89396.785781 kJ/mol
# GULP energy per Si atom -5587.299111 kJ/mol
# Density = 2.168024 g / cm^3
# Si number density = 21.729701 Si / 1000 Ang^3
#
#
#
# Elastic Constant Matrix: (Units=GPa)
#
#
# Indices 1 2 3 4 5 6 
#
# 1 23.4821 2.6152 -1.5709 -9.5263 -4.7655 -7.5594
# 2 2.6152 115.2880 22.0485 -15.7282 7.8889 -11.2949
# 3 -1.5709 22.0485 89.9434 -35.9397 8.5779 -6.3789
# 4 -9.5263 -15.7282 -35.9397 42.5996 2.0502 -8.3058
# 5 -4.7655 7.8889 8.5779 2.0502 27.6489 7.1869
# 6 -7.5594 -11.2949 -6.3789 -8.3058 7.1869 22.9178
#
#
#
# Elastic Compliance Matrix: (Units=1/GPa)
#
#
# Indices 1 2 3 4 5 6 
#
# 1 0.092750 0.010031 0.035012 0.070321 -0.023243 0.078057
# 2 0.010031 0.012145 0.006047 0.016209 -0.010011 0.019991
# 3 0.035012 0.006047 0.037453 0.052971 -0.024731 0.051907
# 4 0.070321 0.016209 0.052971 0.111417 -0.043151 0.099839
# 5 -0.023243 -0.010011 -0.024731 -0.043151 0.059903 -0.053908
# 6 0.078057 0.019991 0.051907 0.099839 -0.053908 0.146770
#
#
# Mechanical properties :
#
#
# Convention : Reuss Voigt Hill
#
# Bulk Modulus (GPa) = 4.08948 30.54434 17.31691
# Shear Modulus (GPa) = 11.36972 32.34133 21.85553
#
# Velocity S-wave (km/s) = 2.28991 3.86210 3.17486
# Velocity P-wave (km/s) = 2.97954 5.82878 4.62884
#
# Compressibility (1/GPa) = 0.24452997
#
# Stress axis : x y z
#
# Youngs Moduli (GPa) = 10.78169 82.34069 26.69993
#
# Poissons Ratio (x) = -0.82600 -0.93483
# Poissons Ratio (y) = -0.10816 -0.16146
# Poissons Ratio (z) = -0.37749 -0.49793
#
# Static dielectric constant tensor:
#      x y z
#    x 1.837070 0.050440 0.038240 
#    y 0.050440 1.800440 0.019010 
#    z 0.038240 0.019010 1.835860 
# 
# From -- ./inp_files/282238.got.cif
#   From: 2010.05.17/outbox.cif.g08.bks.cpg/sg2_142_cif.got.tgz:282238.got - 2010.06.03 11:33:40.
