data_PCOD9037202
_publ_section_title
;
Structure prediction by ZEFSAII (Michael W. Deem and Ramdas Pophale) SiO2 
 PCOD9037202
Probable space group: P -1
;
_chemical_formula_sum "Si O2"
_cell_formula_units_Z 16
_cell_length_a 20.794875
_cell_length_b 6.993313
_cell_length_c 11.005851
_cell_angle_alpha 104.351923
_cell_angle_beta 30.097158
_cell_angle_gamma 109.050787
_cell_volume 756.638490
_symmetry_space_group_name_H-M "P -1"
_symmetry_group_IT_number 2
_symmetry_cell_setting 'triclinic'
loop_
_space_group_symop_operation_xyz
x,y,z
-x,-y,-z
loop_
_atom_site_type_symbol
_atom_site_label
_atom_site_fract_x
_atom_site_fract_y
_atom_site_fract_z
Si Si1 0.612498 0.118929 0.424639
Si Si2 0.010268 0.225594 0.711816
Si Si3 0.808675 0.515032 0.083156
Si Si4 0.211541 0.140189 0.004407
Si Si5 0.812022 0.752448 0.358613
Si Si6 0.715849 0.516568 0.703414
Si Si7 0.342460 0.950280 0.235365
Si Si8 0.394276 0.184068 0.949206
O O1 0.678448 0.339287 0.296467
O O2 0.535409 0.143195 0.677335
O O3 0.500000 0.000000 0.500000
O O4 0.721606 0.985506 0.224049
O O5 0.052398 0.188983 0.776385
O O6 0.150200 0.332662 0.441181
O O7 0.922606 0.391212 0.873785
O O8 0.927692 0.012864 0.763524
O O9 0.799362 0.646635 0.000010
O O10 0.831138 0.672655 0.182726
O O11 0.307468 0.166891 0.967172
O O12 0.728859 0.566459 0.547098
O O13 0.732347 0.927154 0.532531
O O14 0.711225 0.287182 0.700986
O O15 0.598189 0.596570 0.969275
O O16 0.500000 0.000000 0.000000
O O17 0.323276 0.027800 0.143014
#
# Coordination Sequence:
#
# PCOD9037202 Si02
#       8
#     2   2   2   2   2   2   2   2
#     4   9  22  40  59  90 128 157 204 253 299 363
#     4   9  22  42  60  92 129 155 205 259 300 363
#     4  11  22  37  68  89 122 170 200 248 315 361
#     4  10  23  40  63  93 123 162 206 251 305 367
#     4   9  23  40  60  94 122 156 208 252 301 363
#     4   9  23  41  61  88 123 161 199 258 304 354
#     4  11  25  40  65  90 122 166 205 250 312 364
#     4  10  23  41  61  90 127 157 206 257 299 368
#
# _framework density 21.146160999999999
#
# number of rings (size 3 to 8) (size 9 to 14) (size 15 to 20)
#    0.750    1.500    0.000    0.375    7.000    8.000 
#    0.000    1.250    0.000    0.000    0.000    0.000 
#    0.000    0.000    0.000    0.000    0.000    0.000 
#
# Total GULP energy -89260.731454 kJ/mol
# GULP energy per Si atom -5578.795716 kJ/mol
# Density = 2.109803 g / cm^3
# Si number density = 21.146161 Si / 1000 Ang^3
#
#
#
# Elastic Constant Matrix: (Units=GPa)
#
#
# Indices 1 2 3 4 5 6 
#
# 1 65.6887 5.5560 -6.2524 -4.0276 -3.1787 -8.2010
# 2 5.5560 110.6892 6.6802 -2.6040 -1.8119 -15.1329
# 3 -6.2524 6.6802 49.6737 -0.3417 1.6538 0.9073
# 4 -4.0276 -2.6040 -0.3417 19.5598 8.0515 -9.3497
# 5 -3.1787 -1.8119 1.6538 8.0515 27.7069 -3.1726
# 6 -8.2010 -15.1329 0.9073 -9.3497 -3.1726 21.0441
#
#
#
# Elastic Compliance Matrix: (Units=1/GPa)
#
#
# Indices 1 2 3 4 5 6 
#
# 1 0.017312 0.000768 0.001910 0.008797 0.000651 0.011223
# 2 0.000768 0.010780 -0.001516 0.006839 0.000176 0.011181
# 3 0.001910 -0.001516 0.020648 0.000560 -0.001413 -0.001200
# 4 0.008797 0.006839 0.000560 0.080895 -0.017315 0.041653
# 5 0.000651 0.000176 -0.001413 -0.017315 0.041175 -0.001044
# 6 0.011223 0.011181 -0.001200 0.041653 -0.001044 0.078334
#
#
# Mechanical properties :
#
#
# Convention : Reuss Voigt Hill
#
# Bulk Modulus (GPa) = 19.58363 26.44658 23.01511
# Shear Modulus (GPa) = 18.95070 28.33333 23.64202
#
# Velocity S-wave (km/s) = 2.99687 3.66441 3.34732
# Velocity P-wave (km/s) = 4.61044 5.51703 5.08398
#
# Compressibility (1/GPa) = 0.05106305
#
# Stress axis : x y z
#
# Youngs Moduli (GPa) = 57.76268 92.76686 48.42984
#
# Poissons Ratio (x) = -0.07122 -0.09249
# Poissons Ratio (y) = -0.04435 0.07342
# Poissons Ratio (z) = -0.11031 0.14064
#
# Static dielectric constant tensor:
#      x y z
#    x 1.777060 0.004770 -0.006190 
#    y 0.004770 1.729380 0.000760 
#    z -0.006190 0.000760 1.821190 
# 
# From -- ./inp_files/473439.got.cif
#   From: 2010.05.17/outbox.cif.g08.bks.cpg/sg2_237_cif.got.tgz:473439.got - 2010.06.03 11:33:40.
