data_PCOD9037671
_publ_section_title
;
Structure prediction by ZEFSAII (Michael W. Deem and Ramdas Pophale) SiO2 
 PCOD9037671
Probable space group: P -1
;
_chemical_formula_sum "Si O2"
_cell_formula_units_Z 14
_cell_length_a 18.085284
_cell_length_b 12.346405
_cell_length_c 5.271373
_cell_angle_alpha 107.009315
_cell_angle_beta 69.728967
_cell_angle_gamma 150.948896
_cell_volume 536.018103
_symmetry_space_group_name_H-M "P -1"
_symmetry_group_IT_number 2
_symmetry_cell_setting 'triclinic'
loop_
_space_group_symop_operation_xyz
x,y,z
-x,-y,-z
loop_
_atom_site_type_symbol
_atom_site_label
_atom_site_fract_x
_atom_site_fract_y
_atom_site_fract_z
Si Si1 0.169870 0.482937 0.036981
Si Si2 0.628285 0.381173 0.737796
Si Si3 0.882201 0.272132 0.343684
Si Si4 0.621551 0.086117 0.221753
Si Si5 0.097177 0.145501 0.731217
Si Si6 0.628509 0.604727 0.166836
Si Si7 0.595435 0.794367 0.492719
O O1 0.297447 0.726966 0.939160
O O2 0.156434 0.348249 0.810450
O O3 0.226715 0.517691 0.278823
O O4 0.999954 0.328090 0.119813
O O5 0.534057 0.281337 0.519858
O O6 0.489424 0.151358 0.913550
O O7 0.676024 0.567627 0.884617
O O8 0.767632 0.204442 0.259502
O O9 0.000000 0.500000 0.500000
O O10 0.758814 0.055770 0.520517
O O11 0.500000 0.000000 0.500000
O O12 0.244927 0.248607 0.659619
O O13 0.000000 0.000000 0.500000
O O14 0.000000 0.000000 0.000000
O O15 0.618577 0.724268 0.201017
O O16 0.472963 0.361009 0.303125
#
# Coordination Sequence:
#
# PCOD9037671 Si02
#       7
#     2   2   2   2   2   2   2
#     4  11  25  44  71 108 143 200 248 316 383 452
#     4  10  23  40  72  94 143 174 252 289 377 434
#     4  11  25  44  70 101 153 189 254 309 391 443
#     4  11  25  43  70 102 141 192 246 310 376 459
#     4  11  27  47  76 111 155 198 256 316 389 456
#     4  10  23  42  72 102 139 192 246 302 370 449
#     4  10  23  44  66 106 139 192 242 307 370 450
#
# _framework density 26.11852
#
# number of rings (size 3 to 8) (size 9 to 14) (size 15 to 20)
#    0.000    1.429    0.000    3.000   14.000    2.286 
#   10.286    0.000    0.000    0.000    0.000    0.000 
#    0.000    0.000    0.000    0.000    0.000    0.000 
#
# Total GULP energy -78295.772929 kJ/mol
# GULP energy per Si atom -5592.555209 kJ/mol
# Density = 2.605907 g / cm^3
# Si number density = 26.118520 Si / 1000 Ang^3
#
#
#
# Elastic Constant Matrix: (Units=GPa)
#
#
# Indices 1 2 3 4 5 6 
#
# 1 189.6839 43.5403 34.8910 3.8035 -0.9385 34.4564
# 2 43.5403 170.6027 33.8526 -3.8545 9.3351 7.5814
# 3 34.8910 33.8526 62.6463 -2.2822 14.1798 15.3898
# 4 3.8035 -3.8545 -2.2822 46.5829 5.4976 -1.9883
# 5 -0.9385 9.3351 14.1798 5.4976 39.5024 2.4437
# 6 34.4564 7.5814 15.3898 -1.9883 2.4437 51.4617
#
#
#
# Elastic Compliance Matrix: (Units=1/GPa)
#
#
# Indices 1 2 3 4 5 6 
#
# 1 0.006723 -0.001146 -0.002668 -0.001140 0.001774 -0.003663
# 2 -0.001146 0.006773 -0.003026 0.000616 -0.000672 0.000731
# 3 -0.002668 -0.003026 0.021709 0.001709 -0.007140 -0.003855
# 4 -0.001140 0.000616 0.001709 0.022213 -0.003952 0.001207
# 5 0.001774 -0.000672 -0.007140 -0.003952 0.028658 -0.000467
# 6 -0.003663 0.000731 -0.003855 0.001207 -0.000467 0.022998
#
#
# Mechanical properties :
#
#
# Convention : Reuss Voigt Hill
#
# Bulk Modulus (GPa) = 46.46002 71.94452 59.20227
# Shear Modulus (GPa) = 38.48220 48.21933 43.35076
#
# Velocity S-wave (km/s) = 3.84261 4.30137 4.07845
# Velocity P-wave (km/s) = 6.12489 7.23010 6.70032
#
# Compressibility (1/GPa) = 0.02152388
#
# Stress axis : x y z
#
# Youngs Moduli (GPa) = 148.74704 147.64726 46.06310
#
# Poissons Ratio (x) = 0.16926 0.12290
# Poissons Ratio (y) = 0.17052 0.13940
# Poissons Ratio (z) = 0.39685 0.44681
#
# Static dielectric constant tensor:
#      x y z
#    x 2.094140 -0.038260 -0.129710 
#    y -0.038260 2.030210 0.011370 
#    z -0.129710 0.011370 2.312190 
# 
# From -- ./inp_files/109772.got.cif
#   From: 2010.05.17/outbox.cif.g08.bks.cpg/sg2_55_cif.got.tgz:109772.got - 2010.06.03 11:33:40.
