data_PCOD9037869
_publ_section_title
;
Structure prediction by ZEFSAII (Michael W. Deem and Ramdas Pophale) SiO2 
 PCOD9037869
Probable space group: P -1
;
_chemical_formula_sum "Si O2"
_cell_formula_units_Z 14
_cell_length_a 22.934420
_cell_length_b 9.839176
_cell_length_c 9.574766
_cell_angle_alpha 132.499429
_cell_angle_beta 43.342800
_cell_angle_gamma 153.892890
_cell_volume 650.758006
_symmetry_space_group_name_H-M "P -1"
_symmetry_group_IT_number 2
_symmetry_cell_setting 'triclinic'
loop_
_space_group_symop_operation_xyz
x,y,z
-x,-y,-z
loop_
_atom_site_type_symbol
_atom_site_label
_atom_site_fract_x
_atom_site_fract_y
_atom_site_fract_z
Si Si1 0.519330 0.011111 0.809206
Si Si2 0.294214 0.140906 0.363670
Si Si3 0.294175 0.019639 0.591443
Si Si4 0.643222 0.321450 0.396596
Si Si5 0.844580 0.117788 0.847275
Si Si6 0.397847 0.460284 0.957279
Si Si7 0.110252 0.472276 0.750427
O O1 0.583265 0.921981 0.601508
O O2 0.380816 0.789365 0.797671
O O3 0.625469 0.367384 0.842564
O O4 0.500000 0.000000 0.000000
O O5 0.345188 0.439943 0.467426
O O6 0.432405 0.266742 0.160924
O O7 0.255932 0.021162 0.505025
O O8 0.165894 0.893150 0.306996
O O9 0.178344 0.707212 0.666991
O O10 0.341717 0.277197 0.781535
O O11 0.779592 0.486798 0.358415
O O12 0.500000 0.000000 0.500000
O O13 0.951330 0.152477 0.752045
O O14 0.896714 0.400053 0.017876
O O15 0.685850 0.804201 0.965766
#
# Coordination Sequence:
#
# PCOD9037869 Si02
#       7
#     2   2   2   2   2   2   2
#     4  12  22  37  65  96 127 161 204 258 315 364
#     4  12  22  38  65  94 127 159 208 260 313 363
#     4  11  23  42  61  96 129 162 202 263 311 366
#     4  12  22  39  64  95 123 162 210 258 305 370
#     4  10  23  41  64  90 121 170 211 256 303 372
#     4  11  21  40  65  92 127 160 210 255 308 368
#     4  10  23  44  64  85 130 165 211 254 309 369
#
# _framework density 21.513372
#
# number of rings (size 3 to 8) (size 9 to 14) (size 15 to 20)
#    0.000    0.857    4.286    4.286    0.000    1.143 
#    0.000    0.000    0.000    3.429    0.000    0.000 
#    0.000    0.000    0.000    0.000    0.000    0.000 
#
# Total GULP energy -78166.381841 kJ/mol
# GULP energy per Si atom -5583.312989 kJ/mol
# Density = 2.146441 g / cm^3
# Si number density = 21.513372 Si / 1000 Ang^3
#
#
#
# Elastic Constant Matrix: (Units=GPa)
#
#
# Indices 1 2 3 4 5 6 
#
# 1 140.7760 24.4699 60.9306 8.4171 31.5748 0.3202
# 2 24.4699 32.1766 15.0318 6.5028 9.6749 -1.7092
# 3 60.9306 15.0318 81.3541 9.1202 18.5623 4.3847
# 4 8.4171 6.5028 9.1202 26.7715 1.7303 -2.0377
# 5 31.5748 9.6749 18.5623 1.7303 43.8923 7.4347
# 6 0.3202 -1.7092 4.3847 -2.0377 7.4347 27.4423
#
#
#
# Elastic Compliance Matrix: (Units=1/GPa)
#
#
# Indices 1 2 3 4 5 6 
#
# 1 0.012102 -0.004206 -0.007264 0.000183 -0.005077 0.002147
# 2 -0.004206 0.038320 -0.002286 -0.006621 -0.004805 0.003611
# 3 -0.007264 -0.002286 0.019129 -0.003790 -0.001714 -0.002931
# 4 0.000183 -0.006621 -0.003790 0.040366 0.000838 0.002961
# 5 -0.005077 -0.004805 -0.001714 0.000838 0.029525 -0.007903
# 6 0.002147 0.003611 -0.002931 0.002961 -0.007903 0.039469
#
#
# Mechanical properties :
#
#
# Convention : Reuss Voigt Hill
#
# Bulk Modulus (GPa) = 23.78835 50.57458 37.18147
# Shear Modulus (GPa) = 22.68229 29.87952 26.28090
#
# Velocity S-wave (km/s) = 3.25057 3.73081 3.49894
# Velocity P-wave (km/s) = 5.01695 6.48985 5.80034
#
# Compressibility (1/GPa) = 0.04203738
#
# Stress axis : x y z
#
# Youngs Moduli (GPa) = 82.63380 26.09616 52.27689
#
# Poissons Ratio (x) = 0.10976 0.37975
# Poissons Ratio (y) = 0.34755 0.11953
# Poissons Ratio (z) = 0.60027 0.05967
#
# Static dielectric constant tensor:
#      x y z
#    x 1.847000 0.013110 -0.032070 
#    y 0.013110 1.829310 -0.014340 
#    z -0.032070 -0.014340 1.828230 
# 
# From -- ./inp_files/269615.got.cif
#   From: 2010.05.17/outbox.cif.g08.bks.cpg/sg2_135_cif.got.tgz:269615.got - 2010.06.03 11:33:40.
