data_PCOD9037971
_publ_section_title
;
Structure prediction by ZEFSAII (Michael W. Deem and Ramdas Pophale) SiO2 
 PCOD9037971
Probable space group: P -1
;
_chemical_formula_sum "Si O2"
_cell_formula_units_Z 16
_cell_length_a 5.315038
_cell_length_b 17.391295
_cell_length_c 8.191805
_cell_angle_alpha 103.796037
_cell_angle_beta 69.848928
_cell_angle_gamma 121.749661
_cell_volume 602.932071
_symmetry_space_group_name_H-M "P -1"
_symmetry_group_IT_number 2
_symmetry_cell_setting 'triclinic'
loop_
_space_group_symop_operation_xyz
x,y,z
-x,-y,-z
loop_
_atom_site_type_symbol
_atom_site_label
_atom_site_fract_x
_atom_site_fract_y
_atom_site_fract_z
Si Si1 0.528082 0.507313 0.686147
Si Si2 0.211556 0.004948 0.299763
Si Si3 0.354494 0.327333 0.707531
Si Si4 0.587723 0.896956 0.214177
Si Si5 0.860403 0.351628 0.359243
Si Si6 0.930123 0.212573 0.496148
Si Si7 0.425944 0.185034 0.174235
Si Si8 0.345887 0.563003 0.008931
O O1 0.500000 0.500000 0.500000
O O2 0.270655 0.407550 0.749970
O O3 0.881983 0.545452 0.680816
O O4 0.492485 0.589749 0.810502
O O5 0.419461 0.957338 0.255583
O O6 0.950227 0.955849 0.195887
O O7 0.436644 0.106114 0.237760
O O8 0.000000 0.000000 0.500000
O O9 0.596312 0.354490 0.522370
O O10 0.529242 0.352561 0.853839
O O11 0.089194 0.233985 0.653239
O O12 0.421640 0.844759 0.394131
O O13 0.559377 0.837081 0.030074
O O14 0.967060 0.301112 0.441765
O O15 0.714205 0.281733 0.208022
O O16 0.113364 0.179233 0.318720
O O17 0.500000 0.500000 0.000000
O O18 0.000000 0.500000 0.000000
#
# Coordination Sequence:
#
# PCOD9037971 Si02
#       8
#     2   2   2   2   2   2   2   2
#     4  11  21  42  67  98 130 186 241 289 355 415
#     4  12  25  50  80 108 145 193 234 294 354 430
#     4  10  23  43  66  94 136 185 238 292 353 421
#     4  12  28  47  79 107 145 194 234 292 358 431
#     4  11  24  43  69  97 142 184 231 303 351 419
#     4  11  25  46  67 106 146 188 231 302 357 420
#     4  11  27  46  72 109 145 182 245 288 358 428
#     4  10  23  41  65  94 128 172 231 295 342 415
#
# _framework density 26.536985999999999
#
# number of rings (size 3 to 8) (size 9 to 14) (size 15 to 20)
#    0.000    1.000    2.500    3.000    8.750    1.000 
#    2.250    0.000    0.000    0.000    0.000    0.000 
#    0.000    0.000    0.000    0.000    0.000    0.000 
#
# Total GULP energy -89244.051539 kJ/mol
# GULP energy per Si atom -5577.753221 kJ/mol
# Density = 2.647659 g / cm^3
# Si number density = 26.536986 Si / 1000 Ang^3
#
#
#
# Elastic Constant Matrix: (Units=GPa)
#
#
# Indices 1 2 3 4 5 6 
#
# 1 111.6529 22.6108 21.8553 17.5415 6.3372 0.6758
# 2 22.6108 84.9628 -0.5249 1.9510 3.8796 0.1929
# 3 21.8553 -0.5249 152.3631 33.7226 14.6626 3.6860
# 4 17.5415 1.9510 33.7226 41.9207 10.3323 7.4510
# 5 6.3372 3.8796 14.6626 10.3323 35.0621 6.3424
# 6 0.6758 0.1929 3.6860 7.4510 6.3424 44.5127
#
#
#
# Elastic Compliance Matrix: (Units=1/GPa)
#
#
# Indices 1 2 3 4 5 6 
#
# 1 0.010202 -0.002622 -0.000649 -0.003649 -0.000309 0.000565
# 2 -0.002622 0.012516 0.000435 0.000461 -0.001238 0.000049
# 3 -0.000649 0.000435 0.008128 -0.005977 -0.001672 0.000574
# 4 -0.003649 0.000461 -0.005977 0.032286 -0.005674 -0.004048
# 5 -0.000309 -0.001238 -0.001672 -0.005674 0.031704 -0.003419
# 6 0.000565 0.000049 0.000574 -0.004048 -0.003419 0.023574
#
#
# Mechanical properties :
#
#
# Convention : Reuss Voigt Hill
#
# Bulk Modulus (GPa) = 39.72329 48.54013 44.13171
# Shear Modulus (GPa) = 37.74375 44.63494 41.18935
#
# Velocity S-wave (km/s) = 3.77544 4.10566 3.94401
# Velocity P-wave (km/s) = 5.83153 6.38799 6.11609
#
# Compressibility (1/GPa) = 0.02517415
#
# Stress axis : x y z
#
# Youngs Moduli (GPa) = 98.02191 79.89626 123.03555
#
# Poissons Ratio (x) = 0.20951 0.07980
# Poissons Ratio (y) = 0.25705 -0.05354
# Poissons Ratio (z) = 0.06358 -0.03477
#
# Static dielectric constant tensor:
#      x y z
#    x 2.360920 -0.030780 -0.054640 
#    y -0.030780 2.272000 -0.041650 
#    z -0.054640 -0.041650 2.480840 
# 
# From -- ./inp_files/116347.got.cif
#   From: 2010.05.17/outbox.cif.g08.bks.cpg/sg2_59_cif.got.tgz:116347.got - 2010.06.03 11:33:40.
