data_PCOD9037496
_publ_section_title
;
Structure prediction by ZEFSAII (Michael W. Deem and Ramdas Pophale) SiO2 
 PCOD9037496
Probable space group: P -1
;
_chemical_formula_sum "Si O2"
_cell_formula_units_Z 16
_cell_length_a 10.907977
_cell_length_b 11.551715
_cell_length_c 9.667506
_cell_angle_alpha 48.694958
_cell_angle_beta 119.246562
_cell_angle_gamma 88.318981
_cell_volume 673.666788
_symmetry_space_group_name_H-M "P -1"
_symmetry_group_IT_number 2
_symmetry_cell_setting 'triclinic'
loop_
_space_group_symop_operation_xyz
x,y,z
-x,-y,-z
loop_
_atom_site_type_symbol
_atom_site_label
_atom_site_fract_x
_atom_site_fract_y
_atom_site_fract_z
Si Si1 0.639074 0.035454 0.995031
Si Si2 0.879706 0.677779 0.095613
Si Si3 0.497409 0.173013 0.238896
Si Si4 0.525547 0.707448 0.552382
Si Si5 0.001886 0.713718 0.398731
Si Si6 0.932203 0.196039 0.373987
Si Si7 0.189269 0.239645 0.317749
Si Si8 0.405260 0.658357 0.064978
O O1 0.589063 0.139725 0.740684
O O2 0.652265 0.171078 0.000468
O O3 0.500000 0.000000 0.000000
O O4 0.806977 0.840991 0.226990
O O5 0.993846 0.719204 0.223610
O O6 0.919831 0.487398 0.335368
O O7 0.678273 0.810798 0.888500
O O8 0.903947 0.682398 0.941599
O O9 0.509371 0.225174 0.361201
O O10 0.659190 0.974170 0.449629
O O11 0.491234 0.318526 0.015250
O O12 0.711984 0.664321 0.661685
O O13 0.506473 0.535956 0.660443
O O14 0.078962 0.801829 0.467422
O O15 0.059785 0.250358 0.347875
O O16 0.751473 0.326687 0.109048
O O17 0.000000 0.000000 0.500000
#
# Coordination Sequence:
#
# PCOD9037496 Si02
#       8
#     2   2   2   2   2   2   2   2
#     4  12  24  43  69  93 130 178 218 268 329 392
#     4  10  23  40  68 100 127 165 224 270 319 383
#     4  11  21  43  69  94 133 173 217 265 330 389
#     4  11  24  40  67 101 128 166 223 274 320 386
#     4  11  22  41  64  93 131 168 213 264 324 382
#     4  12  23  42  64  94 132 172 216 259 323 391
#     4  11  22  42  69  97 126 175 220 265 324 391
#     4  12  25  43  65  98 134 171 216 274 327 383
#
# _framework density 23.750613000000001
#
# number of rings (size 3 to 8) (size 9 to 14) (size 15 to 20)
#    0.000    0.750    2.500    7.500    0.000    3.000 
#    0.000    4.375    0.000    0.000    0.000    0.000 
#    0.000    0.000    0.000    0.000    0.000    0.000 
#
# Total GULP energy -89522.678287 kJ/mol
# GULP energy per Si atom -5595.167393 kJ/mol
# Density = 2.369656 g / cm^3
# Si number density = 23.750613 Si / 1000 Ang^3
#
#
#
# Elastic Constant Matrix: (Units=GPa)
#
#
# Indices 1 2 3 4 5 6 
#
# 1 58.2802 -0.7799 10.0969 -4.5817 -10.1506 3.3645
# 2 -0.7799 70.0843 32.2655 13.4807 0.0075 5.4401
# 3 10.0969 32.2655 135.7739 12.7822 -9.5354 -8.3534
# 4 -4.5817 13.4807 12.7822 54.1197 -1.2987 -4.2793
# 5 -10.1506 0.0075 -9.5354 -1.2987 34.8014 -6.4081
# 6 3.3645 5.4401 -8.3534 -4.2793 -6.4081 21.4141
#
#
#
# Elastic Compliance Matrix: (Units=1/GPa)
#
#
# Indices 1 2 3 4 5 6 
#
# 1 0.018489 0.000715 -0.001494 0.001700 0.004692 -0.001926
# 2 0.000715 0.017775 -0.004583 -0.003982 -0.002675 -0.008012
# 3 -0.001494 -0.004583 0.009201 -0.000624 0.003131 0.005800
# 4 0.001700 -0.003982 -0.000624 0.020217 0.002028 0.005148
# 5 0.004692 -0.002675 0.003131 0.002028 0.033153 0.011490
# 6 -0.001926 -0.008012 0.005800 0.005148 0.011490 0.055766
#
#
# Mechanical properties :
#
#
# Convention : Reuss Voigt Hill
#
# Bulk Modulus (GPa) = 28.78415 38.58925 33.68670
# Shear Modulus (GPa) = 28.26400 36.90411 32.58405
#
# Velocity S-wave (km/s) = 3.45343 3.94612 3.70797
# Velocity P-wave (km/s) = 5.29596 6.08650 5.70494
#
# Compressibility (1/GPa) = 0.03474134
#
# Stress axis : x y z
#
# Youngs Moduli (GPa) = 54.08645 56.26001 108.68462
#
# Poissons Ratio (x) = -0.04025 0.16237
# Poissons Ratio (y) = -0.03870 0.49811
# Poissons Ratio (z) = 0.08080 0.25784
#
# Static dielectric constant tensor:
#      x y z
#    x 1.868270 -0.000900 0.002660 
#    y -0.000900 2.011240 0.005500 
#    z 0.002660 0.005500 1.927090 
# 
# From -- ./inp_files/261701.got.cif
#   From: 2010.05.17/outbox.cif.g08.bks.cpg/sg2_131_cif.got.tgz:261701.got - 2010.06.03 11:33:40.
