data_PCOD9037835
_publ_section_title
;
Structure prediction by ZEFSAII (Michael W. Deem and Ramdas Pophale) SiO2 
 PCOD9037835
Probable space group: P -1
;
_chemical_formula_sum "Si O2"
_cell_formula_units_Z 12
_cell_length_a 17.887367
_cell_length_b 5.229666
_cell_length_c 7.461358
_cell_angle_alpha 117.815909
_cell_angle_beta 49.349563
_cell_angle_gamma 114.862031
_cell_volume 461.255072
_symmetry_space_group_name_H-M "P -1"
_symmetry_group_IT_number 2
_symmetry_cell_setting 'triclinic'
loop_
_space_group_symop_operation_xyz
x,y,z
-x,-y,-z
loop_
_atom_site_type_symbol
_atom_site_label
_atom_site_fract_x
_atom_site_fract_y
_atom_site_fract_z
Si Si1 0.649435 0.525939 0.343070
Si Si2 0.821865 0.213366 0.062343
Si Si3 0.312960 0.008938 0.111008
Si Si4 0.841881 0.095006 0.387895
Si Si5 0.451221 0.276917 0.724151
Si Si6 0.960405 0.732267 0.342171
O O1 0.743771 0.442861 0.272893
O O2 0.638845 0.268525 0.119546
O O3 0.549553 0.518275 0.614094
O O4 0.639595 0.774686 0.296664
O O5 0.782566 0.023122 0.885846
O O6 0.831044 0.042526 0.176046
O O7 0.935245 0.371232 0.904258
O O8 0.396599 0.273311 0.998621
O O9 0.266445 0.973799 0.367657
O O10 0.888104 0.445125 0.440060
O O11 0.910323 0.896421 0.316222
O O12 0.500000 0.000000 0.500000
O O13 0.000000 0.000000 0.500000
#
# Coordination Sequence:
#
# PCOD9037835 Si02
#       6
#     2   2   2   2   2   2
#     4   8  18  35  61  89 126 161 214 252 319 373
#     4  10  23  41  63  96 124 172 212 263 317 377
#     4   9  21  36  63  89 126 165 211 252 322 369
#     4  12  26  43  64  97 131 168 213 269 313 378
#     4   9  16  34  63  92 118 168 205 260 312 381
#     4  12  25  45  67  92 131 171 216 262 320 376
#
# _framework density 26.015971
#
# number of rings (size 3 to 8) (size 9 to 14) (size 15 to 20)
#    1.000    1.000    1.667    1.500    2.333    2.667 
#    0.000    0.833    0.000    5.000    0.000    0.000 
#    0.000    0.000    0.000    0.000    0.000    0.000 
#
# Total GULP energy -66849.861200 kJ/mol
# GULP energy per Si atom -5570.821767 kJ/mol
# Density = 2.595676 g / cm^3
# Si number density = 26.015971 Si / 1000 Ang^3
#
#
#
# Elastic Constant Matrix: (Units=GPa)
#
#
# Indices 1 2 3 4 5 6 
#
# 1 101.3754 31.7913 21.8035 12.3919 -20.1274 -18.0677
# 2 31.7913 101.4672 26.5633 -5.7014 -12.8318 -15.2340
# 3 21.8035 26.5633 127.6126 -30.4335 -19.9393 -11.1940
# 4 12.3919 -5.7014 -30.4335 44.8770 -4.0610 -3.4210
# 5 -20.1274 -12.8318 -19.9393 -4.0610 54.6571 4.4508
# 6 -18.0677 -15.2340 -11.1940 -3.4210 4.4508 35.8484
#
#
#
# Elastic Compliance Matrix: (Units=1/GPa)
#
#
# Indices 1 2 3 4 5 6 
#
# 1 0.013021 -0.002895 -0.001992 -0.004769 0.002715 0.003918
# 2 -0.002895 0.011782 -0.001013 0.001968 0.001211 0.003269
# 3 -0.001992 -0.001013 0.011184 0.008512 0.003543 0.002431
# 4 -0.004769 0.001968 0.008512 0.030231 0.003771 0.003507
# 5 0.002715 0.001211 0.003543 0.003771 0.021093 0.000731
# 6 0.003918 0.003269 0.002431 0.003507 0.000731 0.032262
#
#
# Mechanical properties :
#
#
# Convention : Reuss Voigt Hill
#
# Bulk Modulus (GPa) = 41.34063 54.53016 47.93539
# Shear Modulus (GPa) = 35.85917 43.76298 39.81108
#
# Velocity S-wave (km/s) = 3.71664 4.10586 3.91609
# Velocity P-wave (km/s) = 5.86028 6.59418 6.23803
#
# Compressibility (1/GPa) = 0.02418928
#
# Stress axis : x y z
#
# Youngs Moduli (GPa) = 76.79967 84.87563 89.41314
#
# Poissons Ratio (x) = 0.24568 0.17808
# Poissons Ratio (y) = 0.22230 0.09054
# Poissons Ratio (z) = 0.15296 0.08594
#
# Static dielectric constant tensor:
#      x y z
#    x 2.177340 0.062490 -0.018300 
#    y 0.062490 2.322580 -0.066740 
#    z -0.018300 -0.066740 2.124450 
# 
# From -- ./inp_files/323796.got.cif
#   From: 2010.05.17/outbox.cif.g08.bks.cpg/sg2_162_cif.got.tgz:323796.got - 2010.06.03 11:33:40.
