data_PCOD9037854
_publ_section_title
;
Structure prediction by ZEFSAII (Michael W. Deem and Ramdas Pophale) SiO2 
 PCOD9037854
Probable space group: P -1
;
_chemical_formula_sum "Si O2"
_cell_formula_units_Z 12
_cell_length_a 16.943079
_cell_length_b 7.602731
_cell_length_c 7.315635
_cell_angle_alpha 125.551410
_cell_angle_beta 72.960699
_cell_angle_gamma 140.275959
_cell_volume 467.952531
_symmetry_space_group_name_H-M "P -1"
_symmetry_group_IT_number 2
_symmetry_cell_setting 'triclinic'
loop_
_space_group_symop_operation_xyz
x,y,z
-x,-y,-z
loop_
_atom_site_type_symbol
_atom_site_label
_atom_site_fract_x
_atom_site_fract_y
_atom_site_fract_z
Si Si1 0.597463 0.649460 0.362384
Si Si2 0.924937 0.224482 0.133935
Si Si3 0.182752 0.567256 0.285423
Si Si4 0.703911 0.421239 0.141172
Si Si5 0.313056 0.947696 0.761588
Si Si6 0.086954 0.975484 0.371326
O O1 0.500000 0.500000 0.500000
O O2 0.599421 0.398384 0.162882
O O3 0.731266 0.040908 0.570845
O O4 0.567956 0.729312 0.246850
O O5 0.029680 0.310614 0.240936
O O6 0.008213 0.602265 0.253000
O O7 0.786350 0.048019 0.170251
O O8 0.900787 0.029320 0.856525
O O9 0.241330 0.632741 0.483910
O O10 0.222014 0.494173 0.044664
O O11 0.672864 0.140273 0.107378
O O12 0.790604 0.734165 0.411526
O O13 0.000000 0.000000 0.500000
#
# Coordination Sequence:
#
# PCOD9037854 Si02
#       6
#     2   2   2   2   2   2
#     4  10  26  48  65  92 131 170 224 282 320 368
#     4  11  19  37  62  99 141 164 209 262 312 404
#     4  10  23  41  64 100 135 164 217 268 312 400
#     4  12  22  43  69  94 133 176 207 273 333 372
#     4  10  24  41  67 101 129 171 224 255 323 408
#     4  11  19  32  63 100 132 171 206 251 329 392
#
# _framework density 25.643626999999999
#
# number of rings (size 3 to 8) (size 9 to 14) (size 15 to 20)
#    1.000    0.333    5.000    1.500    0.000    2.667 
#    0.000    3.333    0.000    0.000    0.000    0.000 
#    0.000    0.000    0.000    0.000    0.000    0.000 
#
# Total GULP energy -66973.781999 kJ/mol
# GULP energy per Si atom -5581.148500 kJ/mol
# Density = 2.558526 g / cm^3
# Si number density = 25.643627 Si / 1000 Ang^3
#
#
#
# Elastic Constant Matrix: (Units=GPa)
#
#
# Indices 1 2 3 4 5 6 
#
# 1 58.6521 18.5070 41.2009 2.6064 -0.9069 -1.7342
# 2 18.5070 84.3880 29.3264 -15.4520 -10.7403 -5.6059
# 3 41.2009 29.3264 155.7617 -7.7380 8.6689 -9.4339
# 4 2.6064 -15.4520 -7.7380 45.1002 -7.2378 0.7554
# 5 -0.9069 -10.7403 8.6689 -7.2378 42.7458 6.2619
# 6 -1.7342 -5.6059 -9.4339 0.7554 6.2619 26.8916
#
#
#
# Elastic Compliance Matrix: (Units=1/GPa)
#
#
# Indices 1 2 3 4 5 6 
#
# 1 0.022126 -0.003636 -0.005423 -0.003394 0.000257 -0.001198
# 2 -0.003636 0.015025 -0.001793 0.005821 0.004906 0.000963
# 3 -0.005423 -0.001793 0.008545 0.000700 -0.002599 0.002860
# 4 -0.003394 0.005821 0.000700 0.025406 0.005667 -0.000793
# 5 0.000257 0.004906 -0.002599 0.005667 0.027046 -0.006329
# 6 -0.001198 0.000963 0.002860 -0.000793 -0.006329 0.039809
#
#
# Mechanical properties :
#
#
# Convention : Reuss Voigt Hill
#
# Bulk Modulus (GPa) = 41.68157 52.98561 47.33359
# Shear Modulus (GPa) = 29.82255 36.93202 33.37728
#
# Velocity S-wave (km/s) = 3.41392 3.79912 3.61166
# Velocity P-wave (km/s) = 5.64174 6.32072 5.99086
#
# Compressibility (1/GPa) = 0.02399142
#
# Stress axis : x y z
#
# Youngs Moduli (GPa) = 45.19538 66.55700 117.03072
#
# Poissons Ratio (x) = 0.24200 0.63472
# Poissons Ratio (y) = 0.16433 0.20979
# Poissons Ratio (z) = 0.24512 0.11931
#
# Static dielectric constant tensor:
#      x y z
#    x 2.508240 0.081510 0.111250 
#    y 0.081510 2.128420 0.057640 
#    z 0.111250 0.057640 2.026080 
# 
# From -- ./inp_files/226961.got.cif
#   From: 2010.05.17/outbox.cif.g08.bks.cpg/sg2_114_cif.got.tgz:226961.got - 2010.06.03 11:33:40.
