data_PCOD9037274
_publ_section_title
;
Structure prediction by ZEFSAII (Michael W. Deem and Ramdas Pophale) SiO2 
 PCOD9037274
Probable space group: P -1
;
_chemical_formula_sum "Si O2"
_cell_formula_units_Z 14
_cell_length_a 15.960327
_cell_length_b 11.000910
_cell_length_c 13.067204
_cell_angle_alpha 131.783496
_cell_angle_beta 155.629133
_cell_angle_gamma 46.207490
_cell_volume 678.405739
_symmetry_space_group_name_H-M "P -1"
_symmetry_group_IT_number 2
_symmetry_cell_setting 'triclinic'
loop_
_space_group_symop_operation_xyz
x,y,z
-x,-y,-z
loop_
_atom_site_type_symbol
_atom_site_label
_atom_site_fract_x
_atom_site_fract_y
_atom_site_fract_z
Si Si1 0.061037 0.344757 0.898279
Si Si2 0.488640 0.317549 0.427495
Si Si3 0.220233 0.531085 0.540726
Si Si4 0.333599 0.179469 0.384863
Si Si5 0.014406 0.285140 0.414363
Si Si6 0.957929 0.101190 0.800000
Si Si7 0.368795 0.453161 0.924135
O O1 0.936112 0.411150 0.695112
O O2 0.995587 0.189096 0.786315
O O3 0.313212 0.283123 0.136917
O O4 0.000000 0.500000 0.000000
O O5 0.500000 0.500000 0.500000
O O6 0.407700 0.280450 0.429594
O O7 0.720386 0.194503 0.616430
O O8 0.281074 0.324765 0.495216
O O9 0.092489 0.628815 0.550635
O O10 0.442634 0.579779 0.802867
O O11 0.500000 0.000000 0.500000
O O12 0.123903 0.135641 0.086002
O O13 0.249246 0.310567 0.687507
O O14 0.838123 0.390371 0.196556
O O15 0.016358 0.094177 0.297645
O O16 0.500000 0.500000 0.000000
#
# Coordination Sequence:
#
# PCOD9037274 Si02
#       7
#     2   2   2   2   2   2   2
#     4  11  21  42  64  92 128 170 214 263 329 382
#     4  11  21  39  64  87 127 174 210 258 326 386
#     4  11  21  40  66  93 129 166 216 262 324 386
#     4  11  24  40  65 100 129 165 218 277 324 380
#     4  10  23  40  64  95 126 168 209 261 328 387
#     4  11  23  41  64  93 128 167 216 265 323 389
#     4   9  21  41  64  86 129 169 206 255 325 387
#
# _framework density 20.636619
#
# number of rings (size 3 to 8) (size 9 to 14) (size 15 to 20)
#    0.000    1.429    4.286    0.857    0.000   12.571 
#    0.000    2.857    0.000    0.000    0.000    0.000 
#    0.000    0.000    0.000    0.000    0.000    0.000 
#
# Total GULP energy -78026.886590 kJ/mol
# GULP energy per Si atom -5573.349042 kJ/mol
# Density = 2.058965 g / cm^3
# Si number density = 20.636619 Si / 1000 Ang^3
#
#
#
# Elastic Constant Matrix: (Units=GPa)
#
#
# Indices 1 2 3 4 5 6 
#
# 1 41.2950 26.2980 67.8613 0.6841 4.8848 -2.1626
# 2 26.2980 114.9047 56.9152 13.5509 9.5965 -3.5480
# 3 67.8613 56.9152 161.9668 -13.1225 14.6750 -17.9039
# 4 0.6841 13.5509 -13.1225 50.1263 10.8236 1.1416
# 5 4.8848 9.5965 14.6750 10.8236 31.9366 -1.9743
# 6 -2.1626 -3.5480 -17.9039 1.1416 -1.9743 24.1011
#
#
#
# Elastic Compliance Matrix: (Units=1/GPa)
#
#
# Indices 1 2 3 4 5 6 
#
# 1 0.095173 0.000573 -0.044661 -0.014633 0.009324 -0.023096
# 2 0.000573 0.011391 -0.004774 -0.004310 0.000044 -0.001611
# 3 -0.044661 -0.004774 0.030035 0.011185 -0.008313 0.016391
# 4 -0.014633 -0.004310 0.011185 0.026364 -0.010277 0.004271
# 5 0.009324 0.000044 -0.008313 -0.010277 0.037064 -0.001809
# 6 -0.023096 -0.001611 0.016391 0.004271 -0.001809 0.051008
#
#
# Mechanical properties :
#
#
# Convention : Reuss Voigt Hill
#
# Bulk Modulus (GPa) = 25.72275 68.92395 47.32335
# Shear Modulus (GPa) = 13.82287 32.37224 23.09755
#
# Velocity S-wave (km/s) = 2.59090 3.96495 3.34915
# Velocity P-wave (km/s) = 4.63055 7.37784 6.15932
#
# Compressibility (1/GPa) = 0.03887609
#
# Stress axis : x y z
#
# Youngs Moduli (GPa) = 10.50713 87.78555 33.29419
#
# Poissons Ratio (x) = -0.05033 1.48695
# Poissons Ratio (y) = -0.00602 0.15896
# Poissons Ratio (z) = 0.46926 0.41912
#
# Static dielectric constant tensor:
#      x y z
#    x 1.707200 0.009010 -0.015220 
#    y 0.009010 1.724420 -0.007690 
#    z -0.015220 -0.007690 1.800290 
# 
# From -- ./inp_files/93299.got.cif
#   From: 2010.05.17/outbox.cif.g08.bks.cpg/sg2_47_cif.got.tgz:93299.got - 2010.06.03 11:33:40.
