data_PCOD9037233
_publ_section_title
;
Structure prediction by ZEFSAII (Michael W. Deem and Ramdas Pophale) SiO2 
 PCOD9037233
Probable space group: P -1
;
_chemical_formula_sum "Si O2"
_cell_formula_units_Z 16
_cell_length_a 8.929861
_cell_length_b 14.754986
_cell_length_c 11.532722
_cell_angle_alpha 92.066270
_cell_angle_beta 96.198899
_cell_angle_gamma 27.661667
_cell_volume 695.457445
_symmetry_space_group_name_H-M "P -1"
_symmetry_group_IT_number 2
_symmetry_cell_setting 'triclinic'
loop_
_space_group_symop_operation_xyz
x,y,z
-x,-y,-z
loop_
_atom_site_type_symbol
_atom_site_label
_atom_site_fract_x
_atom_site_fract_y
_atom_site_fract_z
Si Si1 0.632262 0.839900 0.111190
Si Si2 0.325315 0.996340 0.470413
Si Si3 0.739149 0.793241 0.863146
Si Si4 0.455252 0.435858 0.807999
Si Si5 0.922385 0.142611 0.040536
Si Si6 0.570334 0.743969 0.669465
Si Si7 0.291391 0.338344 0.688034
Si Si8 0.313758 0.689060 0.711234
O O1 0.750196 0.699858 0.200834
O O2 0.556732 0.977355 0.168038
O O3 0.827021 0.740159 0.003570
O O4 0.264055 0.011202 0.050103
O O5 0.327073 0.938333 0.586856
O O6 0.524472 0.825035 0.391606
O O7 0.500000 0.000000 0.500000
O O8 0.973560 0.192818 0.390677
O O9 0.621599 0.760720 0.800791
O O10 0.066877 0.647371 0.816356
O O11 0.490413 0.323080 0.735338
O O12 0.540385 0.481437 0.748013
O O13 0.654032 0.323978 0.938371
O O14 0.817854 0.207827 0.168770
O O15 0.000000 0.000000 0.000000
O O16 0.469682 0.693826 0.666301
O O17 0.927103 0.560111 0.631444
#
# Coordination Sequence:
#
# PCOD9037233 Si02
#       8
#     2   2   2   2   2   2   2   2
#     4  11  21  38  64  95 137 170 225 268 328 390
#     4  12  24  49  74  92 129 175 225 276 331 388
#     4  10  23  40  63  98 132 177 222 268 325 400
#     4  11  23  41  67  97 138 177 216 267 338 394
#     4  12  22  39  64  98 136 180 213 274 333 390
#     4  11  26  41  68  97 134 173 223 272 332 379
#     4  11  23  43  67  97 127 171 228 265 332 394
#     4  12  25  43  64 100 134 172 224 270 330 394
#
# _framework density 23.006439
#
# number of rings (size 3 to 8) (size 9 to 14) (size 15 to 20)
#    0.000    0.750    3.750    4.125    1.750    2.000 
#    0.000    5.000    0.000    0.000    0.000    0.000 
#    0.000    0.000    0.000    0.000    0.000    0.000 
#
# Total GULP energy -89539.892283 kJ/mol
# GULP energy per Si atom -5596.243268 kJ/mol
# Density = 2.295408 g / cm^3
# Si number density = 23.006439 Si / 1000 Ang^3
#
#
#
# Elastic Constant Matrix: (Units=GPa)
#
#
# Indices 1 2 3 4 5 6 
#
# 1 96.2284 0.4361 21.4690 -0.3950 5.6570 21.0178
# 2 0.4361 45.0601 18.7634 -3.2336 8.0274 20.4663
# 3 21.4690 18.7634 83.1832 -21.0921 1.7439 10.3499
# 4 -0.3950 -3.2336 -21.0921 45.1363 11.0575 5.5635
# 5 5.6570 8.0274 1.7439 11.0575 36.5461 -6.1972
# 6 21.0178 20.4663 10.3499 5.5635 -6.1972 37.3272
#
#
#
# Elastic Compliance Matrix: (Units=1/GPa)
#
#
# Indices 1 2 3 4 5 6 
#
# 1 0.014516 0.008944 -0.003199 0.002745 -0.007229 -0.013800
# 2 0.008944 0.042456 -0.005325 0.009011 -0.018481 -0.031250
# 3 -0.003199 -0.005325 0.016183 0.007700 -0.001638 -0.001186
# 4 0.002745 0.009011 0.007700 0.032107 -0.015187 -0.015928
# 5 -0.007229 -0.018481 -0.001638 -0.015187 0.041245 0.023769
# 6 -0.013800 -0.031250 -0.001186 -0.015928 0.023769 0.058343
#
#
# Mechanical properties :
#
#
# Convention : Reuss Voigt Hill
#
# Bulk Modulus (GPa) = 13.51443 33.97875 23.74659
# Shear Modulus (GPa) = 21.86523 36.05548 28.96035
#
# Velocity S-wave (km/s) = 3.08619 3.96307 3.55180
# Velocity P-wave (km/s) = 4.31120 5.97851 5.21195
#
# Compressibility (1/GPa) = 0.07399496
#
# Stress axis : x y z
#
# Youngs Moduli (GPa) = 68.89176 23.55387 61.79374
#
# Poissons Ratio (x) = -0.21068 0.19770
# Poissons Ratio (y) = -0.61620 0.32903
# Poissons Ratio (z) = 0.22041 0.12542
#
# Static dielectric constant tensor:
#      x y z
#    x 1.916310 0.067240 -0.015380 
#    y 0.067240 1.920530 0.016650 
#    z -0.015380 0.016650 1.884650 
# 
# From -- ./inp_files/399120.got.cif
#   From: 2010.05.17/outbox.cif.g08.bks.cpg/sg2_200_cif.got.tgz:399120.got - 2010.06.03 11:33:40.
