data_PCOD9037003
_publ_section_title
;
Structure prediction by ZEFSAII (Michael W. Deem and Ramdas Pophale) SiO2 
 PCOD9037003
Probable space group: P -1
;
_chemical_formula_sum "Si O2"
_cell_formula_units_Z 16
_cell_length_a 16.884410
_cell_length_b 12.073525
_cell_length_c 8.595187
_cell_angle_alpha 99.523190
_cell_angle_beta 108.021402
_cell_angle_gamma 141.795662
_cell_volume 741.263467
_symmetry_space_group_name_H-M "P -1"
_symmetry_group_IT_number 2
_symmetry_cell_setting 'triclinic'
loop_
_space_group_symop_operation_xyz
x,y,z
-x,-y,-z
loop_
_atom_site_type_symbol
_atom_site_label
_atom_site_fract_x
_atom_site_fract_y
_atom_site_fract_z
Si Si1 0.248661 0.990854 0.123361
Si Si2 0.973595 0.576557 0.607325
Si Si3 0.884186 0.554106 0.984028
Si Si4 0.566198 0.322024 0.606242
Si Si5 0.250221 0.265948 0.691264
Si Si6 0.909776 0.698143 0.357309
Si Si7 0.319765 0.845777 0.420254
Si Si8 0.371341 0.365499 0.133768
O O1 0.446214 0.179518 0.341620
O O2 0.277666 0.151993 0.118607
O O3 0.144968 0.798753 0.880004
O O4 0.098467 0.817787 0.130960
O O5 0.959600 0.670187 0.514665
O O6 0.789519 0.333474 0.541137
O O7 0.000000 0.500000 0.500000
O O8 0.756863 0.482467 0.780397
O O9 0.817362 0.347813 0.851870
O O10 0.847922 0.552387 0.135610
O O11 0.607715 0.498205 0.720344
O O12 0.409551 0.074627 0.563404
O O13 0.228048 0.372432 0.679002
O O14 0.429162 0.436760 0.753822
O O15 0.267101 0.269434 0.888307
O O16 0.079594 0.982261 0.472952
O O17 0.500000 0.000000 0.500000
#
# Coordination Sequence:
#
# PCOD9037003 Si02
#       8
#     2   2   2   2   2   2   2   2
#     4  11  25  43  66 100 136 178 227 288 341 407
#     4  11  26  42  73 104 137 179 234 287 345 417
#     4  10  23  43  70  95 136 181 226 279 341 418
#     4  11  23  42  68  96 136 181 232 274 347 403
#     4  10  23  39  68  93 143 176 222 285 348 406
#     4  11  22  45  67 101 135 183 226 281 352 402
#     4   9  23  45  65  96 136 179 227 280 339 414
#     4  11  22  42  62 102 131 177 232 285 334 410
#
# _framework density 21.584768
#
# number of rings (size 3 to 8) (size 9 to 14) (size 15 to 20)
#    0.000    1.500    2.500    1.125    5.250    4.500 
#    0.000    2.500    0.000    0.000    0.000    0.000 
#    0.000    0.000    0.000    0.000    0.000    0.000 
#
# Total GULP energy -89284.409985 kJ/mol
# GULP energy per Si atom -5580.275624 kJ/mol
# Density = 2.153564 g / cm^3
# Si number density = 21.584768 Si / 1000 Ang^3
#
#
#
# Elastic Constant Matrix: (Units=GPa)
#
#
# Indices 1 2 3 4 5 6 
#
# 1 85.8044 13.1570 39.9429 -10.2992 6.6781 -4.9714
# 2 13.1570 56.9548 1.5894 10.8327 -2.4271 -2.1175
# 3 39.9429 1.5894 61.2738 2.4134 14.0713 7.2698
# 4 -10.2992 10.8327 2.4134 29.7550 -8.1442 1.1412
# 5 6.6781 -2.4271 14.0713 -8.1442 39.0654 -1.9192
# 6 -4.9714 -2.1175 7.2698 1.1412 -1.9192 23.7238
#
#
#
# Elastic Compliance Matrix: (Units=1/GPa)
#
#
# Indices 1 2 3 4 5 6 
#
# 1 0.022197 -0.006467 -0.017011 0.012428 0.004969 0.009091
# 2 -0.006467 0.020858 0.004477 -0.010571 -0.001438 -0.000473
# 3 -0.017011 0.004477 0.032062 -0.012807 -0.011687 -0.013319
# 4 0.012428 -0.010571 -0.012807 0.045804 0.011593 0.004320
# 5 0.004969 -0.001438 -0.011687 0.011593 0.031605 0.006493
# 6 0.009091 -0.000473 -0.013319 0.004320 0.006493 0.048414
#
#
# Mechanical properties :
#
#
# Convention : Reuss Voigt Hill
#
# Bulk Modulus (GPa) = 26.94272 34.82351 30.88312
# Shear Modulus (GPa) = 19.89558 28.46507 24.18033
#
# Velocity S-wave (km/s) = 3.03931 3.63541 3.35064
# Velocity P-wave (km/s) = 4.98256 5.81292 5.41368
#
# Compressibility (1/GPa) = 0.03711577
#
# Stress axis : x y z
#
# Youngs Moduli (GPa) = 45.05185 47.94219 31.18998
#
# Poissons Ratio (x) = 0.31004 0.53057
# Poissons Ratio (y) = 0.29135 -0.13965
# Poissons Ratio (z) = 0.76637 -0.21466
#
# Static dielectric constant tensor:
#      x y z
#    x 1.799800 -0.051940 0.023150 
#    y -0.051940 1.794560 -0.010120 
#    z 0.023150 -0.010120 1.811310 
# 
# From -- ./inp_files/332194.got.cif
#   From: 2010.05.17/outbox.cif.g08.bks.cpg/sg2_167_cif.got.tgz:332194.got - 2010.06.03 11:33:40.
