data_PCOD9037364
_publ_section_title
;
Structure prediction by ZEFSAII (Michael W. Deem and Ramdas Pophale) SiO2 
 PCOD9037364
Probable space group: P -1
;
_chemical_formula_sum "Si O2"
_cell_formula_units_Z 15
_cell_length_a 5.993197
_cell_length_b 13.271855
_cell_length_c 11.271086
_cell_angle_alpha 131.080638
_cell_angle_beta 112.639870
_cell_angle_gamma 63.631300
_cell_volume 599.687799
_symmetry_space_group_name_H-M "P -1"
_symmetry_group_IT_number 2
_symmetry_cell_setting 'triclinic'
loop_
_space_group_symop_operation_xyz
x,y,z
-x,-y,-z
loop_
_atom_site_type_symbol
_atom_site_label
_atom_site_fract_x
_atom_site_fract_y
_atom_site_fract_z
Si Si1 0.931391 0.660840 0.570284
Si Si2 0.685764 0.665891 0.887014
Si Si3 0.500000 0.000000 0.500000
Si Si4 0.968368 0.754382 0.380701
Si Si5 0.162709 0.137374 0.099944
Si Si6 0.760901 0.508656 0.114742
Si Si7 0.482738 0.601060 0.362574
Si Si8 0.320886 0.901879 0.132557
O O1 0.008442 0.703825 0.489269
O O2 0.009318 0.757533 0.757439
O O3 0.627848 0.690964 0.535118
O O4 0.000000 0.500000 0.500000
O O5 0.684137 0.772853 0.865635
O O6 0.615058 0.528779 0.717431
O O7 0.979256 0.608575 0.943345
O O8 0.496451 0.750929 0.012551
O O9 0.787709 0.905978 0.458453
O O10 0.403167 0.951214 0.312127
O O11 0.826903 0.651613 0.212133
O O12 0.243379 0.715661 0.349625
O O13 0.327821 0.011177 0.113123
O O14 0.971819 0.098218 0.937611
O O15 0.690727 0.527110 0.252564
O O16 0.500000 0.500000 0.000000
#
# Coordination Sequence:
#
# PCOD9037364 Si02
#       8
#     2   2   1   2   2   2   2   2
#     4  11  21  42  71 104 144 177 230 288 350 414
#     4  11  23  42  72 104 136 184 232 289 356 411
#     4  12  26  50  72  98 140 192 236 282 350 424
#     4  10  24  43  66 103 138 186 229 286 350 414
#     4  11  24  46  69 108 140 181 236 291 343 417
#     4  10  23  40  66 100 139 179 235 289 346 418
#     4  10  23  42  67 106 138 180 225 296 349 413
#     4  11  26  47  73  99 145 185 234 290 346 417
#
# _framework density 25.013014999999999
#
# number of rings (size 3 to 8) (size 9 to 14) (size 15 to 20)
#    0.000    1.333    1.333    4.400    5.600    4.267 
#    2.400    3.333    0.000    0.000    0.000    0.000 
#    0.000    0.000    0.000    0.000    0.000    0.000 
#
# Total GULP energy -83514.442571 kJ/mol
# GULP energy per Si atom -5567.629505 kJ/mol
# Density = 2.495608 g / cm^3
# Si number density = 25.013015 Si / 1000 Ang^3
#
#
#
# Elastic Constant Matrix: (Units=GPa)
#
#
# Indices 1 2 3 4 5 6 
#
# 1 73.1039 19.4215 23.6103 -1.5762 4.4853 -24.9545
# 2 19.4215 75.5597 30.7514 9.2428 -11.7907 -20.9601
# 3 23.6103 30.7514 130.6189 -22.8456 -0.7160 -18.1793
# 4 -1.5762 9.2428 -22.8456 45.6732 -11.8369 -6.9757
# 5 4.4853 -11.7907 -0.7160 -11.8369 28.1947 0.4255
# 6 -24.9545 -20.9601 -18.1793 -6.9757 0.4255 40.4320
#
#
#
# Elastic Compliance Matrix: (Units=1/GPa)
#
#
# Indices 1 2 3 4 5 6 
#
# 1 0.018238 -0.002129 -0.001279 0.000994 -0.003554 0.009787
# 2 -0.002129 0.018275 -0.003563 -0.002939 0.006567 0.005982
# 3 -0.001279 -0.003563 0.010371 0.006814 0.001789 0.003183
# 4 0.000994 -0.002939 0.006814 0.029948 0.011250 0.007202
# 5 -0.003554 0.006567 0.001789 0.011250 0.043495 0.003498
# 6 0.009787 0.005982 0.003183 0.007202 0.003498 0.036511
#
#
# Mechanical properties :
#
#
# Convention : Reuss Voigt Hill
#
# Bulk Modulus (GPa) = 30.35611 47.42766 38.89188
# Shear Modulus (GPa) = 27.50865 36.55993 32.03429
#
# Velocity S-wave (km/s) = 3.31988 3.82728 3.58258
# Velocity P-wave (km/s) = 5.18247 6.20751 5.71800
#
# Compressibility (1/GPa) = 0.03294230
#
# Stress axis : x y z
#
# Youngs Moduli (GPa) = 54.83031 54.71825 96.42664
#
# Poissons Ratio (x) = 0.11648 0.12333
# Poissons Ratio (y) = 0.11672 0.34359
# Poissons Ratio (z) = 0.07013 0.19497
#
# Static dielectric constant tensor:
#      x y z
#    x 2.010730 -0.013260 0.039470 
#    y -0.013260 2.080390 -0.071870 
#    z 0.039470 -0.071870 2.121340 
# 
# From -- ./inp_files/367180.got.cif
#   From: 2010.05.17/outbox.cif.g08.bks.cpg/sg2_184_cif.got.tgz:367180.got - 2010.06.03 11:33:40.
