data_PCOD9037220
_publ_section_title
;
Structure prediction by ZEFSAII (Michael W. Deem and Ramdas Pophale) SiO2 
 PCOD9037220
Probable space group: P -1
;
_chemical_formula_sum "Si O2"
_cell_formula_units_Z 16
_cell_length_a 15.114884
_cell_length_b 26.922460
_cell_length_c 7.778739
_cell_angle_alpha 139.952109
_cell_angle_beta 129.477995
_cell_angle_gamma 21.202516
_cell_volume 694.100396
_symmetry_space_group_name_H-M "P -1"
_symmetry_group_IT_number 2
_symmetry_cell_setting 'triclinic'
loop_
_space_group_symop_operation_xyz
x,y,z
-x,-y,-z
loop_
_atom_site_type_symbol
_atom_site_label
_atom_site_fract_x
_atom_site_fract_y
_atom_site_fract_z
Si Si1 0.405537 0.993696 0.230678
Si Si2 0.160877 0.981404 0.011959
Si Si3 0.436379 0.374612 0.899636
Si Si4 0.051708 0.378963 0.254397
Si Si5 0.311519 0.921644 0.416531
Si Si6 0.699710 0.828466 0.680763
Si Si7 0.270443 0.745431 0.375701
Si Si8 0.439441 0.612016 0.605882
O O1 0.280927 0.988988 0.117265
O O2 0.500000 0.000000 0.500000
O O3 0.213996 0.161865 0.326794
O O4 0.666236 0.810559 0.970919
O O5 0.270596 0.906637 0.141799
O O6 0.221302 0.866387 0.680479
O O7 0.856161 0.182542 0.176884
O O8 0.575267 0.207279 0.647941
O O9 0.602810 0.327914 0.851265
O O10 0.163768 0.532901 0.888027
O O11 0.395603 0.426303 0.181976
O O12 0.062594 0.345844 0.376801
O O13 0.000000 0.500000 0.500000
O O14 0.516613 0.867250 0.502287
O O15 0.014179 0.123102 0.632860
O O16 0.500000 0.000000 0.000000
O O17 0.436616 0.612711 0.394225
O O18 0.500000 0.500000 0.500000
#
# Coordination Sequence:
#
# PCOD9037220 Si02
#       8
#     2   2   2   2   2   2   2   2
#     4  11  24  42  67  98 129 183 224 270 341 403
#     4  11  22  43  69  98 131 172 233 272 329 412
#     4  12  24  42  70  98 136 177 221 279 340 394
#     4  11  24  42  63  96 136 175 226 279 331 404
#     4  11  20  42  69  97 132 173 228 280 329 398
#     4  10  23  40  63  95 136 175 222 277 333 394
#     4  11  24  43  72 102 125 179 232 268 335 413
#     4  11  26  43  66 102 140 169 215 291 340 389
#
# _framework density 23.051421000000001
#
# number of rings (size 3 to 8) (size 9 to 14) (size 15 to 20)
#    0.000    1.000    5.000    1.875    3.500    2.500 
#    0.000    1.250    0.000    0.000    0.000    0.000 
#    0.000    0.000    0.000    0.000    0.000    0.000 
#
# Total GULP energy -89311.333130 kJ/mol
# GULP energy per Si atom -5581.958321 kJ/mol
# Density = 2.299895 g / cm^3
# Si number density = 23.051421 Si / 1000 Ang^3
#
#
#
# Elastic Constant Matrix: (Units=GPa)
#
#
# Indices 1 2 3 4 5 6 
#
# 1 133.5803 46.7378 10.6504 15.7811 18.8680 26.5617
# 2 46.7378 129.7542 3.8705 -0.3248 13.0994 21.6092
# 3 10.6504 3.8705 53.5801 3.2420 15.6932 15.5938
# 4 15.7811 -0.3248 3.2420 19.2234 6.1032 9.0620
# 5 18.8680 13.0994 15.6932 6.1032 33.8734 6.2356
# 6 26.5617 21.6092 15.5938 9.0620 6.2356 47.6056
#
#
#
# Elastic Compliance Matrix: (Units=1/GPa)
#
#
# Indices 1 2 3 4 5 6 
#
# 1 0.010217 -0.002912 0.000292 -0.006146 -0.003058 -0.002904
# 2 -0.002912 0.009671 0.001590 0.005073 -0.003060 -0.003851
# 3 0.000292 0.001590 0.023771 0.002909 -0.010879 -0.007800
# 4 -0.006146 0.005073 0.002909 0.064842 -0.009559 -0.010917
# 5 -0.003058 -0.003060 -0.010879 -0.009559 0.038540 0.003431
# 6 -0.002904 -0.003851 -0.007800 -0.010917 0.003431 0.028558
#
#
# Mechanical properties :
#
#
# Convention : Reuss Voigt Hill
#
# Bulk Modulus (GPa) = 24.03789 48.82575 36.43182
# Shear Modulus (GPa) = 26.10623 37.18421 31.64522
#
# Velocity S-wave (km/s) = 3.36895 4.02070 3.70916
# Velocity P-wave (km/s) = 5.05803 6.54079 5.84660
#
# Compressibility (1/GPa) = 0.04160098
#
# Stress axis : x y z
#
# Youngs Moduli (GPa) = 97.87371 103.39894 42.06771
#
# Poissons Ratio (x) = 0.30109 -0.01230
# Poissons Ratio (y) = 0.28500 -0.06690
# Poissons Ratio (z) = -0.02861 -0.16443
#
# Static dielectric constant tensor:
#      x y z
#    x 2.565570 0.052800 0.035830 
#    y 0.052800 1.899760 -0.038790 
#    z 0.035830 -0.038790 1.894870 
# 
# From -- ./inp_files/202525.got.cif
#   From: 2010.05.17/outbox.cif.g08.bks.cpg/sg2_102_cif.got.tgz:202525.got - 2010.06.03 11:33:40.
