data_PCOD9037521
_publ_section_title
;
Structure prediction by ZEFSAII (Michael W. Deem and Ramdas Pophale) SiO2 
 PCOD9037521
Probable space group: P -1
;
_chemical_formula_sum "Si O2"
_cell_formula_units_Z 15
_cell_length_a 12.363720
_cell_length_b 11.346412
_cell_length_c 5.326694
_cell_angle_alpha 107.579919
_cell_angle_beta 111.544709
_cell_angle_gamma 61.458226
_cell_volume 603.200600
_symmetry_space_group_name_H-M "P -1"
_symmetry_group_IT_number 2
_symmetry_cell_setting 'triclinic'
loop_
_space_group_symop_operation_xyz
x,y,z
-x,-y,-z
loop_
_atom_site_type_symbol
_atom_site_label
_atom_site_fract_x
_atom_site_fract_y
_atom_site_fract_z
Si Si1 0.149244 0.404117 0.822337
Si Si2 0.727259 0.056493 0.410861
Si Si3 0.782999 0.295109 0.444010
Si Si4 0.973720 0.887127 0.757635
Si Si5 0.474628 0.864459 0.323464
Si Si6 0.002623 0.299098 0.955101
Si Si7 0.500000 0.000000 0.000000
Si Si8 0.303708 0.395125 0.453455
O O1 0.242792 0.389480 0.129380
O O2 0.043697 0.558438 0.848551
O O3 0.075116 0.313165 0.777912
O O4 0.217639 0.382653 0.601891
O O5 0.712576 0.196484 0.359392
O O6 0.666480 0.095864 0.665958
O O7 0.876399 0.962674 0.502132
O O8 0.648680 0.977987 0.172467
O O9 0.697885 0.454463 0.429313
O O10 0.890661 0.227508 0.282613
O O11 0.874093 0.284833 0.753446
O O12 0.914250 0.818687 0.863490
O O13 0.000000 0.000000 0.000000
O O14 0.514395 0.858572 0.066672
O O15 0.563819 0.733824 0.470500
O O16 0.500000 0.000000 0.500000
#
# Coordination Sequence:
#
# PCOD9037521 Si02
#       8
#     2   2   2   2   2   2   1   2
#     4  10  24  42  72 109 152 192 242 315 371 462
#     4  11  26  45  71 105 144 192 253 305 374 453
#     4  11  25  46  71 108 146 193 245 311 388 451
#     4  12  25  43  72 110 148 192 242 315 388 453
#     4  10  26  47  70 103 137 195 252 303 370 435
#     4  10  23  40  68 108 149 190 243 296 390 449
#     4  10  26  48  72  98 142 194 248 308 364 444
#     4  11  25  47  75 106 152 198 255 309 380 445
#
# _framework density 24.867349999999998
#
# number of rings (size 3 to 8) (size 9 to 14) (size 15 to 20)
#    0.000    1.333    2.667    0.400   11.200    2.133 
#    0.000    0.667    0.000    0.000    0.000    0.000 
#    0.000    0.000    0.000    0.000    0.000    0.000 
#
# Total GULP energy -83633.921552 kJ/mol
# GULP energy per Si atom -5575.594770 kJ/mol
# Density = 2.481075 g / cm^3
# Si number density = 24.867350 Si / 1000 Ang^3
#
#
#
# Elastic Constant Matrix: (Units=GPa)
#
#
# Indices 1 2 3 4 5 6 
#
# 1 95.1850 36.2509 18.4125 4.7476 -4.7766 27.3785
# 2 36.2509 164.6154 27.5384 -15.2179 4.0568 3.9608
# 3 18.4125 27.5384 67.2855 -4.4966 -1.0879 -0.2128
# 4 4.7476 -15.2179 -4.4966 41.8737 4.3637 -0.7666
# 5 -4.7766 4.0568 -1.0879 4.3637 43.7861 -1.6948
# 6 27.3785 3.9608 -0.2128 -0.7666 -1.6948 44.1378
#
#
#
# Elastic Compliance Matrix: (Units=1/GPa)
#
#
# Indices 1 2 3 4 5 6 
#
# 1 0.015134 -0.002951 -0.003166 -0.003487 0.001840 -0.009128
# 2 -0.002951 0.007338 -0.002016 0.002942 -0.001300 0.001164
# 3 -0.003166 -0.002016 0.016660 0.001436 0.000200 0.002257
# 4 -0.003487 0.002942 0.001436 0.025865 -0.003108 0.002236
# 5 0.001840 -0.001300 0.000200 -0.003108 0.023467 -0.000177
# 6 -0.009128 0.001164 0.002257 0.002236 -0.000177 0.028257
#
#
# Mechanical properties :
#
#
# Convention : Reuss Voigt Hill
#
# Bulk Modulus (GPa) = 43.73457 54.60994 49.17226
# Shear Modulus (GPa) = 35.55954 42.28512 38.92233
#
# Velocity S-wave (km/s) = 3.78560 4.12810 3.96055
# Velocity P-wave (km/s) = 6.06077 6.68803 6.38211
#
# Compressibility (1/GPa) = 0.02286521
#
# Stress axis : x y z
#
# Youngs Moduli (GPa) = 66.07659 136.27712 60.02436
#
# Poissons Ratio (x) = 0.40219 0.19002
# Poissons Ratio (y) = 0.19501 0.12103
# Poissons Ratio (z) = 0.20917 0.27479
#
# Static dielectric constant tensor:
#      x y z
#    x 1.905500 -0.002000 0.055660 
#    y -0.002000 1.949980 -0.013870 
#    z 0.055660 -0.013870 2.113720 
# 
# From -- ./inp_files/71402.got.cif
#   From: 2010.05.17/outbox.cif.g08.bks.cpg/sg2_36_cif.got.tgz:71402.got - 2010.06.03 11:33:40.
