data_PCOD9037985
_publ_section_title
;
Structure prediction by ZEFSAII (Michael W. Deem and Ramdas Pophale) SiO2 
 PCOD9037985
Probable space group: P -1
;
_chemical_formula_sum "Si O2"
_cell_formula_units_Z 16
_cell_length_a 7.495705
_cell_length_b 6.832219
_cell_length_c 20.560354
_cell_angle_alpha 56.799535
_cell_angle_beta 119.844739
_cell_angle_gamma 94.722145
_cell_volume 737.510626
_symmetry_space_group_name_H-M "P -1"
_symmetry_group_IT_number 2
_symmetry_cell_setting 'triclinic'
loop_
_space_group_symop_operation_xyz
x,y,z
-x,-y,-z
loop_
_atom_site_type_symbol
_atom_site_label
_atom_site_fract_x
_atom_site_fract_y
_atom_site_fract_z
Si Si1 0.728976 0.714742 0.296030
Si Si2 0.800732 0.383157 0.902397
Si Si3 0.279784 0.130139 0.995521
Si Si4 0.508941 0.754418 0.868302
Si Si5 0.437850 0.602002 0.574843
Si Si6 0.742075 0.705739 0.710207
Si Si7 0.796154 0.215211 0.630647
Si Si8 0.784650 0.546652 0.193045
O O1 0.689975 0.548638 0.377923
O O2 0.712923 0.593217 0.245433
O O3 0.963548 0.761495 0.329913
O O4 0.554854 0.973282 0.220532
O O5 0.721720 0.580701 0.907921
O O6 0.714021 0.524864 0.794743
O O7 0.052202 0.279660 0.956527
O O8 0.712935 0.150060 0.942757
O O9 0.270120 0.209419 0.904524
O O10 0.455666 0.213752 0.054600
O O11 0.326620 0.630922 0.834127
O O12 0.544379 0.751317 0.617068
O O13 0.635742 0.418147 0.607526
O O14 0.289248 0.752356 0.464887
O O15 0.962713 0.570593 0.740055
O O16 0.777616 0.954350 0.698606
#
# Coordination Sequence:
#
# PCOD9037985 Si02
#       8
#     2   2   2   2   2   2   2   2
#     4  12  25  44  67  99 136 175 216 272 329 392
#     4  10  23  41  65  95 129 171 225 268 327 388
#     4  10  23  42  62  93 131 173 220 276 322 380
#     4  12  22  39  63  94 127 174 222 265 327 386
#     4  11  24  43  72  97 135 170 216 275 329 392
#     4  11  21  44  66  95 133 174 215 271 329 390
#     4  11  24  45  69 102 129 172 221 268 334 394
#     4  11  24  40  64  91 135 172 218 270 324 388
#
# _framework density 21.694603000000001
#
# number of rings (size 3 to 8) (size 9 to 14) (size 15 to 20)
#    0.000    1.000    2.500    4.500    0.000    3.000 
#    2.250    0.625    0.000    0.000    0.000    0.000 
#    0.000    0.000    0.000    0.000    0.000    0.000 
#
# Total GULP energy -89505.561947 kJ/mol
# GULP energy per Si atom -5594.097622 kJ/mol
# Density = 2.164523 g / cm^3
# Si number density = 21.694603 Si / 1000 Ang^3
#
#
#
# Elastic Constant Matrix: (Units=GPa)
#
#
# Indices 1 2 3 4 5 6 
#
# 1 78.6332 22.5767 6.4030 -1.4152 6.4961 2.3097
# 2 22.5767 74.1829 17.1348 6.9123 6.5883 4.3063
# 3 6.4030 17.1348 59.1620 3.5777 5.1563 3.5359
# 4 -1.4152 6.9123 3.5777 36.4683 6.5535 4.1677
# 5 6.4961 6.5883 5.1563 6.5535 28.3241 1.2459
# 6 2.3097 4.3063 3.5359 4.1677 1.2459 38.8423
#
#
#
# Elastic Compliance Matrix: (Units=1/GPa)
#
#
# Indices 1 2 3 4 5 6 
#
# 1 0.014205 -0.004194 -0.000176 0.001898 -0.002668 -0.000482
# 2 -0.004194 0.016060 -0.003869 -0.002466 -0.001461 -0.000867
# 3 -0.000176 -0.003869 0.018335 -0.000547 -0.002222 -0.001100
# 4 0.001898 -0.002466 -0.000547 0.029491 -0.006465 -0.002747
# 5 -0.002668 -0.001461 -0.002222 -0.006465 0.038158 -0.000007
# 6 -0.000482 -0.000867 -0.001100 -0.002747 -0.000007 0.026265
#
#
# Mechanical properties :
#
#
# Convention : Reuss Voigt Hill
#
# Bulk Modulus (GPa) = 31.13262 33.80079 32.46671
# Shear Modulus (GPa) = 29.46375 31.78452 30.62413
#
# Velocity S-wave (km/s) = 3.68926 3.83180 3.76120
# Velocity P-wave (km/s) = 5.70342 5.93220 5.81894
#
# Compressibility (1/GPa) = 0.03212065
#
# Stress axis : x y z
#
# Youngs Moduli (GPa) = 70.39992 62.26563 54.54073
#
# Poissons Ratio (x) = 0.26116 0.00960
# Poissons Ratio (y) = 0.29528 0.21103
# Poissons Ratio (z) = 0.01239 0.24092
#
# Static dielectric constant tensor:
#      x y z
#    x 1.790490 -0.000750 0.018260 
#    y -0.000750 1.771250 0.007300 
#    z 0.018260 0.007300 1.773830 
# 
# From -- ./inp_files/357117.got.cif
#   From: 2010.05.17/outbox.cif.g08.bks.cpg/sg2_179_cif.got.tgz:357117.got - 2010.06.03 11:33:40.
