data_PCOD9037864
_publ_section_title
;
Structure prediction by ZEFSAII (Michael W. Deem and Ramdas Pophale) SiO2 
 PCOD9037864
Probable space group: P -1
;
_chemical_formula_sum "Si O2"
_cell_formula_units_Z 15
_cell_length_a 6.673531
_cell_length_b 8.415030
_cell_length_c 17.042725
_cell_angle_alpha 122.401176
_cell_angle_beta 84.814758
_cell_angle_gamma 121.454666
_cell_volume 665.118400
_symmetry_space_group_name_H-M "P -1"
_symmetry_group_IT_number 2
_symmetry_cell_setting 'triclinic'
loop_
_space_group_symop_operation_xyz
x,y,z
-x,-y,-z
loop_
_atom_site_type_symbol
_atom_site_label
_atom_site_fract_x
_atom_site_fract_y
_atom_site_fract_z
Si Si1 0.183125 0.746831 0.091865
Si Si2 0.000000 0.500000 0.500000
Si Si3 0.632576 0.006018 0.417798
Si Si4 0.370213 0.091182 0.976027
Si Si5 0.828056 0.752921 0.399407
Si Si6 0.678981 0.632411 0.641209
Si Si7 0.794611 0.104971 0.699410
Si Si8 0.842667 0.838596 0.861133
O O1 0.449017 0.806435 0.076589
O O2 0.149263 0.755676 0.187220
O O3 0.138865 0.930362 0.103946
O O4 0.000000 0.500000 0.000000
O O5 0.112741 0.755762 0.533892
O O6 0.203406 0.488540 0.434257
O O7 0.500000 0.000000 0.500000
O O8 0.665250 0.801349 0.362779
O O9 0.472048 0.986902 0.346147
O O10 0.334812 0.246353 0.078965
O O11 0.102667 0.906899 0.902581
O O12 0.500000 0.000000 0.000000
O O13 0.619871 0.532288 0.396366
O O14 0.012590 0.739792 0.333857
O O15 0.000000 0.000000 0.500000
O O16 0.754426 0.691316 0.746067
O O17 0.778469 0.874468 0.659973
#
# Coordination Sequence:
#
# PCOD9037864 Si02
#       8
#     2   1   2   2   2   2   2   2
#     4  10  23  41  64 103 132 173 220 277 338 398
#     4  12  24  40  70  94 134 174 226 274 336 390
#     4  12  25  44  64  99 133 177 224 280 338 396
#     4   9  19  41  67  92 129 169 216 271 333 399
#     4  12  25  45  66  96 136 176 232 279 334 403
#     4  11  25  43  69 100 133 185 228 275 343 395
#     4  11  26  44  69  97 140 178 229 278 340 409
#     4   9  21  43  65  95 133 175 219 274 332 408
#
# _framework density 22.552375999999999
#
# number of rings (size 3 to 8) (size 9 to 14) (size 15 to 20)
#    0.000    1.333    4.000    0.000    5.600    1.600 
#    7.200    0.000    0.000    0.000    0.000    0.000 
#    0.000    0.000    0.000    0.000    0.000    0.000 
#
# Total GULP energy -83522.605546 kJ/mol
# GULP energy per Si atom -5568.173703 kJ/mol
# Density = 2.250105 g / cm^3
# Si number density = 22.552376 Si / 1000 Ang^3
#
#
#
# Elastic Constant Matrix: (Units=GPa)
#
#
# Indices 1 2 3 4 5 6 
#
# 1 88.7446 10.8301 45.1736 -4.7822 -2.0862 20.7432
# 2 10.8301 82.8723 29.0521 7.8196 -9.3260 29.7233
# 3 45.1736 29.0521 130.5589 -5.8850 4.9366 13.8064
# 4 -4.7822 7.8196 -5.8850 27.4985 -0.5698 -5.3959
# 5 -2.0862 -9.3260 4.9366 -0.5698 29.0105 -10.2719
# 6 20.7432 29.7233 13.8064 -5.3959 -10.2719 46.2118
#
#
#
# Elastic Compliance Matrix: (Units=1/GPa)
#
#
# Indices 1 2 3 4 5 6 
#
# 1 0.015122 0.002282 -0.005058 -0.000416 0.000291 -0.006728
# 2 0.002282 0.018609 -0.004097 -0.008115 0.002368 -0.012191
# 3 -0.005058 -0.004097 0.010397 0.002741 -0.002872 0.001481
# 4 -0.000416 -0.008115 0.002741 0.041101 0.001113 0.009634
# 5 0.000291 0.002368 -0.002872 0.001113 0.038562 0.007906
# 6 -0.006728 -0.012191 0.001481 0.009634 0.007906 0.034941
#
#
# Mechanical properties :
#
#
# Convention : Reuss Voigt Hill
#
# Bulk Modulus (GPa) = 32.91388 52.47639 42.69514
# Shear Modulus (GPa) = 27.38159 35.01881 31.20020
#
# Velocity S-wave (km/s) = 3.48822 3.94480 3.72352
# Velocity P-wave (km/s) = 5.55425 6.63836 6.12036
#
# Compressibility (1/GPa) = 0.03038232
#
# Stress axis : x y z
#
# Youngs Moduli (GPa) = 66.13028 53.73636 96.18461
#
# Poissons Ratio (x) = -0.12264 0.48653
# Poissons Ratio (y) = -0.15093 0.39404
# Poissons Ratio (z) = 0.33450 0.22014
#
# Static dielectric constant tensor:
#      x y z
#    x 1.921670 -0.037580 0.011610 
#    y -0.037580 2.028280 0.002940 
#    z 0.011610 0.002940 1.836790 
# 
# From -- ./inp_files/548414.got.cif
#   From: 2010.05.17/outbox.cif.g08.bks.cpg/sg2_275_cif.got.tgz:548414.got - 2010.06.03 11:33:40.
