data_PCOD9037416
_publ_section_title
;
Structure prediction by ZEFSAII (Michael W. Deem and Ramdas Pophale) SiO2 
 PCOD9037416
Probable space group: P -1
;
_chemical_formula_sum "Si O2"
_cell_formula_units_Z 12
_cell_length_a 8.551279
_cell_length_b 5.274448
_cell_length_c 18.897017
_cell_angle_alpha 89.090588
_cell_angle_beta 31.178070
_cell_angle_gamma 82.101932
_cell_volume 428.378285
_symmetry_space_group_name_H-M "P -1"
_symmetry_group_IT_number 2
_symmetry_cell_setting 'triclinic'
loop_
_space_group_symop_operation_xyz
x,y,z
-x,-y,-z
loop_
_atom_site_type_symbol
_atom_site_label
_atom_site_fract_x
_atom_site_fract_y
_atom_site_fract_z
Si Si1 0.264441 0.534541 0.693518
Si Si2 0.819285 0.243616 0.935763
Si Si3 0.657252 0.009323 0.850744
Si Si4 0.354963 0.364991 0.341281
Si Si5 0.370753 0.175170 0.831618
Si Si6 0.736285 0.143860 0.442097
O O1 0.418564 0.725236 0.678329
O O2 0.559551 0.281683 0.577663
O O3 0.208764 0.634549 0.634934
O O4 0.967864 0.460188 0.840995
O O5 0.783750 0.066926 0.879056
O O6 0.048466 0.177471 0.915241
O O7 0.469975 0.255803 0.097544
O O8 0.363984 0.188272 0.920178
O O9 0.929508 0.045417 0.692191
O O10 0.506416 0.579514 0.244445
O O11 0.000000 0.500000 0.500000
O O12 0.405446 0.103076 0.277439
O O13 0.500000 0.000000 0.500000
#
# Coordination Sequence:
#
# PCOD9037416 Si02
#       6
#     2   2   2   2   2   2
#     4  10  23  40  66  97 139 180 229 291 345 412
#     4  10  23  45  67 105 134 184 233 283 349 410
#     4  11  23  42  73  97 140 183 231 286 347 420
#     4  11  24  41  69 101 142 185 230 286 350 415
#     4  11  25  45  69 102 142 181 235 288 344 412
#     4  11  22  38  65  99 137 174 229 286 345 407
#
# _framework density 28.012623000000001
#
# number of rings (size 3 to 8) (size 9 to 14) (size 15 to 20)
#    0.000    1.333    1.667    3.000    4.667    2.000 
#    0.000   10.833    0.000    0.000    0.000    0.000 
#    0.000    0.000    0.000    0.000    0.000    0.000 
#
# Total GULP energy -66968.647164 kJ/mol
# GULP energy per Si atom -5580.720597 kJ/mol
# Density = 2.794887 g / cm^3
# Si number density = 28.012623 Si / 1000 Ang^3
#
#
#
# Elastic Constant Matrix: (Units=GPa)
#
#
# Indices 1 2 3 4 5 6 
#
# 1 211.8079 34.1334 48.5918 -11.7993 -21.0434 5.0051
# 2 34.1334 91.6220 53.5072 -13.1318 -5.0059 16.1116
# 3 48.5918 53.5072 150.6857 -19.7517 -28.8240 13.0702
# 4 -11.7993 -13.1318 -19.7517 43.4241 11.4150 1.7581
# 5 -21.0434 -5.0059 -28.8240 11.4150 49.1117 -7.1955
# 6 5.0051 16.1116 13.0702 1.7581 -7.1955 52.1093
#
#
#
# Elastic Compliance Matrix: (Units=1/GPa)
#
#
# Indices 1 2 3 4 5 6 
#
# 1 0.005318 -0.001396 -0.000921 0.000165 0.001611 0.000369
# 2 -0.001396 0.015189 -0.004813 0.003009 -0.003144 -0.003891
# 3 -0.000921 -0.004813 0.009718 0.001568 0.004409 -0.000305
# 4 0.000165 0.003009 0.001568 0.026188 -0.005221 -0.002944
# 5 0.001611 -0.003144 0.004409 -0.005221 0.025023 0.003343
# 6 0.000369 -0.003891 -0.000305 -0.002944 0.003343 0.020995
#
#
# Mechanical properties :
#
#
# Convention : Reuss Voigt Hill
#
# Bulk Modulus (GPa) = 62.64077 80.73116 71.68596
# Shear Modulus (GPa) = 40.97929 50.12123 45.55026
#
# Velocity S-wave (km/s) = 3.82892 4.23453 4.03682
# Velocity P-wave (km/s) = 6.47747 7.26570 6.88288
#
# Compressibility (1/GPa) = 0.01596404
#
# Stress axis : x y z
#
# Youngs Moduli (GPa) = 188.03278 65.83766 102.90510
#
# Poissons Ratio (x) = 0.09194 0.09480
# Poissons Ratio (y) = 0.26258 0.49525
# Poissons Ratio (z) = 0.17322 0.31686
#
# Static dielectric constant tensor:
#      x y z
#    x 2.347910 -0.123570 0.076260 
#    y -0.123570 2.347970 0.241170 
#    z 0.076260 0.241170 2.372430 
# 
# From -- ./inp_files/25666.got.cif
#   From: 2010.05.17/outbox.cif.g08.bks.cpg/sg2_13_cif.got.tgz:25666.got - 2010.06.03 11:33:40.
