data_PCOD9037487
_publ_section_title
;
Structure prediction by ZEFSAII (Michael W. Deem and Ramdas Pophale) SiO2 
 PCOD9037487
Probable space group: P -1
;
_chemical_formula_sum "Si O2"
_cell_formula_units_Z 16
_cell_length_a 11.488237
_cell_length_b 8.926365
_cell_length_c 14.360375
_cell_angle_alpha 126.198464
_cell_angle_beta 138.906121
_cell_angle_gamma 72.052658
_cell_volume 754.633335
_symmetry_space_group_name_H-M "P -1"
_symmetry_group_IT_number 2
_symmetry_cell_setting 'triclinic'
loop_
_space_group_symop_operation_xyz
x,y,z
-x,-y,-z
loop_
_atom_site_type_symbol
_atom_site_label
_atom_site_fract_x
_atom_site_fract_y
_atom_site_fract_z
Si Si1 0.767571 0.028160 0.403883
Si Si2 0.586670 0.822792 0.509432
Si Si3 0.448734 0.315663 0.971047
Si Si4 0.519796 0.591131 0.763925
Si Si5 0.382251 0.107911 0.235775
Si Si6 0.905396 0.415730 0.518149
Si Si7 0.058644 0.138257 0.389733
Si Si8 0.180499 0.806288 0.878936
O O1 0.899275 0.980992 0.543204
O O2 0.571546 0.042112 0.330940
O O3 0.859447 0.232968 0.491777
O O4 0.710056 0.852028 0.231838
O O5 0.456453 0.616465 0.327291
O O6 0.639635 0.815458 0.647096
O O7 0.767199 0.842954 0.563978
O O8 0.500000 0.000000 0.500000
O O9 0.410231 0.362694 0.071397
O O10 0.629552 0.235560 0.052128
O O11 0.500000 0.500000 0.000000
O O12 0.595325 0.742820 0.782208
O O13 0.300380 0.575929 0.629694
O O14 0.220705 0.924029 0.041421
O O15 0.025803 0.336740 0.484300
O O16 0.024892 0.605784 0.711108
O O17 0.882319 0.066947 0.192326
#
# Coordination Sequence:
#
# PCOD9037487 Si02
#       8
#     2   2   2   2   2   2   2   2
#     4  10  23  40  67  98 138 168 211 269 329 403
#     4  12  24  44  69  92 128 180 230 261 319 394
#     4  11  23  39  67 104 132 171 216 267 336 390
#     4  11  23  43  70  95 131 172 217 275 321 399
#     4  10  25  43  66  95 129 179 224 261 319 390
#     4  11  22  40  67 102 131 166 210 271 348 379
#     4  12  22  41  67  99 131 172 212 274 327 386
#     4  11  23  40  66  98 136 165 216 271 330 386
#
# _framework density 21.202351
#
# number of rings (size 3 to 8) (size 9 to 14) (size 15 to 20)
#    0.000    1.000    3.750    3.375    3.500    2.000 
#    0.000    0.000    0.000    1.500    0.000    0.000 
#    0.000    0.000    0.000    0.000    0.000    0.000 
#
# Total GULP energy -89368.630129 kJ/mol
# GULP energy per Si atom -5585.539383 kJ/mol
# Density = 2.115409 g / cm^3
# Si number density = 21.202351 Si / 1000 Ang^3
#
#
#
# Elastic Constant Matrix: (Units=GPa)
#
#
# Indices 1 2 3 4 5 6 
#
# 1 88.1132 35.7584 46.8914 7.9486 -15.7503 11.7785
# 2 35.7584 124.8339 40.2939 -11.2403 -9.5782 -0.6568
# 3 46.8914 40.2939 109.4774 6.9324 -10.8398 22.5569
# 4 7.9486 -11.2403 6.9324 34.7728 -3.2169 -0.5232
# 5 -15.7503 -9.5782 -10.8398 -3.2169 36.6613 -7.2332
# 6 11.7785 -0.6568 22.5569 -0.5232 -7.2332 31.6849
#
#
#
# Elastic Compliance Matrix: (Units=1/GPa)
#
#
# Indices 1 2 3 4 5 6 
#
# 1 0.016548 -0.003154 -0.004920 -0.003463 0.004168 -0.001820
# 2 -0.003154 0.010717 -0.003675 0.005142 0.001694 0.004482
# 3 -0.004920 -0.003675 0.014535 -0.003168 -0.000796 -0.008829
# 4 -0.003463 0.005142 -0.003168 0.032164 0.002687 0.004794
# 5 0.004168 0.001694 -0.000796 0.002687 0.030715 0.006109
# 6 -0.001820 0.004482 -0.008829 0.004794 0.006109 0.040090
#
#
# Mechanical properties :
#
#
# Convention : Reuss Voigt Hill
#
# Bulk Modulus (GPa) = 54.63814 63.14576 58.89195
# Shear Modulus (GPa) = 28.67511 33.92250 31.29880
#
# Velocity S-wave (km/s) = 3.68156 4.00426 3.84630
# Velocity P-wave (km/s) = 6.62553 7.15723 6.89650
#
# Compressibility (1/GPa) = 0.01830223
#
# Stress axis : x y z
#
# Youngs Moduli (GPa) = 60.43087 93.31172 68.79823
#
# Poissons Ratio (x) = 0.29426 0.33850
# Poissons Ratio (y) = 0.19057 0.25284
# Poissons Ratio (z) = 0.29733 0.34293
#
# Static dielectric constant tensor:
#      x y z
#    x 1.805200 0.045200 -0.006770 
#    y 0.045200 1.824070 0.015610 
#    z -0.006770 0.015610 1.755630 
# 
# From -- ./inp_files/186143.got.cif
#   From: 2010.05.17/outbox.cif.g08.bks.cpg/sg2_94_cif.got.tgz:186143.got - 2010.06.03 11:33:40.
