data_PCOD9037343
_publ_section_title
;
Structure prediction by ZEFSAII (Michael W. Deem and Ramdas Pophale) SiO2 
 PCOD9037343
Probable space group: P -1
;
_chemical_formula_sum "Si O2"
_cell_formula_units_Z 16
_cell_length_a 5.268490
_cell_length_b 7.930120
_cell_length_c 15.540551
_cell_angle_alpha 95.530787
_cell_angle_beta 86.096474
_cell_angle_gamma 109.828929
_cell_volume 607.506667
_symmetry_space_group_name_H-M "P -1"
_symmetry_group_IT_number 2
_symmetry_cell_setting 'triclinic'
loop_
_space_group_symop_operation_xyz
x,y,z
-x,-y,-z
loop_
_atom_site_type_symbol
_atom_site_label
_atom_site_fract_x
_atom_site_fract_y
_atom_site_fract_z
Si Si1 0.176250 0.913780 0.931630
Si Si2 0.070076 0.099757 0.392225
Si Si3 0.215552 0.661254 0.053539
Si Si4 0.283171 0.260423 0.850707
Si Si5 0.942250 0.260241 0.557049
Si Si6 0.375269 0.640373 0.609862
Si Si7 0.586667 0.372973 0.683626
Si Si8 0.015141 0.709140 0.758937
O O1 0.015877 0.761437 0.860084
O O2 0.313449 0.070559 0.868127
O O3 0.328498 0.817589 0.986049
O O4 0.000000 0.000000 0.000000
O O5 0.900531 0.204357 0.454902
O O6 0.377571 0.191134 0.424060
O O7 0.065328 0.152190 0.295296
O O8 0.954719 0.892230 0.410713
O O9 0.463278 0.618410 0.090812
O O10 0.009410 0.726931 0.120830
O O11 0.000000 0.500000 0.000000
O O12 0.345518 0.295994 0.751303
O O13 0.125721 0.468832 0.571418
O O14 0.681764 0.236265 0.620028
O O15 0.550286 0.512117 0.623070
O O16 0.287679 0.705722 0.706046
O O17 0.825265 0.503978 0.742466
#
# Coordination Sequence:
#
# PCOD9037343 Si02
#       8
#     2   2   2   2   2   2   2   2
#     4  10  24  44  66  97 130 177 227 288 349 417
#     4  10  23  42  66 100 130 184 224 287 351 417
#     4  11  24  44  68  99 135 178 228 289 350 423
#     4  11  25  42  68  99 136 178 229 283 355 416
#     4  10  23  41  66  97 140 171 235 282 345 424
#     4  10  23  40  65  96 133 181 226 281 350 414
#     4  10  24  41  65  98 130 185 222 285 344 420
#     4  10  23  44  65  93 135 172 232 282 345 423
#
# _framework density 26.337159
#
# number of rings (size 3 to 8) (size 9 to 14) (size 15 to 20)
#    0.000    1.750    0.000    1.875    8.750    7.500 
#    9.000    2.500    0.000    0.000    0.000    0.000 
#    0.000    0.000    0.000    0.000    0.000    0.000 
#
# Total GULP energy -89294.420268 kJ/mol
# GULP energy per Si atom -5580.901267 kJ/mol
# Density = 2.627721 g / cm^3
# Si number density = 26.337159 Si / 1000 Ang^3
#
#
#
# Elastic Constant Matrix: (Units=GPa)
#
#
# Indices 1 2 3 4 5 6 
#
# 1 59.6269 2.2559 9.7164 9.1480 -8.4706 13.0119
# 2 2.2559 101.7794 15.8423 -8.6170 -4.6044 4.9194
# 3 9.7164 15.8423 129.5658 6.5021 -8.2991 9.5075
# 4 9.1480 -8.6170 6.5021 43.7151 -0.9357 -7.9682
# 5 -8.4706 -4.6044 -8.2991 -0.9357 37.2822 -3.3306
# 6 13.0119 4.9194 9.5075 -7.9682 -3.3306 20.7374
#
#
#
# Elastic Compliance Matrix: (Units=1/GPa)
#
#
# Indices 1 2 3 4 5 6 
#
# 1 0.021898 -0.000216 0.000158 -0.007513 0.003356 -0.016109
# 2 -0.000216 0.010282 -0.001232 0.002135 0.000931 -0.000769
# 3 0.000158 -0.001232 0.008371 -0.002279 0.001305 -0.004311
# 4 -0.007513 0.002135 -0.002279 0.028146 0.000194 0.016099
# 5 0.003356 0.000931 0.001305 0.000194 0.028145 0.001670
# 6 -0.016109 -0.000769 -0.004311 0.016099 0.001670 0.066943
#
#
# Mechanical properties :
#
#
# Convention : Reuss Voigt Hill
#
# Bulk Modulus (GPa) = 26.33494 38.51127 32.42310
# Shear Modulus (GPa) = 27.92974 37.89077 32.91026
#
# Velocity S-wave (km/s) = 3.26002 3.79711 3.53877
# Velocity P-wave (km/s) = 4.91845 5.82050 5.38838
#
# Compressibility (1/GPa) = 0.03797237
#
# Stress axis : x y z
#
# Youngs Moduli (GPa) = 45.66588 97.25947 119.45777
#
# Poissons Ratio (x) = 0.02097 -0.01891
# Poissons Ratio (y) = 0.00985 0.14718
# Poissons Ratio (z) = -0.00723 0.11983
#
# Static dielectric constant tensor:
#      x y z
#    x 2.223630 0.102970 0.154230 
#    y 0.102970 2.182710 0.076810 
#    z 0.154230 0.076810 2.139280 
# 
# From -- ./inp_files/47762.got.cif
#   From: 2010.05.17/outbox.cif.g08.bks.cpg/sg2_24_cif.got.tgz:47762.got - 2010.06.03 11:33:40.
