data_PCOD9037094
_publ_section_title
;
Structure prediction by ZEFSAII (Michael W. Deem and Ramdas Pophale) SiO2 
 PCOD9037094
Probable space group: P -1
;
_chemical_formula_sum "Si O2"
_cell_formula_units_Z 14
_cell_length_a 9.622659
_cell_length_b 19.611698
_cell_length_c 11.269529
_cell_angle_alpha 29.334885
_cell_angle_beta 141.481765
_cell_angle_gamma 128.351301
_cell_volume 635.508010
_symmetry_space_group_name_H-M "P -1"
_symmetry_group_IT_number 2
_symmetry_cell_setting 'triclinic'
loop_
_space_group_symop_operation_xyz
x,y,z
-x,-y,-z
loop_
_atom_site_type_symbol
_atom_site_label
_atom_site_fract_x
_atom_site_fract_y
_atom_site_fract_z
Si Si1 0.679864 0.062008 0.102824
Si Si2 0.667047 0.145578 0.400551
Si Si3 0.936765 0.305781 0.919803
Si Si4 0.629169 0.920570 0.523913
Si Si5 0.751191 0.584156 0.662540
Si Si6 0.039218 0.211829 0.387943
Si Si7 0.653495 0.587578 0.319122
O O1 0.755849 0.209848 0.907844
O O2 0.615860 0.033887 0.237694
O O3 0.903567 0.942824 0.398425
O O4 0.500000 0.000000 0.000000
O O5 0.613851 0.116526 0.545576
O O6 0.880199 0.207918 0.401666
O O7 0.692131 0.001235 0.560271
O O8 0.445057 0.263899 0.034635
O O9 0.183394 0.218260 0.176973
O O10 0.929046 0.305475 0.059945
O O11 0.858637 0.469186 0.581996
O O12 0.743081 0.728769 0.511862
O O13 0.724522 0.617610 0.454845
O O14 0.556302 0.496509 0.692198
O O15 0.000000 0.500000 0.000000
#
# Coordination Sequence:
#
# PCOD9037094 Si02
#       7
#     2   2   2   2   2   2   2
#     4  11  22  37  62  91 120 158 210 260 299 362
#     4  11  21  40  61  87 122 167 201 248 301 379
#     4  11  20  40  61  90 120 157 207 258 303 356
#     4  10  23  40  60  84 125 167 201 242 317 357
#     4  11  20  35  60  97 125 157 202 263 304 353
#     4  11  19  37  64  87 121 162 205 253 305 353
#     4  11  23  35  63  94 124 157 208 249 311 365
#
# _framework density 22.029620999999999
#
# number of rings (size 3 to 8) (size 9 to 14) (size 15 to 20)
#    0.000    1.143    5.714    2.571    2.000    0.571 
#    0.000    2.143    0.000    8.571    0.000    0.000 
#    0.000    0.000    0.000    0.000    0.000    0.000 
#
# Total GULP energy -78066.864505 kJ/mol
# GULP energy per Si atom -5576.204608 kJ/mol
# Density = 2.197948 g / cm^3
# Si number density = 22.029621 Si / 1000 Ang^3
#
#
#
# Elastic Constant Matrix: (Units=GPa)
#
#
# Indices 1 2 3 4 5 6 
#
# 1 107.8017 12.8672 -1.2123 -0.4105 5.6528 12.4010
# 2 12.8672 108.3094 7.2038 2.0547 0.4060 -12.5068
# 3 -1.2123 7.2038 54.0955 -21.8802 9.7575 -7.9064
# 4 -0.4105 2.0547 -21.8802 40.5049 -3.5595 9.8505
# 5 5.6528 0.4060 9.7575 -3.5595 19.2059 -5.7975
# 6 12.4010 -12.5068 -7.9064 9.8505 -5.7975 21.7834
#
#
#
# Elastic Compliance Matrix: (Units=1/GPa)
#
#
# Indices 1 2 3 4 5 6 
#
# 1 0.011173 -0.002668 0.001484 0.003018 -0.006588 -0.010472
# 2 -0.002668 0.010889 -0.002374 -0.003876 0.003977 0.009720
# 3 0.001484 -0.002374 0.026229 0.013767 -0.011779 -0.002049
# 4 0.003018 -0.003876 0.013767 0.035900 -0.006230 -0.016839
# 5 -0.006588 0.003977 -0.011779 -0.006230 0.065386 0.021978
# 6 -0.010472 0.009720 -0.002049 -0.016839 0.021978 0.070169
#
#
# Mechanical properties :
#
#
# Convention : Reuss Voigt Hill
#
# Bulk Modulus (GPa) = 24.28696 34.21379 29.25037
# Shear Modulus (GPa) = 20.78256 33.05537 26.91897
#
# Velocity S-wave (km/s) = 3.07480 3.87783 3.49942
# Velocity P-wave (km/s) = 4.86359 5.96780 5.44376
#
# Compressibility (1/GPa) = 0.04117436
#
# Stress axis : x y z
#
# Youngs Moduli (GPa) = 89.50188 91.83840 38.12579
#
# Poissons Ratio (x) = 0.24501 -0.05658
# Poissons Ratio (y) = 0.23877 0.09053
# Poissons Ratio (z) = -0.13283 0.21806
#
# Static dielectric constant tensor:
#      x y z
#    x 1.858470 0.019380 0.085520 
#    y 0.019380 1.831340 -0.052270 
#    z 0.085520 -0.052270 2.016630 
# 
# From -- ./inp_files/402985.got.cif
#   From: 2010.05.17/outbox.cif.g08.bks.cpg/sg2_202_cif.got.tgz:402985.got - 2010.06.03 11:33:40.
