data_PCOD9037603
_publ_section_title
;
Structure prediction by ZEFSAII (Michael W. Deem and Ramdas Pophale) SiO2 
 PCOD9037603
Probable space group: P -1
;
_chemical_formula_sum "Si O2"
_cell_formula_units_Z 14
_cell_length_a 11.056979
_cell_length_b 9.188816
_cell_length_c 18.114067
_cell_angle_alpha 143.305470
_cell_angle_beta 147.588030
_cell_angle_gamma 49.180050
_cell_volume 587.904438
_symmetry_space_group_name_H-M "P -1"
_symmetry_group_IT_number 2
_symmetry_cell_setting 'triclinic'
loop_
_space_group_symop_operation_xyz
x,y,z
-x,-y,-z
loop_
_atom_site_type_symbol
_atom_site_label
_atom_site_fract_x
_atom_site_fract_y
_atom_site_fract_z
Si Si1 0.763266 0.810396 0.408904
Si Si2 0.070500 0.765378 0.238085
Si Si3 0.183765 0.398448 0.268724
Si Si4 0.325565 0.550368 0.155566
Si Si5 0.521832 0.926370 0.896324
Si Si6 0.616478 0.192679 0.369400
Si Si7 0.270495 0.605502 0.888321
O O1 0.534190 0.696689 0.283863
O O2 0.835395 0.589610 0.305584
O O3 0.904460 0.960728 0.606595
O O4 0.715270 0.008306 0.402299
O O5 0.198619 0.600545 0.294199
O O6 0.175849 0.733629 0.198132
O O7 0.824542 0.621963 0.048152
O O8 0.345788 0.191595 0.244423
O O9 0.292817 0.534570 0.452167
O O10 0.921107 0.344214 0.130206
O O11 0.397874 0.346418 0.167302
O O12 0.331047 0.889195 0.719494
O O13 0.500000 0.000000 0.000000
O O14 0.671907 0.149378 0.028434
O O15 0.500000 0.500000 0.000000
#
# Coordination Sequence:
#
# PCOD9037603 Si02
#       7
#     2   2   2   2   2   2   2
#     4  11  23  44  71  97 137 182 232 282 343 413
#     4  10  23  40  70 101 130 182 227 283 346 406
#     4  10  23  43  71 101 135 176 238 285 338 407
#     4  11  23  44  65  99 141 175 226 285 344 412
#     4  12  25  43  66  97 142 180 224 285 352 405
#     4  10  23  45  70 100 133 182 233 286 337 412
#     4  12  25  44  68 103 136 183 229 283 348 413
#
# _framework density 23.813393999999999
#
# number of rings (size 3 to 8) (size 9 to 14) (size 15 to 20)
#    0.000    1.143    4.286    1.286    0.000    6.286 
#    2.571    1.429    0.000    0.000    0.000    0.000 
#    0.000    0.000    0.000    0.000    0.000    0.000 
#
# Total GULP energy -78125.422317 kJ/mol
# GULP energy per Si atom -5580.387308 kJ/mol
# Density = 2.375919 g / cm^3
# Si number density = 23.813394 Si / 1000 Ang^3
#
#
#
# Elastic Constant Matrix: (Units=GPa)
#
#
# Indices 1 2 3 4 5 6 
#
# 1 128.5617 15.5402 53.6286 1.7985 -6.2826 -10.7791
# 2 15.5402 31.8633 13.2353 6.9393 -4.1481 10.3396
# 3 53.6286 13.2353 150.1430 20.3106 -27.0625 -3.6393
# 4 1.7985 6.9393 20.3106 29.6175 -10.4360 -5.1626
# 5 -6.2826 -4.1481 -27.0625 -10.4360 34.5144 -7.5473
# 6 -10.7791 10.3396 -3.6393 -5.1626 -7.5473 33.5411
#
#
#
# Elastic Compliance Matrix: (Units=1/GPa)
#
#
# Indices 1 2 3 4 5 6 
#
# 1 0.010501 -0.006501 -0.003462 0.004708 0.001148 0.005986
# 2 -0.006501 0.043558 -0.000981 -0.014275 -0.005186 -0.018987
# 3 -0.003462 -0.000981 0.009579 -0.003933 0.005775 0.000923
# 4 0.004708 -0.014275 -0.003933 0.047134 0.013773 0.015841
# 5 0.001148 -0.005186 0.005775 0.013773 0.040264 0.013774
# 6 0.005986 -0.018987 0.000923 0.015841 0.013774 0.043229
#
#
# Mechanical properties :
#
#
# Convention : Reuss Voigt Hill
#
# Bulk Modulus (GPa) = 23.95414 52.81958 38.38686
# Shear Modulus (GPa) = 21.73253 34.74554 28.23903
#
# Velocity S-wave (km/s) = 3.02423 3.82393 3.44735
# Velocity P-wave (km/s) = 4.71970 6.45952 5.65690
#
# Compressibility (1/GPa) = 0.04174644
#
# Stress axis : x y z
#
# Youngs Moduli (GPa) = 95.23185 22.95812 104.39588
#
# Poissons Ratio (x) = 0.14926 0.36147
# Poissons Ratio (y) = 0.61914 0.10246
# Poissons Ratio (z) = 0.32974 0.02253
#
# Static dielectric constant tensor:
#      x y z
#    x 1.927370 -0.071680 0.013830 
#    y -0.071680 1.914010 -0.059610 
#    z 0.013830 -0.059610 2.005350 
# 
# From -- ./inp_files/183058.got.cif
#   From: 2010.05.17/outbox.cif.g08.bks.cpg/sg2_92_cif.got.tgz:183058.got - 2010.06.03 11:33:40.
