data_PCOD9037743
_publ_section_title
;
Structure prediction by ZEFSAII (Michael W. Deem and Ramdas Pophale) SiO2 
 PCOD9037743
Probable space group: P -1
;
_chemical_formula_sum "Si O2"
_cell_formula_units_Z 14
_cell_length_a 12.790849
_cell_length_b 8.533324
_cell_length_c 8.110353
_cell_angle_alpha 53.168819
_cell_angle_beta 74.691572
_cell_angle_gamma 59.307120
_cell_volume 608.154922
_symmetry_space_group_name_H-M "P -1"
_symmetry_group_IT_number 2
_symmetry_cell_setting 'triclinic'
loop_
_space_group_symop_operation_xyz
x,y,z
-x,-y,-z
loop_
_atom_site_type_symbol
_atom_site_label
_atom_site_fract_x
_atom_site_fract_y
_atom_site_fract_z
Si Si1 0.955451 0.250764 0.906951
Si Si2 0.587262 0.288082 0.704546
Si Si3 0.999424 0.222768 0.298517
Si Si4 0.256436 0.179839 0.146113
Si Si5 0.832905 0.663703 0.263963
Si Si6 0.297851 0.443497 0.350823
Si Si7 0.445978 0.332753 0.064006
O O1 0.822365 0.413154 0.796701
O O2 0.053914 0.305179 0.740863
O O3 0.967610 0.264143 0.091231
O O4 0.000000 0.000000 0.000000
O O5 0.500000 0.500000 0.500000
O O6 0.682185 0.368182 0.683179
O O7 0.644437 0.071196 0.705181
O O8 0.526687 0.241545 0.922543
O O9 0.130239 0.226312 0.260935
O O10 0.895321 0.418051 0.320385
O O11 0.000000 0.000000 0.500000
O O12 0.319343 0.340264 0.037831
O O13 0.224628 0.181505 0.965737
O O14 0.734065 0.697601 0.418449
O O15 0.413682 0.284710 0.293426
O O16 0.500000 0.500000 0.000000
#
# Coordination Sequence:
#
# PCOD9037743 Si02
#       7
#     2   2   2   2   2   2   2
#     4  11  22  37  61  97 133 164 207 263 320 388
#     4  11  24  44  66  90 123 170 223 267 315 379
#     4  11  23  40  66 101 132 169 210 250 319 406
#     4  11  22  42  67  92 126 170 210 265 323 378
#     4  11  22  40  65  95 129 168 209 251 320 405
#     4  11  22  40  62  89 129 169 205 269 325 364
#     4  10  23  41  62  90 123 162 217 269 311 362
#
# _framework density 23.02045
#
# number of rings (size 3 to 8) (size 9 to 14) (size 15 to 20)
#    0.000    1.143    0.000    8.571    0.000    2.286 
#    0.000    7.857    0.000    1.714    0.000    0.000 
#    0.000    0.000    0.000    0.000    0.000    0.000 
#
# Total GULP energy -77966.506505 kJ/mol
# GULP energy per Si atom -5569.036179 kJ/mol
# Density = 2.296805 g / cm^3
# Si number density = 23.020450 Si / 1000 Ang^3
#
#
#
# Elastic Constant Matrix: (Units=GPa)
#
#
# Indices 1 2 3 4 5 6 
#
# 1 140.7178 0.1052 24.7540 6.8647 -22.5071 8.0619
# 2 0.1052 52.4649 14.3126 13.8282 -9.2394 -7.6185
# 3 24.7540 14.3126 95.2244 12.8005 -26.1103 -18.4825
# 4 6.8647 13.8282 12.8005 38.0023 -10.9951 -3.9690
# 5 -22.5071 -9.2394 -26.1103 -10.9951 30.4700 3.0940
# 6 8.0619 -7.6185 -18.4825 -3.9690 3.0940 28.5238
#
#
#
# Elastic Compliance Matrix: (Units=1/GPa)
#
#
# Indices 1 2 3 4 5 6 
#
# 1 0.008486 0.000862 -0.001528 -0.000117 0.005562 -0.003778
# 2 0.000862 0.022234 -0.000893 -0.006417 0.003912 0.003799
# 3 -0.001528 -0.000893 0.015956 -0.000590 0.011122 0.009244
# 4 -0.000117 -0.006417 -0.000590 0.031530 0.008699 0.001381
# 5 0.005562 0.003912 0.011122 0.008699 0.050539 0.002408
# 6 -0.003778 0.003799 0.009244 0.001381 0.002408 0.043062
#
#
# Mechanical properties :
#
#
# Convention : Reuss Voigt Hill
#
# Bulk Modulus (GPa) = 22.95854 40.75008 31.85431
# Shear Modulus (GPa) = 26.39275 36.01490 31.20382
#
# Velocity S-wave (km/s) = 3.38966 3.95963 3.68568
# Velocity P-wave (km/s) = 5.03135 6.21651 5.65507
#
# Compressibility (1/GPa) = 0.04355678
#
# Stress axis : x y z
#
# Youngs Moduli (GPa) = 117.83664 44.97593 62.67184
#
# Poissons Ratio (x) = -0.03875 0.09577
# Poissons Ratio (y) = -0.10152 0.05599
# Poissons Ratio (z) = 0.18007 0.04018
#
# Static dielectric constant tensor:
#      x y z
#    x 1.632050 0.353260 -0.263090 
#    y 0.353260 1.494780 0.355290 
#    z -0.263090 0.355290 1.579280 
# 
# From -- ./inp_files/241925.got.cif
#   From: 2010.05.17/outbox.cif.g08.bks.cpg/sg2_121_cif.got.tgz:241925.got - 2010.06.03 11:33:40.
