data_PCOD9037184
_publ_section_title
;
Structure prediction by ZEFSAII (Michael W. Deem and Ramdas Pophale) SiO2 
 PCOD9037184
Probable space group: P -1
;
_chemical_formula_sum "Si O2"
_cell_formula_units_Z 16
_cell_length_a 13.161415
_cell_length_b 21.714729
_cell_length_c 9.749177
_cell_angle_alpha 66.018511
_cell_angle_beta 114.233872
_cell_angle_gamma 162.639673
_cell_volume 757.004422
_symmetry_space_group_name_H-M "P -1"
_symmetry_group_IT_number 2
_symmetry_cell_setting 'triclinic'
loop_
_space_group_symop_operation_xyz
x,y,z
-x,-y,-z
loop_
_atom_site_type_symbol
_atom_site_label
_atom_site_fract_x
_atom_site_fract_y
_atom_site_fract_z
Si Si1 0.479314 0.889234 0.663903
Si Si2 0.039906 0.909120 0.081681
Si Si3 0.387459 0.288714 0.214421
Si Si4 0.824492 0.855513 0.291764
Si Si5 0.323353 0.674523 0.119642
Si Si6 0.088013 0.530808 0.676617
Si Si7 0.372487 0.368596 0.398923
Si Si8 0.051666 0.770660 0.587351
O O1 0.311904 0.720887 0.691375
O O2 0.206178 0.784596 0.669967
O O3 0.799736 0.065556 0.785131
O O4 0.633719 0.006845 0.502327
O O5 0.954331 0.905139 0.170742
O O6 0.721434 0.733521 0.962766
O O7 0.354868 0.114845 0.977886
O O8 0.703682 0.419464 0.249314
O O9 0.428711 0.364219 0.291416
O O10 0.080706 0.061459 0.291077
O O11 0.447318 0.670430 0.230793
O O12 0.810183 0.787620 0.454564
O O13 0.235691 0.658961 0.229805
O O14 0.000000 0.500000 0.000000
O O15 0.000000 0.500000 0.500000
O O16 0.739229 0.592865 0.466711
O O17 0.129695 0.295552 0.326211
#
# Coordination Sequence:
#
# PCOD9037184 Si02
#       8
#     2   2   2   2   2   2   2   2
#     4  11  21  41  61  86 121 164 200 247 304 355
#     4  11  22  38  60  92 127 165 185 241 323 372
#     4  11  22  38  60  94 128 152 192 251 317 368
#     4  11  20  37  62  90 126 158 191 242 318 369
#     4  11  20  33  55  90 127 152 191 230 301 382
#     4  12  23  38  62  98 125 153 194 255 309 360
#     4  11  22  40  62  91 114 161 211 252 288 352
#     4  10  23  40  63  83 117 164 218 248 283 350
#
# _framework density 21.135940000000002
#
# number of rings (size 3 to 8) (size 9 to 14) (size 15 to 20)
#    0.000    1.000    3.750    4.875    0.000    3.000 
#    0.000    1.250    0.000    0.000    0.000    0.000 
#    0.000    0.000    0.000    0.000    0.000    0.000 
#
# Total GULP energy -89326.705706 kJ/mol
# GULP energy per Si atom -5582.919107 kJ/mol
# Density = 2.108783 g / cm^3
# Si number density = 21.135940 Si / 1000 Ang^3
#
#
#
# Elastic Constant Matrix: (Units=GPa)
#
#
# Indices 1 2 3 4 5 6 
#
# 1 170.4341 37.9348 43.0464 13.2542 -17.5245 53.0330
# 2 37.9348 42.5586 7.0382 -0.6033 -4.4684 26.6056
# 3 43.0464 7.0382 87.0237 11.0302 -13.0772 21.6445
# 4 13.2542 -0.6033 11.0302 24.5845 7.7857 9.8524
# 5 -17.5245 -4.4684 -13.0772 7.7857 27.4720 5.0912
# 6 53.0330 26.6056 21.6445 9.8524 5.0912 47.6645
#
#
#
# Elastic Compliance Matrix: (Units=1/GPa)
#
#
# Indices 1 2 3 4 5 6 
#
# 1 0.011409 -0.001842 -0.000509 -0.004547 0.010171 -0.011581
# 2 -0.001842 0.041873 0.004745 0.006927 0.010761 -0.026060
# 3 -0.000509 0.004745 0.016365 -0.006991 0.011950 -0.009345
# 4 -0.004547 0.006927 -0.006991 0.054597 -0.019683 -0.004816
# 5 0.010171 0.010761 0.011950 -0.019683 0.060566 -0.025150
# 6 -0.011581 -0.026060 -0.009345 -0.004816 -0.025150 0.056337
#
#
# Mechanical properties :
#
#
# Convention : Reuss Voigt Hill
#
# Bulk Modulus (GPa) = 13.43443 52.89504 33.16474
# Shear Modulus (GPa) = 19.14441 34.07735 26.61088
#
# Velocity S-wave (km/s) = 3.01288 4.01969 3.55214
# Velocity P-wave (km/s) = 4.29805 6.82820 5.70515
#
# Compressibility (1/GPa) = 0.07443561
#
# Stress axis : x y z
#
# Youngs Moduli (GPa) = 87.65003 23.88147 61.10433
#
# Poissons Ratio (x) = 0.04399 0.03112
# Poissons Ratio (y) = 0.16145 -0.28995
# Poissons Ratio (z) = 0.04464 -0.11332
#
# Static dielectric constant tensor:
#      x y z
#    x 1.791320 0.000980 0.043790 
#    y 0.000980 1.793640 -0.006170 
#    z 0.043790 -0.006170 1.785760 
# 
# From -- ./inp_files/269924.got.cif
#   From: 2010.05.17/outbox.cif.g08.bks.cpg/sg2_135_cif.got.tgz:269924.got - 2010.06.03 11:33:40.
