data_PCOD9037737
_publ_section_title
;
Structure prediction by ZEFSAII (Michael W. Deem and Ramdas Pophale) SiO2 
 PCOD9037737
Probable space group: P -1
;
_chemical_formula_sum "Si O2"
_cell_formula_units_Z 14
_cell_length_a 8.241289
_cell_length_b 13.292340
_cell_length_c 6.420882
_cell_angle_alpha 65.637896
_cell_angle_beta 63.904732
_cell_angle_gamma 92.815701
_cell_volume 552.108450
_symmetry_space_group_name_H-M "P -1"
_symmetry_group_IT_number 2
_symmetry_cell_setting 'triclinic'
loop_
_space_group_symop_operation_xyz
x,y,z
-x,-y,-z
loop_
_atom_site_type_symbol
_atom_site_label
_atom_site_fract_x
_atom_site_fract_y
_atom_site_fract_z
Si Si1 0.231659 0.072724 0.890383
Si Si2 0.934385 0.903930 0.438981
Si Si3 0.999011 0.217739 0.152421
Si Si4 0.438715 0.567918 0.662682
Si Si5 0.771029 0.556216 0.758850
Si Si6 0.847135 0.331076 0.773493
Si Si7 0.356867 0.802261 0.357220
O O1 0.441415 0.106766 0.823557
O O2 0.229192 0.084704 0.631858
O O3 0.117488 0.157506 0.981999
O O4 0.109977 0.947474 0.143584
O O5 0.884708 0.784452 0.695107
O O6 0.000000 0.000000 0.500000
O O7 0.794303 0.166478 0.428633
O O8 0.945304 0.307410 0.951266
O O9 0.500000 0.500000 0.500000
O O10 0.614477 0.603064 0.693985
O O11 0.383074 0.680505 0.528855
O O12 0.270527 0.473439 0.952136
O O13 0.743766 0.427949 0.788657
O O14 0.982283 0.620452 0.524420
O O15 0.709651 0.225691 0.819278
#
# Coordination Sequence:
#
# PCOD9037737 Si02
#       7
#     2   2   2   2   2   2   2
#     4  10  23  45  70  98 136 174 221 275 341 409
#     4   9  21  46  73  98 132 177 215 274 348 405
#     4  11  23  42  66 101 134 172 225 279 332 403
#     4  11  22  42  64  93 130 183 234 282 336 389
#     4  10  23  41  62  87 130 180 228 283 327 394
#     4  11  23  41  61  95 133 173 231 275 334 393
#     4  12  25  40  66 102 133 177 228 281 332 399
#
# _framework density 25.357337999999999
#
# number of rings (size 3 to 8) (size 9 to 14) (size 15 to 20)
#    0.000    1.429    2.857    1.714    0.000    5.714 
#    0.000    7.143    0.000    0.000    0.000    0.000 
#    0.000    0.000    0.000    0.000    0.000    0.000 
#
# Total GULP energy -78139.613594 kJ/mol
# GULP energy per Si atom -5581.400971 kJ/mol
# Density = 2.529962 g / cm^3
# Si number density = 25.357338 Si / 1000 Ang^3
#
#
#
# Elastic Constant Matrix: (Units=GPa)
#
#
# Indices 1 2 3 4 5 6 
#
# 1 105.9274 22.9128 24.2682 4.0111 21.3101 7.3252
# 2 22.9128 57.2418 3.3712 20.0943 14.9295 -15.9982
# 3 24.2682 3.3712 114.4391 13.5050 19.9232 6.3100
# 4 4.0111 20.0943 13.5050 42.8935 -12.6097 -0.5409
# 5 21.3101 14.9295 19.9232 -12.6097 53.7865 -6.9832
# 6 7.3252 -15.9982 6.3100 -0.5409 -6.9832 50.7653
#
#
#
# Elastic Compliance Matrix: (Units=1/GPa)
#
#
# Indices 1 2 3 4 5 6 
#
# 1 0.011732 -0.005224 -0.001791 0.001066 -0.002737 -0.003482
# 2 -0.005224 0.031086 0.003874 -0.018496 -0.011249 0.008324
# 3 -0.001791 0.003874 0.010931 -0.006903 -0.006136 -0.000797
# 4 0.001066 -0.018496 -0.006903 0.038731 0.016023 -0.002508
# 5 -0.002737 -0.011249 -0.006136 0.016023 0.029059 0.001781
# 6 -0.003482 0.008324 -0.000797 -0.002508 0.001781 0.023141
#
#
# Mechanical properties :
#
#
# Convention : Reuss Voigt Hill
#
# Bulk Modulus (GPa) = 21.06731 42.07918 31.57325
# Shear Modulus (GPa) = 29.97876 44.62613 37.30245
#
# Velocity S-wave (km/s) = 3.44212 4.19966 3.83962
# Velocity P-wave (km/s) = 4.91160 6.33614 5.66879
#
# Compressibility (1/GPa) = 0.04746689
#
# Stress axis : x y z
#
# Youngs Moduli (GPa) = 85.23871 32.16878 91.48374
#
# Poissons Ratio (x) = 0.16804 0.16388
# Poissons Ratio (y) = 0.44527 -0.35443
# Poissons Ratio (z) = 0.15269 -0.12463
#
# Static dielectric constant tensor:
#      x y z
#    x 2.033870 0.029450 0.046410 
#    y 0.029450 2.148380 -0.046190 
#    z 0.046410 -0.046190 2.024060 
# 
# From -- ./inp_files/37152.got.cif
#   From: 2010.05.17/outbox.cif.g08.bks.cpg/sg2_19_cif.got.tgz:37152.got - 2010.06.03 11:33:40.
