data_PCOD9037197
_publ_section_title
;
Structure prediction by ZEFSAII (Michael W. Deem and Ramdas Pophale) SiO2 
 PCOD9037197
Probable space group: P -1
;
_chemical_formula_sum "Si O2"
_cell_formula_units_Z 14
_cell_length_a 22.863724
_cell_length_b 7.474824
_cell_length_c 6.509661
_cell_angle_alpha 116.505876
_cell_angle_beta 126.800624
_cell_angle_gamma 41.707342
_cell_volume 592.684381
_symmetry_space_group_name_H-M "P -1"
_symmetry_group_IT_number 2
_symmetry_cell_setting 'triclinic'
loop_
_space_group_symop_operation_xyz
x,y,z
-x,-y,-z
loop_
_atom_site_type_symbol
_atom_site_label
_atom_site_fract_x
_atom_site_fract_y
_atom_site_fract_z
Si Si1 0.303419 0.519617 0.359547
Si Si2 0.857185 0.739925 0.894553
Si Si3 0.014823 0.622426 0.403487
Si Si4 0.455130 0.259097 0.179286
Si Si5 0.612895 0.323441 0.086803
Si Si6 0.096319 0.732958 0.961979
Si Si7 0.344998 0.023190 0.341235
O O1 0.383104 0.337322 0.254637
O O2 0.327396 0.680112 0.610126
O O3 0.190983 0.702450 0.147308
O O4 0.321604 0.300954 0.441806
O O5 0.875710 0.512236 0.965060
O O6 0.741216 0.949776 0.728096
O O7 0.912954 0.602815 0.729139
O O8 0.909927 0.823799 0.170233
O O9 0.000000 0.500000 0.500000
O O10 0.064133 0.723251 0.662347
O O11 0.549857 0.194596 0.444531
O O12 0.392981 0.514386 0.032439
O O13 0.500000 0.000000 0.000000
O O14 0.500000 0.500000 0.000000
O O15 0.653271 0.047143 0.930554
O O16 0.000000 0.000000 0.000000
#
# Coordination Sequence:
#
# PCOD9037197 Si02
#       7
#     2   2   2   2   2   2   2
#     4  11  25  45  64  98 131 170 218 265 321 382
#     4   9  21  41  64  92 124 163 211 258 319 379
#     4   9  19  41  61  88 123 159 211 255 311 372
#     4  12  24  43  68  95 133 171 212 267 324 382
#     4  12  25  44  64  95 134 169 217 262 314 389
#     4  10  23  40  63  92 127 164 208 261 319 376
#     4  11  23  43  68  95 130 173 210 266 325 378
#
# _framework density 23.621341000000001
#
# number of rings (size 3 to 8) (size 9 to 14) (size 15 to 20)
#    0.000    1.429    2.857    1.714    4.000    0.571 
#   10.286    0.000    0.000    0.000    0.000    0.000 
#    0.000    0.000    0.000    0.000    0.000    0.000 
#
# Total GULP energy -78316.614526 kJ/mol
# GULP energy per Si atom -5594.043895 kJ/mol
# Density = 2.356758 g / cm^3
# Si number density = 23.621341 Si / 1000 Ang^3
#
#
#
# Elastic Constant Matrix: (Units=GPa)
#
#
# Indices 1 2 3 4 5 6 
#
# 1 104.5125 20.9854 79.4599 -16.0627 20.2317 -38.1867
# 2 20.9854 69.8943 51.0363 -7.7396 16.4116 -15.1847
# 3 79.4599 51.0363 213.9342 6.4320 36.4995 -27.0301
# 4 -16.0627 -7.7396 6.4320 38.4552 -5.0933 3.9366
# 5 20.2317 16.4116 36.4995 -5.0933 44.5824 -11.6312
# 6 -38.1867 -15.1847 -27.0301 3.9366 -11.6312 47.5064
#
#
#
# Elastic Compliance Matrix: (Units=1/GPa)
#
#
# Indices 1 2 3 4 5 6 
#
# 1 0.020069 0.002610 -0.006721 0.008723 -0.000352 0.012333
# 2 0.002610 0.019055 -0.004639 0.004888 -0.002671 0.004490
# 3 -0.006721 -0.004639 0.008769 -0.005452 -0.003655 -0.002338
# 4 0.008723 0.004888 -0.005452 0.031602 0.003270 0.003653
# 5 -0.000352 -0.002671 -0.003655 0.003270 0.027805 0.003321
# 6 0.012333 0.004490 -0.002338 0.003653 0.003321 0.031578
#
#
# Mechanical properties :
#
#
# Convention : Reuss Voigt Hill
#
# Bulk Modulus (GPa) = 32.90217 76.81157 54.85687
# Shear Modulus (GPa) = 30.02824 41.89942 35.96383
#
# Velocity S-wave (km/s) = 3.56930 4.21621 3.90617
# Velocity P-wave (km/s) = 5.56290 7.50269 6.60440
#
# Compressibility (1/GPa) = 0.03039313
#
# Stress axis : x y z
#
# Youngs Moduli (GPa) = 49.82861 52.47974 114.03579
#
# Poissons Ratio (x) = -0.13695 0.76638
# Poissons Ratio (y) = -0.13003 0.52901
# Poissons Ratio (z) = 0.33487 0.24345
#
# Static dielectric constant tensor:
#      x y z
#    x 1.966720 0.026440 0.007920 
#    y 0.026440 1.921100 0.021810 
#    z 0.007920 0.021810 1.910520 
# 
# From -- ./inp_files/36387.got.cif
#   From: 2010.05.17/outbox.cif.g08.bks.cpg/sg2_19_cif.got.tgz:36387.got - 2010.06.03 11:33:40.
