data_PCOD9037114
_publ_section_title
;
Structure prediction by ZEFSAII (Michael W. Deem and Ramdas Pophale) SiO2 
 PCOD9037114
Probable space group: P -1
;
_chemical_formula_sum "Si O2"
_cell_formula_units_Z 15
_cell_length_a 13.830850
_cell_length_b 11.828703
_cell_length_c 6.858518
_cell_angle_alpha 131.566217
_cell_angle_beta 120.108684
_cell_angle_gamma 50.081642
_cell_volume 638.218044
_symmetry_space_group_name_H-M "P -1"
_symmetry_group_IT_number 2
_symmetry_cell_setting 'triclinic'
loop_
_space_group_symop_operation_xyz
x,y,z
-x,-y,-z
loop_
_atom_site_type_symbol
_atom_site_label
_atom_site_fract_x
_atom_site_fract_y
_atom_site_fract_z
Si Si1 0.000000 0.500000 0.500000
Si Si2 0.796072 0.204773 0.022124
Si Si3 0.898531 0.982879 0.233523
Si Si4 0.474245 0.680158 0.085910
Si Si5 0.891194 0.356404 0.967917
Si Si6 0.588322 0.816739 0.649333
Si Si7 0.398446 0.853965 0.835792
Si Si8 0.819837 0.477804 0.599542
O O1 0.051234 0.562358 0.428867
O O2 0.120588 0.490110 0.734428
O O3 0.893299 0.058181 0.097749
O O4 0.759955 0.373892 0.308655
O O5 0.671369 0.185337 0.851144
O O6 0.836908 0.249122 0.909509
O O7 0.752223 0.080616 0.266526
O O8 0.000000 0.000000 0.500000
O O9 0.956440 0.777493 0.031848
O O10 0.567271 0.745190 0.342728
O O11 0.500000 0.500000 0.000000
O O12 0.469064 0.686683 0.853651
O O13 0.844043 0.411182 0.767940
O O14 0.474918 0.829627 0.687798
O O15 0.720567 0.676960 0.715312
O O16 0.589072 0.996308 0.861258
#
# Coordination Sequence:
#
# PCOD9037114 Si02
#       8
#     1   2   2   2   2   2   2   2
#     4  10  24  40  60  96 126 170 224 262 340 392
#     4  10  23  40  61 103 127 172 225 271 341 395
#     4  11  22  43  67  94 139 174 222 275 335 401
#     4  11  23  41  68  96 133 174 223 281 329 394
#     4  11  23  41  66  93 134 173 221 278 334 397
#     4  11  24  45  68  96 138 176 225 279 332 402
#     4  10  26  44  64 100 132 183 225 268 343 401
#     4  11  22  41  66  95 132 170 224 278 332 400
#
# _framework density 23.502941
#
# number of rings (size 3 to 8) (size 9 to 14) (size 15 to 20)
#    0.000    1.333    2.667    2.000    3.733    0.533 
#    0.000    5.333    0.000    0.000    0.000    0.000 
#    0.000    0.000    0.000    0.000    0.000    0.000 
#
# Total GULP energy -83538.635524 kJ/mol
# GULP energy per Si atom -5569.242368 kJ/mol
# Density = 2.344945 g / cm^3
# Si number density = 23.502941 Si / 1000 Ang^3
#
#
#
# Elastic Constant Matrix: (Units=GPa)
#
#
# Indices 1 2 3 4 5 6 
#
# 1 123.5403 13.3699 31.6323 -32.8220 0.5869 6.1553
# 2 13.3699 98.5700 20.8562 -35.7377 -5.4763 10.6824
# 3 31.6323 20.8562 85.2030 -35.7159 0.3507 10.8589
# 4 -32.8220 -35.7377 -35.7159 40.9485 5.0529 -2.7549
# 5 0.5869 -5.4763 0.3507 5.0529 27.8501 -2.9423
# 6 6.1553 10.6824 10.8589 -2.7549 -2.9423 26.1778
#
#
#
# Elastic Compliance Matrix: (Units=1/GPa)
#
#
# Indices 1 2 3 4 5 6 
#
# 1 0.010947 0.002909 0.000605 0.011903 -0.002143 -0.003000
# 2 0.002909 0.017062 0.004371 0.020695 -0.001301 -0.007428
# 3 0.000605 0.004371 0.021068 0.022633 -0.004453 -0.008784
# 4 0.011903 0.020695 0.022633 0.072170 -0.011069 -0.014282
# 5 -0.002143 -0.001301 -0.004453 -0.011069 0.038398 0.006033
# 6 -0.003000 -0.007428 -0.008784 -0.014282 0.006033 0.044755
#
#
# Mechanical properties :
#
#
# Convention : Reuss Voigt Hill
#
# Bulk Modulus (GPa) = 15.42138 48.78113 32.10125
# Shear Modulus (GPa) = 23.78174 35.09227 29.43700
#
# Velocity S-wave (km/s) = 3.18443 3.86826 3.54288
# Velocity P-wave (km/s) = 4.48291 6.38370 5.51580
#
# Compressibility (1/GPa) = 0.06484502
#
# Stress axis : x y z
#
# Youngs Moduli (GPa) = 91.34933 58.61071 47.46625
#
# Poissons Ratio (x) = -0.17050 -0.02870
# Poissons Ratio (y) = -0.26573 -0.20746
# Poissons Ratio (z) = -0.05523 -0.25617
#
# Static dielectric constant tensor:
#      x y z
#    x 1.741380 0.103260 0.117820 
#    y 0.103260 1.930600 -0.010230 
#    z 0.117820 -0.010230 1.881150 
# 
# From -- ./inp_files/94166.got.cif
#   From: 2010.05.17/outbox.cif.g08.bks.cpg/sg2_48_cif.got.tgz:94166.got - 2010.06.03 11:33:40.
