data_PCOD9037140
_publ_section_title
;
Structure prediction by ZEFSAII (Michael W. Deem and Ramdas Pophale) SiO2 
 PCOD9037140
Probable space group: P -1
;
_chemical_formula_sum "Si O2"
_cell_formula_units_Z 13
_cell_length_a 16.291314
_cell_length_b 7.475983
_cell_length_c 7.271789
_cell_angle_alpha 122.646809
_cell_angle_beta 124.676765
_cell_angle_gamma 90.530184
_cell_volume 545.609987
_symmetry_space_group_name_H-M "P -1"
_symmetry_group_IT_number 2
_symmetry_cell_setting 'triclinic'
loop_
_space_group_symop_operation_xyz
x,y,z
-x,-y,-z
loop_
_atom_site_type_symbol
_atom_site_label
_atom_site_fract_x
_atom_site_fract_y
_atom_site_fract_z
Si Si1 0.603798 0.250591 0.309041
Si Si2 0.598484 0.356526 0.964569
Si Si3 0.643078 0.924808 0.684071
Si Si4 0.964703 0.170891 0.662128
Si Si5 0.500000 0.500000 0.500000
Si Si6 0.215816 0.186467 0.485810
Si Si7 0.151937 0.537960 0.365773
O O1 0.574306 0.352533 0.507189
O O2 0.727767 0.284299 0.471218
O O3 0.593344 0.394785 0.199101
O O4 0.500000 0.000000 0.000000
O O5 0.471926 0.211522 0.656452
O O6 0.654311 0.181247 0.899970
O O7 0.676224 0.627922 0.153599
O O8 0.612848 0.749036 0.721745
O O9 0.741884 0.929304 0.685990
O O10 0.905935 0.304189 0.547212
O O11 0.876787 0.012374 0.617871
O O12 0.000000 0.000000 0.500000
O O13 0.072869 0.372859 0.012653
O O14 0.169586 0.360711 0.431571
#
# Coordination Sequence:
#
# PCOD9037140 Si02
#       7
#     2   2   2   2   1   2   2
#     4  11  23  39  66 102 137 180 214 279 333 408
#     4  10  23  40  61  98 140 178 224 265 338 409
#     4  11  23  39  62  99 138 184 220 272 337 407
#     4  11  27  47  73  99 127 183 233 289 341 394
#     4  12  22  36  66  96 136 178 220 258 338 408
#     4  11  24  45  68  95 137 179 222 286 343 396
#     4  10  25  47  68 102 137 171 234 283 334 411
#
# _framework density 23.826544999999999
#
# number of rings (size 3 to 8) (size 9 to 14) (size 15 to 20)
#    0.000    1.231    4.615    0.923    2.154    8.000 
#    0.000    0.000    0.000    0.000    0.000    0.000 
#    0.000    0.000    0.000    0.000    0.000    0.000 
#
# Total GULP energy -72417.800813 kJ/mol
# GULP energy per Si atom -5570.600063 kJ/mol
# Density = 2.377231 g / cm^3
# Si number density = 23.826545 Si / 1000 Ang^3
#
#
#
# Elastic Constant Matrix: (Units=GPa)
#
#
# Indices 1 2 3 4 5 6 
#
# 1 129.9064 51.6909 26.5766 11.2124 7.4904 -23.8327
# 2 51.6909 97.8605 8.5326 7.5139 0.4143 -24.9200
# 3 26.5766 8.5326 77.5579 18.6344 19.5875 -4.3767
# 4 11.2124 7.5139 18.6344 38.7478 2.4752 -2.2760
# 5 7.4904 0.4143 19.5875 2.4752 33.1141 13.5133
# 6 -23.8327 -24.9200 -4.3767 -2.2760 13.5133 49.1007
#
#
#
# Elastic Compliance Matrix: (Units=1/GPa)
#
#
# Indices 1 2 3 4 5 6 
#
# 1 0.010794 -0.004588 -0.002208 -0.000825 -0.002375 0.003329
# 2 -0.004588 0.014061 0.001201 -0.001528 -0.001974 0.005489
# 3 -0.002208 0.001201 0.018450 -0.007497 -0.011501 0.004000
# 4 -0.000825 -0.001528 -0.007497 0.029685 0.002943 -0.001278
# 5 -0.002375 -0.001974 -0.011501 0.002943 0.043467 -0.015006
# 6 0.003329 0.005489 0.004000 -0.001278 -0.015006 0.029195
#
#
# Mechanical properties :
#
#
# Convention : Reuss Voigt Hill
#
# Bulk Modulus (GPa) = 31.13955 53.21390 42.17672
# Shear Modulus (GPa) = 29.84231 38.76085 34.30158
#
# Velocity S-wave (km/s) = 3.54288 4.03773 3.79837
# Velocity P-wave (km/s) = 5.46202 6.64229 6.08086
#
# Compressibility (1/GPa) = 0.03211350
#
# Stress axis : x y z
#
# Youngs Moduli (GPa) = 92.64336 71.12045 54.20154
#
# Poissons Ratio (x) = 0.32629 0.11969
# Poissons Ratio (y) = 0.42503 -0.06507
# Poissons Ratio (z) = 0.20458 -0.08539
#
# Static dielectric constant tensor:
#      x y z
#    x 1.958680 0.080880 0.000470 
#    y 0.080880 2.119180 0.018550 
#    z 0.000470 0.018550 2.010050 
# 
# From -- ./inp_files/293618.got.cif
#   From: 2010.05.17/outbox.cif.g08.bks.cpg/sg2_147_cif.got.tgz:293618.got - 2010.06.03 11:33:40.
