data_PCOD9037423
_publ_section_title
;
Structure prediction by ZEFSAII (Michael W. Deem and Ramdas Pophale) SiO2 
 PCOD9037423
Probable space group: P -1
;
_chemical_formula_sum "Si O2"
_cell_formula_units_Z 16
_cell_length_a 10.716495
_cell_length_b 15.644454
_cell_length_c 7.927574
_cell_angle_alpha 47.425441
_cell_angle_beta 46.804187
_cell_angle_gamma 50.152506
_cell_volume 673.317250
_symmetry_space_group_name_H-M "P -1"
_symmetry_group_IT_number 2
_symmetry_cell_setting 'triclinic'
loop_
_space_group_symop_operation_xyz
x,y,z
-x,-y,-z
loop_
_atom_site_type_symbol
_atom_site_label
_atom_site_fract_x
_atom_site_fract_y
_atom_site_fract_z
Si Si1 0.772598 0.498162 0.102506
Si Si2 0.622559 0.861379 0.606192
Si Si3 0.794650 0.216425 0.457057
Si Si4 0.825259 0.283448 0.988758
Si Si5 0.891121 0.612633 0.257189
Si Si6 0.977883 0.125539 0.754569
Si Si7 0.588820 0.631223 0.762647
Si Si8 0.604459 0.737663 0.137833
O O1 0.788554 0.357664 0.307027
O O2 0.676732 0.593193 0.210055
O O3 0.649795 0.558542 0.975922
O O4 0.974230 0.487153 0.860071
O O5 0.592634 0.768421 0.618882
O O6 0.830992 0.852133 0.438595
O O7 0.500000 0.000000 0.500000
O O8 0.578906 0.815869 0.888455
O O9 0.864849 0.188211 0.237954
O O10 0.905937 0.136722 0.615053
O O11 0.586741 0.221654 0.648110
O O12 0.614005 0.359463 0.105482
O O13 0.841336 0.228195 0.862261
O O14 0.971332 0.352200 0.791614
O O15 0.737387 0.580191 0.547094
O O16 0.775327 0.735124 0.097410
O O17 0.000000 0.000000 0.000000
#
# Coordination Sequence:
#
# PCOD9037423 Si02
#       8
#     2   2   2   2   2   2   2   2
#     4  10  23  40  66  99 133 186 223 276 341 398
#     4  11  23  43  70  98 130 176 227 280 342 404
#     4  11  24  44  68 101 140 178 227 282 338 406
#     4  11  24  44  70 100 138 179 227 281 341 399
#     4  11  22  41  64  98 135 179 225 278 337 401
#     4  12  25  46  72 100 135 177 229 285 341 406
#     4  11  22  44  65  97 140 174 225 281 334 404
#     4  11  22  43  67  97 138 177 230 278 337 405
#
# _framework density 23.762944000000001
#
# number of rings (size 3 to 8) (size 9 to 14) (size 15 to 20)
#    0.000    1.000    2.500    5.625    0.000    3.500 
#    6.750    1.875    0.000    0.000    0.000    0.000 
#    0.000    0.000    0.000    0.000    0.000    0.000 
#
# Total GULP energy -89488.789003 kJ/mol
# GULP energy per Si atom -5593.049313 kJ/mol
# Density = 2.370886 g / cm^3
# Si number density = 23.762944 Si / 1000 Ang^3
#
#
#
# Elastic Constant Matrix: (Units=GPa)
#
#
# Indices 1 2 3 4 5 6 
#
# 1 90.5674 23.2252 8.3412 8.9049 3.3693 -34.3770
# 2 23.2252 71.6037 12.9908 -6.4379 -2.3021 -22.0442
# 3 8.3412 12.9908 79.2617 12.1431 5.1244 -12.4650
# 4 8.9049 -6.4379 12.1431 47.0104 -13.8801 1.2251
# 5 3.3693 -2.3021 5.1244 -13.8801 49.7796 0.2885
# 6 -34.3770 -22.0442 -12.4650 1.2251 0.2885 35.1020
#
#
#
# Elastic Compliance Matrix: (Units=1/GPa)
#
#
# Indices 1 2 3 4 5 6 
#
# 1 0.019030 -0.001444 0.002303 -0.005872 -0.003338 0.018780
# 2 -0.001444 0.017977 -0.002078 0.003661 0.002112 0.008992
# 3 0.002303 -0.002078 0.014826 -0.005726 -0.003412 0.006443
# 4 -0.005872 0.003661 -0.005726 0.027119 0.008756 -0.006503
# 5 -0.003338 0.002112 -0.003412 0.008756 0.023226 -0.003651
# 6 0.018780 0.008992 0.006443 -0.006503 -0.003651 0.055073
#
#
# Mechanical properties :
#
#
# Convention : Reuss Voigt Hill
#
# Bulk Modulus (GPa) = 20.24505 36.72746 28.48626
# Shear Modulus (GPa) = 28.38464 39.50344 33.94404
#
# Velocity S-wave (km/s) = 3.45989 4.08167 3.78358
# Velocity P-wave (km/s) = 4.94967 6.14026 5.57682
#
# Compressibility (1/GPa) = 0.04939479
#
# Stress axis : x y z
#
# Youngs Moduli (GPa) = 52.54960 55.62815 67.45066
#
# Poissons Ratio (x) = 0.08032 -0.15533
# Poissons Ratio (y) = 0.07587 0.14013
# Poissons Ratio (z) = -0.12102 0.11557
#
# Static dielectric constant tensor:
#      x y z
#    x 1.979590 0.019430 0.005340 
#    y 0.019430 1.906040 -0.002280 
#    z 0.005340 -0.002280 1.950440 
# 
# From -- ./inp_files/281485.got.cif
#   From: 2010.05.17/outbox.cif.g08.bks.cpg/sg2_141_cif.got.tgz:281485.got - 2010.06.03 11:33:40.
