data_PCOD9037662
_publ_section_title
;
Structure prediction by ZEFSAII (Michael W. Deem and Ramdas Pophale) SiO2 
 PCOD9037662
Probable space group: P -1
;
_chemical_formula_sum "Si O2"
_cell_formula_units_Z 14
_cell_length_a 11.824208
_cell_length_b 4.943155
_cell_length_c 14.141720
_cell_angle_alpha 65.869584
_cell_angle_beta 127.694607
_cell_angle_gamma 119.833336
_cell_volume 560.740535
_symmetry_space_group_name_H-M "P -1"
_symmetry_group_IT_number 2
_symmetry_cell_setting 'triclinic'
loop_
_space_group_symop_operation_xyz
x,y,z
-x,-y,-z
loop_
_atom_site_type_symbol
_atom_site_label
_atom_site_fract_x
_atom_site_fract_y
_atom_site_fract_z
Si Si1 0.677184 0.687536 0.079243
Si Si2 0.291819 0.455565 0.560646
Si Si3 0.648055 0.244516 0.902946
Si Si4 0.187283 0.515038 0.301405
Si Si5 0.083155 0.342843 0.952424
Si Si6 0.372784 0.234173 0.304450
Si Si7 0.667423 0.166877 0.288051
O O1 0.784376 0.690306 0.044719
O O2 0.726861 0.488681 0.212300
O O3 0.500000 0.500000 0.000000
O O4 0.666815 0.039518 0.033738
O O5 0.181345 0.424100 0.421160
O O6 0.464216 0.604099 0.586357
O O7 0.298239 0.718414 0.603533
O O8 0.269156 0.121596 0.647180
O O9 0.607019 0.556433 0.811005
O O10 0.510778 0.998384 0.809337
O O11 0.829278 0.412142 0.955268
O O12 0.246899 0.288656 0.300434
O O13 0.029478 0.532421 0.181591
O O14 0.313270 0.865987 0.305073
O O15 0.000000 0.000000 0.000000
#
# Coordination Sequence:
#
# PCOD9037662 Si02
#       7
#     2   2   2   2   2   2   2
#     4  10  25  44  72 104 137 195 236 293 348 424
#     4  11  23  44  68 102 136 188 246 292 337 416
#     4  10  23  40  71  99 144 173 238 285 362 403
#     4  12  25  41  67 100 146 188 230 286 361 422
#     4  12  26  44  71 107 149 183 229 294 368 426
#     4  11  22  40  67 100 141 186 233 290 351 421
#     4  10  24  43  74 100 135 182 247 298 337 406
#
# _framework density 24.966982999999999
#
# number of rings (size 3 to 8) (size 9 to 14) (size 15 to 20)
#    0.000    1.143    1.429    4.286   12.000    2.286 
#    0.000    1.429    0.000    0.000    0.000    0.000 
#    0.000    0.000    0.000    0.000    0.000    0.000 
#
# Total GULP energy -78076.407775 kJ/mol
# GULP energy per Si atom -5576.886270 kJ/mol
# Density = 2.491016 g / cm^3
# Si number density = 24.966983 Si / 1000 Ang^3
#
#
#
# Elastic Constant Matrix: (Units=GPa)
#
#
# Indices 1 2 3 4 5 6 
#
# 1 81.1348 -2.2731 4.0542 7.1278 -3.8324 2.6288
# 2 -2.2731 98.3106 7.1347 -26.4819 -10.9099 -5.9655
# 3 4.0542 7.1347 131.9321 3.7926 -2.3678 5.4088
# 4 7.1278 -26.4819 3.7926 33.6771 3.6907 -0.9848
# 5 -3.8324 -10.9099 -2.3678 3.6907 26.2973 -2.1186
# 6 2.6288 -5.9655 5.4088 -0.9848 -2.1186 31.6639
#
#
#
# Elastic Compliance Matrix: (Units=1/GPa)
#
#
# Indices 1 2 3 4 5 6 
#
# 1 0.012740 -0.000404 -0.000196 -0.003247 0.002041 -0.001065
# 2 -0.000404 0.013817 -0.001106 0.010699 0.004350 0.003449
# 3 -0.000196 -0.001106 0.007766 -0.001785 0.000338 -0.001552
# 4 -0.003247 0.010699 -0.001785 0.039258 -0.001405 0.003717
# 5 0.002041 0.004350 0.000338 -0.001405 0.040620 0.003267
# 6 -0.001065 0.003449 -0.001552 0.003717 0.003267 0.032919
#
#
# Mechanical properties :
#
#
# Convention : Reuss Voigt Hill
#
# Bulk Modulus (GPa) = 32.35001 36.57879 34.46440
# Shear Modulus (GPa) = 31.08782 38.49177 34.78980
#
# Velocity S-wave (km/s) = 3.53251 3.93072 3.73692
# Velocity P-wave (km/s) = 5.44274 5.93998 5.69679
#
# Compressibility (1/GPa) = 0.03091189
#
# Stress axis : x y z
#
# Youngs Moduli (GPa) = 78.49417 72.37592 128.75884
#
# Poissons Ratio (x) = 0.02923 0.02524
# Poissons Ratio (y) = 0.03170 0.14237
# Poissons Ratio (z) = 0.01539 0.08002
#
# Static dielectric constant tensor:
#      x y z
#    x 2.064160 -0.049700 -0.051390 
#    y -0.049700 2.032480 0.019380 
#    z -0.051390 0.019380 2.044220 
# 
# From -- ./inp_files/510775.got.cif
#   From: 2010.05.17/outbox.cif.g08.bks.cpg/sg2_256_cif.got.tgz:510775.got - 2010.06.03 11:33:40.
