data_PCOD9037070
_publ_section_title
;
Structure prediction by ZEFSAII (Michael W. Deem and Ramdas Pophale) SiO2 
 PCOD9037070
Probable space group: P -1
;
_chemical_formula_sum "Si O2"
_cell_formula_units_Z 13
_cell_length_a 8.253718
_cell_length_b 10.404416
_cell_length_c 17.155866
_cell_angle_alpha 34.982899
_cell_angle_beta 40.923995
_cell_angle_gamma 48.537753
_cell_volume 549.656761
_symmetry_space_group_name_H-M "P -1"
_symmetry_group_IT_number 2
_symmetry_cell_setting 'triclinic'
loop_
_space_group_symop_operation_xyz
x,y,z
-x,-y,-z
loop_
_atom_site_type_symbol
_atom_site_label
_atom_site_fract_x
_atom_site_fract_y
_atom_site_fract_z
Si Si1 0.000000 0.000000 0.000000
Si Si2 0.226744 0.605190 0.328043
Si Si3 0.030894 0.115710 0.317181
Si Si4 0.749534 0.598533 0.213173
Si Si5 0.467503 0.764700 0.859342
Si Si6 0.209107 0.076946 0.092681
Si Si7 0.610509 0.821723 0.613499
O O1 0.852192 0.759690 0.159614
O O2 0.751576 0.127697 0.061719
O O3 0.447502 0.630188 0.298109
O O4 0.352905 0.431702 0.305793
O O5 0.000000 0.500000 0.500000
O O6 0.111748 0.845181 0.214987
O O7 0.284228 0.125017 0.265840
O O8 0.118596 0.116906 0.193786
O O9 0.851250 0.336007 0.302000
O O10 0.880799 0.902256 0.491220
O O11 0.855473 0.702975 0.043563
O O12 0.433697 0.816260 0.754620
O O13 0.500000 0.500000 0.000000
O O14 0.500000 0.000000 0.000000
O O15 0.500000 0.000000 0.500000
#
# Coordination Sequence:
#
# PCOD9037070 Si02
#       7
#     1   2   2   2   2   2   2
#     4  12  28  48  76 108 156 206 262 314 390 454
#     4  11  23  44  72 112 151 198 261 322 379 460
#     4  12  24  49  70 110 157 198 254 322 394 459
#     4  11  25  43  73 109 149 209 257 320 382 462
#     4  12  29  51  77 113 156 207 260 322 386 461
#     4  10  23  39  73 107 151 197 260 309 380 460
#     4  12  28  49  79 111 156 202 255 320 395 460
#
# _framework density 23.651122999999998
#
# number of rings (size 3 to 8) (size 9 to 14) (size 15 to 20)
#    0.000    0.615    4.615    2.769    8.615    0.000 
#    0.000    0.769    0.000    0.000    0.000    0.000 
#    0.000    0.000    0.000    0.000    0.000    0.000 
#
# Total GULP energy -72410.535126 kJ/mol
# GULP energy per Si atom -5570.041164 kJ/mol
# Density = 2.359729 g / cm^3
# Si number density = 23.651123 Si / 1000 Ang^3
#
#
#
# Elastic Constant Matrix: (Units=GPa)
#
#
# Indices 1 2 3 4 5 6 
#
# 1 57.3915 17.9944 22.8162 0.3528 -22.6453 -3.6731
# 2 17.9944 135.1641 -2.1985 -10.0470 1.6342 -3.7306
# 3 22.8162 -2.1985 87.9765 0.2034 -16.5489 -2.4754
# 4 0.3528 -10.0470 0.2034 41.8521 1.6826 -16.3592
# 5 -22.6453 1.6342 -16.5489 1.6826 52.6079 1.8052
# 6 -3.6731 -3.7306 -2.4754 -16.3592 1.8052 26.4337
#
#
#
# Elastic Compliance Matrix: (Units=1/GPa)
#
#
# Indices 1 2 3 4 5 6 
#
# 1 0.023923 -0.003396 -0.004568 -0.000855 0.008950 0.001277
# 2 -0.003396 0.008198 0.000848 0.003168 -0.001648 0.002838
# 3 -0.004568 0.000848 0.012980 0.000416 0.002049 0.000818
# 4 -0.000855 0.003168 0.000416 0.032903 -0.002104 0.020874
# 5 0.008950 -0.001648 0.002049 -0.002104 0.023683 -0.001717
# 6 0.001277 0.002838 0.000818 0.020874 -0.001717 0.051521
#
#
# Mechanical properties :
#
#
# Convention : Reuss Voigt Hill
#
# Bulk Modulus (GPa) = 32.39369 39.75070 36.07220
# Shear Modulus (GPa) = 28.13265 40.30673 34.21969
#
# Velocity S-wave (km/s) = 3.45263 4.13270 3.80788
# Velocity P-wave (km/s) = 5.44247 6.29411 5.88372
#
# Compressibility (1/GPa) = 0.03087021
#
# Stress axis : x y z
#
# Youngs Moduli (GPa) = 41.80032 121.98065 77.04145
#
# Poissons Ratio (x) = 0.41422 0.35191
# Poissons Ratio (y) = 0.14194 -0.06533
# Poissons Ratio (z) = 0.19093 -0.10344
#
# Static dielectric constant tensor:
#      x y z
#    x 2.005270 0.052540 -0.058150 
#    y 0.052540 1.882770 -0.006860 
#    z -0.058150 -0.006860 1.841460 
# 
# From -- ./inp_files/150923.got.cif
#   From: 2010.05.17/outbox.cif.g08.bks.cpg/sg2_76_cif.got.tgz:150923.got - 2010.06.03 11:33:40.
