data_PCOD9037668
_publ_section_title
;
Structure prediction by ZEFSAII (Michael W. Deem and Ramdas Pophale) SiO2 
 PCOD9037668
Probable space group: P -1
;
_chemical_formula_sum "Si O2"
_cell_formula_units_Z 14
_cell_length_a 13.309749
_cell_length_b 21.413654
_cell_length_c 10.459050
_cell_angle_alpha 34.593266
_cell_angle_beta 147.003299
_cell_angle_gamma 160.207943
_cell_volume 540.242665
_symmetry_space_group_name_H-M "P -1"
_symmetry_group_IT_number 2
_symmetry_cell_setting 'triclinic'
loop_
_space_group_symop_operation_xyz
x,y,z
-x,-y,-z
loop_
_atom_site_type_symbol
_atom_site_label
_atom_site_fract_x
_atom_site_fract_y
_atom_site_fract_z
Si Si1 0.177138 0.411328 0.986536
Si Si2 0.972261 0.414603 0.279395
Si Si3 0.798863 0.573806 0.734648
Si Si4 0.525048 0.936475 0.509222
Si Si5 0.764900 0.843456 0.823343
Si Si6 0.797866 0.071922 0.004195
Si Si7 0.551065 0.243029 0.634112
O O1 0.514643 0.634243 0.965167
O O2 0.881267 0.350586 0.758982
O O3 0.114653 0.333716 0.192353
O O4 0.109437 0.287961 0.015982
O O5 0.988371 0.331755 0.324295
O O6 0.325132 0.610250 0.374654
O O7 0.788972 0.287117 0.422710
O O8 0.804599 0.444744 0.995320
O O9 0.500000 0.500000 0.500000
O O10 0.782801 0.965784 0.715533
O O11 0.500000 0.000000 0.500000
O O12 0.463679 0.972115 0.253976
O O13 0.629085 0.805942 0.600533
O O14 0.101597 0.954243 0.964407
O O15 0.659623 0.941145 0.197177
#
# Coordination Sequence:
#
# PCOD9037668 Si02
#       7
#     2   2   2   2   2   2   2
#     4  11  23  45  76 101 141 188 233 281 358 426
#     4  10  24  46  69 101 139 192 230 283 356 421
#     4  10  23  40  72 104 138 176 239 286 344 411
#     4  12  28  47  73  98 147 188 235 291 358 415
#     4  12  25  48  71 104 140 185 237 294 349 419
#     4  12  28  43  72 111 137 183 240 292 354 415
#     4  11  23  46  74  99 148 180 233 296 350 412
#
# _framework density 25.914279000000001
#
# number of rings (size 3 to 8) (size 9 to 14) (size 15 to 20)
#    0.000    0.857    4.286    2.571   10.000    0.571 
#    2.571    0.000    0.000    0.000    0.000    0.000 
#    0.000    0.000    0.000    0.000    0.000    0.000 
#
# Total GULP energy -78258.760844 kJ/mol
# GULP energy per Si atom -5589.911489 kJ/mol
# Density = 2.585530 g / cm^3
# Si number density = 25.914279 Si / 1000 Ang^3
#
#
#
# Elastic Constant Matrix: (Units=GPa)
#
#
# Indices 1 2 3 4 5 6 
#
# 1 137.6171 7.3663 30.6361 -12.2513 14.6347 -3.1289
# 2 7.3663 41.7320 10.4523 -9.9676 2.6751 -2.4168
# 3 30.6361 10.4523 57.6551 15.0411 -5.6365 3.1514
# 4 -12.2513 -9.9676 15.0411 23.9550 4.6762 -7.8750
# 5 14.6347 2.6751 -5.6365 4.6762 54.8343 -5.6194
# 6 -3.1289 -2.4168 3.1514 -7.8750 -5.6194 54.4350
#
#
#
# Elastic Compliance Matrix: (Units=1/GPa)
#
#
# Indices 1 2 3 4 5 6 
#
# 1 0.012861 0.007209 -0.014638 0.021494 -0.006679 0.004327
# 2 0.007209 0.038073 -0.021750 0.037425 -0.008398 0.007911
# 3 -0.014638 -0.021750 0.043898 -0.049951 0.012688 -0.010265
# 4 0.021494 0.037425 -0.049951 0.110047 -0.020069 0.019637
# 5 -0.006679 -0.008398 0.012688 -0.020069 0.023240 -0.001996
# 6 0.004327 0.007911 -0.010265 0.019637 -0.001996 0.022200
#
#
# Mechanical properties :
#
#
# Convention : Reuss Voigt Hill
#
# Bulk Modulus (GPa) = 27.41613 37.10152 32.25883
# Shear Modulus (GPa) = 15.58432 39.21483 27.39958
#
# Velocity S-wave (km/s) = 2.45496 3.89427 3.25517
# Velocity P-wave (km/s) = 4.31721 5.87951 5.15785
#
# Compressibility (1/GPa) = 0.03647488
#
# Stress axis : x y z
#
# Youngs Moduli (GPa) = 77.75158 26.26549 22.77991
#
# Poissons Ratio (x) = -0.18934 0.33345
# Poissons Ratio (y) = -0.56048 0.49545
# Poissons Ratio (z) = 1.13812 0.57126
#
# Static dielectric constant tensor:
#      x y z
#    x 2.054390 -0.055560 0.067340 
#    y -0.055560 2.065610 -0.051860 
#    z 0.067340 -0.051860 2.062370 
# 
# From -- ./inp_files/458066.got.cif
#   From: 2010.05.17/outbox.cif.g08.bks.cpg/sg2_230_cif.got.tgz:458066.got - 2010.06.03 11:33:40.
