data_PCOD9037973
_publ_section_title
;
Structure prediction by ZEFSAII (Michael W. Deem and Ramdas Pophale) SiO2 
 PCOD9037973
Probable space group: P -1
;
_chemical_formula_sum "Si O2"
_cell_formula_units_Z 14
_cell_length_a 17.509488
_cell_length_b 5.143306
_cell_length_c 19.911408
_cell_angle_alpha 69.675359
_cell_angle_beta 159.625680
_cell_angle_gamma 115.365563
_cell_volume 555.652569
_symmetry_space_group_name_H-M "P -1"
_symmetry_group_IT_number 2
_symmetry_cell_setting 'triclinic'
loop_
_space_group_symop_operation_xyz
x,y,z
-x,-y,-z
loop_
_atom_site_type_symbol
_atom_site_label
_atom_site_fract_x
_atom_site_fract_y
_atom_site_fract_z
Si Si1 0.686582 0.448166 0.581818
Si Si2 0.761914 0.564726 0.293962
Si Si3 0.871152 0.558089 0.128294
Si Si4 0.336409 0.002748 0.554768
Si Si5 0.269797 0.588337 0.222470
Si Si6 0.721820 0.881195 0.097143
Si Si7 0.380274 0.402453 0.679515
O O1 0.752592 0.797572 0.589611
O O2 0.416766 0.366265 0.343917
O O3 0.684390 0.365682 0.664619
O O4 0.883293 0.353369 0.715024
O O5 0.761174 0.777827 0.212795
O O6 0.713260 0.682218 0.315290
O O7 0.000000 0.500000 0.500000
O O8 0.547380 0.272145 0.128804
O O9 0.851177 0.751908 0.158435
O O10 0.806220 0.226412 0.130788
O O11 0.658027 0.536034 0.904275
O O12 0.607553 0.131413 0.746637
O O13 0.310712 0.139366 0.593484
O O14 0.284553 0.659534 0.551621
O O15 0.000000 0.500000 0.000000
#
# Coordination Sequence:
#
# PCOD9037973 Si02
#       7
#     2   2   2   2   2   2   2
#     4   9  22  40  68 100 127 177 220 264 330 393
#     4  10  24  41  69  94 136 171 224 268 336 389
#     4  11  23  44  70  93 138 170 226 272 329 389
#     4  10  23  41  65  94 134 165 224 260 328 387
#     4   9  19  42  68  97 136 169 217 271 326 388
#     4  10  25  46  63 100 130 176 217 281 325 388
#     4  11  23  42  65  98 126 176 215 273 324 388
#
# _framework density 25.195602999999998
#
# number of rings (size 3 to 8) (size 9 to 14) (size 15 to 20)
#    0.857    1.143    0.000    2.571    4.000    6.286 
#    0.000   14.286    0.000    0.000    0.000    0.000 
#    0.000    0.000    0.000    0.000    0.000    0.000 
#
# Total GULP energy -78329.029520 kJ/mol
# GULP energy per Si atom -5594.930680 kJ/mol
# Density = 2.513826 g / cm^3
# Si number density = 25.195603 Si / 1000 Ang^3
#
#
#
# Elastic Constant Matrix: (Units=GPa)
#
#
# Indices 1 2 3 4 5 6 
#
# 1 146.2006 47.3145 40.8096 3.6104 11.0825 -6.6909
# 2 47.3145 117.2551 15.8181 -7.8637 -1.4353 -17.9113
# 3 40.8096 15.8181 145.4939 -15.1108 30.9586 0.2407
# 4 3.6104 -7.8637 -15.1108 19.5734 1.6989 4.8866
# 5 11.0825 -1.4353 30.9586 1.6989 44.0467 0.0311
# 6 -6.6909 -17.9113 0.2407 4.8866 0.0311 28.4763
#
#
#
# Elastic Compliance Matrix: (Units=1/GPa)
#
#
# Indices 1 2 3 4 5 6 
#
# 1 0.008871 -0.003458 -0.002583 -0.005197 -0.000329 0.000823
# 2 -0.003458 0.011034 -0.000128 0.003489 0.001181 0.005529
# 3 -0.002583 -0.000128 0.010024 0.009341 -0.006758 -0.002368
# 4 -0.005197 0.003489 0.009341 0.063830 -0.007599 -0.010050
# 5 -0.000329 0.001181 -0.006758 -0.007599 0.027866 0.001996
# 6 0.000823 0.005529 -0.002368 -0.010050 0.001996 0.040530
#
#
# Mechanical properties :
#
#
# Convention : Reuss Voigt Hill
#
# Bulk Modulus (GPa) = 56.84799 68.53711 62.69255
# Shear Modulus (GPa) = 27.72275 38.75311 33.23793
#
# Velocity S-wave (km/s) = 3.32068 3.92610 3.63601
# Velocity P-wave (km/s) = 6.10853 6.91473 6.52409
#
# Compressibility (1/GPa) = 0.01759077
#
# Stress axis : x y z
#
# Youngs Moduli (GPa) = 112.72599 90.62899 99.76335
#
# Poissons Ratio (x) = 0.31339 0.25773
# Poissons Ratio (y) = 0.38980 0.01274
# Poissons Ratio (z) = 0.29121 0.01157
#
# Static dielectric constant tensor:
#      x y z
#    x 1.971220 -0.034830 0.005910 
#    y -0.034830 2.001120 0.064500 
#    z 0.005910 0.064500 2.157810 
# 
# From -- ./inp_files/598991.got.cif
#   From: 2010.05.17/outbox.cif.g08.bks.cpg/sg2_300_cif.got.tgz:598991.got - 2010.06.03 11:33:40.
