data_PCOD9037213
_publ_section_title
;
Structure prediction by ZEFSAII (Michael W. Deem and Ramdas Pophale) SiO2 
 PCOD9037213
Probable space group: P -1
;
_chemical_formula_sum "Si O2"
_cell_formula_units_Z 16
_cell_length_a 11.526560
_cell_length_b 9.420097
_cell_length_c 19.431190
_cell_angle_alpha 27.393405
_cell_angle_beta 126.004741
_cell_angle_gamma 114.530081
_cell_volume 752.300347
_symmetry_space_group_name_H-M "P -1"
_symmetry_group_IT_number 2
_symmetry_cell_setting 'triclinic'
loop_
_space_group_symop_operation_xyz
x,y,z
-x,-y,-z
loop_
_atom_site_type_symbol
_atom_site_label
_atom_site_fract_x
_atom_site_fract_y
_atom_site_fract_z
Si Si1 0.850127 0.690713 0.405102
Si Si2 0.362287 0.638139 0.603350
Si Si3 0.749931 0.551359 0.102628
Si Si4 0.700724 0.614930 0.764800
Si Si5 0.680242 0.413168 0.998242
Si Si6 0.934257 0.370153 0.839632
Si Si7 0.399602 0.261064 0.905610
Si Si8 0.138840 0.130648 0.515224
O O1 0.713203 0.546863 0.397936
O O2 0.885014 0.677572 0.503859
O O3 0.000000 0.500000 0.500000
O O4 0.798396 0.066645 0.203512
O O5 0.543579 0.562142 0.705576
O O6 0.313045 0.538113 0.703828
O O7 0.306300 0.016185 0.409292
O O8 0.661948 0.629612 0.966912
O O9 0.709815 0.792565 0.049928
O O10 0.917691 0.514095 0.151962
O O11 0.740696 0.207754 0.277500
O O12 0.838908 0.402969 0.861153
O O13 0.716592 0.550500 0.879474
O O14 0.523967 0.346010 0.958368
O O15 0.837062 0.623568 0.640221
O O16 0.000000 0.000000 0.000000
O O17 0.500000 0.000000 0.000000
O O18 0.000000 0.000000 0.500000
#
# Coordination Sequence:
#
# PCOD9037213 Si02
#       8
#     2   2   2   2   2   2   2   2
#     4  11  24  37  68  97 124 160 225 276 314 373
#     4  10  23  42  67  94 126 177 214 268 317 395
#     4  10  23  40  63  94 127 164 216 266 322 375
#     4  10  24  43  64  92 139 178 213 251 340 390
#     4  10  23  41  62  98 124 171 209 269 318 383
#     4  11  25  37  63  92 129 174 211 264 317 392
#     4  11  21  38  72  91 125 161 217 269 313 379
#     4   9  22  42  59  90 127 167 206 266 327 370
#
# _framework density 21.268101000000001
#
# number of rings (size 3 to 8) (size 9 to 14) (size 15 to 20)
#    0.000    1.750    1.250    1.125   14.000    1.500 
#    0.000    0.625    0.000    0.000    0.000    0.000 
#    0.000    0.000    0.000    0.000    0.000    0.000 
#
# Total GULP energy -89202.100595 kJ/mol
# GULP energy per Si atom -5575.131287 kJ/mol
# Density = 2.121969 g / cm^3
# Si number density = 21.268101 Si / 1000 Ang^3
#
#
#
# Elastic Constant Matrix: (Units=GPa)
#
#
# Indices 1 2 3 4 5 6 
#
# 1 95.3982 53.8163 20.7296 4.2331 -1.6848 -28.9012
# 2 53.8163 133.6410 28.3493 14.9460 -10.5688 -10.5527
# 3 20.7296 28.3493 89.1021 -3.2671 -11.6118 -7.6564
# 4 4.2331 14.9460 -3.2671 38.3020 -3.3252 -2.3123
# 5 -1.6848 -10.5688 -11.6118 -3.3252 22.3479 -2.0718
# 6 -28.9012 -10.5527 -7.6564 -2.3123 -2.0718 30.6216
#
#
#
# Elastic Compliance Matrix: (Units=1/GPa)
#
#
# Indices 1 2 3 4 5 6 
#
# 1 0.018912 -0.006340 -0.001081 0.001179 -0.000527 0.015448
# 2 -0.006340 0.010865 -0.001989 -0.003634 0.002825 -0.002820
# 3 -0.001081 -0.001989 0.013244 0.002723 0.006473 0.002250
# 4 0.001179 -0.003634 0.002723 0.028176 0.004252 0.002956
# 5 -0.000527 0.002825 0.006473 0.004252 0.050580 0.005838
# 6 0.015448 -0.002820 0.002250 0.002956 0.005838 0.047445
#
#
# Mechanical properties :
#
#
# Convention : Reuss Voigt Hill
#
# Bulk Modulus (GPa) = 41.32081 58.21466 49.76774
# Shear Modulus (GPa) = 25.49586 32.60404 29.04995
#
# Velocity S-wave (km/s) = 3.46610 3.91960 3.69981
# Velocity P-wave (km/s) = 5.95728 6.92211 6.45774
#
# Compressibility (1/GPa) = 0.02420088
#
# Stress axis : x y z
#
# Youngs Moduli (GPa) = 52.87561 92.03921 75.50508
#
# Poissons Ratio (x) = 0.58355 0.08160
# Poissons Ratio (y) = 0.33524 0.15020
# Poissons Ratio (z) = 0.05714 0.18309
#
# Static dielectric constant tensor:
#      x y z
#    x 1.854660 -0.033030 0.014770 
#    y -0.033030 1.848320 -0.018540 
#    z 0.014770 -0.018540 1.826380 
# 
# From -- ./inp_files/278021.got.cif
#   From: 2010.05.17/outbox.cif.g08.bks.cpg/sg2_140_cif.got.tgz:278021.got - 2010.06.03 11:33:40.
