data_PCOD9037652
_publ_section_title
;
Structure prediction by ZEFSAII (Michael W. Deem and Ramdas Pophale) SiO2 
 PCOD9037652
Probable space group: P -1
;
_chemical_formula_sum "Si O2"
_cell_formula_units_Z 14
_cell_length_a 7.459922
_cell_length_b 14.906756
_cell_length_c 8.932981
_cell_angle_alpha 141.771766
_cell_angle_beta 82.826351
_cell_angle_gamma 84.639016
_cell_volume 579.449273
_symmetry_space_group_name_H-M "P -1"
_symmetry_group_IT_number 2
_symmetry_cell_setting 'triclinic'
loop_
_space_group_symop_operation_xyz
x,y,z
-x,-y,-z
loop_
_atom_site_type_symbol
_atom_site_label
_atom_site_fract_x
_atom_site_fract_y
_atom_site_fract_z
Si Si1 0.692465 0.030462 0.624314
Si Si2 0.498881 0.348060 0.944129
Si Si3 0.195028 0.649157 0.640472
Si Si4 0.053779 0.064474 0.804076
Si Si5 0.398393 0.407156 0.531663
Si Si6 0.852804 0.275197 0.588137
Si Si7 0.244532 0.277033 0.653627
O O1 0.648348 0.900634 0.555625
O O2 0.777370 0.956537 0.359160
O O3 0.535605 0.189731 0.820342
O O4 0.867702 0.069638 0.733893
O O5 0.658916 0.321314 0.762389
O O6 0.306794 0.373041 0.901992
O O7 0.543947 0.465946 0.207962
O O8 0.254913 0.496144 0.533992
O O9 0.394421 0.692094 0.681260
O O10 0.156071 0.641471 0.459100
O O11 0.014448 0.778760 0.894186
O O12 0.100742 0.907034 0.685765
O O13 0.305685 0.320421 0.543054
O O14 0.022129 0.295507 0.698772
#
# Coordination Sequence:
#
# PCOD9037652 Si02
#       7
#     2   2   2   2   2   2   2
#     4   9  19  38  68  98 121 165 220 272 312 365
#     4  11  21  45  67  93 133 171 215 265 314 387
#     4  11  22  43  64  91 138 176 205 258 332 393
#     4   9  18  39  68  95 126 169 215 263 324 378
#     4  11  25  41  67  93 133 181 205 257 333 382
#     4  10  23  40  71  96 126 171 215 270 322 368
#     4  11  23  40  66 103 123 164 229 262 313 379
#
# _framework density 24.160872000000001
#
# number of rings (size 3 to 8) (size 9 to 14) (size 15 to 20)
#    0.000    1.714    2.857    2.143    0.000    1.143 
#    0.000    5.714    0.000    0.000    0.000    0.000 
#    0.000    0.000    0.000    0.000    0.000    0.000 
#
# Total GULP energy -78311.677662 kJ/mol
# GULP energy per Si atom -5593.691262 kJ/mol
# Density = 2.410588 g / cm^3
# Si number density = 24.160872 Si / 1000 Ang^3
#
#
#
# Elastic Constant Matrix: (Units=GPa)
#
#
# Indices 1 2 3 4 5 6 
#
# 1 61.8895 28.5812 9.6132 12.3174 12.9014 -9.1952
# 2 28.5812 173.3481 27.0727 5.3767 10.3091 -5.1906
# 3 9.6132 27.0727 70.9807 -0.5797 -14.3086 1.6088
# 4 12.3174 5.3767 -0.5797 28.3574 -1.7222 2.6849
# 5 12.9014 10.3091 -14.3086 -1.7222 25.7482 0.8634
# 6 -9.1952 -5.1906 1.6088 2.6849 0.8634 39.0024
#
#
#
# Elastic Compliance Matrix: (Units=1/GPa)
#
#
# Indices 1 2 3 4 5 6 
#
# 1 0.024752 -0.001526 -0.006331 -0.012258 -0.016367 0.007100
# 2 -0.001526 0.006801 -0.003185 -0.001003 -0.003823 0.000830
# 3 -0.006331 -0.003185 0.019444 0.005028 0.015704 -0.003412
# 4 -0.012258 -0.001003 0.005028 0.042240 0.012378 -0.006413
# 5 -0.016367 -0.003823 0.015704 0.012378 0.058364 -0.007159
# 6 0.007100 0.000830 -0.003412 -0.006413 -0.007159 0.028164
#
#
# Mechanical properties :
#
#
# Convention : Reuss Voigt Hill
#
# Bulk Modulus (GPa) = 34.58504 48.52805 41.55655
# Shear Modulus (GPa) = 23.64193 34.68502 29.16347
#
# Velocity S-wave (km/s) = 3.13153 3.79302 3.47804
# Velocity P-wave (km/s) = 5.23649 6.26990 5.77635
#
# Compressibility (1/GPa) = 0.02891424
#
# Stress axis : x y z
#
# Youngs Moduli (GPa) = 40.40024 147.03455 51.42843
#
# Poissons Ratio (x) = 0.22441 0.32557
# Poissons Ratio (y) = 0.06166 0.16380
# Poissons Ratio (z) = 0.25576 0.46831
#
# Static dielectric constant tensor:
#      x y z
#    x 1.936310 -0.030850 -0.026290 
#    y -0.030850 1.946920 0.040470 
#    z -0.026290 0.040470 1.963080 
# 
# From -- ./inp_files/209246.got.cif
#   From: 2010.05.17/outbox.cif.g08.bks.cpg/sg2_105_cif.got.tgz:209246.got - 2010.06.03 11:33:40.
