data_PCOD9037350
_publ_section_title
;
Structure prediction by ZEFSAII (Michael W. Deem and Ramdas Pophale) SiO2 
 PCOD9037350
Probable space group: P -1
;
_chemical_formula_sum "Si O2"
_cell_formula_units_Z 12
_cell_length_a 9.028644
_cell_length_b 7.494861
_cell_length_c 14.549416
_cell_angle_alpha 114.444522
_cell_angle_beta 63.138947
_cell_angle_gamma 144.606548
_cell_volume 506.731503
_symmetry_space_group_name_H-M "P -1"
_symmetry_group_IT_number 2
_symmetry_cell_setting 'triclinic'
loop_
_space_group_symop_operation_xyz
x,y,z
-x,-y,-z
loop_
_atom_site_type_symbol
_atom_site_label
_atom_site_fract_x
_atom_site_fract_y
_atom_site_fract_z
Si Si1 0.490789 0.670346 0.905174
Si Si2 0.997864 0.116551 0.429218
Si Si3 0.763504 0.217468 0.259564
Si Si4 0.676470 0.224854 0.861550
Si Si5 0.449738 0.674616 0.512171
Si Si6 0.956907 0.975496 0.212549
O O1 0.255518 0.353703 0.848281
O O2 0.586387 0.949105 0.882416
O O3 0.388879 0.652193 0.027870
O O4 0.754849 0.783664 0.860044
O O5 0.268164 0.481475 0.433093
O O6 0.739852 0.014084 0.481970
O O7 0.980945 0.963670 0.312721
O O8 0.000000 0.000000 0.500000
O O9 0.693062 0.322725 0.373257
O O10 0.015640 0.504213 0.188470
O O11 0.506750 0.938930 0.211563
O O12 0.856338 0.104420 0.258271
O O13 0.500000 0.500000 0.500000
#
# Coordination Sequence:
#
# PCOD9037350 Si02
#       6
#     2   2   2   2   2   2
#     4  11  26  46  72 102 137 185 233 277 336 419
#     4  10  23  40  65  98 129 184 225 278 334 407
#     4  12  26  43  71 106 141 178 227 289 348 404
#     4  11  26  46  72 102 137 185 233 277 336 419
#     4  10  23  40  65  98 129 184 225 278 334 407
#     4  12  26  43  71 106 141 178 227 289 348 404
#
# _framework density 23.681180000000001
#
# number of rings (size 3 to 8) (size 9 to 14) (size 15 to 20)
#    0.000    1.000    0.000    5.000   14.000    8.000 
#    0.000    0.000    0.000    0.000    0.000    0.000 
#    0.000    0.000    0.000    0.000    0.000    0.000 
#
# Total GULP energy -67197.286807 kJ/mol
# GULP energy per Si atom -5599.773901 kJ/mol
# Density = 2.362728 g / cm^3
# Si number density = 23.681180 Si / 1000 Ang^3
#
#
#
# Elastic Constant Matrix: (Units=GPa)
#
#
# Indices 1 2 3 4 5 6 
#
# 1 70.1706 16.4307 35.6745 7.0450 -19.5731 -2.4597
# 2 16.4307 142.8272 47.9323 16.0737 -8.1693 35.0017
# 3 35.6745 47.9323 141.3978 16.4955 -35.9850 -0.8903
# 4 7.0450 16.0737 16.4955 42.6470 8.4625 -1.3821
# 5 -19.5731 -8.1693 -35.9850 8.4625 35.0176 -11.1251
# 6 -2.4597 35.0017 -0.8903 -1.3821 -11.1251 38.7029
#
#
#
# Elastic Compliance Matrix: (Units=1/GPa)
#
#
# Indices 1 2 3 4 5 6 
#
# 1 0.019473 -0.002872 0.000247 -0.004773 0.014073 0.007715
# 2 -0.002872 0.012222 -0.005696 -0.000617 -0.008889 -0.013943
# 3 0.000247 -0.005696 0.014640 -0.006968 0.018937 0.010699
# 4 -0.004773 -0.000617 -0.006968 0.030746 -0.018734 -0.004193
# 5 0.014073 -0.008889 0.018937 -0.018734 0.067242 0.028028
# 6 0.007715 -0.013943 0.010699 -0.004193 0.028028 0.047091
#
#
# Mechanical properties :
#
#
# Convention : Reuss Voigt Hill
#
# Bulk Modulus (GPa) = 33.67772 61.60786 47.64279
# Shear Modulus (GPa) = 22.94079 40.23071 31.58575
#
# Velocity S-wave (km/s) = 3.11583 4.12618 3.65607
# Velocity P-wave (km/s) = 5.21504 6.98373 6.16316
#
# Compressibility (1/GPa) = 0.02969322
#
# Stress axis : x y z
#
# Youngs Moduli (GPa) = 51.35388 81.82295 68.30400
#
# Poissons Ratio (x) = 0.23499 -0.01690
# Poissons Ratio (y) = 0.14748 0.38908
# Poissons Ratio (z) = -0.01271 0.46609
#
# Static dielectric constant tensor:
#      x y z
#    x 1.873310 0.110300 0.030500 
#    y 0.110300 1.728090 -0.042070 
#    z 0.030500 -0.042070 1.852230 
# 
# From -- ./inp_files/313997.got.cif
#   From: 2010.05.17/outbox.cif.g08.bks.cpg/sg2_157_cif.got.tgz:313997.got - 2010.06.03 11:33:40.
