data_PCOD9037908
_publ_section_title
;
Structure prediction by ZEFSAII (Michael W. Deem and Ramdas Pophale) SiO2 
 PCOD9037908
Probable space group: P -1
;
_chemical_formula_sum "Si O2"
_cell_formula_units_Z 14
_cell_length_a 10.448879
_cell_length_b 10.755095
_cell_length_c 7.149067
_cell_angle_alpha 111.746658
_cell_angle_beta 112.189446
_cell_angle_gamma 55.817641
_cell_volume 602.108552
_symmetry_space_group_name_H-M "P -1"
_symmetry_group_IT_number 2
_symmetry_cell_setting 'triclinic'
loop_
_space_group_symop_operation_xyz
x,y,z
-x,-y,-z
loop_
_atom_site_type_symbol
_atom_site_label
_atom_site_fract_x
_atom_site_fract_y
_atom_site_fract_z
Si Si1 0.014182 0.228566 0.111907
Si Si2 0.729079 0.534806 0.137757
Si Si3 0.452700 0.388366 0.302823
Si Si4 0.006025 0.153169 0.635169
Si Si5 0.354133 0.162348 0.233607
Si Si6 0.329664 0.138272 0.755063
Si Si7 0.237222 0.709150 0.713597
O O1 0.194962 0.172268 0.231650
O O2 0.917773 0.415753 0.167261
O O3 0.907049 0.187250 0.166737
O O4 0.003424 0.179709 0.868881
O O5 0.684744 0.707183 0.251751
O O6 0.677065 0.451117 0.215905
O O7 0.655912 0.536189 0.895864
O O8 0.500000 0.500000 0.500000
O O9 0.375750 0.311269 0.345815
O O10 0.624529 0.253536 0.242114
O O11 0.167636 0.136339 0.634057
O O12 0.855180 0.289339 0.523171
O O13 0.000000 0.000000 0.500000
O O14 0.512658 0.012960 0.300976
O O15 0.339967 0.152315 0.994160
#
# Coordination Sequence:
#
# PCOD9037908 Si02
#       7
#     2   2   2   2   2   2   2
#     4   9  22  42  66  96 125 167 218 264 319 382
#     4   9  21  40  63  91 126 169 213 264 319 376
#     4  11  21  37  66  98 132 168 215 265 326 386
#     4  11  22  39  64  96 133 170 211 265 330 382
#     4   9  19  39  64  93 126 171 212 264 324 382
#     4   9  19  37  64  89 126 170 213 262 322 383
#     4  10  23  41  64  96 130 166 216 268 319 381
#
# _framework density 23.251619999999999
#
# number of rings (size 3 to 8) (size 9 to 14) (size 15 to 20)
#    0.857    1.429    0.000    2.143    0.000    8.571 
#    2.571    0.714    0.000    0.000    0.000    0.000 
#    0.000    0.000    0.000    0.000    0.000    0.000 
#
# Total GULP energy -78196.897059 kJ/mol
# GULP energy per Si atom -5585.492647 kJ/mol
# Density = 2.319870 g / cm^3
# Si number density = 23.251620 Si / 1000 Ang^3
#
#
#
# Elastic Constant Matrix: (Units=GPa)
#
#
# Indices 1 2 3 4 5 6 
#
# 1 87.4216 -2.8557 17.1539 -11.0911 -13.6400 -15.6815
# 2 -2.8557 81.4620 8.1428 -3.1737 6.5647 2.9926
# 3 17.1539 8.1428 69.2828 -2.4105 -9.3280 15.0376
# 4 -11.0911 -3.1737 -2.4105 22.2175 1.0413 7.5510
# 5 -13.6400 6.5647 -9.3280 1.0413 33.4892 -6.3149
# 6 -15.6815 2.9926 15.0376 7.5510 -6.3149 38.8869
#
#
#
# Elastic Compliance Matrix: (Units=1/GPa)
#
#
# Indices 1 2 3 4 5 6 
#
# 1 0.015326 0.000352 -0.004615 0.004133 0.006298 0.008158
# 2 0.000352 0.012844 -0.001684 0.002371 -0.003137 -0.001165
# 3 -0.004615 -0.001684 0.018013 0.002345 0.001722 -0.008873
# 4 0.004133 0.002371 0.002345 0.050990 -0.001518 -0.009570
# 5 0.006298 -0.003137 0.001722 -0.001518 0.035096 0.008109
# 6 0.008158 -0.001165 -0.008873 -0.009570 0.008109 0.035702
#
#
# Mechanical properties :
#
#
# Convention : Reuss Voigt Hill
#
# Bulk Modulus (GPa) = 29.16231 31.44985 30.30608
# Shear Modulus (GPa) = 26.13771 33.30041 29.71906
#
# Velocity S-wave (km/s) = 3.35643 3.78852 3.57900
# Velocity P-wave (km/s) = 5.25263 5.71772 5.49011
#
# Compressibility (1/GPa) = 0.03429084
#
# Stress axis : x y z
#
# Youngs Moduli (GPa) = 65.24767 77.85580 55.51417
#
# Poissons Ratio (x) = -0.02744 0.25620
# Poissons Ratio (y) = -0.02299 0.09348
# Poissons Ratio (z) = 0.30113 0.13109
#
# Static dielectric constant tensor:
#      x y z
#    x 1.895160 -0.035850 -0.055140 
#    y -0.035850 1.895650 0.018770 
#    z -0.055140 0.018770 1.872750 
# 
# From -- ./inp_files/260286.got.cif
#   From: 2010.05.17/outbox.cif.g08.bks.cpg/sg2_131_cif.got.tgz:260286.got - 2010.06.03 11:33:40.
