data_PCOD9037564
_publ_section_title
;
Structure prediction by ZEFSAII (Michael W. Deem and Ramdas Pophale) SiO2 
 PCOD9037564
Probable space group: P -1
;
_chemical_formula_sum "Si O2"
_cell_formula_units_Z 16
_cell_length_a 7.894114
_cell_length_b 14.461369
_cell_length_c 6.857778
_cell_angle_alpha 67.518222
_cell_angle_beta 89.674308
_cell_angle_gamma 111.326510
_cell_volume 664.251173
_symmetry_space_group_name_H-M "P -1"
_symmetry_group_IT_number 2
_symmetry_cell_setting 'triclinic'
loop_
_space_group_symop_operation_xyz
x,y,z
-x,-y,-z
loop_
_atom_site_type_symbol
_atom_site_label
_atom_site_fract_x
_atom_site_fract_y
_atom_site_fract_z
Si Si1 0.542649 0.639920 0.926048
Si Si2 0.158792 0.605020 0.013763
Si Si3 0.214557 0.186852 0.947389
Si Si4 0.189163 0.765614 0.559315
Si Si5 0.603020 0.479905 0.331079
Si Si6 0.101670 0.937802 0.670156
Si Si7 0.062614 0.361355 0.668982
Si Si8 0.552727 0.921419 0.208548
O O1 0.344041 0.589226 0.076922
O O2 0.515754 0.626769 0.704451
O O3 0.661021 0.759181 0.907096
O O4 0.641630 0.566214 0.081099
O O5 0.240792 0.699272 0.777181
O O6 0.000000 0.500000 0.000000
O O7 0.085220 0.655855 0.146767
O O8 0.172497 0.282445 0.763595
O O9 0.329806 0.136121 0.859368
O O10 0.018865 0.104906 0.098155
O O11 0.106575 0.841785 0.610016
O O12 0.362649 0.835921 0.369175
O O13 0.034415 0.674854 0.505236
O O14 0.500000 0.500000 0.500000
O O15 0.803695 0.512029 0.397975
O O16 0.309851 0.009594 0.677456
O O17 0.000000 0.000000 0.500000
O O18 0.500000 0.000000 0.000000
#
# Coordination Sequence:
#
# PCOD9037564 Si02
#       8
#     2   2   2   2   2   2   2   2
#     4  10  24  41  67  98 140 187 239 302 360 420
#     4  12  26  46  70 103 151 195 244 300 360 433
#     4  11  24  46  75 100 148 187 235 311 368 442
#     4  12  28  45  78 106 150 196 245 301 374 445
#     4  10  23  40  68  98 139 185 247 300 357 430
#     4  12  26  46  76 110 145 190 250 310 379 448
#     4  11  24  46  68 106 141 193 245 301 360 438
#     4  12  27  49  77 111 150 189 248 314 383 444
#
# _framework density 24.087275999999999
#
# number of rings (size 3 to 8) (size 9 to 14) (size 15 to 20)
#    0.000    0.750    2.500    3.750    7.000    3.500 
#    0.000    0.000    0.000    0.000    0.000    0.000 
#    0.000    0.000    0.000    0.000    0.000    0.000 
#
# Total GULP energy -89474.335550 kJ/mol
# GULP energy per Si atom -5592.145972 kJ/mol
# Density = 2.403245 g / cm^3
# Si number density = 24.087276 Si / 1000 Ang^3
#
#
#
# Elastic Constant Matrix: (Units=GPa)
#
#
# Indices 1 2 3 4 5 6 
#
# 1 86.7725 17.5144 15.3535 12.9735 -1.4195 -11.6344
# 2 17.5144 76.6172 22.2871 29.9745 10.0483 -12.5166
# 3 15.3535 22.2871 90.7950 15.0183 -7.2185 -13.4172
# 4 12.9735 29.9745 15.0183 54.9240 2.5638 -1.4732
# 5 -1.4195 10.0483 -7.2185 2.5638 43.2854 10.9075
# 6 -11.6344 -12.5166 -13.4172 -1.4732 10.9075 59.2140
#
#
#
# Elastic Compliance Matrix: (Units=1/GPa)
#
#
# Indices 1 2 3 4 5 6 
#
# 1 0.012554 -0.001591 -0.001162 -0.001743 0.000242 0.001779
# 2 -0.001591 0.019044 -0.002793 -0.008899 -0.005382 0.003850
# 3 -0.001162 -0.002793 0.012601 -0.001719 0.002423 0.001548
# 4 -0.001743 -0.008899 -0.001719 0.023847 0.000858 -0.002178
# 5 0.000242 -0.005382 0.002423 0.000858 0.026053 -0.005319
# 6 0.001779 0.003850 0.001548 -0.002178 -0.005319 0.019328
#
#
# Mechanical properties :
#
#
# Convention : Reuss Voigt Hill
#
# Bulk Modulus (GPa) = 30.20327 40.49939 35.35133
# Shear Modulus (GPa) = 36.88524 44.75333 40.81929
#
# Velocity S-wave (km/s) = 3.91745 4.31509 4.12107
# Velocity P-wave (km/s) = 5.74702 6.45575 6.11167
#
# Compressibility (1/GPa) = 0.03310900
#
# Stress axis : x y z
#
# Youngs Moduli (GPa) = 79.65449 52.50866 79.35580
#
# Poissons Ratio (x) = 0.08355 0.09220
# Poissons Ratio (y) = 0.12674 0.22161
# Poissons Ratio (z) = 0.09255 0.14663
#
# Static dielectric constant tensor:
#      x y z
#    x 2.098830 0.007300 -0.032140 
#    y 0.007300 1.995360 -0.004520 
#    z -0.032140 -0.004520 1.905770 
# 
# From -- ./inp_files/37956.got.cif
#   From: 2010.05.17/outbox.cif.g08.bks.cpg/sg2_19_cif.got.tgz:37956.got - 2010.06.03 11:33:40.
