data_PCOD9037122
_publ_section_title
;
Structure prediction by ZEFSAII (Michael W. Deem and Ramdas Pophale) SiO2 
 PCOD9037122
Probable space group: P -1
;
_chemical_formula_sum "Si O2"
_cell_formula_units_Z 16
_cell_length_a 12.170206
_cell_length_b 15.892456
_cell_length_c 8.938041
_cell_angle_alpha 109.800407
_cell_angle_beta 71.273898
_cell_angle_gamma 150.091390
_cell_volume 809.636399
_symmetry_space_group_name_H-M "P -1"
_symmetry_group_IT_number 2
_symmetry_cell_setting 'triclinic'
loop_
_space_group_symop_operation_xyz
x,y,z
-x,-y,-z
loop_
_atom_site_type_symbol
_atom_site_label
_atom_site_fract_x
_atom_site_fract_y
_atom_site_fract_z
Si Si1 0.613987 0.346097 0.387819
Si Si2 0.989875 0.490875 0.821712
Si Si3 0.068751 0.190158 0.190071
Si Si4 0.533559 0.466613 0.314980
Si Si5 0.337155 0.811466 0.420919
Si Si6 0.941214 0.604129 0.673743
Si Si7 0.689948 0.677056 0.116237
Si Si8 0.651606 0.849615 0.350387
O O1 0.593843 0.407976 0.307950
O O2 0.757015 0.472368 0.545443
O O3 0.380530 0.173984 0.468719
O O4 0.763791 0.368354 0.261765
O O5 0.819922 0.301790 0.724619
O O6 0.908502 0.528003 0.795722
O O7 0.000000 0.500000 0.000000
O O8 0.299888 0.317597 0.243842
O O9 0.034397 0.274351 0.242618
O O10 0.100027 0.177439 0.997603
O O11 0.880667 0.027977 0.281341
O O12 0.500000 0.500000 0.500000
O O13 0.710719 0.631155 0.228993
O O14 0.484745 0.819577 0.361479
O O15 0.155647 0.699479 0.562869
O O16 0.500000 0.000000 0.500000
O O17 0.610718 0.723467 0.226963
O O18 0.500000 0.500000 0.000000
#
# Coordination Sequence:
#
# PCOD9037122 Si02
#       8
#     2   2   2   2   2   2   2   2
#     4  11  21  40  65  92 125 178 227 269 320 402
#     4  11  25  40  68 101 131 169 232 279 331 396
#     4  11  24  37  65  96 133 169 215 273 344 389
#     4  11  21  39  62  90 123 167 222 267 312 388
#     4  11  22  41  70  97 128 177 218 274 336 401
#     4  11  20  41  67  95 123 176 232 262 328 416
#     4  10  23  40  61  89 126 170 217 267 326 388
#     4  12  21  40  68  91 132 172 225 263 334 407
#
# _framework density 19.761958
#
# number of rings (size 3 to 8) (size 9 to 14) (size 15 to 20)
#    0.000    1.000    6.250    1.875    1.750    1.500 
#    0.000    0.625    0.000    0.000    0.000    0.000 
#    0.000    0.000    0.000    0.000    0.000    0.000 
#
# Total GULP energy -89139.172943 kJ/mol
# GULP energy per Si atom -5571.198309 kJ/mol
# Density = 1.971698 g / cm^3
# Si number density = 19.761958 Si / 1000 Ang^3
#
#
#
# Elastic Constant Matrix: (Units=GPa)
#
#
# Indices 1 2 3 4 5 6 
#
# 1 130.3326 39.7424 49.7720 -11.8950 3.3664 -16.3016
# 2 39.7424 95.4596 42.6164 -19.1505 5.9755 -12.6942
# 3 49.7720 42.6164 129.7601 -22.7506 9.0581 -12.0354
# 4 -11.8950 -19.1505 -22.7506 33.7378 -0.9666 -5.1021
# 5 3.3664 5.9755 9.0581 -0.9666 36.9070 -6.2898
# 6 -16.3016 -12.6942 -12.0354 -5.1021 -6.2898 26.1191
#
#
#
# Elastic Compliance Matrix: (Units=1/GPa)
#
#
# Indices 1 2 3 4 5 6 
#
# 1 0.009961 -0.002242 -0.002519 0.001233 0.000857 0.004414
# 2 -0.002242 0.014568 -0.002127 0.006932 -0.000437 0.005950
# 3 -0.002519 -0.002127 0.010731 0.005569 -0.001387 0.003093
# 4 0.001233 0.006932 0.005569 0.040024 0.000961 0.014754
# 5 0.000857 -0.000437 -0.001387 0.000961 0.028605 0.006760
# 6 0.004414 0.005950 0.003093 0.014754 0.006760 0.049868
#
#
# Mechanical properties :
#
#
# Convention : Reuss Voigt Hill
#
# Bulk Modulus (GPa) = 46.54433 68.86820 57.70626
# Shear Modulus (GPa) = 28.62176 34.24756 31.43466
#
# Velocity S-wave (km/s) = 3.80982 4.16745 3.99264
# Velocity P-wave (km/s) = 6.55413 7.62112 7.10767
#
# Compressibility (1/GPa) = 0.02148489
#
# Stress axis : x y z
#
# Youngs Moduli (GPa) = 100.39635 68.64577 93.18598
#
# Poissons Ratio (x) = 0.15389 0.23469
# Poissons Ratio (y) = 0.22507 0.19819
# Poissons Ratio (z) = 0.25285 0.14600
#
# Static dielectric constant tensor:
#      x y z
#    x 1.716920 -0.014920 -0.023790 
#    y -0.014920 1.795050 -0.030600 
#    z -0.023790 -0.030600 1.702160 
# 
# From -- ./inp_files/223413.got.cif
#   From: 2010.05.17/outbox.cif.g08.bks.cpg/sg2_112_cif.got.tgz:223413.got - 2010.06.03 11:33:40.
