data_PCOD9037930
_publ_section_title
;
Structure prediction by ZEFSAII (Michael W. Deem and Ramdas Pophale) SiO2 
 PCOD9037930
Probable space group: P -1
;
_chemical_formula_sum "Si O2"
_cell_formula_units_Z 16
_cell_length_a 12.555775
_cell_length_b 7.202402
_cell_length_c 12.617052
_cell_angle_alpha 101.557732
_cell_angle_beta 32.392724
_cell_angle_gamma 98.372181
_cell_volume 598.247832
_symmetry_space_group_name_H-M "P -1"
_symmetry_group_IT_number 2
_symmetry_cell_setting 'triclinic'
loop_
_space_group_symop_operation_xyz
x,y,z
-x,-y,-z
loop_
_atom_site_type_symbol
_atom_site_label
_atom_site_fract_x
_atom_site_fract_y
_atom_site_fract_z
Si Si1 0.465282 0.734135 0.421838
Si Si2 0.069556 0.785714 0.030572
Si Si3 0.907848 0.241014 0.589165
Si Si4 0.351407 0.421305 0.961249
Si Si5 0.531763 0.827754 0.601824
Si Si6 0.672866 0.647772 0.807347
Si Si7 0.909610 0.921501 0.389300
Si Si8 0.969273 0.383095 0.170829
O O1 0.580785 0.633250 0.218787
O O2 0.565453 0.714762 0.450704
O O3 0.249216 0.653251 0.608504
O O4 0.457146 0.953401 0.418952
O O5 0.308823 0.794238 0.823417
O O6 0.992412 0.776191 0.972576
O O7 0.005872 0.585640 0.109286
O O8 0.987179 0.936826 0.204444
O O9 0.792747 0.442504 0.698734
O O10 0.148898 0.235587 0.371069
O O11 0.911440 0.169220 0.699393
O O12 0.842869 0.110199 0.531680
O O13 0.478010 0.605072 0.900184
O O14 0.401095 0.289324 0.006620
O O15 0.116275 0.397121 0.147715
O O16 0.713655 0.798472 0.526025
#
# Coordination Sequence:
#
# PCOD9037930 Si02
#       8
#     2   2   2   2   2   2   2   2
#     4  10  23  41  65  99 131 166 209 267 315 387
#     4  10  23  41  64  98 134 164 210 260 326 386
#     4  10  24  44  62  92 127 167 220 271 322 370
#     4  11  23  38  68  92 121 167 218 256 322 375
#     4  10  23  41  64  98 134 164 210 260 326 386
#     4  10  24  42  63  93 125 166 223 273 313 379
#     4  11  23  42  68  90 129 175 210 266 328 383
#     4  10  23  41  65  99 131 166 209 267 315 387
#
# _framework density 26.744765999999998
#
# number of rings (size 3 to 8) (size 9 to 14) (size 15 to 20)
#    0.000    1.750    0.000    2.250   10.500    0.000 
#    0.000    8.750    0.000    0.000    0.000    0.000 
#    0.000    0.000    0.000    0.000    0.000    0.000 
#
# Total GULP energy -89482.347198 kJ/mol
# GULP energy per Si atom -5592.646700 kJ/mol
# Density = 2.668389 g / cm^3
# Si number density = 26.744766 Si / 1000 Ang^3
#
#
#
# Elastic Constant Matrix: (Units=GPa)
#
#
# Indices 1 2 3 4 5 6 
#
# 1 142.7037 53.9776 43.1732 8.1174 1.0263 54.2511
# 2 53.9776 105.1775 40.3245 -9.9716 -0.7028 21.4773
# 3 43.1732 40.3245 138.8236 -15.2621 2.0187 24.7754
# 4 8.1174 -9.9716 -15.2621 40.5594 7.3684 4.2939
# 5 1.0263 -0.7028 2.0187 7.3684 32.0333 -4.2434
# 6 54.2511 21.4773 24.7754 4.2939 -4.2434 50.0337
#
#
#
# Elastic Compliance Matrix: (Units=1/GPa)
#
#
# Indices 1 2 3 4 5 6 
#
# 1 0.013972 -0.004448 -0.001076 -0.002682 -0.001531 -0.012607
# 2 -0.004448 0.012872 -0.001978 0.003355 -0.000226 -0.000030
# 3 -0.001076 -0.001978 0.009086 0.003798 -0.001848 -0.002966
# 4 -0.002682 0.003355 0.003798 0.029136 -0.007249 -0.003528
# 5 -0.001531 -0.000226 -0.001848 -0.007249 0.033862 0.006166
# 6 -0.012607 -0.000030 -0.002966 -0.003528 0.006166 0.035964
#
#
# Mechanical properties :
#
#
# Convention : Reuss Voigt Hill
#
# Bulk Modulus (GPa) = 47.78777 73.51726 60.65252
# Shear Modulus (GPa) = 31.87331 41.14058 36.50694
#
# Velocity S-wave (km/s) = 3.45593 3.92633 3.69862
# Velocity P-wave (km/s) = 5.81648 6.93562 6.40056
#
# Compressibility (1/GPa) = 0.02092585
#
# Stress axis : x y z
#
# Youngs Moduli (GPa) = 71.57254 77.69096 110.05530
#
# Poissons Ratio (x) = 0.34558 0.11839
# Poissons Ratio (y) = 0.31836 0.21770
# Poissons Ratio (z) = 0.07699 0.15368
#
# Static dielectric constant tensor:
#      x y z
#    x 2.111690 -0.044860 0.022690 
#    y -0.044860 2.122590 0.034720 
#    z 0.022690 0.034720 2.142910 
# 
# From -- ./inp_files/528904.got.cif
#   From: 2010.05.17/outbox.cif.g08.bks.cpg/sg2_265_cif.got.tgz:528904.got - 2010.06.03 11:33:40.
