data_PCOD9037180
_publ_section_title
;
Structure prediction by ZEFSAII (Michael W. Deem and Ramdas Pophale) SiO2 
 PCOD9037180
Probable space group: P -1
;
_chemical_formula_sum "Si O2"
_cell_formula_units_Z 14
_cell_length_a 12.037754
_cell_length_b 6.632205
_cell_length_c 14.992978
_cell_angle_alpha 106.394307
_cell_angle_beta 142.897579
_cell_angle_gamma 65.375408
_cell_volume 653.665908
_symmetry_space_group_name_H-M "P -1"
_symmetry_group_IT_number 2
_symmetry_cell_setting 'triclinic'
loop_
_space_group_symop_operation_xyz
x,y,z
-x,-y,-z
loop_
_atom_site_type_symbol
_atom_site_label
_atom_site_fract_x
_atom_site_fract_y
_atom_site_fract_z
Si Si1 0.316077 0.336953 0.361998
Si Si2 0.674607 0.431797 0.981217
Si Si3 0.233009 0.484585 0.753536
Si Si4 0.097145 0.135338 0.516692
Si Si5 0.731204 0.196676 0.560049
Si Si6 0.958293 0.966010 0.835346
Si Si7 0.803974 0.442056 0.873803
O O1 0.543452 0.197412 0.498143
O O2 0.270992 0.551221 0.424392
O O3 0.163783 0.205484 0.254597
O O4 0.312121 0.440306 0.272993
O O5 0.447972 0.475770 0.858997
O O6 0.703192 0.523172 0.913746
O O7 0.759656 0.516756 0.134051
O O8 0.813773 0.173752 0.030601
O O9 0.189629 0.277121 0.656078
O O10 0.064351 0.697334 0.630937
O O11 0.254180 0.953798 0.534883
O O12 0.000000 0.000000 0.500000
O O13 0.916137 0.078152 0.725396
O O14 0.869841 0.174710 0.870618
O O15 0.000000 0.500000 0.000000
#
# Coordination Sequence:
#
# PCOD9037180 Si02
#       7
#     2   2   2   2   2   2   2
#     4  10  23  40  63 100 128 166 214 268 334 390
#     4  11  23  46  67  91 137 173 214 273 322 394
#     4  10  26  47  65  96 129 177 225 266 322 384
#     4  11  25  44  70  95 125 173 225 273 320 376
#     4  10  23  41  64  95 130 167 217 269 325 393
#     4  11  22  41  67  93 131 174 207 270 340 388
#     4  11  24  38  64  99 130 167 214 265 333 390
#
# _framework density 21.417669
#
# number of rings (size 3 to 8) (size 9 to 14) (size 15 to 20)
#    0.000    1.429    2.857    0.857    6.000    0.000 
#    0.000    1.429    0.000    0.000    0.000    0.000 
#    0.000    0.000    0.000    0.000    0.000    0.000 
#
# Total GULP energy -78182.568245 kJ/mol
# GULP energy per Si atom -5584.469160 kJ/mol
# Density = 2.136892 g / cm^3
# Si number density = 21.417669 Si / 1000 Ang^3
#
#
#
# Elastic Constant Matrix: (Units=GPa)
#
#
# Indices 1 2 3 4 5 6 
#
# 1 79.6014 47.3236 14.4655 27.3653 -8.0128 -24.2854
# 2 47.3236 124.2782 29.9062 33.4161 -2.7870 -14.8615
# 3 14.4655 29.9062 83.1254 21.8753 -6.0400 -13.0839
# 4 27.3653 33.4161 21.8753 36.5667 -4.6879 -1.0122
# 5 -8.0128 -2.7870 -6.0400 -4.6879 37.1158 8.3067
# 6 -24.2854 -14.8615 -13.0839 -1.0122 8.3067 28.5261
#
#
#
# Elastic Compliance Matrix: (Units=1/GPa)
#
#
# Indices 1 2 3 4 5 6 
#
# 1 0.027947 -0.003634 0.005505 -0.020388 -0.001308 0.024081
# 2 -0.003634 0.012124 -0.001394 -0.007666 -0.001697 0.002805
# 3 0.005505 -0.001394 0.016610 -0.012511 -0.000305 0.011224
# 4 -0.020388 -0.007666 -0.012511 0.057148 0.006219 -0.026872
# 5 -0.001308 -0.001697 -0.000305 0.006219 0.029629 -0.010545
# 6 0.024081 0.002805 0.011224 -0.026872 -0.010545 0.064284
#
#
# Mechanical properties :
#
#
# Convention : Reuss Voigt Hill
#
# Bulk Modulus (GPa) = 17.35060 52.26617 34.80839
# Shear Modulus (GPa) = 22.12380 33.46237 27.79308
#
# Velocity S-wave (km/s) = 3.21747 3.95697 3.60623
# Velocity P-wave (km/s) = 4.68204 6.73299 5.79891
#
# Compressibility (1/GPa) = 0.05763488
#
# Stress axis : x y z
#
# Youngs Moduli (GPa) = 35.78215 82.47782 60.20301
#
# Poissons Ratio (x) = 0.29975 -0.33140
# Poissons Ratio (y) = 0.13004 0.08392
# Poissons Ratio (z) = -0.19697 0.11497
#
# Static dielectric constant tensor:
#      x y z
#    x 1.767200 -0.020030 -0.043730 
#    y -0.020030 1.791200 -0.030500 
#    z -0.043730 -0.030500 1.855750 
# 
# From -- ./inp_files/511111.got.cif
#   From: 2010.05.17/outbox.cif.g08.bks.cpg/sg2_256_cif.got.tgz:511111.got - 2010.06.03 11:33:40.
