data_PCOD9037958
_publ_section_title
;
Structure prediction by ZEFSAII (Michael W. Deem and Ramdas Pophale) SiO2 
 PCOD9037958
Probable space group: P -1
;
_chemical_formula_sum "Si O2"
_cell_formula_units_Z 14
_cell_length_a 9.107236
_cell_length_b 15.501287
_cell_length_c 14.608801
_cell_angle_alpha 42.719605
_cell_angle_beta 31.113377
_cell_angle_gamma 41.461482
_cell_volume 679.000240
_symmetry_space_group_name_H-M "P -1"
_symmetry_group_IT_number 2
_symmetry_cell_setting 'triclinic'
loop_
_space_group_symop_operation_xyz
x,y,z
-x,-y,-z
loop_
_atom_site_type_symbol
_atom_site_label
_atom_site_fract_x
_atom_site_fract_y
_atom_site_fract_z
Si Si1 0.838231 0.904803 0.711222
Si Si2 0.865205 0.922634 0.061023
Si Si3 0.146709 0.400541 0.085578
Si Si4 0.789304 0.788504 0.500086
Si Si5 0.793165 0.543093 0.794893
Si Si6 0.110222 0.953312 0.709908
Si Si7 0.869945 0.343871 0.759781
O O1 0.902408 0.746122 0.775148
O O2 0.934307 0.905270 0.764483
O O3 0.485964 0.990656 0.823851
O O4 0.000000 0.000000 0.500000
O O5 0.961491 0.775071 0.166910
O O6 0.017209 0.916754 0.886576
O O7 0.000000 0.000000 0.000000
O O8 0.036139 0.475694 0.184128
O O9 0.512024 0.368137 0.918972
O O10 0.000000 0.500000 0.000000
O O11 0.719074 0.698679 0.686668
O O12 0.467646 0.882133 0.558394
O O13 0.979542 0.702566 0.382207
O O14 0.951298 0.886496 0.379980
O O15 0.921714 0.467436 0.690033
O O16 0.500000 0.500000 0.000000
#
# Coordination Sequence:
#
# PCOD9037958 Si02
#       7
#     2   2   2   2   2   2   2
#     4  12  26  43  70 104 140 176 231 286 339 399
#     4  12  23  45  69  99 138 179 225 276 344 404
#     4  11  25  45  68  97 139 179 225 283 341 402
#     4  11  22  42  69 100 134 171 234 278 336 405
#     4  10  23  41  65  91 130 181 220 265 334 407
#     4  11  24  39  72 100 133 177 222 286 340 400
#     4  11  23  43  70  96 132 183 226 275 335 413
#
# _framework density 20.618549999999999
#
# number of rings (size 3 to 8) (size 9 to 14) (size 15 to 20)
#    0.000    0.857    2.857    4.286    8.000    0.000 
#    2.571    0.714    0.000    0.000    0.000    0.000 
#    0.000    0.000    0.000    0.000    0.000    0.000 
#
# Total GULP energy -78110.514521 kJ/mol
# GULP energy per Si atom -5579.322466 kJ/mol
# Density = 2.057162 g / cm^3
# Si number density = 20.618550 Si / 1000 Ang^3
#
#
#
# Elastic Constant Matrix: (Units=GPa)
#
#
# Indices 1 2 3 4 5 6 
#
# 1 135.9881 33.0136 24.8089 -7.0939 -13.1755 29.0406
# 2 33.0136 76.4746 27.9134 -16.1068 -8.5821 11.6573
# 3 24.8089 27.9134 77.1009 -11.7731 4.8258 13.3898
# 4 -7.0939 -16.1068 -11.7731 47.6263 -5.4452 4.7524
# 5 -13.1755 -8.5821 4.8258 -5.4452 28.1267 2.2501
# 6 29.0406 11.6573 13.3898 4.7524 2.2501 34.8037
#
#
#
# Elastic Compliance Matrix: (Units=1/GPa)
#
#
# Indices 1 2 3 4 5 6 
#
# 1 0.010436 -0.001661 -0.001346 0.002138 0.005691 -0.008294
# 2 -0.001661 0.018258 -0.004899 0.005940 0.007113 -0.004116
# 3 -0.001346 -0.004899 0.016372 0.002057 -0.004253 -0.003540
# 4 0.002138 0.005940 0.002057 0.025616 0.008107 -0.008587
# 5 0.005691 0.007113 -0.004253 0.008107 0.043441 -0.009410
# 6 -0.008294 -0.004116 -0.003540 -0.008587 -0.009410 0.040175
#
#
# Mechanical properties :
#
#
# Convention : Reuss Voigt Hill
#
# Bulk Modulus (GPa) = 34.18282 51.22614 42.70448
# Shear Modulus (GPa) = 27.79903 35.69987 31.74945
#
# Velocity S-wave (km/s) = 3.67584 4.16558 3.92835
# Velocity P-wave (km/s) = 5.88476 6.93070 6.42904
#
# Compressibility (1/GPa) = 0.02925446
#
# Stress axis : x y z
#
# Youngs Moduli (GPa) = 95.81824 54.77039 61.08017
#
# Poissons Ratio (x) = 0.09096 0.08222
# Poissons Ratio (y) = 0.15913 0.29923
# Poissons Ratio (z) = 0.12899 0.26832
#
# Static dielectric constant tensor:
#      x y z
#    x 1.717260 0.040590 0.012990 
#    y 0.040590 1.715460 0.006750 
#    z 0.012990 0.006750 1.742330 
# 
# From -- ./inp_files/184630.got.cif
#   From: 2010.05.17/outbox.cif.g08.bks.cpg/sg2_93_cif.got.tgz:184630.got - 2010.06.03 11:33:40.
