data_PCOD9037251
_publ_section_title
;
Structure prediction by ZEFSAII (Michael W. Deem and Ramdas Pophale) SiO2 
 PCOD9037251
Probable space group: P -1
;
_chemical_formula_sum "Si O2"
_cell_formula_units_Z 16
_cell_length_a 11.411103
_cell_length_b 10.144878
_cell_length_c 14.280021
_cell_angle_alpha 152.305442
_cell_angle_beta 99.938585
_cell_angle_gamma 94.153719
_cell_volume 658.818079
_symmetry_space_group_name_H-M "P -1"
_symmetry_group_IT_number 2
_symmetry_cell_setting 'triclinic'
loop_
_space_group_symop_operation_xyz
x,y,z
-x,-y,-z
loop_
_atom_site_type_symbol
_atom_site_label
_atom_site_fract_x
_atom_site_fract_y
_atom_site_fract_z
Si Si1 0.213651 0.833733 0.428484
Si Si2 0.733709 0.732157 0.967358
Si Si3 0.817573 0.188901 0.110854
Si Si4 0.798026 0.697672 0.528947
Si Si5 0.130854 0.614615 0.486780
Si Si6 0.459179 0.541005 0.915562
Si Si7 0.983278 0.759390 0.223073
Si Si8 0.272274 0.797417 0.094751
O O1 0.208299 0.753538 0.487040
O O2 0.072932 0.813836 0.362941
O O3 0.334828 0.192274 0.648718
O O4 0.232604 0.559333 0.203905
O O5 0.750169 0.837259 0.927340
O O6 0.834383 0.063767 0.245281
O O7 0.585501 0.632850 0.923443
O O8 0.736386 0.365800 0.252824
O O9 0.809480 0.197334 0.004711
O O10 0.974036 0.379475 0.287645
O O11 0.827167 0.594167 0.569636
O O12 0.935022 0.921847 0.627955
O O13 0.720106 0.906348 0.657206
O O14 0.409356 0.806894 0.086237
O O15 0.500000 0.500000 0.000000
O O16 0.822496 0.562668 0.099633
O O17 0.000000 0.500000 0.000000
#
# Coordination Sequence:
#
# PCOD9037251 Si02
#       8
#     2   2   2   2   2   2   2   2
#     4  12  25  46  77 103 137 188 234 295 356 412
#     4  11  26  46  70 102 143 186 237 287 346 422
#     4  11  24  42  74 107 141 178 234 291 355 420
#     4  10  23  40  64 106 140 179 221 285 353 413
#     4  11  24  42  75 109 141 180 233 291 357 417
#     4  12  28  48  70  97 141 193 244 284 340 424
#     4  10  24  39  71 105 141 176 226 291 361 409
#     4  11  25  44  68 101 142 182 232 291 350 413
#
# _framework density 24.285916
#
# number of rings (size 3 to 8) (size 9 to 14) (size 15 to 20)
#    0.000    1.000    2.500    3.375   12.250    2.500 
#    2.250    2.500    0.000    0.000    0.000    0.000 
#    0.000    0.000    0.000    0.000    0.000    0.000 
#
# Total GULP energy -89527.501522 kJ/mol
# GULP energy per Si atom -5595.468845 kJ/mol
# Density = 2.423064 g / cm^3
# Si number density = 24.285916 Si / 1000 Ang^3
#
#
#
# Elastic Constant Matrix: (Units=GPa)
#
#
# Indices 1 2 3 4 5 6 
#
# 1 85.4270 -8.7480 17.3373 15.9874 -13.9005 4.3565
# 2 -8.7480 89.6139 5.0833 6.7401 4.4474 8.4804
# 3 17.3373 5.0833 75.8861 9.7610 -28.3230 -14.6537
# 4 15.9874 6.7401 9.7610 35.7008 -3.7185 -0.9121
# 5 -13.9005 4.4474 -28.3230 -3.7185 35.3560 9.0476
# 6 4.3565 8.4804 -14.6537 -0.9121 9.0476 29.5865
#
#
#
# Elastic Compliance Matrix: (Units=1/GPa)
#
#
# Indices 1 2 3 4 5 6 
#
# 1 0.014487 0.002266 -0.002035 -0.006025 0.004518 -0.005358
# 2 0.002266 0.012274 -0.002530 -0.002946 -0.001801 -0.004645
# 3 -0.002035 -0.002530 0.020745 -0.002639 0.014091 0.006909
# 4 -0.006025 -0.002946 -0.002639 0.031906 -0.001212 0.001779
# 5 0.004518 -0.001801 0.014091 -0.001212 0.043080 -0.006381
# 6 -0.005358 -0.004645 0.006909 0.001779 -0.006381 0.041348
#
#
# Mechanical properties :
#
#
# Convention : Reuss Voigt Hill
#
# Bulk Modulus (GPa) = 23.30617 30.91915 27.11266
# Shear Modulus (GPa) = 27.36129 35.94563 31.65346
#
# Velocity S-wave (km/s) = 3.36018 3.85138 3.61413
# Velocity P-wave (km/s) = 4.96707 5.70408 5.34828
#
# Compressibility (1/GPa) = 0.04290709
#
# Stress axis : x y z
#
# Youngs Moduli (GPa) = 69.02829 81.47161 48.20512
#
# Poissons Ratio (x) = -0.18458 0.09809
# Poissons Ratio (y) = -0.15639 0.12196
# Poissons Ratio (z) = 0.14046 0.20613
#
# Static dielectric constant tensor:
#      x y z
#    x 1.942370 0.005140 -0.009790 
#    y 0.005140 2.000230 0.026920 
#    z -0.009790 0.026920 1.951190 
# 
# From -- ./inp_files/516482.got.cif
#   From: 2010.05.17/outbox.cif.g08.bks.cpg/sg2_259_cif.got.tgz:516482.got - 2010.06.03 11:33:40.
