data_PCOD9037592
_publ_section_title
;
Structure prediction by ZEFSAII (Michael W. Deem and Ramdas Pophale) SiO2 
 PCOD9037592
Probable space group: P -1
;
_chemical_formula_sum "Si O2"
_cell_formula_units_Z 16
_cell_length_a 9.042904
_cell_length_b 25.457800
_cell_length_c 11.215268
_cell_angle_alpha 21.976585
_cell_angle_beta 59.282605
_cell_angle_gamma 59.837993
_cell_volume 827.327902
_symmetry_space_group_name_H-M "P -1"
_symmetry_group_IT_number 2
_symmetry_cell_setting 'triclinic'
loop_
_space_group_symop_operation_xyz
x,y,z
-x,-y,-z
loop_
_atom_site_type_symbol
_atom_site_label
_atom_site_fract_x
_atom_site_fract_y
_atom_site_fract_z
Si Si1 0.479595 0.910092 0.537843
Si Si2 0.919106 0.781955 0.226024
Si Si3 0.119658 0.359162 0.216033
Si Si4 0.072558 0.769964 0.646555
Si Si5 0.006280 0.497366 0.643423
Si Si6 0.632977 0.602753 0.176101
Si Si7 0.653912 0.042344 0.766802
Si Si8 0.211386 0.986864 0.687079
O O1 0.420030 0.894305 0.460474
O O2 0.320276 0.975281 0.545084
O O3 0.645001 0.000129 0.296475
O O4 0.542607 0.760359 0.886646
O O5 0.843931 0.725400 0.499364
O O6 0.959538 0.649137 0.402376
O O7 0.095375 0.856034 0.022715
O O8 0.783438 0.904279 0.974316
O O9 0.006966 0.265274 0.374484
O O10 0.284729 0.402041 0.982173
O O11 0.000000 0.500000 0.000000
O O12 0.238110 0.854854 0.415512
O O13 0.920115 0.872965 0.552726
O O14 0.110246 0.619855 0.010965
O O15 0.195961 0.435164 0.737424
O O16 0.000000 0.500000 0.500000
O O17 0.500000 0.500000 0.500000
O O18 0.500000 0.000000 0.000000
#
# Coordination Sequence:
#
# PCOD9037592 Si02
#       8
#     2   2   2   2   2   2   2   2
#     4  11  23  42  65  99 138 164 221 276 326 400
#     4  11  24  43  70  97 128 176 221 268 332 395
#     4  11  21  43  68  96 130 169 228 267 317 404
#     4  10  23  43  66  93 128 178 216 269 329 388
#     4  11  24  42  67  99 130 170 222 265 328 397
#     4  11  23  42  68  98 130 178 217 274 329 380
#     4  11  27  42  65  97 133 172 216 275 339 381
#     4  10  23  40  69  95 127 175 220 266 331 387
#
# _framework density 19.339369000000001
#
# number of rings (size 3 to 8) (size 9 to 14) (size 15 to 20)
#    0.000    1.250    5.000    1.500    7.000    2.000 
#    0.000    1.875    0.000    0.000    0.000    0.000 
#    0.000    0.000    0.000    0.000    0.000    0.000 
#
# Total GULP energy -89274.496054 kJ/mol
# GULP energy per Si atom -5579.656003 kJ/mol
# Density = 1.929535 g / cm^3
# Si number density = 19.339369 Si / 1000 Ang^3
#
#
#
# Elastic Constant Matrix: (Units=GPa)
#
#
# Indices 1 2 3 4 5 6 
#
# 1 74.1031 49.6185 50.7168 6.2039 -7.9508 -3.2865
# 2 49.6185 91.1073 47.1068 -13.4827 -21.9909 5.9536
# 3 50.7168 47.1068 113.2977 -11.4702 -17.8434 0.3920
# 4 6.2039 -13.4827 -11.4702 39.0762 -2.2291 -1.2382
# 5 -7.9508 -21.9909 -17.8434 -2.2291 37.8507 9.9600
# 6 -3.2865 5.9536 0.3920 -1.2382 9.9600 32.6091
#
#
#
# Elastic Compliance Matrix: (Units=1/GPa)
#
#
# Indices 1 2 3 4 5 6 
#
# 1 0.034073 -0.018891 -0.010996 -0.015550 -0.012623 0.010280
# 2 -0.018891 0.027351 0.001017 0.013298 0.016170 -0.011344
# 3 -0.010996 0.001017 0.015071 0.006796 0.006640 -0.003245
# 4 -0.015550 0.013298 0.006796 0.035094 0.011366 -0.006216
# 5 -0.012623 0.016170 0.006640 0.011366 0.041300 -0.016487
# 6 0.010280 -0.011344 -0.003245 -0.006216 -0.016487 0.038612
#
#
# Mechanical properties :
#
#
# Convention : Reuss Voigt Hill
#
# Bulk Modulus (GPa) = 53.32155 63.71025 58.51590
# Shear Modulus (GPa) = 19.57000 30.64495 25.10747
#
# Velocity S-wave (km/s) = 3.18453 3.98501 3.60704
# Velocity P-wave (km/s) = 6.41506 7.36129 6.90440
#
# Compressibility (1/GPa) = 0.01875414
#
# Stress axis : x y z
#
# Youngs Moduli (GPa) = 29.34882 36.56185 66.35378
#
# Poissons Ratio (x) = 0.69069 0.72961
# Poissons Ratio (y) = 0.55443 -0.06745
# Poissons Ratio (z) = 0.32271 -0.03717
#
# Static dielectric constant tensor:
#      x y z
#    x 1.690890 -0.002400 -0.020420 
#    y -0.002400 1.677510 0.001820 
#    z -0.020420 0.001820 1.704520 
# 
# From -- ./inp_files/407301.got.cif
#   From: 2010.05.17/outbox.cif.g08.bks.cpg/sg2_204_cif.got.tgz:407301.got - 2010.06.03 11:33:40.
