data_PCOD9037912
_publ_section_title
;
Structure prediction by ZEFSAII (Michael W. Deem and Ramdas Pophale) SiO2 
 PCOD9037912
Probable space group: P -1
;
_chemical_formula_sum "Si O2"
_cell_formula_units_Z 16
_cell_length_a 14.544460
_cell_length_b 9.313405
_cell_length_c 21.488635
_cell_angle_alpha 128.683928
_cell_angle_beta 160.703714
_cell_angle_gamma 59.424461
_cell_volume 712.648502
_symmetry_space_group_name_H-M "P -1"
_symmetry_group_IT_number 2
_symmetry_cell_setting 'triclinic'
loop_
_space_group_symop_operation_xyz
x,y,z
-x,-y,-z
loop_
_atom_site_type_symbol
_atom_site_label
_atom_site_fract_x
_atom_site_fract_y
_atom_site_fract_z
Si Si1 0.373778 0.506859 0.988338
Si Si2 0.746724 0.536309 0.557781
Si Si3 0.680937 0.942399 0.313822
Si Si4 0.140456 0.968723 0.900044
Si Si5 0.690390 0.066414 0.703795
Si Si6 0.688011 0.473893 0.827833
Si Si7 0.822784 0.756720 0.105092
Si Si8 0.423574 0.803993 0.567548
O O1 0.557249 0.714079 0.190747
O O2 0.500000 0.500000 0.000000
O O3 0.369792 0.325568 0.979526
O O4 0.039258 0.489808 0.753348
O O5 0.558866 0.480585 0.359959
O O6 0.531489 0.393751 0.431890
O O7 0.890248 0.767429 0.702699
O O8 0.646156 0.074952 0.385760
O O9 0.448140 0.963361 0.119701
O O10 0.000000 0.000000 0.500000
O O11 0.168573 0.043385 0.867634
O O12 0.021094 0.117832 0.903343
O O13 0.592130 0.242510 0.714635
O O14 0.500000 0.000000 0.500000
O O15 0.674773 0.927487 0.715458
O O16 0.720196 0.589300 0.943107
O O17 0.000000 0.500000 0.000000
O O18 0.150464 0.769672 0.336837
#
# Coordination Sequence:
#
# PCOD9037912 Si02
#       8
#     2   2   2   2   2   2   2   2
#     4  10  23  46  69  95 129 166 215 274 321 378
#     4  10  23  41  64  96 131 170 219 262 318 387
#     4  11  24  46  69  94 130 169 219 274 322 381
#     4  11  23  43  66  96 132 173 214 269 323 386
#     4  12  22  42  64  95 140 168 215 266 322 390
#     4  12  22  39  63  93 133 172 209 262 318 380
#     4  11  22  41  66  99 130 170 216 258 324 386
#     4  11  23  41  66  97 132 177 212 265 325 381
#
# _framework density 22.451463
#
# number of rings (size 3 to 8) (size 9 to 14) (size 15 to 20)
#    0.000    1.000    3.750    3.000    0.000    1.000 
#    4.500    9.375    0.000    0.000    0.000    0.000 
#    0.000    0.000    0.000    0.000    0.000    0.000 
#
# Total GULP energy -89154.474644 kJ/mol
# GULP energy per Si atom -5572.154665 kJ/mol
# Density = 2.240036 g / cm^3
# Si number density = 22.451463 Si / 1000 Ang^3
#
#
#
# Elastic Constant Matrix: (Units=GPa)
#
#
# Indices 1 2 3 4 5 6 
#
# 1 114.5473 35.7184 17.7184 13.5257 -0.5550 27.1504
# 2 35.7184 112.9462 9.4526 14.8826 -2.1467 44.3491
# 3 17.7184 9.4526 77.6640 -1.1732 -11.1620 -0.9840
# 4 13.5257 14.8826 -1.1732 34.5549 -2.9178 0.0170
# 5 -0.5550 -2.1467 -11.1620 -2.9178 37.5846 6.0377
# 6 27.1504 44.3491 -0.9840 0.0170 6.0377 42.7647
#
#
#
# Elastic Compliance Matrix: (Units=1/GPa)
#
#
# Indices 1 2 3 4 5 6 
#
# 1 0.011436 0.000197 -0.002768 -0.004633 0.000212 -0.007556
# 2 0.000197 0.017211 -0.002087 -0.007319 0.002755 -0.018407
# 3 -0.002768 -0.002087 0.014387 0.002784 0.003730 0.003726
# 4 -0.004633 -0.007319 0.002784 0.034106 0.001318 0.010396
# 5 0.000212 0.002755 0.003730 0.001318 0.029104 -0.007015
# 6 -0.007556 -0.018407 0.003726 0.010396 -0.007015 0.048343
#
#
# Mechanical properties :
#
#
# Convention : Reuss Voigt Hill
#
# Bulk Modulus (GPa) = 29.65965 47.88183 38.77074
# Shear Modulus (GPa) = 28.54806 39.13204 33.84005
#
# Velocity S-wave (km/s) = 3.56974 4.17941 3.88655
# Velocity P-wave (km/s) = 5.49818 6.68304 6.11936
#
# Compressibility (1/GPa) = 0.03371584
#
# Stress axis : x y z
#
# Youngs Moduli (GPa) = 87.44288 58.10302 69.50724
#
# Poissons Ratio (x) = -0.01143 0.19241
# Poissons Ratio (y) = -0.01720 0.14510
# Poissons Ratio (z) = 0.24206 0.12129
#
# Static dielectric constant tensor:
#      x y z
#    x 1.980980 0.105460 0.337120 
#    y 0.105460 2.065220 0.338170 
#    z 0.337120 0.338170 2.598160 
# 
# From -- ./inp_files/597426.got.cif
#   From: 2010.05.17/outbox.cif.g08.bks.cpg/sg2_299_cif.got.tgz:597426.got - 2010.06.03 11:33:40.
