data_PCOD9037814
_publ_section_title
;
Structure prediction by ZEFSAII (Michael W. Deem and Ramdas Pophale) SiO2 
 PCOD9037814
Probable space group: P -1
;
_chemical_formula_sum "Si O2"
_cell_formula_units_Z 14
_cell_length_a 20.779408
_cell_length_b 12.843342
_cell_length_c 9.645375
_cell_angle_alpha 37.140008
_cell_angle_beta 154.032844
_cell_angle_gamma 142.230635
_cell_volume 653.449511
_symmetry_space_group_name_H-M "P -1"
_symmetry_group_IT_number 2
_symmetry_cell_setting 'triclinic'
loop_
_space_group_symop_operation_xyz
x,y,z
-x,-y,-z
loop_
_atom_site_type_symbol
_atom_site_label
_atom_site_fract_x
_atom_site_fract_y
_atom_site_fract_z
Si Si1 0.047369 0.118396 0.602064
Si Si2 0.149325 0.497056 0.376462
Si Si3 0.479386 0.703914 0.757363
Si Si4 0.966301 0.528783 0.246089
Si Si5 0.782991 0.158618 0.240709
Si Si6 0.853969 0.101529 0.748893
Si Si7 0.478070 0.965170 0.716668
O O1 0.166038 0.301873 0.585017
O O2 0.889967 0.137760 0.342481
O O3 0.000000 0.000000 0.500000
O O4 0.129437 0.060869 0.954069
O O5 0.293882 0.655821 0.451187
O O6 0.098255 0.494885 0.439210
O O7 0.000000 0.500000 0.000000
O O8 0.532316 0.858624 0.578886
O O9 0.525509 0.817667 0.868459
O O10 0.500000 0.500000 0.000000
O O11 0.811392 0.375735 0.074142
O O12 0.000000 0.500000 0.500000
O O13 0.999065 0.741693 0.076514
O O14 0.848644 0.098586 0.575022
O O15 0.610985 0.044683 0.000908
O O16 0.688678 0.125686 0.445213
#
# Coordination Sequence:
#
# PCOD9037814 Si02
#       7
#     2   2   2   2   2   2   2
#     4  11  24  36  65  97 124 160 216 266 318 373
#     4  11  21  39  62  88 122 160 207 261 315 378
#     4  11  24  40  63  94 134 165 211 270 325 377
#     4   9  19  37  61  85 117 161 203 249 307 371
#     4  10  23  41  63  93 129 169 210 259 324 384
#     4  11  21  42  66  91 127 167 214 265 316 382
#     4  11  24  41  67  93 130 173 214 261 326 384
#
# _framework density 21.424762000000001
#
# number of rings (size 3 to 8) (size 9 to 14) (size 15 to 20)
#    0.000    1.429    1.429    4.286    6.000    0.000 
#    0.000    0.000    0.000    2.571    0.000    0.000 
#    0.000    0.000    0.000    0.000    0.000    0.000 
#
# Total GULP energy -77976.935176 kJ/mol
# GULP energy per Si atom -5569.781084 kJ/mol
# Density = 2.137600 g / cm^3
# Si number density = 21.424762 Si / 1000 Ang^3
#
#
#
# Elastic Constant Matrix: (Units=GPa)
#
#
# Indices 1 2 3 4 5 6 
#
# 1 100.0551 24.9476 9.1854 5.2165 -15.1379 -7.2876
# 2 24.9476 136.5015 33.3235 10.7770 -11.9783 -2.0106
# 3 9.1854 33.3235 60.9931 5.3835 -6.5852 -6.2290
# 4 5.2165 10.7770 5.3835 37.0943 2.5597 0.4425
# 5 -15.1379 -11.9783 -6.5852 2.5597 19.3910 3.2054
# 6 -7.2876 -2.0106 -6.2290 0.4425 3.2054 36.5807
#
#
#
# Elastic Compliance Matrix: (Units=1/GPa)
#
#
# Indices 1 2 3 4 5 6 
#
# 1 0.011794 -0.001279 0.000168 -0.001914 0.008464 0.001589
# 2 -0.001279 0.009067 -0.004273 -0.002070 0.003551 -0.000770
# 3 0.000168 -0.004273 0.019587 -0.001930 0.003933 0.002813
# 4 -0.001914 -0.002070 -0.001930 0.028606 -0.007114 -0.000546
# 5 0.008464 0.003551 0.003933 -0.007114 0.063125 -0.002894
# 6 0.001589 -0.000770 0.002813 -0.000546 -0.002894 0.028350
#
#
# Mechanical properties :
#
#
# Convention : Reuss Voigt Hill
#
# Bulk Modulus (GPa) = 33.69477 48.05140 40.87308
# Shear Modulus (GPa) = 27.59505 33.95275 30.77390
#
# Velocity S-wave (km/s) = 3.59276 3.98520 3.79406
# Velocity P-wave (km/s) = 5.74210 6.60700 6.18968
#
# Compressibility (1/GPa) = 0.02967820
#
# Stress axis : x y z
#
# Youngs Moduli (GPa) = 84.78745 110.29362 51.05431
#
# Poissons Ratio (x) = 0.14109 -0.00857
# Poissons Ratio (y) = 0.10846 0.21818
# Poissons Ratio (z) = -0.01423 0.47134
#
# Static dielectric constant tensor:
#      x y z
#    x 1.784070 -0.007430 0.027970 
#    y -0.007430 1.876320 -0.040500 
#    z 0.027970 -0.040500 1.827100 
# 
# From -- ./inp_files/188977.got.cif
#   From: 2010.05.17/outbox.cif.g08.bks.cpg/sg2_95_cif.got.tgz:188977.got - 2010.06.03 11:33:40.
