data_PCOD9037778
_publ_section_title
;
Structure prediction by ZEFSAII (Michael W. Deem and Ramdas Pophale) SiO2 
 PCOD9037778
Probable space group: P -1
;
_chemical_formula_sum "Si O2"
_cell_formula_units_Z 14
_cell_length_a 16.607456
_cell_length_b 6.628115
_cell_length_c 6.660139
_cell_angle_alpha 113.003574
_cell_angle_beta 80.513918
_cell_angle_gamma 117.461334
_cell_volume 598.680533
_symmetry_space_group_name_H-M "P -1"
_symmetry_group_IT_number 2
_symmetry_cell_setting 'triclinic'
loop_
_space_group_symop_operation_xyz
x,y,z
-x,-y,-z
loop_
_atom_site_type_symbol
_atom_site_label
_atom_site_fract_x
_atom_site_fract_y
_atom_site_fract_z
Si Si1 0.379217 0.269455 0.352925
Si Si2 0.682484 0.571747 0.198609
Si Si3 0.434575 0.862540 0.184388
Si Si4 0.612134 0.242656 0.427374
Si Si5 0.942289 0.351986 0.160614
Si Si6 0.951410 0.782378 0.596868
Si Si7 0.793888 0.857306 0.904683
O O1 0.341560 0.243406 0.587588
O O2 0.424244 0.097441 0.198838
O O3 0.433249 0.565645 0.443650
O O4 0.295422 0.204133 0.211939
O O5 0.690294 0.391389 0.295916
O O6 0.763354 0.709383 0.068162
O O7 0.598083 0.374809 0.029775
O O8 0.536676 0.988663 0.276662
O O9 0.363860 0.786852 0.369450
O O10 0.929484 0.540106 0.386448
O O11 0.990245 0.223519 0.233184
O O12 0.000000 0.500000 0.000000
O O13 0.848728 0.141377 0.040228
O O14 0.862000 0.790321 0.722439
O O15 0.000000 0.000000 0.500000
#
# Coordination Sequence:
#
# PCOD9037778 Si02
#       7
#     2   2   2   2   2   2   2
#     4  10  25  40  62 100 128 171 221 268 330 386
#     4  10  23  41  62  98 131 172 218 267 336 377
#     4  11  20  44  68  88 135 180 220 279 317 380
#     4   9  22  43  63  96 130 173 235 266 315 400
#     4  11  26  47  74 102 125 179 225 265 343 401
#     4  11  26  47  74 101 131 172 226 273 330 412
#     4  12  25  44  67  97 142 164 214 281 325 400
#
# _framework density 23.38476
#
# number of rings (size 3 to 8) (size 9 to 14) (size 15 to 20)
#    0.857    0.571    2.857    1.286    2.000    4.571 
#    0.000    2.143    0.000    0.000    0.000    0.000 
#    0.000    0.000    0.000    0.000    0.000    0.000 
#
# Total GULP energy -78095.233025 kJ/mol
# GULP energy per Si atom -5578.230930 kJ/mol
# Density = 2.333154 g / cm^3
# Si number density = 23.384760 Si / 1000 Ang^3
#
#
#
# Elastic Constant Matrix: (Units=GPa)
#
#
# Indices 1 2 3 4 5 6 
#
# 1 35.2280 17.8980 11.3192 -15.5594 1.2065 5.8919
# 2 17.8980 122.9562 48.2402 -19.6357 -1.6590 28.6948
# 3 11.3192 48.2402 134.4258 -13.8968 -0.4274 17.3261
# 4 -15.5594 -19.6357 -13.8968 58.0964 14.7920 -9.9726
# 5 1.2065 -1.6590 -0.4274 14.7920 32.6072 -5.0663
# 6 5.8919 28.6948 17.3261 -9.9726 -5.0663 34.5671
#
#
#
# Elastic Compliance Matrix: (Units=1/GPa)
#
#
# Indices 1 2 3 4 5 6 
#
# 1 0.034725 -0.003085 -0.000717 0.009387 -0.005889 -0.001154
# 2 -0.003085 0.011646 -0.002809 0.001446 -0.001149 -0.007485
# 3 -0.000717 -0.002809 0.008826 0.000824 -0.000658 -0.001829
# 4 0.009387 0.001446 0.000824 0.023453 -0.010591 0.002001
# 5 -0.005889 -0.001149 -0.000658 -0.010591 0.036332 0.004557
# 6 -0.001154 -0.007485 -0.001829 0.002001 0.004557 0.037501
#
#
# Mechanical properties :
#
#
# Convention : Reuss Voigt Hill
#
# Bulk Modulus (GPa) = 23.82258 49.72499 36.77379
# Shear Modulus (GPa) = 27.82477 39.39765 33.61121
#
# Velocity S-wave (km/s) = 3.45319 4.10903 3.79530
# Velocity P-wave (km/s) = 5.10967 6.61983 5.91316
#
# Compressibility (1/GPa) = 0.04197699
#
# Stress axis : x y z
#
# Youngs Moduli (GPa) = 28.79781 85.86354 113.29855
#
# Poissons Ratio (x) = 0.26485 0.08119
# Poissons Ratio (y) = 0.08883 0.31827
# Poissons Ratio (z) = 0.02064 0.24120
#
# Static dielectric constant tensor:
#      x y z
#    x 1.865990 -0.041930 0.018080 
#    y -0.041930 1.937030 -0.069630 
#    z 0.018080 -0.069630 1.942340 
# 
# From -- ./inp_files/114800.got.cif
#   From: 2010.05.17/outbox.cif.g08.bks.cpg/sg2_58_cif.got.tgz:114800.got - 2010.06.03 11:33:40.
