data_PCOD9037008
_publ_section_title
;
Structure prediction by ZEFSAII (Michael W. Deem and Ramdas Pophale) SiO2 
 PCOD9037008
Probable space group: P -1
;
_chemical_formula_sum "Si O2"
_cell_formula_units_Z 16
_cell_length_a 7.679777
_cell_length_b 11.453561
_cell_length_c 16.710766
_cell_angle_alpha 137.874630
_cell_angle_beta 94.541397
_cell_angle_gamma 117.549237
_cell_volume 615.610086
_symmetry_space_group_name_H-M "P -1"
_symmetry_group_IT_number 2
_symmetry_cell_setting 'triclinic'
loop_
_space_group_symop_operation_xyz
x,y,z
-x,-y,-z
loop_
_atom_site_type_symbol
_atom_site_label
_atom_site_fract_x
_atom_site_fract_y
_atom_site_fract_z
Si Si1 0.369800 0.685142 0.818010
Si Si2 0.864143 0.684881 0.037049
Si Si3 0.982248 0.192487 0.081263
Si Si4 0.595104 0.692302 0.376261
Si Si5 0.299295 0.090614 0.781013
Si Si6 0.681886 0.975702 0.656401
Si Si7 0.684268 0.259178 0.336742
Si Si8 0.223069 0.859419 0.503692
O O1 0.389318 0.494569 0.744729
O O2 0.380387 0.716015 0.738670
O O3 0.034659 0.447943 0.702161
O O4 0.678919 0.007519 0.013419
O O5 0.851983 0.882084 0.157408
O O6 0.554934 0.377064 0.887802
O O7 0.055262 0.749185 0.145991
O O8 0.975063 0.741313 0.979551
O O9 0.271347 0.478314 0.275775
O O10 0.000000 0.000000 0.000000
O O11 0.761282 0.874713 0.554016
O O12 0.703713 0.915118 0.430177
O O13 0.408110 0.015933 0.801754
O O14 0.132863 0.864779 0.589406
O O15 0.479308 0.764198 0.613150
O O16 0.507191 0.975097 0.594786
O O17 0.000000 0.500000 0.500000
#
# Coordination Sequence:
#
# PCOD9037008 Si02
#       8
#     2   2   2   2   2   2   2   2
#     4  11  22  41  66  92 127 176 214 261 335 381
#     4  11  22  43  68 100 123 171 230 268 318 391
#     4  10  23  42  63  94 133 169 212 268 326 387
#     4  11  24  43  67  90 133 179 219 263 323 397
#     4  10  23  39  68  95 131 166 222 271 323 375
#     4  11  24  38  69  98 124 168 224 266 322 383
#     4  11  22  40  63  97 134 161 213 277 326 377
#     4  11  22  44  65  97 134 169 216 274 328 382
#
# _framework density 25.990478
#
# number of rings (size 3 to 8) (size 9 to 14) (size 15 to 20)
#    0.000    1.250    5.000    1.500    0.000    5.500 
#    2.250    0.625    0.000    0.000    0.000    0.000 
#    0.000    0.000    0.000    0.000    0.000    0.000 
#
# Total GULP energy -89338.295634 kJ/mol
# GULP energy per Si atom -5583.643477 kJ/mol
# Density = 2.593132 g / cm^3
# Si number density = 25.990478 Si / 1000 Ang^3
#
#
#
# Elastic Constant Matrix: (Units=GPa)
#
#
# Indices 1 2 3 4 5 6 
#
# 1 78.0431 -4.8619 -8.5482 2.4344 25.2360 1.3150
# 2 -4.8619 109.4463 11.5766 10.4483 -5.2534 -15.8982
# 3 -8.5482 11.5766 90.8966 2.1551 4.4970 -9.9982
# 4 2.4344 10.4483 2.1551 36.5694 0.8527 -6.5233
# 5 25.2360 -5.2534 4.4970 0.8527 29.4167 -3.7110
# 6 1.3150 -15.8982 -9.9982 -6.5233 -3.7110 32.3026
#
#
#
# Elastic Compliance Matrix: (Units=1/GPa)
#
#
# Indices 1 2 3 4 5 6 
#
# 1 0.018484 -0.000452 0.002382 -0.001283 -0.016567 -0.002400
# 2 -0.000452 0.010240 -0.000930 -0.002073 0.003012 0.004698
# 3 0.002382 -0.000930 0.011821 -0.000026 -0.003678 0.002676
# 4 -0.001283 -0.002073 -0.000026 0.028890 0.000518 0.004917
# 5 -0.016567 0.003012 -0.003678 0.000518 0.050161 0.006885
# 6 -0.002400 0.004698 0.002676 0.004917 0.006885 0.035979
#
#
# Mechanical properties :
#
#
# Convention : Reuss Voigt Hill
#
# Bulk Modulus (GPa) = 23.50473 30.52433 27.01453
# Shear Modulus (GPa) = 29.80510 38.33905 34.07207
#
# Velocity S-wave (km/s) = 3.39007 3.84489 3.62462
# Velocity P-wave (km/s) = 4.93829 5.61078 5.28524
#
# Compressibility (1/GPa) = 0.04254462
#
# Stress axis : x y z
#
# Youngs Moduli (GPa) = 54.10114 97.65616 84.59579
#
# Poissons Ratio (x) = 0.04416 -0.20150
# Poissons Ratio (y) = 0.02447 0.07866
# Poissons Ratio (z) = -0.12887 0.09080
#
# Static dielectric constant tensor:
#      x y z
#    x 2.175660 0.005120 0.038930 
#    y 0.005120 2.010950 0.014080 
#    z 0.038930 0.014080 2.086670 
# 
# From -- ./inp_files/559238.got.cif
#   From: 2010.05.17/outbox.cif.g08.bks.cpg/sg2_280_cif.got.tgz:559238.got - 2010.06.03 11:33:40.
