data_PCOD9037437
_publ_section_title
;
Structure prediction by ZEFSAII (Michael W. Deem and Ramdas Pophale) SiO2 
 PCOD9037437
Probable space group: P -1
;
_chemical_formula_sum "Si O2"
_cell_formula_units_Z 14
_cell_length_a 4.958955
_cell_length_b 26.598224
_cell_length_c 12.061231
_cell_angle_alpha 158.363353
_cell_angle_beta 113.617820
_cell_angle_gamma 65.569828
_cell_volume 533.443227
_symmetry_space_group_name_H-M "P -1"
_symmetry_group_IT_number 2
_symmetry_cell_setting 'triclinic'
loop_
_space_group_symop_operation_xyz
x,y,z
-x,-y,-z
loop_
_atom_site_type_symbol
_atom_site_label
_atom_site_fract_x
_atom_site_fract_y
_atom_site_fract_z
Si Si1 0.933398 0.854288 0.740959
Si Si2 0.705487 0.157833 0.856361
Si Si3 0.676984 0.255621 0.608645
Si Si4 0.204253 0.930063 0.546039
Si Si5 0.583065 0.512455 0.261604
Si Si6 0.479654 0.816468 0.888848
Si Si7 0.800557 0.453880 0.521839
O O1 0.087516 0.747728 0.457116
O O2 0.127742 0.835642 0.845800
O O3 0.597613 0.825545 0.637549
O O4 0.000000 0.000000 0.000000
O O5 0.637674 0.145840 0.691105
O O6 0.468581 0.184255 0.970902
O O7 0.869294 0.292646 0.174950
O O8 0.898143 0.014843 0.628463
O O9 0.822713 0.172500 0.568694
O O10 0.565912 0.406749 0.944061
O O11 0.397402 0.048729 0.858099
O O12 0.591204 0.670876 0.554248
O O13 0.309262 0.517877 0.312074
O O14 0.901842 0.476154 0.302077
O O15 0.500000 0.500000 0.500000
#
# Coordination Sequence:
#
# PCOD9037437 Si02
#       7
#     2   2   2   2   2   2   2
#     4  12  26  45  74 101 135 178 230 283 337 398
#     4  10  23  40  67 101 130 180 227 274 342 399
#     4  12  27  45  71 104 135 179 230 280 338 399
#     4  11  22  42  67  97 137 175 226 283 331 409
#     4  11  25  44  66  98 136 178 224 278 337 400
#     4  11  24  43  70  93 141 177 228 278 340 400
#     4  11  22  42  67  96 139 181 223 272 336 404
#
# _framework density 26.244592000000001
#
# number of rings (size 3 to 8) (size 9 to 14) (size 15 to 20)
#    0.000    0.857    2.857    3.857    2.000    1.143 
#    2.571    0.000    0.000    0.000    0.000    0.000 
#    0.000    0.000    0.000    0.000    0.000    0.000 
#
# Total GULP energy -78423.308802 kJ/mol
# GULP energy per Si atom -5601.664914 kJ/mol
# Density = 2.618486 g / cm^3
# Si number density = 26.244592 Si / 1000 Ang^3
#
#
#
# Elastic Constant Matrix: (Units=GPa)
#
#
# Indices 1 2 3 4 5 6 
#
# 1 100.3694 3.3822 19.3993 -5.7756 -13.6667 -1.6676
# 2 3.3822 71.0884 6.3871 -13.6657 -9.6408 4.8886
# 3 19.3993 6.3871 158.9590 -2.1373 -20.2798 10.9023
# 4 -5.7756 -13.6657 -2.1373 30.8311 4.1834 -2.9687
# 5 -13.6667 -9.6408 -20.2798 4.1834 46.7796 -12.6562
# 6 -1.6676 4.8886 10.9023 -2.9687 -12.6562 31.7651
#
#
#
# Elastic Compliance Matrix: (Units=1/GPa)
#
#
# Indices 1 2 3 4 5 6 
#
# 1 0.010737 0.000206 -0.001047 0.001821 0.003194 0.002334
# 2 0.000206 0.015723 -0.000208 0.006592 0.002415 -0.000759
# 3 -0.001047 -0.000208 0.006810 -0.000262 0.002221 -0.001500
# 4 0.001821 0.006592 -0.000262 0.036007 -0.000848 0.002198
# 5 0.003194 0.002415 0.002221 -0.000848 0.026411 0.009477
# 6 0.002334 -0.000759 -0.001500 0.002198 0.009477 0.036217
#
#
# Mechanical properties :
#
#
# Convention : Reuss Voigt Hill
#
# Bulk Modulus (GPa) = 32.07973 43.19487 37.63730
# Shear Modulus (GPa) = 34.62800 41.95838 38.29319
#
# Velocity S-wave (km/s) = 3.63634 4.00277 3.82395
# Velocity P-wave (km/s) = 5.46631 6.15282 5.81970
#
# Compressibility (1/GPa) = 0.03117233
#
# Stress axis : x y z
#
# Youngs Moduli (GPa) = 93.13513 63.60124 146.84859
#
# Poissons Ratio (x) = -0.01310 0.15371
# Poissons Ratio (y) = -0.01919 0.03055
# Poissons Ratio (z) = 0.09749 0.01323
#
# Static dielectric constant tensor:
#      x y z
#    x 2.053250 -0.055200 -0.025650 
#    y -0.055200 2.121810 0.003260 
#    z -0.025650 0.003260 2.035920 
# 
# From -- ./inp_files/72579.got.cif
#   From: 2010.05.17/outbox.cif.g08.bks.cpg/sg2_37_cif.got.tgz:72579.got - 2010.06.03 11:33:40.
