data_PCOD9037028
_publ_section_title
;
Structure prediction by ZEFSAII (Michael W. Deem and Ramdas Pophale) SiO2 
 PCOD9037028
Probable space group: P -1
;
_chemical_formula_sum "Si O2"
_cell_formula_units_Z 12
_cell_length_a 5.933606
_cell_length_b 15.654508
_cell_length_c 23.553831
_cell_angle_alpha 14.256468
_cell_angle_beta 124.652389
_cell_angle_gamma 120.533129
_cell_volume 433.093677
_symmetry_space_group_name_H-M "P -1"
_symmetry_group_IT_number 2
_symmetry_cell_setting 'triclinic'
loop_
_space_group_symop_operation_xyz
x,y,z
-x,-y,-z
loop_
_atom_site_type_symbol
_atom_site_label
_atom_site_fract_x
_atom_site_fract_y
_atom_site_fract_z
Si Si1 0.128010 0.958702 0.659577
Si Si2 0.676461 0.702632 0.954739
Si Si3 0.455871 0.625895 0.081583
Si Si4 0.829225 0.500925 0.775705
Si Si5 0.743111 0.542010 0.285757
Si Si6 0.186281 0.432517 0.512017
O O1 0.187588 0.549208 0.914408
O O2 0.089058 0.191760 0.446825
O O3 0.426661 0.996864 0.705135
O O4 0.875648 0.128676 0.554756
O O5 0.539203 0.480200 0.125114
O O6 0.908239 0.788447 0.976015
O O7 0.318855 0.378123 0.262677
O O8 0.685742 0.714247 0.103678
O O9 0.251910 0.000818 0.798029
O O10 0.571518 0.384848 0.781735
O O11 0.975004 0.614473 0.314869
O O12 0.500000 0.500000 0.500000
O O13 0.000000 0.500000 0.500000
#
# Coordination Sequence:
#
# PCOD9037028 Si02
#       6
#     2   2   2   2   2   2
#     4  11  23  39  66 101 143 188 230 284 344 428
#     4  11  23  39  66 101 143 188 230 284 344 428
#     4  10  25  42  69 101 134 181 229 294 350 425
#     4  10  23  39  69  94 146 175 241 274 362 409
#     4  10  25  42  69 101 134 181 229 294 350 425
#     4  12  30  48  77 105 141 181 244 306 372 429
#
# _framework density 27.707633000000001
#
# number of rings (size 3 to 8) (size 9 to 14) (size 15 to 20)
#    1.000    0.333    3.333    0.500    7.000    4.000 
#    0.000    3.333    0.000    0.000    0.000    0.000 
#    0.000    0.000    0.000    0.000    0.000    0.000 
#
# Total GULP energy -66805.712887 kJ/mol
# GULP energy per Si atom -5567.142741 kJ/mol
# Density = 2.764457 g / cm^3
# Si number density = 27.707633 Si / 1000 Ang^3
#
#
#
# Elastic Constant Matrix: (Units=GPa)
#
#
# Indices 1 2 3 4 5 6 
#
# 1 100.6517 47.1602 37.2172 9.5389 7.3021 6.4454
# 2 47.1602 108.4677 45.5730 38.3333 16.1305 2.2749
# 3 37.2172 45.5730 142.5625 46.2257 25.9560 16.1002
# 4 9.5389 38.3333 46.2257 65.8917 7.3705 11.8332
# 5 7.3021 16.1305 25.9560 7.3705 68.3334 13.4706
# 6 6.4454 2.2749 16.1002 11.8332 13.4706 47.9230
#
#
#
# Elastic Compliance Matrix: (Units=1/GPa)
#
#
# Indices 1 2 3 4 5 6 
#
# 1 0.013534 -0.006172 -0.002767 0.003786 0.001011 -0.001817
# 2 -0.006172 0.015210 -0.000617 -0.007775 -0.002434 0.002919
# 3 -0.002767 -0.000617 0.010525 -0.006168 -0.002725 -0.000846
# 4 0.003786 -0.007775 -0.006168 0.024071 0.002084 -0.004597
# 5 0.001011 -0.002434 -0.002725 0.002084 0.016765 -0.004332
# 6 -0.001817 0.002919 -0.000846 -0.004597 -0.004332 0.023610
#
#
# Mechanical properties :
#
#
# Convention : Reuss Voigt Hill
#
# Bulk Modulus (GPa) = 49.60516 67.95361 58.77939
# Shear Modulus (GPa) = 38.59616 51.21171 44.90393
#
# Velocity S-wave (km/s) = 3.73631 4.30384 4.03008
# Velocity P-wave (km/s) = 6.04610 7.01967 6.55100
#
# Compressibility (1/GPa) = 0.02015919
#
# Stress axis : x y z
#
# Youngs Moduli (GPa) = 73.88531 65.74462 95.00782
#
# Poissons Ratio (x) = 0.40580 0.26285
# Poissons Ratio (y) = 0.45605 0.05858
# Poissons Ratio (z) = 0.20441 0.04054
#
# Static dielectric constant tensor:
#      x y z
#    x 2.405750 0.143300 0.108210 
#    y 0.143300 2.297840 0.031070 
#    z 0.108210 0.031070 2.079550 
# 
# From -- ./inp_files/604884.got.cif
#   From: 2010.05.17/outbox.cif.g08.bks.cpg/sg2_303_cif.got.tgz:604884.got - 2010.06.03 11:33:40.
