data_PCOD9037853
_publ_section_title
;
Structure prediction by ZEFSAII (Michael W. Deem and Ramdas Pophale) SiO2 
 PCOD9037853
Probable space group: P -1
;
_chemical_formula_sum "Si O2"
_cell_formula_units_Z 12
_cell_length_a 11.244783
_cell_length_b 11.444816
_cell_length_c 10.645967
_cell_angle_alpha 41.139380
_cell_angle_beta 35.038751
_cell_angle_gamma 40.327482
_cell_volume 477.428509
_symmetry_space_group_name_H-M "P -1"
_symmetry_group_IT_number 2
_symmetry_cell_setting 'triclinic'
loop_
_space_group_symop_operation_xyz
x,y,z
-x,-y,-z
loop_
_atom_site_type_symbol
_atom_site_label
_atom_site_fract_x
_atom_site_fract_y
_atom_site_fract_z
Si Si1 0.147458 0.625935 0.288456
Si Si2 0.982858 0.848148 0.504034
Si Si3 0.582059 0.269106 0.209876
Si Si4 0.517724 0.992217 0.693174
Si Si5 0.253539 0.527117 0.728170
Si Si6 0.888441 0.806878 0.944099
O O1 0.040016 0.776030 0.369366
O O2 0.396418 0.478396 0.231297
O O3 0.000000 0.500000 0.500000
O O4 0.189380 0.720745 0.047506
O O5 0.103842 0.665825 0.635128
O O6 0.713032 0.924909 0.682543
O O7 0.083692 0.013278 0.294943
O O8 0.588789 0.129069 0.429991
O O9 0.490397 0.182953 0.240636
O O10 0.270422 0.106416 0.870035
O O11 0.500000 0.500000 0.500000
O O12 0.232408 0.322705 0.910374
O O13 0.145068 0.646225 0.851997
#
# Coordination Sequence:
#
# PCOD9037853 Si02
#       6
#     2   2   2   2   2   2
#     4  11  22  42  66 102 144 192 235 283 345 420
#     4  12  25  43  72 106 138 187 236 290 354 420
#     4  10  23  41  63  99 145 187 235 281 338 416
#     4  11  23  42  67 102 141 185 236 283 346 423
#     4  11  27  49  72 102 139 180 241 301 358 420
#     4  11  25  47  71 104 136 186 235 296 359 416
#
# _framework density 25.134654000000001
#
# number of rings (size 3 to 8) (size 9 to 14) (size 15 to 20)
#    0.000    1.000    3.333    2.500    0.000    7.333 
#    0.000    0.000    0.000    0.000    0.000    0.000 
#    0.000    0.000    0.000    0.000    0.000    0.000 
#
# Total GULP energy -67170.390335 kJ/mol
# GULP energy per Si atom -5597.532528 kJ/mol
# Density = 2.507745 g / cm^3
# Si number density = 25.134654 Si / 1000 Ang^3
#
#
#
# Elastic Constant Matrix: (Units=GPa)
#
#
# Indices 1 2 3 4 5 6 
#
# 1 72.3531 28.0823 42.2772 -0.6442 -8.6389 -16.0243
# 2 28.0823 117.6440 46.7932 14.7375 -1.7866 5.1174
# 3 42.2772 46.7932 205.1659 -7.5436 -11.2057 -4.3111
# 4 -0.6442 14.7375 -7.5436 64.4011 1.0116 -3.3704
# 5 -8.6389 -1.7866 -11.2057 1.0116 35.0866 0.7898
# 6 -16.0243 5.1174 -4.3111 -3.3704 0.7898 34.0770
#
#
#
# Elastic Compliance Matrix: (Units=1/GPa)
#
#
# Indices 1 2 3 4 5 6 
#
# 1 0.019496 -0.004123 -0.002640 0.001271 0.003497 0.009498
# 2 -0.004123 0.010745 -0.001841 -0.002914 -0.000881 -0.004053
# 3 -0.002640 -0.001841 0.005936 0.001066 0.001124 -0.000135
# 4 0.001271 -0.002914 0.001066 0.016479 -0.000033 0.002801
# 5 0.003497 -0.000881 0.001124 -0.000033 0.029649 0.001228
# 6 0.009498 -0.004053 -0.000135 0.002801 0.001228 0.034652
#
#
# Mechanical properties :
#
#
# Convention : Reuss Voigt Hill
#
# Bulk Modulus (GPa) = 52.71999 69.94094 61.33047
# Shear Modulus (GPa) = 35.59006 45.24697 40.41852
#
# Velocity S-wave (km/s) = 3.76703 4.24746 4.01444
# Velocity P-wave (km/s) = 6.31991 7.20704 6.77800
#
# Compressibility (1/GPa) = 0.01896814
#
# Stress axis : x y z
#
# Youngs Moduli (GPa) = 51.29198 93.06771 168.46920
#
# Poissons Ratio (x) = 0.38374 0.44472
# Poissons Ratio (y) = 0.21149 0.31022
# Poissons Ratio (z) = 0.13540 0.17138
#
# Static dielectric constant tensor:
#      x y z
#    x 2.064100 0.022360 0.022470 
#    y 0.022360 1.951200 0.034420 
#    z 0.022470 0.034420 1.977910 
# 
# From -- ./inp_files/89420.got.cif
#   From: 2010.05.17/outbox.cif.g08.bks.cpg/sg2_45_cif.got.tgz:89420.got - 2010.06.03 11:33:40.
