data_PCOD9037765
_publ_section_title
;
Structure prediction by ZEFSAII (Michael W. Deem and Ramdas Pophale) SiO2 
 PCOD9037765
Probable space group: P -1
;
_chemical_formula_sum "Si O2"
_cell_formula_units_Z 14
_cell_length_a 8.211258
_cell_length_b 25.477480
_cell_length_c 6.618131
_cell_angle_alpha 115.012915
_cell_angle_beta 61.072694
_cell_angle_gamma 147.746083
_cell_volume 646.415648
_symmetry_space_group_name_H-M "P -1"
_symmetry_group_IT_number 2
_symmetry_cell_setting 'triclinic'
loop_
_space_group_symop_operation_xyz
x,y,z
-x,-y,-z
loop_
_atom_site_type_symbol
_atom_site_label
_atom_site_fract_x
_atom_site_fract_y
_atom_site_fract_z
Si Si1 0.352651 0.594050 0.364579
Si Si2 0.715197 0.012301 0.751999
Si Si3 0.725429 0.148049 0.573514
Si Si4 0.320324 0.093181 0.080567
Si Si5 0.741336 0.802017 0.515276
Si Si6 0.412560 0.516932 0.885830
Si Si7 0.834210 0.643501 0.453273
O O1 0.465664 0.688550 0.440041
O O2 0.584405 0.617411 0.420213
O O3 0.000000 0.500000 0.500000
O O4 0.356373 0.564866 0.096002
O O5 0.545429 0.953887 0.549037
O O6 0.725052 0.954881 0.769460
O O7 0.056244 0.124288 0.677761
O O8 0.500000 0.000000 0.000000
O O9 0.007732 0.173887 0.473528
O O10 0.858821 0.238775 0.529541
O O11 0.601755 0.138716 0.849223
O O12 0.363306 0.170349 0.241603
O O13 0.000000 0.000000 0.000000
O O14 0.685126 0.592844 0.678211
O O15 0.138414 0.411496 0.765791
O O16 0.500000 0.500000 0.000000
#
# Coordination Sequence:
#
# PCOD9037765 Si02
#       7
#     2   2   2   2   2   2   2
#     4  10  23  41  62  94 130 165 214 268 325 383
#     4  12  24  42  69  98 133 176 217 267 333 391
#     4  11  24  43  66  96 133 174 217 267 331 391
#     4  12  25  44  66  96 137 170 221 269 321 395
#     4  11  24  45  65  97 134 174 220 273 326 389
#     4   9  19  40  63  86 123 162 214 262 314 378
#     4   9  21  40  65  92 121 170 216 262 324 387
#
# _framework density 21.657892
#
# number of rings (size 3 to 8) (size 9 to 14) (size 15 to 20)
#    0.000    1.429    2.857    1.714    4.000    1.714 
#    5.143    0.000    0.000    0.000    0.000    0.000 
#    0.000    0.000    0.000    0.000    0.000    0.000 
#
# Total GULP energy -78237.721597 kJ/mol
# GULP energy per Si atom -5588.408686 kJ/mol
# Density = 2.160860 g / cm^3
# Si number density = 21.657892 Si / 1000 Ang^3
#
#
#
# Elastic Constant Matrix: (Units=GPa)
#
#
# Indices 1 2 3 4 5 6 
#
# 1 42.8854 19.7270 24.5476 14.8944 -6.5658 -17.1228
# 2 19.7270 157.9453 54.5026 18.0982 -8.9155 -31.8293
# 3 24.5476 54.5026 146.1188 21.7510 -14.4311 -21.8214
# 4 14.8944 18.0982 21.7510 33.7007 -20.1059 -4.0970
# 5 -6.5658 -8.9155 -14.4311 -20.1059 26.2458 0.0581
# 6 -17.1228 -31.8293 -21.8214 -4.0970 0.0581 34.0339
#
#
#
# Elastic Compliance Matrix: (Units=1/GPa)
#
#
# Indices 1 2 3 4 5 6 
#
# 1 0.034752 0.000942 -0.002054 -0.014730 -0.003434 0.015280
# 2 0.000942 0.008609 -0.001895 -0.003167 -0.000323 0.006929
# 3 -0.002054 -0.001895 0.008811 -0.002308 0.001913 0.002563
# 4 -0.014730 -0.003167 -0.002308 0.064981 0.043759 -0.004105
# 5 -0.003434 -0.000323 0.001913 0.043759 0.071697 0.004342
# 6 0.015280 0.006929 0.002563 -0.004105 0.004342 0.044692
#
#
# Mechanical properties :
#
#
# Convention : Reuss Voigt Hill
#
# Bulk Modulus (GPa) = 21.66539 60.50043 41.08291
# Shear Modulus (GPa) = 19.61241 35.34090 27.47665
#
# Velocity S-wave (km/s) = 3.01251 4.04391 3.56570
# Velocity P-wave (km/s) = 4.70377 7.05688 5.99687
#
# Compressibility (1/GPa) = 0.04615656
#
# Stress axis : x y z
#
# Youngs Moduli (GPa) = 28.77570 116.16365 113.49606
#
# Poissons Ratio (x) = -0.10939 0.23311
# Poissons Ratio (y) = -0.02710 0.21507
# Poissons Ratio (z) = 0.05910 0.22013
#
# Static dielectric constant tensor:
#      x y z
#    x 1.850360 -0.008810 0.007710 
#    y -0.008810 1.730770 0.032640 
#    z 0.007710 0.032640 1.794380 
# 
# From -- ./inp_files/37148.got.cif
#   From: 2010.05.17/outbox.cif.g08.bks.cpg/sg2_19_cif.got.tgz:37148.got - 2010.06.03 11:33:40.
