data_PCOD9037408
_publ_section_title
;
Structure prediction by ZEFSAII (Michael W. Deem and Ramdas Pophale) SiO2 
 PCOD9037408
Probable space group: P -1
;
_chemical_formula_sum "Si O2"
_cell_formula_units_Z 14
_cell_length_a 13.348911
_cell_length_b 8.616961
_cell_length_c 8.326182
_cell_angle_alpha 103.536572
_cell_angle_beta 63.931203
_cell_angle_gamma 57.175025
_cell_volume 563.956175
_symmetry_space_group_name_H-M "P -1"
_symmetry_group_IT_number 2
_symmetry_cell_setting 'triclinic'
loop_
_space_group_symop_operation_xyz
x,y,z
-x,-y,-z
loop_
_atom_site_type_symbol
_atom_site_label
_atom_site_fract_x
_atom_site_fract_y
_atom_site_fract_z
Si Si1 0.627587 0.785233 0.982680
Si Si2 0.262399 0.891899 0.256306
Si Si3 0.091827 0.861274 0.130025
Si Si4 0.343316 0.011985 0.486186
Si Si5 0.729604 0.221607 0.326993
Si Si6 0.836353 0.589960 0.063691
Si Si7 0.582802 0.554818 0.761214
O O1 0.769914 0.722903 0.969008
O O2 0.512971 0.842359 0.225312
O O3 0.693729 0.571543 0.773118
O O4 0.500000 0.000000 0.000000
O O5 0.125062 0.930364 0.280517
O O6 0.365793 0.665777 0.246200
O O7 0.217952 0.086890 0.449296
O O8 0.397940 0.792574 0.002542
O O9 0.213240 0.811451 0.900926
O O10 0.135576 0.627357 0.039129
O O11 0.901974 0.072734 0.264282
O O12 0.294753 0.226600 0.659064
O O13 0.329545 0.891000 0.603865
O O14 0.607445 0.488901 0.542513
O O15 0.000000 0.500000 0.000000
#
# Coordination Sequence:
#
# PCOD9037408 Si02
#       7
#     2   2   2   2   2   2   2
#     4  11  25  45  70 101 137 182 228 281 341 413
#     4   9  19  39  66  91 126 172 225 278 330 397
#     4  11  23  41  66  99 136 179 227 275 341 407
#     4  10  23  44  67  99 137 177 225 284 345 398
#     4  10  23  40  66  96 135 172 230 276 341 398
#     4  12  25  46  69 101 144 182 221 283 348 404
#     4   9  19  39  62  93 125 167 227 279 331 386
#
# _framework density 24.824625000000001
#
# number of rings (size 3 to 8) (size 9 to 14) (size 15 to 20)
#    0.000    1.714    2.857    1.286    2.000    6.286 
#    0.000    0.714    0.000    0.000    0.000    0.000 
#    0.000    0.000    0.000    0.000    0.000    0.000 
#
# Total GULP energy -78133.455202 kJ/mol
# GULP energy per Si atom -5580.961086 kJ/mol
# Density = 2.476812 g / cm^3
# Si number density = 24.824625 Si / 1000 Ang^3
#
#
#
# Elastic Constant Matrix: (Units=GPa)
#
#
# Indices 1 2 3 4 5 6 
#
# 1 155.1796 41.5690 13.8564 -4.7685 38.1732 -15.3250
# 2 41.5690 62.6450 8.6679 -6.1181 -1.1820 -9.2334
# 3 13.8564 8.6679 103.4243 -9.1410 3.1083 2.9130
# 4 -4.7685 -6.1181 -9.1410 27.4005 14.7390 4.8967
# 5 38.1732 -1.1820 3.1083 14.7390 41.4984 -1.3993
# 6 -15.3250 -9.2334 2.9130 4.8967 -1.3993 31.9234
#
#
#
# Elastic Compliance Matrix: (Units=1/GPa)
#
#
# Indices 1 2 3 4 5 6 
#
# 1 0.012404 -0.007448 0.000035 0.007880 -0.014357 0.001959
# 2 -0.007448 0.021558 -0.001344 -0.002082 0.008422 0.003471
# 3 0.000035 -0.001344 0.010363 0.005010 -0.002700 -0.002204
# 4 0.007880 -0.002082 0.005010 0.055097 -0.027486 -0.006932
# 5 -0.014357 0.008422 -0.002700 -0.027486 0.047579 0.002092
# 6 0.001959 0.003471 -0.002204 -0.006932 0.002092 0.034625
#
#
# Mechanical properties :
#
#
# Convention : Reuss Voigt Hill
#
# Bulk Modulus (GPa) = 37.29735 49.93730 43.61732
# Shear Modulus (GPa) = 24.02962 37.30819 30.66890
#
# Velocity S-wave (km/s) = 3.11461 3.88089 3.51867
# Velocity P-wave (km/s) = 5.29068 6.34362 5.84092
#
# Compressibility (1/GPa) = 0.02681156
#
# Stress axis : x y z
#
# Youngs Moduli (GPa) = 80.62234 46.38574 96.49877
#
# Poissons Ratio (x) = 0.34548 -0.00340
# Poissons Ratio (y) = 0.60047 0.12967
# Poissons Ratio (z) = -0.00284 0.06233
#
# Static dielectric constant tensor:
#      x y z
#    x 2.092670 0.010100 -0.018040 
#    y 0.010100 2.017820 0.013270 
#    z -0.018040 0.013270 2.024400 
# 
# From -- ./inp_files/298722.got.cif
#   From: 2010.05.17/outbox.cif.g08.bks.cpg/sg2_150_cif.got.tgz:298722.got - 2010.06.03 11:33:40.
