data_PCOD9037291
_publ_section_title
;
Structure prediction by ZEFSAII (Michael W. Deem and Ramdas Pophale) SiO2 
 PCOD9037291
Probable space group: P -1
;
_chemical_formula_sum "Si O2"
_cell_formula_units_Z 16
_cell_length_a 9.634613
_cell_length_b 14.605741
_cell_length_c 9.445420
_cell_angle_alpha 66.206961
_cell_angle_beta 108.745814
_cell_angle_gamma 142.204561
_cell_volume 745.332105
_symmetry_space_group_name_H-M "P -1"
_symmetry_group_IT_number 2
_symmetry_cell_setting 'triclinic'
loop_
_space_group_symop_operation_xyz
x,y,z
-x,-y,-z
loop_
_atom_site_type_symbol
_atom_site_label
_atom_site_fract_x
_atom_site_fract_y
_atom_site_fract_z
Si Si1 0.988193 0.986574 0.332121
Si Si2 0.484603 0.710928 0.380218
Si Si3 0.680473 0.179868 0.290831
Si Si4 0.801497 0.111421 0.643599
Si Si5 0.734027 0.429328 0.144347
Si Si6 0.099882 0.640769 0.346571
Si Si7 0.372050 0.334782 0.261667
Si Si8 0.192189 0.459529 0.198502
O O1 0.079367 0.929844 0.333571
O O2 0.723089 0.855418 0.292189
O O3 0.157389 0.163005 0.234373
O O4 0.000000 0.000000 0.500000
O O5 0.364117 0.751912 0.356536
O O6 0.539822 0.675562 0.560721
O O7 0.304902 0.559321 0.316917
O O8 0.731583 0.127460 0.463448
O O9 0.652368 0.279984 0.270241
O O10 0.918839 0.308319 0.206186
O O11 0.426813 0.023188 0.254562
O O12 0.948467 0.274616 0.662320
O O13 0.573532 0.430151 0.156231
O O14 0.983437 0.573276 0.198532
O O15 0.736086 0.432839 0.974968
O O16 0.000000 0.500000 0.500000
O O17 0.294317 0.403918 0.235527
#
# Coordination Sequence:
#
# PCOD9037291 Si02
#       8
#     2   2   2   2   2   2   2   2
#     4  10  23  40  64  99 133 166 218 278 327 377
#     4  11  23  40  68 100 131 168 225 279 321 387
#     4  11  22  40  67  92 128 174 219 269 331 381
#     4  11  23  40  68  99 128 169 221 278 324 384
#     4  12  24  45  65  96 140 176 217 271 334 397
#     4  12  23  40  68  99 129 169 222 274 323 389
#     4  11  23  43  67  95 133 178 222 269 323 396
#     4  12  26  42  67  99 138 176 216 273 336 388
#
# _framework density 21.466942
#
# number of rings (size 3 to 8) (size 9 to 14) (size 15 to 20)
#    0.000    0.750    5.000    2.625    8.750    0.000 
#    0.000    2.500    0.000    0.000    0.000    0.000 
#    0.000    0.000    0.000    0.000    0.000    0.000 
#
# Total GULP energy -89322.973135 kJ/mol
# GULP energy per Si atom -5582.685821 kJ/mol
# Density = 2.141808 g / cm^3
# Si number density = 21.466942 Si / 1000 Ang^3
#
#
#
# Elastic Constant Matrix: (Units=GPa)
#
#
# Indices 1 2 3 4 5 6 
#
# 1 136.3800 41.0750 11.4489 -5.6062 4.5126 -1.1438
# 2 41.0750 87.2563 12.8471 -1.9104 -3.2013 9.6216
# 3 11.4489 12.8471 37.5285 3.9501 -8.3434 13.3983
# 4 -5.6062 -1.9104 3.9501 8.5497 0.6950 -7.2491
# 5 4.5126 -3.2013 -8.3434 0.6950 20.2193 -4.0268
# 6 -1.1438 9.6216 13.3983 -7.2491 -4.0268 41.6614
#
#
#
# Elastic Compliance Matrix: (Units=1/GPa)
#
#
# Indices 1 2 3 4 5 6 
#
# 1 0.009770 -0.004199 -0.005579 0.012451 -0.004629 0.004751
# 2 -0.004199 0.014081 -0.002041 -0.001128 0.001819 -0.002731
# 3 -0.005579 -0.002041 0.044310 -0.042685 0.016742 -0.019741
# 4 0.012451 -0.001128 -0.042685 0.183860 -0.018012 0.044581
# 5 -0.004629 0.001819 0.016742 -0.018012 0.057610 -0.003497
# 6 0.004751 -0.002731 -0.019741 0.044581 -0.003497 0.038532
#
#
# Mechanical properties :
#
#
# Convention : Reuss Voigt Hill
#
# Bulk Modulus (GPa) = 22.46055 43.54520 33.00288
# Shear Modulus (GPa) = 12.93185 27.13899 20.03542
#
# Velocity S-wave (km/s) = 2.45706 3.55945 3.05834
# Velocity P-wave (km/s) = 4.30524 6.10096 5.28000
#
# Compressibility (1/GPa) = 0.04452250
#
# Stress axis : x y z
#
# Youngs Moduli (GPa) = 102.35082 71.01841 22.56832
#
# Poissons Ratio (x) = 0.29821 0.12591
# Poissons Ratio (y) = 0.42977 0.04606
# Poissons Ratio (z) = 0.57104 0.14496
#
# Static dielectric constant tensor:
#      x y z
#    x 1.800930 0.029440 -0.015250 
#    y 0.029440 1.829660 -0.011700 
#    z -0.015250 -0.011700 1.765280 
# 
# From -- ./inp_files/205315.got.cif
#   From: 2010.05.17/outbox.cif.g08.bks.cpg/sg2_103_cif.got.tgz:205315.got - 2010.06.03 11:33:40.
