data_PCOD9037235
_publ_section_title
;
Structure prediction by ZEFSAII (Michael W. Deem and Ramdas Pophale) SiO2 
 PCOD9037235
Probable space group: P -1
;
_chemical_formula_sum "Si O2"
_cell_formula_units_Z 16
_cell_length_a 15.191990
_cell_length_b 8.831608
_cell_length_c 10.878958
_cell_angle_alpha 80.811319
_cell_angle_beta 43.861128
_cell_angle_gamma 113.353023
_cell_volume 662.837012
_symmetry_space_group_name_H-M "P -1"
_symmetry_group_IT_number 2
_symmetry_cell_setting 'triclinic'
loop_
_space_group_symop_operation_xyz
x,y,z
-x,-y,-z
loop_
_atom_site_type_symbol
_atom_site_label
_atom_site_fract_x
_atom_site_fract_y
_atom_site_fract_z
Si Si1 0.190478 0.432807 0.457090
Si Si2 0.095998 0.074156 0.119186
Si Si3 0.779836 0.660490 0.800900
Si Si4 0.421583 0.232381 0.113811
Si Si5 0.438356 0.151574 0.733762
Si Si6 0.696358 0.168378 0.588246
Si Si7 0.831825 0.586828 0.173271
Si Si8 0.777864 0.206607 0.213314
O O1 0.113210 0.348824 0.405136
O O2 0.169960 0.578744 0.521442
O O3 0.359301 0.581563 0.530328
O O4 0.092640 0.201186 0.653527
O O5 0.112653 0.202204 0.202340
O O6 0.126801 0.214273 0.955941
O O7 0.273214 0.116573 0.943973
O O8 0.729375 0.773902 0.766433
O O9 0.563925 0.397778 0.064958
O O10 0.323505 0.986754 0.277863
O O11 0.581542 0.377618 0.825753
O O12 0.377289 0.015536 0.685414
O O13 0.489425 0.061427 0.787420
O O14 0.752538 0.171396 0.391834
O O15 0.794060 0.403786 0.146457
O O16 0.026350 0.705141 0.024623
#
# Coordination Sequence:
#
# PCOD9037235 Si02
#       8
#     2   2   2   2   2   2   2   2
#     4  10  23  40  63  99 133 171 225 269 322 405
#     4  12  25  42  68  97 138 180 217 277 341 390
#     4   9  22  42  62  98 136 166 230 267 323 411
#     4   9  21  41  70  93 133 177 220 275 336 388
#     4  11  26  44  67 102 134 173 234 273 327 413
#     4  11  22  44  71  95 137 180 217 276 343 386
#     4  10  24  46  68  94 139 172 226 281 332 393
#     4  10  25  45  67 102 131 172 236 274 327 409
#
# _framework density 24.138666000000001
#
# number of rings (size 3 to 8) (size 9 to 14) (size 15 to 20)
#    0.750    1.000    0.000    3.375   10.500    0.500 
#    2.250    2.500    0.000    0.000    0.000    0.000 
#    0.000    0.000    0.000    0.000    0.000    0.000 
#
# Total GULP energy -89324.475090 kJ/mol
# GULP energy per Si atom -5582.779693 kJ/mol
# Density = 2.408372 g / cm^3
# Si number density = 24.138666 Si / 1000 Ang^3
#
#
#
# Elastic Constant Matrix: (Units=GPa)
#
#
# Indices 1 2 3 4 5 6 
#
# 1 52.8848 21.5890 25.2409 -12.8392 -1.9700 -7.7148
# 2 21.5890 106.5029 42.6949 -8.5214 17.7335 17.2554
# 3 25.2409 42.6949 93.0486 -11.6875 3.6125 -11.2913
# 4 -12.8392 -8.5214 -11.6875 47.7404 -8.4351 4.1157
# 5 -1.9700 17.7335 3.6125 -8.4351 29.8378 -9.3060
# 6 -7.7148 17.2554 -11.2913 4.1157 -9.3060 34.6146
#
#
#
# Elastic Compliance Matrix: (Units=1/GPa)
#
#
# Indices 1 2 3 4 5 6 
#
# 1 0.026956 -0.008363 -0.001658 0.006523 0.012616 0.012252
# 2 -0.008363 0.021131 -0.009455 -0.002394 -0.018974 -0.020298
# 3 -0.001658 -0.009455 0.016950 0.002383 0.007774 0.011679
# 4 0.006523 -0.002394 0.002383 0.024249 0.009376 0.003062
# 5 0.012616 -0.018974 0.007774 0.009376 0.056327 0.028835
# 6 0.012252 -0.020298 0.011679 0.003062 0.028835 0.052937
#
#
# Mechanical properties :
#
#
# Convention : Reuss Voigt Hill
#
# Bulk Modulus (GPa) = 38.33701 47.94288 43.13994
# Shear Modulus (GPa) = 20.30892 33.29933 26.80413
#
# Velocity S-wave (km/s) = 2.90374 3.71819 3.33592
# Velocity P-wave (km/s) = 5.21140 6.19176 5.72261
#
# Compressibility (1/GPa) = 0.02608446
#
# Stress axis : x y z
#
# Youngs Moduli (GPa) = 37.09803 47.32304 58.99727
#
# Poissons Ratio (x) = 0.39576 0.09784
# Poissons Ratio (y) = 0.31025 0.55780
# Poissons Ratio (z) = 0.06153 0.44743
#
# Static dielectric constant tensor:
#      x y z
#    x 1.880640 0.041820 -0.007090 
#    y 0.041820 2.011970 0.049840 
#    z -0.007090 0.049840 1.980940 
# 
# From -- ./inp_files/188564.got.cif
#   From: 2010.05.17/outbox.cif.g08.bks.cpg/sg2_95_cif.got.tgz:188564.got - 2010.06.03 11:33:40.
