data_PCOD9037951
_publ_section_title
;
Structure prediction by ZEFSAII (Michael W. Deem and Ramdas Pophale) SiO2 
 PCOD9037951
Probable space group: P -1
;
_chemical_formula_sum "Si O2"
_cell_formula_units_Z 16
_cell_length_a 18.588790
_cell_length_b 8.719284
_cell_length_c 10.524272
_cell_angle_alpha 75.643247
_cell_angle_beta 24.629798
_cell_angle_gamma 69.567379
_cell_volume 655.566365
_symmetry_space_group_name_H-M "P -1"
_symmetry_group_IT_number 2
_symmetry_cell_setting 'triclinic'
loop_
_space_group_symop_operation_xyz
x,y,z
-x,-y,-z
loop_
_atom_site_type_symbol
_atom_site_label
_atom_site_fract_x
_atom_site_fract_y
_atom_site_fract_z
Si Si1 0.746721 0.837323 0.608982
Si Si2 0.631392 0.435875 0.492103
Si Si3 0.181303 0.350336 0.714699
Si Si4 0.958185 0.018248 0.392259
Si Si5 0.532281 0.154594 0.756670
Si Si6 0.772441 0.478597 0.990527
Si Si7 0.671248 0.000124 0.308157
Si Si8 0.015382 0.264233 0.418766
O O1 0.825174 0.690891 0.414938
O O2 0.868995 0.951465 0.430636
O O3 0.589888 0.966507 0.752919
O O4 0.662537 0.772488 0.879050
O O5 0.660405 0.579214 0.503832
O O6 0.653679 0.271691 0.574126
O O7 0.757946 0.409772 0.169341
O O8 0.427606 0.478451 0.756703
O O9 0.218361 0.176736 0.767553
O O10 0.000000 0.500000 0.000000
O O11 0.915727 0.209030 0.469479
O O12 0.894347 0.918234 0.628103
O O13 0.173247 0.955867 0.029950
O O14 0.576543 0.129867 0.542787
O O15 0.899049 0.363181 0.703819
O O16 0.848577 0.634946 0.858164
O O17 0.500000 0.000000 0.500000
#
# Coordination Sequence:
#
# PCOD9037951 Si02
#       8
#     2   2   2   2   2   2   2   2
#     4  10  25  48  69 100 143 188 242 295 348 428
#     4  11  24  42  71  98 137 187 235 289 362 417
#     4  11  28  47  71 105 146 189 239 296 359 429
#     4  11  24  41  71  99 135 187 235 290 357 416
#     4  10  24  45  71 100 138 186 242 294 349 426
#     4  10  23  42  66 102 142 178 228 297 359 421
#     4  11  27  45  74 105 143 184 244 298 350 423
#     4  10  23  41  65 105 139 180 232 294 357 424
#
# _framework density 24.406378
#
# number of rings (size 3 to 8) (size 9 to 14) (size 15 to 20)
#    0.000    1.500    0.000    2.250   15.750    3.500 
#    2.250    0.000    0.000    0.750    0.000    0.000 
#    0.000    0.000    0.000    0.000    0.000    0.000 
#
# Total GULP energy -89299.063394 kJ/mol
# GULP energy per Si atom -5581.191462 kJ/mol
# Density = 2.435083 g / cm^3
# Si number density = 24.406378 Si / 1000 Ang^3
#
#
#
# Elastic Constant Matrix: (Units=GPa)
#
#
# Indices 1 2 3 4 5 6 
#
# 1 84.2969 43.2308 56.7686 -1.2405 6.9633 38.6804
# 2 43.2308 122.7740 59.2472 -14.5800 2.1367 36.1267
# 3 56.7686 59.2472 144.2147 -15.8087 18.3802 18.1028
# 4 -1.2405 -14.5800 -15.8087 45.9213 2.9322 -1.3673
# 5 6.9633 2.1367 18.3802 2.9322 27.0315 2.8375
# 6 38.6804 36.1267 18.1028 -1.3673 2.8375 56.6609
#
#
#
# Elastic Compliance Matrix: (Units=1/GPa)
#
#
# Indices 1 2 3 4 5 6 
#
# 1 0.023300 -0.001133 -0.007495 -0.002748 0.000836 -0.012897
# 2 -0.001133 0.012437 -0.003979 0.002218 0.002398 -0.005952
# 3 -0.007495 -0.003979 0.012234 0.003309 -0.006870 0.004169
# 4 -0.002748 0.002218 0.003309 0.023827 -0.004322 0.000196
# 5 0.000836 0.002398 -0.006870 -0.004322 0.041951 -0.002110
# 6 -0.012897 -0.005952 0.004169 0.000196 -0.002110 0.029026
#
#
# Mechanical properties :
#
#
# Convention : Reuss Voigt Hill
#
# Bulk Modulus (GPa) = 43.94300 74.41984 59.18142
# Shear Modulus (GPa) = 28.47784 38.72533 33.60159
#
# Velocity S-wave (km/s) = 3.41958 3.98765 3.71449
# Velocity P-wave (km/s) = 5.79958 7.19444 6.53434
#
# Compressibility (1/GPa) = 0.02275675
#
# Stress axis : x y z
#
# Youngs Moduli (GPa) = 42.91869 80.40454 81.73928
#
# Poissons Ratio (x) = 0.09112 0.61263
# Poissons Ratio (y) = 0.04864 0.32523
# Poissons Ratio (z) = 0.32167 0.31992
#
# Static dielectric constant tensor:
#      x y z
#    x 2.066810 -0.038590 -0.020050 
#    y -0.038590 2.055390 0.033190 
#    z -0.020050 0.033190 1.945230 
# 
# From -- ./inp_files/469970.got.cif
#   From: 2010.05.17/outbox.cif.g08.bks.cpg/sg2_235_cif.got.tgz:469970.got - 2010.06.03 11:33:40.
