data_PCOD9037522
_publ_section_title
;
Structure prediction by ZEFSAII (Michael W. Deem and Ramdas Pophale) SiO2 
 PCOD9037522
Probable space group: P -1
;
_chemical_formula_sum "Si O2"
_cell_formula_units_Z 11
_cell_length_a 16.488227
_cell_length_b 4.950124
_cell_length_c 15.045711
_cell_angle_alpha 125.201322
_cell_angle_beta 155.198894
_cell_angle_gamma 51.610858
_cell_volume 403.449395
_symmetry_space_group_name_H-M "P -1"
_symmetry_group_IT_number 2
_symmetry_cell_setting 'triclinic'
loop_
_space_group_symop_operation_xyz
x,y,z
-x,-y,-z
loop_
_atom_site_type_symbol
_atom_site_label
_atom_site_fract_x
_atom_site_fract_y
_atom_site_fract_z
Si Si1 0.795353 0.258881 0.410917
Si Si2 0.302139 0.345985 0.317648
Si Si3 0.083476 0.439303 0.939085
Si Si4 0.929610 0.272312 0.287636
Si Si5 0.533825 0.442569 0.711426
Si Si6 0.500000 0.500000 0.000000
O O1 0.626320 0.399201 0.343973
O O2 0.660800 0.282558 0.193741
O O3 0.943513 0.499490 0.590329
O O4 0.934783 0.902624 0.523924
O O5 0.431210 0.562602 0.536095
O O6 0.142974 0.321184 0.232958
O O7 0.414617 0.965016 0.325266
O O8 0.174478 0.513598 0.137816
O O9 0.067762 0.055912 0.834635
O O10 0.255921 0.473890 0.050164
O O11 0.697553 0.448540 0.117374
#
# Coordination Sequence:
#
# PCOD9037522 Si02
#       6
#     2   2   2   2   2   1
#     4  12  30  52  79 117 152 197 258 318 382 461
#     4  10  23  40  68 108 150 196 257 294 370 444
#     4  11  24  43  72 105 151 198 249 306 374 443
#     4  12  30  52  79 117 152 197 258 318 382 461
#     4  11  24  43  72 105 151 198 249 306 374 443
#     4  12  30  54  88 104 158 196 260 310 410 436
#
# _framework density 27.264885
#
# number of rings (size 3 to 8) (size 9 to 14) (size 15 to 20)
#    0.000    0.727    1.818    3.273   10.182    7.273 
#    0.000    0.000    0.000    0.000    0.000    0.000 
#    0.000    0.000    0.000    0.000    0.000    0.000 
#
# Total GULP energy -61338.850208 kJ/mol
# GULP energy per Si atom -5576.259110 kJ/mol
# Density = 2.720283 g / cm^3
# Si number density = 27.264885 Si / 1000 Ang^3
#
#
#
# Elastic Constant Matrix: (Units=GPa)
#
#
# Indices 1 2 3 4 5 6 
#
# 1 87.1450 33.3198 46.4785 -11.2001 22.5872 -8.8018
# 2 33.3198 96.0875 57.7274 -11.6060 45.6648 0.1367
# 3 46.4785 57.7274 159.1136 -33.8619 32.2624 -1.8881
# 4 -11.2001 -11.6060 -33.8619 52.1553 -11.5664 14.8818
# 5 22.5872 45.6648 32.2624 -11.5664 84.4387 -19.7128
# 6 -8.8018 0.1367 -1.8881 14.8818 -19.7128 48.1172
#
#
#
# Elastic Compliance Matrix: (Units=1/GPa)
#
#
# Indices 1 2 3 4 5 6 
#
# 1 0.014627 -0.002954 -0.003130 -0.000375 -0.000604 0.002430
# 2 -0.002954 0.017731 -0.003919 0.000125 -0.008257 -0.004166
# 3 -0.003130 -0.003919 0.009837 0.005303 -0.000552 -0.002042
# 4 -0.000375 0.000125 0.005303 0.024658 -0.000402 -0.007652
# 5 -0.000604 -0.008257 -0.000552 -0.000402 0.018388 0.007549
# 6 0.002430 -0.004166 -0.002042 -0.007652 0.007549 0.026618
#
#
# Mechanical properties :
#
#
# Convention : Reuss Voigt Hill
#
# Bulk Modulus (GPa) = 45.06443 68.59973 56.83208
# Shear Modulus (GPa) = 35.90388 50.59692 43.25040
#
# Velocity S-wave (km/s) = 3.63279 4.31252 3.98716
# Velocity P-wave (km/s) = 5.84469 7.07193 6.48740
#
# Compressibility (1/GPa) = 0.02219045
#
# Stress axis : x y z
#
# Youngs Moduli (GPa) = 68.36458 56.39902 101.65653
#
# Poissons Ratio (x) = 0.16660 0.31816
# Poissons Ratio (y) = 0.20195 0.39836
# Poissons Ratio (z) = 0.21397 0.22101
#
# Static dielectric constant tensor:
#      x y z
#    x 2.295840 0.074220 0.022180 
#    y 0.074220 2.281640 0.013570 
#    z 0.022180 0.013570 2.282040 
# 
# From -- ./inp_files/574760.got.cif
#   From: 2010.05.17/outbox.cif.g08.bks.cpg/sg2_288_cif.got.tgz:574760.got - 2010.06.03 11:33:40.
