data_PCOD9037904
_publ_section_title
;
Structure prediction by ZEFSAII (Michael W. Deem and Ramdas Pophale) SiO2 
 PCOD9037904
Probable space group: P -1
;
_chemical_formula_sum "Si O2"
_cell_formula_units_Z 13
_cell_length_a 12.431412
_cell_length_b 12.967908
_cell_length_c 6.826919
_cell_angle_alpha 110.606952
_cell_angle_beta 66.845121
_cell_angle_gamma 148.251716
_cell_volume 532.102848
_symmetry_space_group_name_H-M "P -1"
_symmetry_group_IT_number 2
_symmetry_cell_setting 'triclinic'
loop_
_space_group_symop_operation_xyz
x,y,z
-x,-y,-z
loop_
_atom_site_type_symbol
_atom_site_label
_atom_site_fract_x
_atom_site_fract_y
_atom_site_fract_z
Si Si1 0.000000 0.500000 0.500000
Si Si2 0.492151 0.766581 0.340442
Si Si3 0.158758 0.843747 0.398720
Si Si4 0.469148 0.454322 0.767031
Si Si5 0.734421 0.249305 0.246626
Si Si6 0.154281 0.221536 0.538106
Si Si7 0.482004 0.124031 0.001418
O O1 0.097246 0.673959 0.392152
O O2 0.046893 0.620242 0.745203
O O3 0.496972 0.650617 0.353244
O O4 0.294100 0.687144 0.502526
O O5 0.688125 0.983659 0.434733
O O6 0.503007 0.771090 0.101702
O O7 0.954818 0.758538 0.463710
O O8 0.285906 0.963431 0.183026
O O9 0.244562 0.311443 0.749523
O O10 0.644103 0.651712 0.648852
O O11 0.500000 0.500000 0.000000
O O12 0.680231 0.271699 0.102757
O O13 0.562895 0.019634 0.197240
O O14 0.000000 0.000000 0.500000
#
# Coordination Sequence:
#
# PCOD9037904 Si02
#       7
#     1   2   2   2   2   2   2
#     4  12  24  42  62  98 146 172 234 288 352 412
#     4  11  22  45  69  99 143 183 232 291 358 415
#     4  11  25  43  70 103 141 188 227 296 356 410
#     4  11  27  45  77 107 134 191 242 293 360 424
#     4  10  23  41  64  95 137 180 229 279 344 412
#     4  11  25  50  73 102 148 182 237 304 353 417
#     4  10  23  41  70  95 133 193 232 274 348 435
#
# _framework density 24.431365
#
# number of rings (size 3 to 8) (size 9 to 14) (size 15 to 20)
#    0.000    1.231    3.077    1.385    6.462    4.923 
#    2.769    0.000    0.000    0.000    0.000    0.000 
#    0.000    0.000    0.000    0.000    0.000    0.000 
#
# Total GULP energy -72472.929175 kJ/mol
# GULP energy per Si atom -5574.840706 kJ/mol
# Density = 2.437576 g / cm^3
# Si number density = 24.431365 Si / 1000 Ang^3
#
#
#
# Elastic Constant Matrix: (Units=GPa)
#
#
# Indices 1 2 3 4 5 6 
#
# 1 91.1520 24.2348 28.4334 0.3608 26.6052 -4.3596
# 2 24.2348 133.1276 48.5086 2.2390 26.4355 0.6127
# 3 28.4334 48.5086 117.2284 9.5973 42.9638 14.1116
# 4 0.3608 2.2390 9.5973 39.4398 1.9833 11.5082
# 5 26.6052 26.4355 42.9638 1.9833 46.5343 5.0859
# 6 -4.3596 0.6127 14.1116 11.5082 5.0859 39.4563
#
#
#
# Elastic Compliance Matrix: (Units=1/GPa)
#
#
# Indices 1 2 3 4 5 6 
#
# 1 0.013567 -0.000845 -0.000713 -0.000361 -0.006904 0.002763
# 2 -0.000845 0.009152 -0.002933 -0.000009 -0.002126 0.001090
# 3 -0.000713 -0.002933 0.014420 -0.001841 -0.010805 -0.003261
# 4 -0.000361 -0.000009 -0.001841 0.027989 0.001566 -0.007747
# 5 -0.006904 -0.002126 -0.010805 0.001566 0.036779 -0.002063
# 6 0.002763 0.001090 -0.003261 -0.007747 -0.002063 0.029324
#
#
# Mechanical properties :
#
#
# Convention : Reuss Voigt Hill
#
# Bulk Modulus (GPa) = 35.51766 60.42907 47.97337
# Shear Modulus (GPa) = 33.42254 41.10816 37.26535
#
# Velocity S-wave (km/s) = 3.70268 4.10640 3.90976
# Velocity P-wave (km/s) = 5.73142 6.87541 6.32931
#
# Compressibility (1/GPa) = 0.02815501
#
# Stress axis : x y z
#
# Youngs Moduli (GPa) = 73.70986 109.27072 69.34671
#
# Poissons Ratio (x) = 0.09238 0.04947
# Poissons Ratio (y) = 0.06232 0.20340
# Poissons Ratio (z) = 0.05258 0.32049
#
# Static dielectric constant tensor:
#      x y z
#    x 0.537970 -1.402510 -0.212720 
#    y -1.402510 0.524730 -0.205790 
#    z -0.212720 -0.205790 2.011770 
# 
# From -- ./inp_files/98409.got.cif
#   From: 2010.05.17/outbox.cif.g08.bks.cpg/sg2_50_cif.got.tgz:98409.got - 2010.06.03 11:33:40.
