data_PCOD9037078
_publ_section_title
;
Structure prediction by ZEFSAII (Michael W. Deem and Ramdas Pophale) SiO2 
 PCOD9037078
Probable space group: P -1
;
_chemical_formula_sum "Si O2"
_cell_formula_units_Z 16
_cell_length_a 12.140567
_cell_length_b 23.795864
_cell_length_c 12.055156
_cell_angle_alpha 27.758561
_cell_angle_beta 144.073880
_cell_angle_gamma 152.990996
_cell_volume 732.851212
_symmetry_space_group_name_H-M "P -1"
_symmetry_group_IT_number 2
_symmetry_cell_setting 'triclinic'
loop_
_space_group_symop_operation_xyz
x,y,z
-x,-y,-z
loop_
_atom_site_type_symbol
_atom_site_label
_atom_site_fract_x
_atom_site_fract_y
_atom_site_fract_z
Si Si1 0.884573 0.546758 0.738639
Si Si2 0.729346 0.721823 0.091997
Si Si3 0.304746 0.668691 0.703244
Si Si4 0.471640 0.635212 0.491420
Si Si5 0.692415 0.721935 0.312847
Si Si6 0.976520 0.399316 0.760957
Si Si7 0.055922 0.875548 0.888987
Si Si8 0.383822 0.181688 0.501182
O O1 0.837961 0.656833 0.562365
O O2 0.604258 0.401041 0.732597
O O3 0.080757 0.636656 0.641954
O O4 0.000000 0.500000 0.000000
O O5 0.621276 0.539400 0.309755
O O6 0.775779 0.785343 0.144745
O O7 0.518002 0.719271 0.872362
O O8 0.971036 0.828137 0.029184
O O9 0.416537 0.780770 0.490877
O O10 0.196942 0.504828 0.842372
O O11 0.689453 0.768460 0.354977
O O12 0.255954 0.643787 0.289612
O O13 0.539570 0.676372 0.604315
O O14 0.000000 0.500000 0.500000
O O15 0.947834 0.256000 0.940858
O O16 0.838105 0.863139 0.676298
O O17 0.299116 0.043623 0.757419
#
# Coordination Sequence:
#
# PCOD9037078 Si02
#       8
#     2   2   2   2   2   2   2   2
#     4  11  19  33  55  87 120 151 191 239 296 347
#     4  11  19  36  60  83 117 152 196 245 287 345
#     4  11  20  34  60  88 113 153 196 240 298 344
#     4  12  20  35  55  85 117 145 190 243 293 341
#     4  11  21  34  55  87 121 150 189 249 294 344
#     4  12  21  33  56  88 119 143 192 247 293 349
#     4  10  23  40  57  81 115 159 194 238 293 350
#     4  10  23  40  57  81 117 156 198 235 291 356
#
# _framework density 21.832536000000001
#
# number of rings (size 3 to 8) (size 9 to 14) (size 15 to 20)
#    0.000    1.000    7.500    0.750    0.000    2.500 
#    0.000    0.625    0.000    0.000    0.000    6.125 
#    0.000    0.000    0.000    0.000    0.000    0.000 
#
# Total GULP energy -89121.194089 kJ/mol
# GULP energy per Si atom -5570.074631 kJ/mol
# Density = 2.178284 g / cm^3
# Si number density = 21.832536 Si / 1000 Ang^3
#
#
#
# Elastic Constant Matrix: (Units=GPa)
#
#
# Indices 1 2 3 4 5 6 
#
# 1 201.3306 12.7822 43.6347 -9.9112 -27.6244 27.4631
# 2 12.7822 25.5851 15.8684 8.3508 -3.1506 13.0327
# 3 43.6347 15.8684 67.5367 2.2039 -12.7657 14.0162
# 4 -9.9112 8.3508 2.2039 30.7877 0.9326 -1.5355
# 5 -27.6244 -3.1506 -12.7657 0.9326 37.7963 6.9842
# 6 27.4631 13.0327 14.0162 -1.5355 6.9842 25.4428
#
#
#
# Elastic Compliance Matrix: (Units=1/GPa)
#
#
# Indices 1 2 3 4 5 6 
#
# 1 0.007748 0.003705 -0.002276 0.000889 0.007200 -0.010930
# 2 0.003705 0.071279 -0.007069 -0.020159 0.014485 -0.041809
# 3 -0.002276 -0.007069 0.020532 -0.000812 0.005982 -0.006925
# 4 0.000889 -0.020159 -0.000812 0.039109 -0.004761 0.013481
# 5 0.007200 0.014485 0.005982 -0.004761 0.040594 -0.029918
# 6 -0.010930 -0.041809 -0.006925 0.013481 -0.029918 0.085359
#
#
# Mechanical properties :
#
#
# Convention : Reuss Voigt Hill
#
# Bulk Modulus (GPa) = 11.32766 48.78035 30.05401
# Shear Modulus (GPa) = 16.37593 33.61652 24.99622
#
# Velocity S-wave (km/s) = 2.74171 3.92821 3.38732
# Velocity P-wave (km/s) = 3.90158 6.55484 5.39390
#
# Compressibility (1/GPa) = 0.08827945
#
# Stress axis : x y z
#
# Youngs Moduli (GPa) = 129.07197 14.02938 48.70385
#
# Poissons Ratio (x) = -0.05198 0.11084
# Poissons Ratio (y) = -0.47819 0.34427
# Poissons Ratio (z) = 0.29375 0.09917
#
# Static dielectric constant tensor:
#      x y z
#    x 1.852670 0.006520 -0.090850 
#    y 0.006520 1.870300 -0.009890 
#    z -0.090850 -0.009890 1.826770 
# 
# From -- ./inp_files/439220.got.cif
#   From: 2010.05.17/outbox.cif.g08.bks.cpg/sg2_220_cif.got.tgz:439220.got - 2010.06.03 11:33:40.
