data_PCOD9037567
_publ_section_title
;
Structure prediction by ZEFSAII (Michael W. Deem and Ramdas Pophale) SiO2 
 PCOD9037567
Probable space group: P -1
;
_chemical_formula_sum "Si O2"
_cell_formula_units_Z 16
_cell_length_a 19.815266
_cell_length_b 5.093934
_cell_length_c 8.666461
_cell_angle_alpha 115.413608
_cell_angle_beta 96.263205
_cell_angle_gamma 106.761630
_cell_volume 728.615169
_symmetry_space_group_name_H-M "P -1"
_symmetry_group_IT_number 2
_symmetry_cell_setting 'triclinic'
loop_
_space_group_symop_operation_xyz
x,y,z
-x,-y,-z
loop_
_atom_site_type_symbol
_atom_site_label
_atom_site_fract_x
_atom_site_fract_y
_atom_site_fract_z
Si Si1 0.670204 0.371994 0.624746
Si Si2 0.787232 0.278728 0.803829
Si Si3 0.643093 0.942233 0.887537
Si Si4 0.936971 0.556026 0.095797
Si Si5 0.703762 0.231796 0.286903
Si Si6 0.794021 0.908991 0.415819
Si Si7 0.061289 0.784097 0.672064
Si Si8 0.545691 0.865217 0.589078
O O1 0.752965 0.473057 0.732881
O O2 0.635238 0.587520 0.758360
O O3 0.666629 0.380166 0.442641
O O4 0.625527 0.007598 0.563741
O O5 0.721700 0.137070 0.875535
O O6 0.797920 0.032005 0.623418
O O7 0.862526 0.462642 0.954164
O O8 0.574205 0.986846 0.799191
O O9 0.651854 0.040142 0.090773
O O10 0.922201 0.347769 0.194716
O O11 0.963031 0.923562 0.232287
O O12 0.000000 0.500000 0.000000
O O13 0.768902 0.535345 0.313289
O O14 0.735666 0.010581 0.332975
O O15 0.869065 0.080176 0.388171
O O16 0.000000 0.500000 0.500000
O O17 0.500000 0.500000 0.500000
O O18 0.500000 0.000000 0.500000
#
# Coordination Sequence:
#
# PCOD9037567 Si02
#       8
#     2   2   2   2   2   2   2   2
#     4  10  23  44  69 101 137 177 221 284 331 402
#     4  10  23  40  68  99 131 172 228 279 346 398
#     4  11  22  42  71  97 135 178 224 276 334 401
#     4  12  27  45  69  96 134 183 231 285 348 419
#     4  11  25  40  67 103 133 170 228 277 340 394
#     4  11  23  42  64  97 133 169 216 295 337 398
#     4  12  26  45  65  94 132 179 230 284 351 416
#     4  11  23  42  70  99 138 182 222 271 335 397
#
# _framework density 21.959464000000001
#
# number of rings (size 3 to 8) (size 9 to 14) (size 15 to 20)
#    0.000    1.000    2.500    3.750    7.000    1.000 
#    0.000    1.250    0.000    0.000    0.000    0.000 
#    0.000    0.000    0.000    0.000    0.000    0.000 
#
# Total GULP energy -89350.509866 kJ/mol
# GULP energy per Si atom -5584.406867 kJ/mol
# Density = 2.190948 g / cm^3
# Si number density = 21.959464 Si / 1000 Ang^3
#
#
#
# Elastic Constant Matrix: (Units=GPa)
#
#
# Indices 1 2 3 4 5 6 
#
# 1 43.1855 15.4609 19.2304 4.5605 16.0169 -9.4361
# 2 15.4609 112.5303 41.3064 -1.6622 -1.9139 0.6730
# 3 19.2304 41.3064 124.8716 -4.9748 4.8715 3.7286
# 4 4.5605 -1.6622 -4.9748 29.9154 -3.5295 2.0383
# 5 16.0169 -1.9139 4.8715 -3.5295 29.9433 10.7204
# 6 -9.4361 0.6730 3.7286 2.0383 10.7204 29.7338
#
#
#
# Elastic Compliance Matrix: (Units=1/GPa)
#
#
# Indices 1 2 3 4 5 6 
#
# 1 0.052619 -0.006137 -0.006119 -0.016584 -0.041574 0.033731
# 2 -0.006137 0.010876 -0.002683 0.002111 0.006177 -0.004229
# 3 -0.006119 -0.002683 0.009965 0.003169 0.003505 -0.004612
# 4 -0.016584 0.002111 0.003169 0.039828 0.018608 -0.015147
# 5 -0.041574 0.006177 0.003505 0.018608 0.072384 -0.041147
# 6 0.033731 -0.004229 -0.004612 -0.015147 -0.041147 0.060884
#
#
# Mechanical properties :
#
#
# Convention : Reuss Voigt Hill
#
# Bulk Modulus (GPa) = 22.94561 48.06476 35.50519
# Shear Modulus (GPa) = 17.18432 31.55780 24.37106
#
# Velocity S-wave (km/s) = 2.80044 3.79501 3.33501
# Velocity P-wave (km/s) = 4.57475 6.41391 5.57076
#
# Compressibility (1/GPa) = 0.04358132
#
# Stress axis : x y z
#
# Youngs Moduli (GPa) = 19.00455 91.94422 100.34713
#
# Poissons Ratio (x) = 0.56427 0.61406
# Poissons Ratio (y) = 0.11663 0.26926
# Poissons Ratio (z) = 0.11629 0.24671
#
# Static dielectric constant tensor:
#      x y z
#    x 1.843050 -0.014130 -0.006550 
#    y -0.014130 1.872210 -0.016530 
#    z -0.006550 -0.016530 1.818470 
# 
# From -- ./inp_files/340671.got.cif
#   From: 2010.05.17/outbox.cif.g08.bks.cpg/sg2_171_cif.got.tgz:340671.got - 2010.06.03 11:33:40.
