data_PCOD9037371
_publ_section_title
;
Structure prediction by ZEFSAII (Michael W. Deem and Ramdas Pophale) SiO2 
 PCOD9037371
Probable space group: P -1
;
_chemical_formula_sum "Si O2"
_cell_formula_units_Z 16
_cell_length_a 11.699442
_cell_length_b 5.816339
_cell_length_c 29.019776
_cell_angle_alpha 73.899396
_cell_angle_beta 158.330329
_cell_angle_gamma 105.864175
_cell_volume 699.899053
_symmetry_space_group_name_H-M "P -1"
_symmetry_group_IT_number 2
_symmetry_cell_setting 'triclinic'
loop_
_space_group_symop_operation_xyz
x,y,z
-x,-y,-z
loop_
_atom_site_type_symbol
_atom_site_label
_atom_site_fract_x
_atom_site_fract_y
_atom_site_fract_z
Si Si1 0.548763 0.435268 0.099199
Si Si2 0.643478 0.126233 0.320094
Si Si3 0.220516 0.957489 0.434617
Si Si4 0.572089 0.785210 0.661748
Si Si5 0.177198 0.266140 0.059675
Si Si6 0.877072 0.502917 0.632448
Si Si7 0.735143 0.196001 0.095688
Si Si8 0.765320 0.660576 0.430280
O O1 0.339677 0.347081 0.068322
O O2 0.669967 0.231403 0.122826
O O3 0.869902 0.566902 0.230211
O O4 0.335420 0.579939 0.976138
O O5 0.500506 0.182961 0.313576
O O6 0.443640 0.225690 0.199412
O O7 0.004087 0.212105 0.453784
O O8 0.638877 0.840141 0.335500
O O9 0.356097 0.914712 0.538173
O O10 0.070618 0.699029 0.376084
O O11 0.500000 0.000000 0.500000
O O12 0.047745 0.208053 0.359383
O O13 0.509399 0.503531 0.642762
O O14 0.916804 0.870068 0.776713
O O15 0.000000 0.500000 0.000000
O O16 0.000000 0.000000 0.000000
O O17 0.500000 0.500000 0.500000
O O18 0.500000 0.000000 0.000000
O O19 0.000000 0.500000 0.500000
#
# Coordination Sequence:
#
# PCOD9037371 Si02
#       8
#     2   2   2   2   2   2   2   2
#     4  11  28  48  74 110 149 200 257 318 379 463
#     4  10  24  45  74 109 143 198 257 320 380 459
#     4  10  23  40  66 102 141 189 236 291 370 440
#     4  11  24  42  74 101 153 193 252 313 388 454
#     4  12  31  52  81 112 154 210 263 321 386 457
#     4  10  23  42  70 103 148 189 239 299 377 442
#     4  11  27  46  74 108 149 202 256 314 385 466
#     4   9  22  43  71 104 143 189 253 314 380 446
#
# _framework density 22.860440000000001
#
# number of rings (size 3 to 8) (size 9 to 14) (size 15 to 20)
#    0.000    1.500    0.000    2.250   17.500    3.000 
#    0.000    0.000    0.000    0.000    0.000    0.000 
#    0.000    0.000    0.000    0.000    0.000    0.000 
#
# Total GULP energy -89256.706423 kJ/mol
# GULP energy per Si atom -5578.544151 kJ/mol
# Density = 2.280841 g / cm^3
# Si number density = 22.860440 Si / 1000 Ang^3
#
#
#
# Elastic Constant Matrix: (Units=GPa)
#
#
# Indices 1 2 3 4 5 6 
#
# 1 161.1775 41.8693 42.1789 8.4690 -11.8729 -15.0494
# 2 41.8693 123.7350 36.9682 -4.6992 1.6787 -8.6158
# 3 42.1789 36.9682 85.8337 6.0365 -17.6172 -15.5616
# 4 8.4690 -4.6992 6.0365 37.1005 9.1638 -6.1375
# 5 -11.8729 1.6787 -17.6172 9.1638 38.4944 -3.9198
# 6 -15.0494 -8.6158 -15.5616 -6.1375 -3.9198 33.7713
#
#
#
# Elastic Compliance Matrix: (Units=1/GPa)
#
#
# Indices 1 2 3 4 5 6 
#
# 1 0.007678 -0.001971 -0.001995 -0.001903 0.002188 0.001907
# 2 -0.001971 0.010280 -0.004552 0.003444 -0.003979 -0.000189
# 3 -0.001995 -0.004552 0.018049 -0.004325 0.009544 0.006588
# 4 -0.001903 0.003444 -0.004325 0.031410 -0.009930 0.002594
# 5 0.002188 -0.003979 0.009544 -0.009930 0.034222 0.006525
# 6 0.001907 -0.000189 0.006588 0.002594 0.006525 0.034677
#
#
# Mechanical properties :
#
#
# Convention : Reuss Voigt Hill
#
# Bulk Modulus (GPa) = 52.71487 68.08656 60.40072
# Shear Modulus (GPa) = 31.31323 38.52190 34.91757
#
# Velocity S-wave (km/s) = 3.70504 4.10944 3.91247
# Velocity P-wave (km/s) = 6.43526 7.23636 6.84753
#
# Compressibility (1/GPa) = 0.01896998
#
# Stress axis : x y z
#
# Youngs Moduli (GPa) = 130.24687 97.27208 55.40455
#
# Poissons Ratio (x) = 0.19172 0.11055
# Poissons Ratio (y) = 0.25671 0.25222
# Poissons Ratio (z) = 0.25988 0.44282
#
# Static dielectric constant tensor:
#      x y z
#    x 1.802560 -0.054170 0.094380 
#    y -0.054170 1.931420 0.127750 
#    z 0.094380 0.127750 1.665980 
# 
# From -- ./inp_files/622873.got.cif
#   From: 2010.05.17/outbox.cif.g08.bks.cpg/sg2_312_cif.got.tgz:622873.got - 2010.06.03 11:33:40.
