data_PCOD9037810
_publ_section_title
;
Structure prediction by ZEFSAII (Michael W. Deem and Ramdas Pophale) SiO2 
 PCOD9037810
Probable space group: P -1
;
_chemical_formula_sum "Si O2"
_cell_formula_units_Z 14
_cell_length_a 5.517798
_cell_length_b 14.821084
_cell_length_c 11.758831
_cell_angle_alpha 135.860996
_cell_angle_beta 123.449769
_cell_angle_gamma 63.744605
_cell_volume 556.948153
_symmetry_space_group_name_H-M "P -1"
_symmetry_group_IT_number 2
_symmetry_cell_setting 'triclinic'
loop_
_space_group_symop_operation_xyz
x,y,z
-x,-y,-z
loop_
_atom_site_type_symbol
_atom_site_label
_atom_site_fract_x
_atom_site_fract_y
_atom_site_fract_z
Si Si1 0.519375 0.697593 0.716390
Si Si2 0.666916 0.188677 0.807294
Si Si3 0.492029 0.852432 0.644896
Si Si4 0.474753 0.645542 0.275642
Si Si5 0.882349 0.921285 0.503177
Si Si6 0.130974 0.539006 0.306597
Si Si7 0.747770 0.106135 0.990954
O O1 0.659183 0.770459 0.712536
O O2 0.281735 0.613110 0.517878
O O3 0.747155 0.607925 0.767000
O O4 0.368052 0.808202 0.856985
O O5 0.721106 0.302584 0.835499
O O6 0.320107 0.181091 0.696535
O O7 0.780912 0.195404 0.970067
O O8 0.763729 0.041060 0.659180
O O9 0.562511 0.780725 0.480084
O O10 0.148250 0.843419 0.564148
O O11 0.520796 0.004275 0.798404
O O12 0.286809 0.578697 0.264026
O O13 0.779939 0.566473 0.249030
O O14 0.000000 0.000000 0.500000
O O15 0.000000 0.000000 0.000000
#
# Coordination Sequence:
#
# PCOD9037810 Si02
#       7
#     2   2   2   2   2   2   2
#     4  10  23  41  63  92 131 176 216 272 324 393
#     4  11  22  36  62  96 131 171 218 270 327 390
#     4  11  21  39  67  98 131 169 217 268 337 395
#     4  11  22  41  69  96 122 168 228 284 315 373
#     4  11  19  37  61  95 130 170 214 265 322 391
#     4  10  24  44  69  93 123 173 239 273 315 375
#     4  12  24  39  59  98 143 172 207 262 346 413
#
# _framework density 25.136989
#
# number of rings (size 3 to 8) (size 9 to 14) (size 15 to 20)
#    0.000    1.143    2.857    4.714    0.000    6.286 
#    0.000    1.429    0.000    0.000    0.000    0.000 
#    0.000    0.000    0.000    0.000    0.000    0.000 
#
# Total GULP energy -78266.528126 kJ/mol
# GULP energy per Si atom -5590.466295 kJ/mol
# Density = 2.507978 g / cm^3
# Si number density = 25.136989 Si / 1000 Ang^3
#
#
#
# Elastic Constant Matrix: (Units=GPa)
#
#
# Indices 1 2 3 4 5 6 
#
# 1 89.4007 46.6650 25.4927 -6.6394 -9.1703 -7.5746
# 2 46.6650 186.1924 32.4914 -21.3644 -11.9540 -7.7566
# 3 25.4927 32.4914 70.5732 -13.9173 -15.2045 2.7749
# 4 -6.6394 -21.3644 -13.9173 50.0249 0.4155 -8.0027
# 5 -9.1703 -11.9540 -15.2045 0.4155 32.5062 -1.6328
# 6 -7.5746 -7.7566 2.7749 -8.0027 -1.6328 47.2686
#
#
#
# Elastic Compliance Matrix: (Units=1/GPa)
#
#
# Indices 1 2 3 4 5 6 
#
# 1 0.013925 -0.002691 -0.003572 0.000022 0.001371 0.002051
# 2 -0.002691 0.006678 -0.001480 0.002262 0.001035 0.001170
# 3 -0.003572 -0.001480 0.018433 0.003802 0.006970 -0.001013
# 4 0.000022 0.002262 0.003802 0.022647 0.002531 0.004073
# 5 0.001371 0.001035 0.006970 0.002531 0.034839 0.001612
# 6 0.002051 0.001170 -0.001013 0.004073 0.001612 0.022481
#
#
# Mechanical properties :
#
#
# Convention : Reuss Voigt Hill
#
# Bulk Modulus (GPa) = 42.46230 61.71828 52.09029
# Shear Modulus (GPa) = 35.12765 42.06107 38.59436
#
# Velocity S-wave (km/s) = 3.74230 4.09501 3.92262
# Velocity P-wave (km/s) = 5.96675 6.85309 6.42522
#
# Compressibility (1/GPa) = 0.02355030
#
# Stress axis : x y z
#
# Youngs Moduli (GPa) = 71.81535 149.74432 54.25174
#
# Poissons Ratio (x) = 0.40290 0.19380
# Poissons Ratio (y) = 0.19323 0.08028
# Poissons Ratio (z) = 0.25654 0.22158
#
# Static dielectric constant tensor:
#      x y z
#    x 2.088550 -0.005760 0.083490 
#    y -0.005760 2.017110 -0.008660 
#    z 0.083490 -0.008660 2.019120 
# 
# From -- ./inp_files/67386.got.cif
#   From: 2010.05.17/outbox.cif.g08.bks.cpg/sg2_34_cif.got.tgz:67386.got - 2010.06.03 11:33:40.
