data_PCOD9037047
_publ_section_title
;
Structure prediction by ZEFSAII (Michael W. Deem and Ramdas Pophale) SiO2 
 PCOD9037047
Probable space group: P -1
;
_chemical_formula_sum "Si O2"
_cell_formula_units_Z 16
_cell_length_a 8.072336
_cell_length_b 15.417022
_cell_length_c 8.696952
_cell_angle_alpha 141.977690
_cell_angle_beta 97.240886
_cell_angle_gamma 77.175058
_cell_volume 647.908389
_symmetry_space_group_name_H-M "P -1"
_symmetry_group_IT_number 2
_symmetry_cell_setting 'triclinic'
loop_
_space_group_symop_operation_xyz
x,y,z
-x,-y,-z
loop_
_atom_site_type_symbol
_atom_site_label
_atom_site_fract_x
_atom_site_fract_y
_atom_site_fract_z
Si Si1 0.713365 0.684409 0.351534
Si Si2 0.402100 0.496380 0.683915
Si Si3 0.031531 0.089251 0.974246
Si Si4 0.570579 0.203124 0.767306
Si Si5 0.225518 0.583147 0.231641
Si Si6 0.272560 0.105546 0.773842
Si Si7 0.965774 0.835693 0.438737
Si Si8 0.127356 0.580848 0.541398
O O1 0.690921 0.628203 0.438277
O O2 0.540780 0.752400 0.336949
O O3 0.837494 0.791981 0.488934
O O4 0.778553 0.538985 0.061536
O O5 0.588001 0.438361 0.700453
O O6 0.321151 0.522914 0.542220
O O7 0.356832 0.658539 0.977547
O O8 0.217343 0.100001 0.937867
O O9 0.970581 0.998718 0.702431
O O10 0.924131 0.248784 0.200611
O O11 0.000000 0.000000 0.000000
O O12 0.436749 0.173602 0.843925
O O13 0.686139 0.051738 0.521702
O O14 0.113109 0.556769 0.326106
O O15 0.146843 0.735618 0.360124
O O16 0.114576 0.190362 0.771013
O O17 0.000000 0.500000 0.500000
#
# Coordination Sequence:
#
# PCOD9037047 Si02
#       8
#     2   2   2   2   2   2   2   2
#     4  10  23  39  71 102 136 175 229 289 345 398
#     4  11  24  41  71 101 133 181 232 279 350 404
#     4  12  27  44  68 102 143 185 228 287 349 414
#     4   9  20  42  68 103 137 173 233 295 342 403
#     4  11  23  43  65 100 142 176 227 287 338 405
#     4  10  23  41  71 100 134 182 234 287 348 409
#     4  11  23  43  68  99 140 179 235 285 346 407
#     4  12  28  46  70  95 141 185 230 277 342 422
#
# _framework density 24.694846999999999
#
# number of rings (size 3 to 8) (size 9 to 14) (size 15 to 20)
#    0.000    1.250    1.250    4.125   10.500    0.000 
#    0.000    0.000    0.000    9.000    0.000    0.000 
#    0.000    0.000    0.000    0.000    0.000    0.000 
#
# Total GULP energy -89409.874357 kJ/mol
# GULP energy per Si atom -5588.117147 kJ/mol
# Density = 2.463864 g / cm^3
# Si number density = 24.694847 Si / 1000 Ang^3
#
#
#
# Elastic Constant Matrix: (Units=GPa)
#
#
# Indices 1 2 3 4 5 6 
#
# 1 80.8292 43.7941 13.2279 4.2708 -0.6711 6.2304
# 2 43.7941 120.2558 26.2608 15.3486 -8.3117 6.7560
# 3 13.2279 26.2608 43.2806 16.5866 5.9863 -8.5504
# 4 4.2708 15.3486 16.5866 36.4267 8.1008 4.5807
# 5 -0.6711 -8.3117 5.9863 8.1008 31.8311 1.8329
# 6 6.2304 6.7560 -8.5504 4.5807 1.8329 56.2883
#
#
#
# Elastic Compliance Matrix: (Units=1/GPa)
#
#
# Indices 1 2 3 4 5 6 
#
# 1 0.015721 -0.005428 -0.002443 0.001987 -0.001041 -0.001587
# 2 -0.005428 0.012360 -0.005779 -0.002844 0.005021 -0.001693
# 3 -0.002443 -0.005779 0.034416 -0.012718 -0.005222 0.007397
# 4 0.001987 -0.002844 -0.012718 0.036405 -0.007312 -0.004535
# 5 -0.001041 0.005021 -0.005222 -0.007312 0.035654 -0.001847
# 6 -0.001587 -0.001693 0.007397 -0.004535 -0.001847 0.019697
#
#
# Mechanical properties :
#
#
# Convention : Reuss Voigt Hill
#
# Bulk Modulus (GPa) = 28.41191 45.65903 37.03547
# Shear Modulus (GPa) = 25.86839 35.64806 30.75823
#
# Velocity S-wave (km/s) = 3.24006 3.80352 3.53304
# Velocity P-wave (km/s) = 5.05247 6.14967 5.62787
#
# Compressibility (1/GPa) = 0.03519651
#
# Stress axis : x y z
#
# Youngs Moduli (GPa) = 63.60776 80.90904 29.05639
#
# Poissons Ratio (x) = 0.43920 0.07097
# Poissons Ratio (y) = 0.34529 0.16792
# Poissons Ratio (z) = 0.15536 0.46759
#
# Static dielectric constant tensor:
#      x y z
#    x 2.109990 0.032230 -0.044270 
#    y 0.032230 1.960380 -0.002380 
#    z -0.044270 -0.002380 1.880140 
# 
# From -- ./inp_files/209448.got.cif
#   From: 2010.05.17/outbox.cif.g08.bks.cpg/sg2_105_cif.got.tgz:209448.got - 2010.06.03 11:33:40.
