data_PCOD9037882
_publ_section_title
;
Structure prediction by ZEFSAII (Michael W. Deem and Ramdas Pophale) SiO2 
 PCOD9037882
Probable space group: P -1
;
_chemical_formula_sum "Si O2"
_cell_formula_units_Z 13
_cell_length_a 9.560846
_cell_length_b 18.106163
_cell_length_c 5.316627
_cell_angle_alpha 63.739121
_cell_angle_beta 53.439152
_cell_angle_gamma 47.210712
_cell_volume 541.392081
_symmetry_space_group_name_H-M "P -1"
_symmetry_group_IT_number 2
_symmetry_cell_setting 'triclinic'
loop_
_space_group_symop_operation_xyz
x,y,z
-x,-y,-z
loop_
_atom_site_type_symbol
_atom_site_label
_atom_site_fract_x
_atom_site_fract_y
_atom_site_fract_z
Si Si1 0.376808 0.691980 0.576440
Si Si2 0.346523 0.225423 0.808550
Si Si3 0.500000 0.500000 0.000000
Si Si4 0.865108 0.251135 0.762263
Si Si5 0.019356 0.622608 0.736153
Si Si6 0.802610 0.552128 0.826248
Si Si7 0.628639 0.881027 0.569957
O O1 0.569279 0.704035 0.389373
O O2 0.268478 0.739301 0.350942
O O3 0.414278 0.583578 0.727336
O O4 0.216651 0.759074 0.872756
O O5 0.393303 0.165739 0.591082
O O6 0.091772 0.299627 0.030970
O O7 0.440081 0.148912 0.059596
O O8 0.390187 0.444442 0.089811
O O9 0.838484 0.359698 0.623463
O O10 0.117740 0.170215 0.590932
O O11 0.817889 0.642071 0.766079
O O12 0.148801 0.513274 0.876641
O O13 0.000000 0.500000 0.500000
O O14 0.500000 0.000000 0.500000
#
# Coordination Sequence:
#
# PCOD9037882 Si02
#       7
#     2   2   1   2   2   2   2
#     4  12  26  44  64 106 145 191 232 287 352 407
#     4  11  25  44  74 103 143 184 232 297 359 436
#     4  12  26  38  68  96 152 186 256 276 340 408
#     4  11  24  44  69  96 140 183 232 292 358 428
#     4  10  23  41  64  92 137 189 241 284 356 398
#     4  11  23  41  61  96 137 190 248 303 332 415
#     4  11  25  49  79 105 131 180 237 298 372 451
#
# _framework density 24.012173000000001
#
# number of rings (size 3 to 8) (size 9 to 14) (size 15 to 20)
#    0.000    0.923    1.538    5.077   10.769    1.846 
#    0.000    4.615    0.000    0.000    0.000    0.000 
#    0.000    0.000    0.000    0.000    0.000    0.000 
#
# Total GULP energy -72539.795056 kJ/mol
# GULP energy per Si atom -5579.984235 kJ/mol
# Density = 2.395752 g / cm^3
# Si number density = 24.012173 Si / 1000 Ang^3
#
#
#
# Elastic Constant Matrix: (Units=GPa)
#
#
# Indices 1 2 3 4 5 6 
#
# 1 150.4704 7.6954 43.8824 6.6534 9.3472 13.7224
# 2 7.6954 78.3710 35.7828 -18.7188 12.9371 8.7869
# 3 43.8824 35.7828 153.0778 -1.3970 7.6992 9.7627
# 4 6.6534 -18.7188 -1.3970 32.6642 1.3977 3.1423
# 5 9.3472 12.9371 7.6992 1.3977 51.1594 3.4212
# 6 13.7224 8.7869 9.7627 3.1423 3.4212 26.1280
#
#
#
# Elastic Compliance Matrix: (Units=1/GPa)
#
#
# Indices 1 2 3 4 5 6 
#
# 1 0.007611 0.000449 -0.002048 -0.001038 -0.000958 -0.003133
# 2 0.000449 0.018384 -0.003750 0.011016 -0.004079 -0.005808
# 3 -0.002048 -0.003750 0.008008 -0.001348 0.000189 -0.000518
# 4 -0.001038 0.011016 -0.001348 0.037865 -0.002972 -0.006821
# 5 -0.000958 -0.004079 0.000189 -0.002972 0.020844 -0.000567
# 6 -0.003133 -0.005808 -0.000518 -0.006821 -0.000567 0.042960
#
#
# Mechanical properties :
#
#
# Convention : Reuss Voigt Hill
#
# Bulk Modulus (GPa) = 42.90994 61.84895 52.37944
# Shear Modulus (GPa) = 32.43850 41.62756 37.03303
#
# Velocity S-wave (km/s) = 3.67947 4.16817 3.93142
# Velocity P-wave (km/s) = 5.99668 6.99844 6.51684
#
# Compressibility (1/GPa) = 0.02330462
#
# Stress axis : x y z
#
# Youngs Moduli (GPa) = 131.38235 54.39601 124.88054
#
# Poissons Ratio (x) = -0.02445 0.25581
# Poissons Ratio (y) = -0.05904 0.46830
# Poissons Ratio (z) = 0.26913 0.20398
#
# Static dielectric constant tensor:
#      x y z
#    x 2.002640 -0.022750 0.038730 
#    y -0.022750 1.782500 -0.089880 
#    z 0.038730 -0.089880 1.917080 
# 
# From -- ./inp_files/41709.got.cif
#   From: 2010.05.17/outbox.cif.g08.bks.cpg/sg2_21_cif.got.tgz:41709.got - 2010.06.03 11:33:40.
