data_PCOD9037712
_publ_section_title
;
Structure prediction by ZEFSAII (Michael W. Deem and Ramdas Pophale) SiO2 
 PCOD9037712
Probable space group: P -1
;
_chemical_formula_sum "Si O2"
_cell_formula_units_Z 16
_cell_length_a 15.316066
_cell_length_b 5.109856
_cell_length_c 8.967688
_cell_angle_alpha 80.778916
_cell_angle_beta 79.668431
_cell_angle_gamma 81.653458
_cell_volume 676.619621
_symmetry_space_group_name_H-M "P -1"
_symmetry_group_IT_number 2
_symmetry_cell_setting 'triclinic'
loop_
_space_group_symop_operation_xyz
x,y,z
-x,-y,-z
loop_
_atom_site_type_symbol
_atom_site_label
_atom_site_fract_x
_atom_site_fract_y
_atom_site_fract_z
Si Si1 0.586577 0.132956 0.396051
Si Si2 0.192382 0.549930 0.808806
Si Si3 0.466543 0.265677 0.753293
Si Si4 0.898329 0.946125 0.027099
Si Si5 0.799939 0.931802 0.747776
Si Si6 0.656515 0.616035 0.983949
Si Si7 0.656614 0.348186 0.712530
Si Si8 0.743256 0.746970 0.487142
O O1 0.563470 0.449186 0.346060
O O2 0.500000 0.000000 0.500000
O O3 0.587386 0.974651 0.254345
O O4 0.687963 0.033977 0.430540
O O5 0.217260 0.438386 0.644572
O O6 0.154348 0.844970 0.856517
O O7 0.281098 0.480461 0.887397
O O8 0.120484 0.351697 0.898204
O O9 0.572454 0.211339 0.698724
O O10 0.440474 0.295177 0.930838
O O11 0.866399 0.968042 0.860244
O O12 0.000000 0.000000 0.000000
O O13 0.757320 0.216410 0.677772
O O14 0.715237 0.815161 0.862171
O O15 0.813240 0.777049 0.599195
O O16 0.646232 0.395518 0.885468
O O17 0.659642 0.617049 0.595776
#
# Coordination Sequence:
#
# PCOD9037712 Si02
#       8
#     2   2   2   2   2   2   2   2
#     4  12  25  41  59  91 135 183 235 280 333 376
#     4  11  24  44  73 104 132 176 222 274 340 408
#     4  12  26  38  63  92 132 186 242 283 318 381
#     4  11  25  50  77 103 133 169 217 276 347 425
#     4  10  24  43  69  97 137 181 223 279 350 399
#     4  10  23  41  60  98 131 181 233 281 328 395
#     4  11  23  41  63  92 141 185 229 284 334 382
#     4  11  25  41  67  99 138 184 228 281 332 402
#
# _framework density 23.646967
#
# number of rings (size 3 to 8) (size 9 to 14) (size 15 to 20)
#    0.000    1.000    3.750    1.875    8.750    0.500 
#    0.000    1.250    0.000    0.000    0.000    0.000 
#    0.000    0.000    0.000    0.000    0.000    0.000 
#
# Total GULP energy -89176.137322 kJ/mol
# GULP energy per Si atom -5573.508583 kJ/mol
# Density = 2.359315 g / cm^3
# Si number density = 23.646967 Si / 1000 Ang^3
#
#
#
# Elastic Constant Matrix: (Units=GPa)
#
#
# Indices 1 2 3 4 5 6 
#
# 1 118.8253 18.2814 39.0717 5.6491 18.8036 29.1378
# 2 18.2814 74.4619 22.1372 22.0668 18.9134 9.6452
# 3 39.0717 22.1372 120.1041 31.4646 25.3702 4.6539
# 4 5.6491 22.0668 31.4646 38.4717 9.5176 2.5047
# 5 18.8036 18.9134 25.3702 9.5176 35.6880 9.1186
# 6 29.1378 9.6452 4.6539 2.5047 9.1186 29.7481
#
#
#
# Elastic Compliance Matrix: (Units=1/GPa)
#
#
# Indices 1 2 3 4 5 6 
#
# 1 0.012757 -0.001064 -0.004078 0.003105 -0.001170 -0.011415
# 2 -0.001064 0.018121 0.000909 -0.009186 -0.006690 -0.002151
# 3 -0.004078 0.000909 0.013091 -0.009366 -0.006255 0.004357
# 4 0.003105 -0.009186 -0.009366 0.038567 0.000083 -0.001870
# 5 -0.001170 -0.006690 -0.006255 0.000083 0.038529 -0.007524
# 6 -0.011415 -0.002151 0.004357 -0.001870 -0.007524 0.047276
#
#
# Mechanical properties :
#
#
# Convention : Reuss Voigt Hill
#
# Bulk Modulus (GPa) = 28.16616 52.48577 40.32596
# Shear Modulus (GPa) = 26.50526 36.37496 31.44011
#
# Velocity S-wave (km/s) = 3.35158 3.92631 3.65027
# Velocity P-wave (km/s) = 5.18791 6.54204 5.90393
#
# Compressibility (1/GPa) = 0.03550360
#
# Stress axis : x y z
#
# Youngs Moduli (GPa) = 78.38833 55.18532 76.38714
#
# Poissons Ratio (x) = 0.05872 0.31150
# Poissons Ratio (y) = 0.08341 -0.06945
# Poissons Ratio (z) = 0.31966 -0.05017
#
# Static dielectric constant tensor:
#      x y z
#    x 1.834670 -0.019270 0.030860 
#    y -0.019270 2.127280 0.057980 
#    z 0.030860 0.057980 2.068980 
# 
# From -- ./inp_files/288795.got.cif
#   From: 2010.05.17/outbox.cif.g08.bks.cpg/sg2_145_cif.got.tgz:288795.got - 2010.06.03 11:33:40.
