data_PCOD9037670
_publ_section_title
;
Structure prediction by ZEFSAII (Michael W. Deem and Ramdas Pophale) SiO2 
 PCOD9037670
Probable space group: P -1
;
_chemical_formula_sum "Si O2"
_cell_formula_units_Z 16
_cell_length_a 15.535112
_cell_length_b 11.603747
_cell_length_c 8.878173
_cell_angle_alpha 110.392170
_cell_angle_beta 61.491477
_cell_angle_gamma 150.710371
_cell_volume 679.413461
_symmetry_space_group_name_H-M "P -1"
_symmetry_group_IT_number 2
_symmetry_cell_setting 'triclinic'
loop_
_space_group_symop_operation_xyz
x,y,z
-x,-y,-z
loop_
_atom_site_type_symbol
_atom_site_label
_atom_site_fract_x
_atom_site_fract_y
_atom_site_fract_z
Si Si1 0.803843 0.099676 0.331898
Si Si2 0.840223 0.511276 0.564545
Si Si3 0.659767 0.233723 0.865884
Si Si4 0.531571 0.366909 0.072736
Si Si5 0.035208 0.094833 0.352448
Si Si6 0.761039 0.853796 0.024448
Si Si7 0.621085 0.752405 0.533505
Si Si8 0.955609 0.469403 0.198629
O O1 0.966888 0.304694 0.412775
O O2 0.795492 0.204419 0.273466
O O3 0.610858 0.850367 0.463983
O O4 0.858828 0.047417 0.150000
O O5 0.678643 0.262895 0.679558
O O6 0.814376 0.631220 0.646094
O O7 0.891458 0.526423 0.358588
O O8 0.651386 0.370727 0.971439
O O9 0.847724 0.364423 0.817311
O O10 0.500000 0.000000 0.000000
O O11 0.654272 0.624154 0.087306
O O12 0.390739 0.232218 0.986983
O O13 0.410535 0.233734 0.266382
O O14 0.096106 0.056312 0.169011
O O15 0.834220 0.937492 0.412684
O O16 0.000000 0.000000 0.500000
O O17 0.500000 0.500000 0.500000
O O18 0.000000 0.500000 0.000000
#
# Coordination Sequence:
#
# PCOD9037670 Si02
#       8
#     2   2   2   2   2   2   2   2
#     4  10  23  40  72  92 133 181 227 277 343 410
#     4  10  24  48  67  97 139 180 233 284 342 416
#     4  11  25  43  72 100 136 187 226 282 356 404
#     4  11  24  42  66 102 147 175 227 292 342 409
#     4  11  23  40  70  97 134 184 224 277 342 414
#     4  11  23  43  69 104 139 183 231 285 345 409
#     4  11  23  40  61  98 137 175 216 277 344 407
#     4  11  27  49  71  99 132 184 241 289 336 417
#
# _framework density 23.549724000000001
#
# number of rings (size 3 to 8) (size 9 to 14) (size 15 to 20)
#    0.000    1.250    3.750    1.500    8.750    4.000 
#    0.000    0.625    0.000    0.000    0.000    0.000 
#    0.000    0.000    0.000    0.000    0.000    0.000 
#
# Total GULP energy -89304.131268 kJ/mol
# GULP energy per Si atom -5581.508204 kJ/mol
# Density = 2.349612 g / cm^3
# Si number density = 23.549724 Si / 1000 Ang^3
#
#
#
# Elastic Constant Matrix: (Units=GPa)
#
#
# Indices 1 2 3 4 5 6 
#
# 1 23.9876 5.7842 15.3895 -4.8160 4.0776 -14.4732
# 2 5.7842 81.4073 27.4286 -18.7408 14.2558 -23.4921
# 3 15.3895 27.4286 160.4574 2.3502 19.4016 -8.4808
# 4 -4.8160 -18.7408 2.3502 44.9073 -12.9090 3.1974
# 5 4.0776 14.2558 19.4016 -12.9090 44.1681 -15.1501
# 6 -14.4732 -23.4921 -8.4808 3.1974 -15.1501 28.9830
#
#
#
# Elastic Compliance Matrix: (Units=1/GPa)
#
#
# Indices 1 2 3 4 5 6 
#
# 1 0.076334 0.013576 -0.008874 0.014841 0.014870 0.052662
# 2 0.013576 0.021304 -0.004436 0.010337 0.005181 0.024317
# 3 -0.008874 -0.004436 0.008119 -0.004174 -0.005259 -0.007940
# 4 0.014841 0.010337 -0.004174 0.030618 0.012080 0.017505
# 5 0.014870 0.005181 -0.005259 0.012080 0.034652 0.026868
# 6 0.052662 0.024317 -0.007940 0.017505 0.026868 0.090301
#
#
# Mechanical properties :
#
#
# Convention : Reuss Voigt Hill
#
# Bulk Modulus (GPa) = 9.40847 40.33963 24.87405
# Shear Modulus (GPa) = 16.87904 38.09500 27.48702
#
# Velocity S-wave (km/s) = 2.68011 4.02635 3.42012
# Velocity P-wave (km/s) = 3.68526 6.22753 5.11680
#
# Compressibility (1/GPa) = 0.10628716
#
# Stress axis : x y z
#
# Youngs Moduli (GPa) = 13.10036 46.94059 123.16839
#
# Poissons Ratio (x) = -0.63725 1.09297
# Poissons Ratio (y) = -0.17784 0.54642
# Poissons Ratio (z) = 0.11625 0.20824
#
# Static dielectric constant tensor:
#      x y z
#    x 2.156440 -0.107980 0.040580 
#    y -0.107980 2.017660 -0.046080 
#    z 0.040580 -0.046080 1.897590 
# 
# From -- ./inp_files/333607.got.cif
#   From: 2010.05.17/outbox.cif.g08.bks.cpg/sg2_167_cif.got.tgz:333607.got - 2010.06.03 11:33:40.
