data_PCOD9037118
_publ_section_title
;
Structure prediction by ZEFSAII (Michael W. Deem and Ramdas Pophale) SiO2 
 PCOD9037118
Probable space group: P -1
;
_chemical_formula_sum "Si O2"
_cell_formula_units_Z 12
_cell_length_a 7.970271
_cell_length_b 7.665513
_cell_length_c 15.000134
_cell_angle_alpha 75.604234
_cell_angle_beta 84.526774
_cell_angle_gamma 143.562791
_cell_volume 452.417791
_symmetry_space_group_name_H-M "P -1"
_symmetry_group_IT_number 2
_symmetry_cell_setting 'triclinic'
loop_
_space_group_symop_operation_xyz
x,y,z
-x,-y,-z
loop_
_atom_site_type_symbol
_atom_site_label
_atom_site_fract_x
_atom_site_fract_y
_atom_site_fract_z
Si Si1 0.666716 0.319228 0.782017
Si Si2 0.382302 0.143016 0.109515
Si Si3 0.062774 0.227439 0.129237
Si Si4 0.620140 0.473026 0.424835
Si Si5 0.409176 0.206693 0.291683
Si Si6 0.359939 0.788586 0.408413
O O1 0.890146 0.663312 0.784021
O O2 0.692727 0.347135 0.669446
O O3 0.718081 0.158116 0.832850
O O4 0.287378 0.026864 0.855330
O O5 0.122121 0.069620 0.126898
O O6 0.551353 0.354020 0.168197
O O7 0.642551 0.401909 0.984903
O O8 0.500000 0.500000 0.500000
O O9 0.481632 0.401303 0.345171
O O10 0.485024 0.173005 0.521220
O O11 0.014609 0.829126 0.350670
O O12 0.542945 0.141499 0.332671
O O13 0.000000 0.500000 0.500000
#
# Coordination Sequence:
#
# PCOD9037118 Si02
#       6
#     2   2   2   2   2   2
#     4  11  25  44  71  98 136 178 224 273 336 403
#     4  10  25  45  69  99 140 172 224 283 332 392
#     4  11  26  43  70 102 132 178 226 275 335 401
#     4  11  23  37  61  91 121 160 209 260 309 386
#     4  10  23  40  61  86 124 166 203 258 328 374
#     4   9  22  42  63  92 127 169 211 265 329 384
#
# _framework density 26.524156999999999
#
# number of rings (size 3 to 8) (size 9 to 14) (size 15 to 20)
#    0.000    1.667    0.000    2.000    4.667   16.000 
#    0.000    0.000    0.000    0.000    0.000    0.000 
#    0.000    0.000    0.000    0.000    0.000    0.000 
#
# Total GULP energy -67135.591418 kJ/mol
# GULP energy per Si atom -5594.632618 kJ/mol
# Density = 2.646379 g / cm^3
# Si number density = 26.524157 Si / 1000 Ang^3
#
#
#
# Elastic Constant Matrix: (Units=GPa)
#
#
# Indices 1 2 3 4 5 6 
#
# 1 146.0612 30.3207 13.5118 -18.7750 -0.6142 -13.2344
# 2 30.3207 108.4307 11.3639 5.2447 -7.7967 6.4175
# 3 13.5118 11.3639 138.5443 17.3557 -6.6181 8.0548
# 4 -18.7750 5.2447 17.3557 34.8992 -2.1347 -6.5325
# 5 -0.6142 -7.7967 -6.6181 -2.1347 33.5260 4.1833
# 6 -13.2344 6.4175 8.0548 -6.5325 4.1833 25.7445
#
#
#
# Elastic Compliance Matrix: (Units=1/GPa)
#
#
# Indices 1 2 3 4 5 6 
#
# 1 0.009696 -0.003534 -0.002324 0.008489 -0.001688 0.009021
# 2 -0.003534 0.010992 0.000577 -0.004862 0.003104 -0.006475
# 3 -0.002324 0.000577 0.008690 -0.006669 0.002143 -0.006098
# 4 0.008489 -0.004862 -0.006669 0.040568 -0.001989 0.018279
# 5 -0.001688 0.003104 0.002143 -0.001989 0.031811 -0.007986
# 6 0.009021 -0.006475 -0.006098 0.018279 -0.007986 0.052938
#
#
# Mechanical properties :
#
#
# Convention : Reuss Voigt Hill
#
# Bulk Modulus (GPa) = 53.14812 55.93655 54.54233
# Shear Modulus (GPa) = 29.14949 41.35659 35.25304
#
# Velocity S-wave (km/s) = 3.31868 3.95296 3.64963
# Velocity P-wave (km/s) = 5.89627 6.47837 6.19416
#
# Compressibility (1/GPa) = 0.01881534
#
# Stress axis : x y z
#
# Youngs Moduli (GPa) = 103.13036 90.97740 115.08024
#
# Poissons Ratio (x) = 0.32149 0.26748
# Poissons Ratio (y) = 0.36444 -0.06638
# Poissons Ratio (z) = 0.23971 -0.05248
#
# Static dielectric constant tensor:
#      x y z
#    x 2.265130 -0.125170 0.012420 
#    y -0.125170 2.210130 -0.002800 
#    z 0.012420 -0.002800 2.085690 
# 
# From -- ./inp_files/56074.got.cif
#   From: 2010.05.17/outbox.cif.g08.bks.cpg/sg2_29_cif.got.tgz:56074.got - 2010.06.03 11:33:40.
