data_PCOD9037963
_publ_section_title
;
Structure prediction by ZEFSAII (Michael W. Deem and Ramdas Pophale) SiO2 
 PCOD9037963
Probable space group: P -1
;
_chemical_formula_sum "Si O2"
_cell_formula_units_Z 16
_cell_length_a 12.237040
_cell_length_b 11.932548
_cell_length_c 11.695663
_cell_angle_alpha 67.346584
_cell_angle_beta 56.927574
_cell_angle_gamma 32.483859
_cell_volume 757.792154
_symmetry_space_group_name_H-M "P -1"
_symmetry_group_IT_number 2
_symmetry_cell_setting 'triclinic'
loop_
_space_group_symop_operation_xyz
x,y,z
-x,-y,-z
loop_
_atom_site_type_symbol
_atom_site_label
_atom_site_fract_x
_atom_site_fract_y
_atom_site_fract_z
Si Si1 0.106759 0.977515 0.059124
Si Si2 0.183375 0.153984 0.203970
Si Si3 0.290574 0.242564 0.488384
Si Si4 0.761901 0.409411 0.212140
Si Si5 0.549722 0.704725 0.823652
Si Si6 0.984207 0.329444 0.477473
Si Si7 0.651715 0.706280 0.007189
Si Si8 0.667023 0.376467 0.744948
O O1 0.225704 0.797136 0.154445
O O2 0.294122 0.925328 0.922110
O O3 0.907720 0.199486 0.145572
O O4 0.000000 0.000000 0.000000
O O5 0.925282 0.302805 0.270834
O O6 0.183585 0.157384 0.339948
O O7 0.389564 0.923420 0.116426
O O8 0.233672 0.251161 0.093031
O O9 0.365788 0.259964 0.326388
O O10 0.187999 0.428283 0.554178
O O11 0.093454 0.299835 0.542655
O O12 0.500000 0.000000 0.500000
O O13 0.770562 0.534107 0.100778
O O14 0.505973 0.556715 0.271938
O O15 0.557704 0.568228 0.809696
O O16 0.674187 0.617655 0.908646
O O17 0.854290 0.305825 0.592142
#
# Coordination Sequence:
#
# PCOD9037963 Si02
#       8
#     2   2   2   2   2   2   2   2
#     4  12  23  38  65  97 126 163 206 260 321 362
#     4  11  24  43  64  89 127 169 209 252 309 370
#     4  10  23  41  65  93 126 160 206 259 312 371
#     4  12  23  40  62  93 127 163 210 253 312 367
#     4  11  20  41  65  95 125 158 205 266 312 359
#     4  10  24  43  61  91 126 167 208 250 310 372
#     4  11  23  42  64  95 126 158 213 263 304 367
#     4  11  24  40  63  95 129 161 208 262 305 376
#
# _framework density 21.113968
#
# number of rings (size 3 to 8) (size 9 to 14) (size 15 to 20)
#    0.000    1.000    5.000    1.500    1.750    2.500 
#    0.000    2.500    0.000    0.000    0.000    0.000 
#    0.000    0.000    0.000    0.000    0.000    0.000 
#
# Total GULP energy -89133.647567 kJ/mol
# GULP energy per Si atom -5570.852973 kJ/mol
# Density = 2.106591 g / cm^3
# Si number density = 21.113968 Si / 1000 Ang^3
#
#
#
# Elastic Constant Matrix: (Units=GPa)
#
#
# Indices 1 2 3 4 5 6 
#
# 1 79.0724 11.8974 17.3602 7.8641 -11.8784 -4.3875
# 2 11.8974 73.0684 20.3026 -4.7870 -9.1307 -10.2906
# 3 17.3602 20.3026 88.5557 8.8649 -12.6814 1.8387
# 4 7.8641 -4.7870 8.8649 6.9278 0.2859 -3.0549
# 5 -11.8784 -9.1307 -12.6814 0.2859 35.8918 7.6121
# 6 -4.3875 -10.2906 1.8387 -3.0549 7.6121 26.8580
#
#
#
# Elastic Compliance Matrix: (Units=1/GPa)
#
#
# Indices 1 2 3 4 5 6 
#
# 1 0.016137 -0.004359 0.001170 -0.024597 0.005582 -0.003494
# 2 -0.004359 0.020234 -0.007715 0.034156 -0.001832 0.011973
# 3 0.001170 -0.007715 0.017368 -0.033449 0.006887 -0.009710
# 4 -0.024597 0.034156 -0.033449 0.260650 -0.023452 0.047652
# 5 0.005582 -0.001832 0.006887 -0.023452 0.034561 -0.012725
# 6 -0.003494 0.011973 -0.009710 0.047652 -0.012725 0.050941
#
#
# Mechanical properties :
#
#
# Convention : Reuss Voigt Hill
#
# Bulk Modulus (GPa) = 31.31628 37.75743 34.53685
# Shear Modulus (GPa) = 11.56494 26.67795 19.12144
#
# Velocity S-wave (km/s) = 2.34292 3.55846 3.01263
# Velocity P-wave (km/s) = 4.70991 5.89958 5.33799
#
# Compressibility (1/GPa) = 0.03193228
#
# Stress axis : x y z
#
# Youngs Moduli (GPa) = 61.97116 49.42170 57.57753
#
# Poissons Ratio (x) = 0.21541 -0.06737
# Poissons Ratio (y) = 0.27011 0.44419
# Poissons Ratio (z) = -0.07251 0.38127
#
# Static dielectric constant tensor:
#      x y z
#    x 1.942380 -0.075680 0.020260 
#    y -0.075680 1.797340 0.029680 
#    z 0.020260 0.029680 1.745220 
# 
# From -- ./inp_files/71200.got.cif
#   From: 2010.05.17/outbox.cif.g08.bks.cpg/sg2_36_cif.got.tgz:71200.got - 2010.06.03 11:33:40.
