data_PCOD9037845
_publ_section_title
;
Structure prediction by ZEFSAII (Michael W. Deem and Ramdas Pophale) SiO2 
 PCOD9037845
Probable space group: P -1
;
_chemical_formula_sum "Si O2"
_cell_formula_units_Z 16
_cell_length_a 8.189131
_cell_length_b 14.728124
_cell_length_c 14.819297
_cell_angle_alpha 30.274242
_cell_angle_beta 100.346341
_cell_angle_gamma 78.394108
_cell_volume 616.629363
_symmetry_space_group_name_H-M "P -1"
_symmetry_group_IT_number 2
_symmetry_cell_setting 'triclinic'
loop_
_space_group_symop_operation_xyz
x,y,z
-x,-y,-z
loop_
_atom_site_type_symbol
_atom_site_label
_atom_site_fract_x
_atom_site_fract_y
_atom_site_fract_z
Si Si1 0.028523 0.510046 0.637591
Si Si2 0.749284 0.279781 0.270131
Si Si3 0.261796 0.914909 0.863558
Si Si4 0.693013 0.703496 0.970496
Si Si5 0.540775 0.189146 0.481380
Si Si6 0.291612 0.832815 0.282458
Si Si7 0.419613 0.320533 0.722774
Si Si8 0.856574 0.379622 0.837816
O O1 0.198286 0.370071 0.688827
O O2 0.809355 0.547881 0.598669
O O3 0.160366 0.338398 0.891297
O O4 0.953494 0.775105 0.417764
O O5 0.658399 0.225796 0.389219
O O6 0.500000 0.500000 0.000000
O O7 0.810070 0.435167 0.173540
O O8 0.000000 0.000000 0.500000
O O9 0.436450 0.842972 0.863259
O O10 0.414224 0.813958 0.056783
O O11 0.208800 0.745998 0.995271
O O12 0.657720 0.901668 0.733771
O O13 0.602720 0.222359 0.558747
O O14 0.255603 0.396499 0.288015
O O15 0.319737 0.601039 0.463074
O O16 0.414076 0.844699 0.203323
O O17 0.026395 0.111061 0.025970
#
# Coordination Sequence:
#
# PCOD9037845 Si02
#       8
#     2   2   2   2   2   2   2   2
#     4  11  23  40  71 103 141 199 247 302 362 432
#     4  12  32  53  84 120 153 191 238 314 396 466
#     4  11  22  41  67 102 144 193 247 304 359 429
#     4  11  25  46  77 107 145 192 241 300 368 460
#     4  12  25  47  76 105 144 189 250 302 375 460
#     4  11  23  42  68 100 142 200 248 308 370 432
#     4  10  23  41  63  97 151 195 254 310 364 427
#     4  12  23  38  71 101 135 195 249 298 366 429
#
# _framework density 25.947516
#
# number of rings (size 3 to 8) (size 9 to 14) (size 15 to 20)
#    0.000    0.750    6.250    0.750    3.500    3.000 
#    0.000    1.250    0.000    0.000    0.000    0.000 
#    0.000    0.000    0.000    0.000    0.000    0.000 
#
# Total GULP energy -89138.950122 kJ/mol
# GULP energy per Si atom -5571.184383 kJ/mol
# Density = 2.588846 g / cm^3
# Si number density = 25.947516 Si / 1000 Ang^3
#
#
#
# Elastic Constant Matrix: (Units=GPa)
#
#
# Indices 1 2 3 4 5 6 
#
# 1 1024.7827 10.1280 -84.1916 148.1797 -164.4879 -40.6006
# 2 10.1280 99.9197 55.5422 -26.7849 -1.4500 -40.3701
# 3 -84.1916 55.5422 162.2202 -45.8442 -22.8248 -15.4054
# 4 148.1797 -26.7849 -45.8442 64.3067 -28.1306 9.4135
# 5 -164.4879 -1.4500 -22.8248 -28.1306 68.6008 0.5059
# 6 -40.6006 -40.3701 -15.4054 9.4135 0.5059 52.6013
#
#
#
# Elastic Compliance Matrix: (Units=1/GPa)
#
#
# Indices 1 2 3 4 5 6 
#
# 1 0.002496 -0.001125 0.001820 -0.002873 0.005373 0.002058
# 2 -0.001125 0.018468 -0.005075 0.003965 -0.002452 0.011133
# 3 0.001820 -0.005075 0.012713 0.007937 0.011744 -0.000300
# 4 -0.002873 0.003965 0.007937 0.034266 0.009909 -0.003078
# 5 0.005373 -0.002452 0.011744 0.009909 0.035352 0.003591
# 6 0.002058 0.011133 -0.000300 -0.003078 0.003591 0.029573
#
#
# Mechanical properties :
#
#
# Convention : Reuss Voigt Hill
#
# Bulk Modulus (GPa) = 40.13153 138.87554 89.50354
# Shear Modulus (GPa) = 33.34787 124.13138 78.73962
#
# Velocity S-wave (km/s) = 3.58886 6.92411 5.51467
# Velocity P-wave (km/s) = 5.71605 10.84261 8.66705
#
# Compressibility (1/GPa) = 0.02491806
#
# Stress axis : x y z
#
# Youngs Moduli (GPa) = 400.65478 54.14686 78.65684
#
# Poissons Ratio (x) = 0.06094 -0.14316
# Poissons Ratio (y) = 0.45088 0.39915
# Poissons Ratio (z) = -0.72924 0.27477
#
# Static dielectric constant tensor:
#      x y z
#    x 0.277980 -0.034670 -0.508160 
#    y -0.034670 2.001750 0.001140 
#    z -0.508160 0.001140 1.919150 
# 
# From -- ./inp_files/505010.got.cif
#   From: 2010.05.17/outbox.cif.g08.bks.cpg/sg2_253_cif.got.tgz:505010.got - 2010.06.03 11:33:40.
