data_PCOD9037811
_publ_section_title
;
Structure prediction by ZEFSAII (Michael W. Deem and Ramdas Pophale) SiO2 
 PCOD9037811
Probable space group: P -1
;
_chemical_formula_sum "Si O2"
_cell_formula_units_Z 16
_cell_length_a 5.200808
_cell_length_b 12.588827
_cell_length_c 12.359588
_cell_angle_alpha 102.124372
_cell_angle_beta 82.432584
_cell_angle_gamma 76.323737
_cell_volume 754.588431
_symmetry_space_group_name_H-M "P -1"
_symmetry_group_IT_number 2
_symmetry_cell_setting 'triclinic'
loop_
_space_group_symop_operation_xyz
x,y,z
-x,-y,-z
loop_
_atom_site_type_symbol
_atom_site_label
_atom_site_fract_x
_atom_site_fract_y
_atom_site_fract_z
Si Si1 0.871713 0.133052 0.562320
Si Si2 0.089317 0.210693 0.906720
Si Si3 0.588161 0.266294 0.802186
Si Si4 0.979577 0.653386 0.846767
Si Si5 0.161939 0.963160 0.872158
Si Si6 0.405522 0.122729 0.472247
Si Si7 0.252127 0.151505 0.238230
Si Si8 0.448012 0.486837 0.129282
O O1 0.713371 0.167122 0.689379
O O2 0.649761 0.176179 0.491604
O O3 0.125115 0.183947 0.558049
O O4 0.000000 0.000000 0.500000
O O5 0.280296 0.272999 0.846975
O O6 0.781942 0.239627 0.890406
O O7 0.210867 0.078663 0.850249
O O8 0.095996 0.246718 0.037879
O O9 0.609609 0.388310 0.790697
O O10 0.903156 0.719007 0.752372
O O11 0.796650 0.568826 0.857818
O O12 0.287353 0.590157 0.843112
O O13 0.460414 0.879520 0.847968
O O14 0.958536 0.917592 0.800000
O O15 0.000000 0.000000 0.000000
O O16 0.338676 0.121801 0.350378
O O17 0.500000 0.000000 0.500000
O O18 0.500000 0.500000 0.000000
#
# Coordination Sequence:
#
# PCOD9037811 Si02
#       8
#     2   2   2   2   2   2   2   2
#     4  10  23  41  63  93 128 164 216 277 338 390
#     4  12  24  37  63  97 136 175 212 261 330 404
#     4  12  25  40  67  98 133 173 213 282 336 374
#     4  12  24  42  64  95 136 177 222 262 325 400
#     4  12  26  39  60  96 140 179 214 253 328 424
#     4  10  23  42  64  90 122 168 221 273 322 389
#     4  12  26  43  64  92 135 185 217 269 334 391
#     4  12  23  42  67  97 133 175 224 273 319 387
#
# _framework density 21.203610999999999
#
# number of rings (size 3 to 8) (size 9 to 14) (size 15 to 20)
#    0.000    0.500    3.750    4.500   12.250    0.000 
#    0.000    0.000    0.000    4.500    0.000    0.000 
#    0.000    0.000    0.000    0.000    0.000    0.000 
#
# Total GULP energy -89372.252312 kJ/mol
# GULP energy per Si atom -5585.765769 kJ/mol
# Density = 2.115535 g / cm^3
# Si number density = 21.203611 Si / 1000 Ang^3
#
#
#
# Elastic Constant Matrix: (Units=GPa)
#
#
# Indices 1 2 3 4 5 6 
#
# 1 119.6335 3.9421 7.5511 2.0464 22.6077 -5.9408
# 2 3.9421 70.2918 18.4524 -4.0815 15.1008 -1.4643
# 3 7.5511 18.4524 61.7209 -8.2527 12.4456 -4.4772
# 4 2.0464 -4.0815 -8.2527 20.9320 -4.1593 7.5865
# 5 22.6077 15.1008 12.4456 -4.1593 32.9488 1.5541
# 6 -5.9408 -1.4643 -4.4772 7.5865 1.5541 37.9662
#
#
#
# Elastic Compliance Matrix: (Units=1/GPa)
#
#
# Indices 1 2 3 4 5 6 
#
# 1 0.009995 0.001030 -0.000221 -0.003341 -0.007790 0.002564
# 2 0.001030 0.016641 -0.003635 0.000091 -0.006979 0.000642
# 3 -0.000221 -0.003635 0.019092 0.005467 -0.004760 0.001179
# 4 -0.003341 0.000091 0.005467 0.055941 0.007783 -0.011371
# 5 -0.007790 -0.006979 -0.004760 0.007783 0.041925 -0.005321
# 6 0.002564 0.000642 0.001179 -0.011371 -0.005321 0.029394
#
#
# Mechanical properties :
#
#
# Convention : Reuss Voigt Hill
#
# Bulk Modulus (GPa) = 24.95177 34.61527 29.78352
# Shear Modulus (GPa) = 26.04179 33.14945 29.59562
#
# Velocity S-wave (km/s) = 3.50834 3.95826 3.74007
# Velocity P-wave (km/s) = 5.31079 6.10336 5.72082
#
# Compressibility (1/GPa) = 0.04007731
#
# Stress axis : x y z
#
# Youngs Moduli (GPa) = 100.04608 60.09296 52.37802
#
# Poissons Ratio (x) = -0.06191 0.01157
# Poissons Ratio (y) = -0.10308 0.19039
# Poissons Ratio (z) = 0.02209 0.21844
#
# Static dielectric constant tensor:
#      x y z
#    x 1.715030 -0.083950 -0.025190 
#    y -0.083950 1.715510 -0.029260 
#    z -0.025190 -0.029260 1.801050 
# 
# From -- ./inp_files/364777.got.cif
#   From: 2010.05.17/outbox.cif.g08.bks.cpg/sg2_183_cif.got.tgz:364777.got - 2010.06.03 11:33:40.
