data_PCOD9037633
_publ_section_title
;
Structure prediction by ZEFSAII (Michael W. Deem and Ramdas Pophale) SiO2 
 PCOD9037633
Probable space group: P -1
;
_chemical_formula_sum "Si O2"
_cell_formula_units_Z 10
_cell_length_a 5.236603
_cell_length_b 9.177331
_cell_length_c 9.747815
_cell_angle_alpha 71.834708
_cell_angle_beta 74.704583
_cell_angle_gamma 88.566728
_cell_volume 428.508897
_symmetry_space_group_name_H-M "P -1"
_symmetry_group_IT_number 2
_symmetry_cell_setting 'triclinic'
loop_
_space_group_symop_operation_xyz
x,y,z
-x,-y,-z
loop_
_atom_site_type_symbol
_atom_site_label
_atom_site_fract_x
_atom_site_fract_y
_atom_site_fract_z
Si Si1 0.215090 0.908201 0.580687
Si Si2 0.054783 0.863052 0.932106
Si Si3 0.750532 0.361131 0.820761
Si Si4 0.216400 0.429510 0.894202
Si Si5 0.254086 0.606939 0.483519
O O1 0.140811 0.899510 0.755124
O O2 0.224510 0.736709 0.565210
O O3 0.500000 0.000000 0.500000
O O4 0.000000 0.000000 0.500000
O O5 0.253554 0.761137 0.019905
O O6 0.794218 0.746815 0.004923
O O7 0.000000 0.000000 0.000000
O O8 0.523408 0.482895 0.836677
O O9 0.692685 0.297039 0.696495
O O10 0.056359 0.429797 0.773856
O O11 0.000000 0.500000 0.000000
O O12 0.500000 0.500000 0.500000
O O13 0.000000 0.500000 0.500000
#
# Coordination Sequence:
#
# PCOD9037633 Si02
#       5
#     2   2   2   2   2
#     4  12  29  48  72 106 149 187 236 294 365 421
#     4  10  26  44  74  97 138 186 237 283 346 420
#     4  10  24  41  72  96 139 174 236 280 348 408
#     4  10  23  40  70  99 133 172 240 284 341 401
#     4  12  27  46  75 106 147 186 235 294 362 418
#
# _framework density 23.336735000000001
#
# number of rings (size 3 to 8) (size 9 to 14) (size 15 to 20)
#    1.200    0.000    0.000    4.200   11.200    0.800 
#    0.000    0.000    0.000    0.000    0.000    0.000 
#    0.000    0.000    0.000    0.000    0.000    0.000 
#
# Total GULP energy -55701.439281 kJ/mol
# GULP energy per Si atom -5570.143928 kJ/mol
# Density = 2.328362 g / cm^3
# Si number density = 23.336735 Si / 1000 Ang^3
#
#
#
# Elastic Constant Matrix: (Units=GPa)
#
#
# Indices 1 2 3 4 5 6 
#
# 1 229.6964 61.2826 55.3073 -3.1694 4.7893 -19.5611
# 2 61.2826 171.2075 61.8962 23.2321 1.6458 -3.0323
# 3 55.3073 61.8962 188.1189 25.2259 39.7639 -0.4832
# 4 -3.1694 23.2321 25.2259 41.1512 -2.0872 -4.5580
# 5 4.7893 1.6458 39.7639 -2.0872 37.8236 -8.5482
# 6 -19.5611 -3.0323 -0.4832 -4.5580 -8.5482 30.2011
#
#
#
# Elastic Compliance Matrix: (Units=1/GPa)
#
#
# Indices 1 2 3 4 5 6 
#
# 1 0.005727 -0.001658 -0.002210 0.003420 0.002957 0.004861
# 2 -0.001658 0.007533 -0.001914 -0.003164 0.001638 -0.000362
# 3 -0.002210 -0.001914 0.009914 -0.006397 -0.011710 -0.005745
# 4 0.003420 -0.003164 -0.006397 0.031852 0.010341 0.009529
# 5 0.002957 0.001638 -0.011710 0.010341 0.042365 0.015444
# 6 0.004861 -0.000362 -0.005745 0.009529 0.015444 0.041941
#
#
# Mechanical properties :
#
#
# Convention : Reuss Voigt Hill
#
# Bulk Modulus (GPa) = 86.12237 105.11056 95.61646
# Shear Modulus (GPa) = 32.30697 49.20431 40.75564
#
# Velocity S-wave (km/s) = 3.72477 4.59677 4.18355
# Velocity P-wave (km/s) = 7.44868 8.56226 8.02481
#
# Compressibility (1/GPa) = 0.01161139
#
# Stress axis : x y z
#
# Youngs Moduli (GPa) = 174.60080 132.74071 100.87170
#
# Poissons Ratio (x) = 0.22003 0.22289
# Poissons Ratio (y) = 0.28942 0.19310
# Poissons Ratio (z) = 0.38580 0.25410
#
# Static dielectric constant tensor:
#      x y z
#    x 2.007130 0.071680 -0.138540 
#    y 0.071680 2.020130 -0.055060 
#    z -0.138540 -0.055060 2.155260 
# 
# From -- ./inp_files/129039.got.cif
#   From: 2010.05.17/outbox.cif.g08.bks.cpg/sg2_65_cif.got.tgz:129039.got - 2010.06.03 11:33:40.
