data_PCOD9037728
_publ_section_title
;
Structure prediction by ZEFSAII (Michael W. Deem and Ramdas Pophale) SiO2 
 PCOD9037728
Probable space group: P -1
;
_chemical_formula_sum "Si O2"
_cell_formula_units_Z 16
_cell_length_a 10.050380
_cell_length_b 7.724853
_cell_length_c 13.433192
_cell_angle_alpha 79.465044
_cell_angle_beta 38.265725
_cell_angle_gamma 71.927706
_cell_volume 610.751741
_symmetry_space_group_name_H-M "P -1"
_symmetry_group_IT_number 2
_symmetry_cell_setting 'triclinic'
loop_
_space_group_symop_operation_xyz
x,y,z
-x,-y,-z
loop_
_atom_site_type_symbol
_atom_site_label
_atom_site_fract_x
_atom_site_fract_y
_atom_site_fract_z
Si Si1 0.782429 0.160378 0.136879
Si Si2 0.009375 0.320134 0.719043
Si Si3 0.124128 0.084516 0.333428
Si Si4 0.701745 0.669819 0.647372
Si Si5 0.206476 0.886956 0.643700
Si Si6 0.772377 0.537857 0.069096
Si Si7 0.375589 0.364984 0.638987
Si Si8 0.396702 0.681730 0.156280
O O1 0.522076 0.173841 0.273507
O O2 0.808259 0.205416 0.232258
O O3 0.788075 0.331901 0.049721
O O4 0.000000 0.000000 0.000000
O O5 0.121006 0.359012 0.544023
O O6 0.135591 0.398720 0.723515
O O7 0.742873 0.356867 0.853300
O O8 0.103846 0.101301 0.697993
O O9 0.220648 0.236599 0.312103
O O10 0.943612 0.168629 0.346423
O O11 0.294700 0.898700 0.212073
O O12 0.000000 0.000000 0.500000
O O13 0.656742 0.474818 0.722129
O O14 0.462776 0.832040 0.465284
O O15 0.619282 0.621297 0.246776
O O16 0.658893 0.655968 0.028989
O O17 0.000000 0.500000 0.000000
O O18 0.500000 0.500000 0.500000
#
# Coordination Sequence:
#
# PCOD9037728 Si02
#       8
#     2   2   2   2   2   2   2   2
#     4  11  26  45  65  93 134 180 225 279 338 407
#     4  11  23  37  66  99 130 172 213 281 338 389
#     4  11  22  37  67 101 132 173 213 282 339 399
#     4  11  22  41  64  98 135 175 219 274 344 396
#     4  11  23  41  64 102 132 167 231 268 337 398
#     4  11  26  44  68  97 131 181 224 280 345 402
#     4  12  23  40  66  99 135 167 224 283 328 403
#     4  10  23  41  61  96 134 171 222 269 334 411
#
# _framework density 26.197223000000001
#
# number of rings (size 3 to 8) (size 9 to 14) (size 15 to 20)
#    0.000    1.000    5.000    2.250    5.250    0.000 
#    0.000    1.250    2.750    0.000    0.000    0.000 
#    0.000    0.000    0.000    0.000    0.000    0.000 
#
# Total GULP energy -89331.014415 kJ/mol
# GULP energy per Si atom -5583.188401 kJ/mol
# Density = 2.613760 g / cm^3
# Si number density = 26.197223 Si / 1000 Ang^3
#
#
#
# Elastic Constant Matrix: (Units=GPa)
#
#
# Indices 1 2 3 4 5 6 
#
# 1 268.7917 15.1066 54.6017 18.6812 -19.0471 -6.7273
# 2 15.1066 68.9305 6.3352 10.6834 -3.3675 -6.1887
# 3 54.6017 6.3352 76.7318 23.3965 -12.2874 -13.7107
# 4 18.6812 10.6834 23.3965 40.8763 -8.4719 -9.9977
# 5 -19.0471 -3.3675 -12.2874 -8.4719 55.1875 11.6620
# 6 -6.7273 -6.1887 -13.7107 -9.9977 11.6620 44.1511
#
#
#
# Elastic Compliance Matrix: (Units=1/GPa)
#
#
# Indices 1 2 3 4 5 6 
#
# 1 0.004432 -0.000693 -0.003039 -0.000065 0.000933 -0.000627
# 2 -0.000693 0.015300 0.000599 -0.003690 -0.000034 0.001399
# 3 -0.003039 0.000599 0.018426 -0.008303 0.001148 0.003159
# 4 -0.000065 -0.003690 -0.008303 0.031480 0.001998 0.003495
# 5 0.000933 -0.000034 0.001148 0.001998 0.019914 -0.004314
# 6 -0.000627 0.001399 0.003159 0.003495 -0.004314 0.025662
#
#
# Mechanical properties :
#
#
# Convention : Reuss Voigt Hill
#
# Bulk Modulus (GPa) = 31.35550 62.94901 47.15226
# Shear Modulus (GPa) = 37.84775 50.60368 44.22572
#
# Velocity S-wave (km/s) = 3.80508 4.39981 4.11321
# Velocity P-wave (km/s) = 5.59462 7.06344 6.37150
#
# Compressibility (1/GPa) = 0.03189233
#
# Stress axis : x y z
#
# Youngs Moduli (GPa) = 225.65379 65.35987 54.27203
#
# Poissons Ratio (x) = 0.04527 0.16494
# Poissons Ratio (y) = 0.15628 -0.03252
# Poissons Ratio (z) = 0.68579 -0.03917
#
# Static dielectric constant tensor:
#      x y z
#    x 2.164730 0.083960 -0.216570 
#    y 0.083960 2.092330 -0.056690 
#    z -0.216570 -0.056690 2.392730 
# 
# From -- ./inp_files/433851.got.cif
#   From: 2010.05.17/outbox.cif.g08.bks.cpg/sg2_217_cif.got.tgz:433851.got - 2010.06.03 11:33:40.
