data_PCOD9037726
_publ_section_title
;
Structure prediction by ZEFSAII (Michael W. Deem and Ramdas Pophale) SiO2 
 PCOD9037726
Probable space group: P -1
;
_chemical_formula_sum "Si O2"
_cell_formula_units_Z 16
_cell_length_a 14.037141
_cell_length_b 8.143158
_cell_length_c 9.079124
_cell_angle_alpha 93.038600
_cell_angle_beta 81.612807
_cell_angle_gamma 45.183562
_cell_volume 710.133159
_symmetry_space_group_name_H-M "P -1"
_symmetry_group_IT_number 2
_symmetry_cell_setting 'triclinic'
loop_
_space_group_symop_operation_xyz
x,y,z
-x,-y,-z
loop_
_atom_site_type_symbol
_atom_site_label
_atom_site_fract_x
_atom_site_fract_y
_atom_site_fract_z
Si Si1 0.306892 0.894800 0.484683
Si Si2 0.362824 0.134741 0.945783
Si Si3 0.800888 0.833032 0.762107
Si Si4 0.944076 0.662284 0.240916
Si Si5 0.204237 0.659390 0.411699
Si Si6 0.511552 0.839629 0.607402
Si Si7 0.107250 0.612496 0.937032
Si Si8 0.981632 0.936402 0.732475
O O1 0.275360 0.748323 0.436191
O O2 0.447392 0.760986 0.533772
O O3 0.299055 0.019026 0.346709
O O4 0.177372 0.107723 0.627111
O O5 0.263805 0.413845 0.953446
O O6 0.412674 0.998774 0.774806
O O7 0.272385 0.125560 0.067888
O O8 0.500000 0.000000 0.000000
O O9 0.876540 0.913754 0.767611
O O10 0.922615 0.548857 0.698726
O O11 0.897711 0.544683 0.174520
O O12 0.997803 0.705840 0.094646
O O13 0.332205 0.377592 0.378772
O O14 0.091258 0.767641 0.569402
O O15 0.114343 0.795458 0.289465
O O16 0.500000 0.000000 0.500000
O O17 0.068531 0.816977 0.857360
#
# Coordination Sequence:
#
# PCOD9037726 Si02
#       8
#     2   2   2   2   2   2   2   2
#     4  11  21  39  62  96 129 167 207 255 319 374
#     4  11  22  40  60  97 131 160 210 269 311 372
#     4   9  20  36  63  92 125 165 210 256 311 365
#     4   9  17  32  62  93 125 157 207 259 306 363
#     4  10  23  41  61  95 128 166 209 261 309 379
#     4  12  25  41  69  91 126 169 212 255 318 380
#     4   9  17  35  62  91 120 165 208 258 307 365
#     4   9  19  40  64  80 129 163 210 257 310 360
#
# _framework density 22.530984
#
# number of rings (size 3 to 8) (size 9 to 14) (size 15 to 20)
#    0.000    2.000    1.250    3.000    1.750    0.000 
#   15.750    3.125    5.500    0.000    0.000    0.000 
#    0.000    0.000    0.000    0.000    0.000    0.000 
#
# Total GULP energy -89453.682676 kJ/mol
# GULP energy per Si atom -5590.855167 kJ/mol
# Density = 2.247970 g / cm^3
# Si number density = 22.530984 Si / 1000 Ang^3
#
#
#
# Elastic Constant Matrix: (Units=GPa)
#
#
# Indices 1 2 3 4 5 6 
#
# 1 70.0229 26.1539 13.6162 -6.2585 -3.1599 -6.8774
# 2 26.1539 153.6766 73.5712 -18.6803 -15.5846 -22.6354
# 3 13.6162 73.5712 96.5845 -21.9489 -11.6248 -0.3960
# 4 -6.2585 -18.6803 -21.9489 35.1240 0.0428 5.4126
# 5 -3.1599 -15.5846 -11.6248 0.0428 30.8157 -0.4529
# 6 -6.8774 -22.6354 -0.3960 5.4126 -0.4529 40.0512
#
#
#
# Elastic Compliance Matrix: (Units=1/GPa)
#
#
# Indices 1 2 3 4 5 6 
#
# 1 0.015376 -0.002141 -0.000185 0.001291 0.000441 0.001259
# 2 -0.002141 0.012273 -0.008764 -0.000345 0.002778 0.006560
# 3 -0.000185 -0.008764 0.019226 0.008222 0.002703 -0.005876
# 4 0.001291 -0.000345 0.008222 0.034345 0.002946 -0.004500
# 5 0.000441 0.002778 0.002703 0.002946 0.034942 0.001670
# 6 0.001259 0.006560 -0.005876 -0.004500 0.001670 0.029461
#
#
# Mechanical properties :
#
#
# Convention : Reuss Voigt Hill
#
# Bulk Modulus (GPa) = 40.49660 60.77407 50.63533
# Shear Modulus (GPa) = 28.40359 34.99436 31.69897
#
# Velocity S-wave (km/s) = 3.55441 3.94530 3.75494
# Velocity P-wave (km/s) = 5.90405 6.91274 6.42821
#
# Compressibility (1/GPa) = 0.02469343
#
# Stress axis : x y z
#
# Youngs Moduli (GPa) = 65.03788 81.47650 52.01418
#
# Poissons Ratio (x) = 0.17445 0.00963
# Poissons Ratio (y) = 0.13925 0.45587
# Poissons Ratio (z) = 0.01204 0.71409
#
# Static dielectric constant tensor:
#      x y z
#    x 1.867320 -0.004190 0.055650 
#    y -0.004190 1.876940 -0.035840 
#    z 0.055650 -0.035840 1.819000 
# 
# From -- ./inp_files/209371.got.cif
#   From: 2010.05.17/outbox.cif.g08.bks.cpg/sg2_105_cif.got.tgz:209371.got - 2010.06.03 11:33:40.
