data_PCOD9037632
_publ_section_title
;
Structure prediction by ZEFSAII (Michael W. Deem and Ramdas Pophale) SiO2 
 PCOD9037632
Probable space group: P -1
;
_chemical_formula_sum "Si O2"
_cell_formula_units_Z 14
_cell_length_a 9.332143
_cell_length_b 10.333535
_cell_length_c 20.493627
_cell_angle_alpha 135.724800
_cell_angle_beta 151.397136
_cell_angle_gamma 44.410034
_cell_volume 638.386400
_symmetry_space_group_name_H-M "P -1"
_symmetry_group_IT_number 2
_symmetry_cell_setting 'triclinic'
loop_
_space_group_symop_operation_xyz
x,y,z
-x,-y,-z
loop_
_atom_site_type_symbol
_atom_site_label
_atom_site_fract_x
_atom_site_fract_y
_atom_site_fract_z
Si Si1 0.770023 0.367202 0.376611
Si Si2 0.728382 0.935099 0.834099
Si Si3 0.742768 0.163121 0.806548
Si Si4 0.114681 0.255242 0.748258
Si Si5 0.915237 0.590558 0.875994
Si Si6 0.026966 0.215416 0.563082
Si Si7 0.159436 0.973069 0.344796
O O1 0.407124 0.453292 0.244747
O O2 0.000000 0.500000 0.500000
O O3 0.823292 0.300088 0.449759
O O4 0.900935 0.172756 0.318024
O O5 0.776903 0.730023 0.810722
O O6 0.783441 0.962226 0.789787
O O7 0.422980 0.094196 0.793221
O O8 0.000000 0.000000 0.000000
O O9 0.369564 0.226993 0.681722
O O10 0.864600 0.126820 0.769432
O O11 0.913926 0.300709 0.964880
O O12 0.964304 0.335559 0.648366
O O13 0.154500 0.412245 0.873111
O O14 0.895311 0.148918 0.659640
O O15 0.000000 0.000000 0.500000
O O16 0.500000 0.000000 0.500000
#
# Coordination Sequence:
#
# PCOD9037632 Si02
#       7
#     2   2   2   2   2   2   2
#     4  12  25  42  66 103 143 172 233 290 336 412
#     4   9  20  42  64  95 134 173 221 282 332 404
#     4  10  23  40  70  99 132 181 228 281 347 402
#     4  11  23  41  71  94 133 186 222 276 351 400
#     4  11  24  43  66 102 140 173 232 287 337 415
#     4  11  21  44  71  96 133 187 230 276 343 416
#     4  12  22  42  67  95 133 183 223 276 348 402
#
# _framework density 21.930289999999999
#
# number of rings (size 3 to 8) (size 9 to 14) (size 15 to 20)
#    0.000    1.143    4.286    1.714    0.000    8.000 
#    0.000    0.000    0.000    0.000    0.000    0.000 
#    0.000    0.000    0.000    0.000    0.000    0.000 
#
# Total GULP energy -78025.701559 kJ/mol
# GULP energy per Si atom -5573.264397 kJ/mol
# Density = 2.188038 g / cm^3
# Si number density = 21.930290 Si / 1000 Ang^3
#
#
#
# Elastic Constant Matrix: (Units=GPa)
#
#
# Indices 1 2 3 4 5 6 
#
# 1 129.5347 21.0122 38.0830 5.6074 -11.5018 -10.4378
# 2 21.0122 55.4376 10.7932 8.1930 -8.2242 -9.7421
# 3 38.0830 10.7932 120.5086 -2.1492 1.7252 -6.8636
# 4 5.6074 8.1930 -2.1492 31.2389 -6.6451 -4.0758
# 5 -11.5018 -8.2242 1.7252 -6.6451 38.4810 6.4924
# 6 -10.4378 -9.7421 -6.8636 -4.0758 6.4924 26.9210
#
#
#
# Elastic Compliance Matrix: (Units=1/GPa)
#
#
# Indices 1 2 3 4 5 6 
#
# 1 0.009202 -0.002323 -0.002656 -0.000603 0.002020 0.001471
# 2 -0.002323 0.020954 -0.000944 -0.003975 0.002246 0.005298
# 3 -0.002656 -0.000944 0.009354 0.001260 -0.001460 0.001556
# 4 -0.000603 -0.003975 0.001260 0.034554 0.004405 0.002818
# 5 0.002020 0.002246 -0.001460 0.004405 0.028748 -0.005042
# 6 0.001471 0.005298 0.001556 0.002818 -0.005042 0.041673
#
#
# Mechanical properties :
#
#
# Convention : Reuss Voigt Hill
#
# Bulk Modulus (GPa) = 36.14755 49.47307 42.81031
# Shear Modulus (GPa) = 30.20222 35.03435 32.61829
#
# Velocity S-wave (km/s) = 3.71508 4.00125 3.86082
# Velocity P-wave (km/s) = 5.90941 6.62985 6.27997
#
# Compressibility (1/GPa) = 0.02766439
#
# Stress axis : x y z
#
# Youngs Moduli (GPa) = 108.67637 47.72309 106.90642
#
# Poissons Ratio (x) = 0.11087 0.28391
# Poissons Ratio (y) = 0.25247 0.10091
# Poissons Ratio (z) = 0.28861 0.04504
#
# Static dielectric constant tensor:
#      x y z
#    x 1.867940 0.087300 0.032340 
#    y 0.087300 1.919250 0.041250 
#    z 0.032340 0.041250 1.838240 
# 
# From -- ./inp_files/589154.got.cif
#   From: 2010.05.17/outbox.cif.g08.bks.cpg/sg2_295_cif.got.tgz:589154.got - 2010.06.03 11:33:40.
