data_PCOD9037629
_publ_section_title
;
Structure prediction by ZEFSAII (Michael W. Deem and Ramdas Pophale) SiO2 
 PCOD9037629
Probable space group: P -1
;
_chemical_formula_sum "Si O2"
_cell_formula_units_Z 16
_cell_length_a 8.024693
_cell_length_b 24.053111
_cell_length_c 9.159997
_cell_angle_alpha 146.988055
_cell_angle_beta 51.173644
_cell_angle_gamma 121.439837
_cell_volume 750.391032
_symmetry_space_group_name_H-M "P -1"
_symmetry_group_IT_number 2
_symmetry_cell_setting 'triclinic'
loop_
_space_group_symop_operation_xyz
x,y,z
-x,-y,-z
loop_
_atom_site_type_symbol
_atom_site_label
_atom_site_fract_x
_atom_site_fract_y
_atom_site_fract_z
Si Si1 0.845071 0.426092 0.331699
Si Si2 0.017419 0.054121 0.266602
Si Si3 0.448113 0.526299 0.916228
Si Si4 0.312454 0.727083 0.300782
Si Si5 0.610043 0.795071 0.702233
Si Si6 0.325610 0.910662 0.903218
Si Si7 0.913321 0.612504 0.178624
Si Si8 0.671434 0.217558 0.909894
O O1 0.615544 0.472749 0.598749
O O2 0.000000 0.500000 0.500000
O O3 0.812805 0.304067 0.106733
O O4 0.940329 0.428433 0.123046
O O5 0.205159 0.134556 0.308945
O O6 0.814090 0.118383 0.575143
O O7 0.100448 0.970540 0.153917
O O8 0.000000 0.000000 0.000000
O O9 0.216789 0.483063 0.901415
O O10 0.500000 0.500000 0.000000
O O11 0.443079 0.646172 0.147768
O O12 0.332233 0.839740 0.600956
O O13 0.384286 0.730701 0.101077
O O14 0.065700 0.688719 0.351917
O O15 0.395207 0.832310 0.818825
O O16 0.715856 0.683583 0.385127
O O17 0.537876 0.806533 0.934884
O O18 0.500000 0.000000 0.000000
#
# Coordination Sequence:
#
# PCOD9037629 Si02
#       8
#     2   2   2   2   2   2   2   2
#     4  11  23  39  64  99 133 176 217 267 332 391
#     4  11  21  45  69  93 135 172 217 281 335 390
#     4  12  24  42  70  96 138 178 226 272 333 400
#     4  11  24  44  66  98 136 176 224 277 335 399
#     4  11  22  42  71  95 135 169 220 275 332 396
#     4  10  23  40  70  97 128 178 220 277 342 391
#     4  11  22  43  67  96 135 181 219 275 331 400
#     4  11  24  41  68  95 132 173 223 267 336 391
#
# _framework density 21.322216999999998
#
# number of rings (size 3 to 8) (size 9 to 14) (size 15 to 20)
#    0.000    1.000    6.250    1.125    0.000    3.000 
#    2.250    0.000    8.250    0.000    0.000    0.000 
#    0.000    0.000    0.000    0.000    0.000    0.000 
#
# Total GULP energy -89179.200596 kJ/mol
# GULP energy per Si atom -5573.700037 kJ/mol
# Density = 2.127369 g / cm^3
# Si number density = 21.322217 Si / 1000 Ang^3
#
#
#
# Elastic Constant Matrix: (Units=GPa)
#
#
# Indices 1 2 3 4 5 6 
#
# 1 62.6047 11.6009 34.2996 -1.5619 1.6529 -12.3556
# 2 11.6009 62.7564 36.0218 -16.7918 -10.1572 -9.4160
# 3 34.2996 36.0218 142.5094 0.8444 -6.1856 1.3103
# 4 -1.5619 -16.7918 0.8444 36.6325 12.8517 -11.8631
# 5 1.6529 -10.1572 -6.1856 12.8517 36.5327 13.1227
# 6 -12.3556 -9.4160 1.3103 -11.8631 13.1227 39.3912
#
#
#
# Elastic Compliance Matrix: (Units=1/GPa)
#
#
# Indices 1 2 3 4 5 6 
#
# 1 0.022741 0.003398 -0.007004 0.011360 -0.010715 0.015169
# 2 0.003398 0.026689 -0.008139 0.020279 -0.007055 0.016174
# 3 -0.007004 -0.008139 0.011212 -0.009913 0.006968 -0.009822
# 4 0.011360 0.020279 -0.009913 0.060317 -0.031167 0.037288
# 5 -0.010715 -0.007055 0.006968 -0.031167 0.049195 -0.031054
# 6 0.015169 0.016174 -0.009822 0.037288 -0.031054 0.055913
#
#
# Mechanical properties :
#
#
# Convention : Reuss Voigt Hill
#
# Bulk Modulus (GPa) = 26.91690 47.96836 37.44263
# Shear Modulus (GPa) = 19.08830 34.90782 26.99806
#
# Velocity S-wave (km/s) = 2.99529 4.05057 3.56222
# Velocity P-wave (km/s) = 4.96121 6.66497 5.87518
#
# Compressibility (1/GPa) = 0.03715138
#
# Stress axis : x y z
#
# Youngs Moduli (GPa) = 43.97314 37.46811 89.19275
#
# Poissons Ratio (x) = -0.12731 0.62472
# Poissons Ratio (y) = -0.14942 0.72595
# Poissons Ratio (z) = 0.30800 0.30496
#
# Static dielectric constant tensor:
#      x y z
#    x 1.898220 -0.022150 -0.026840 
#    y -0.022150 1.867860 0.185800 
#    z -0.026840 0.185800 2.008070 
# 
# From -- ./inp_files/226722.got.cif
#   From: 2010.05.17/outbox.cif.g08.bks.cpg/sg2_114_cif.got.tgz:226722.got - 2010.06.03 11:33:40.
