data_PCOD9037986
_publ_section_title
;
Structure prediction by ZEFSAII (Michael W. Deem and Ramdas Pophale) SiO2 
 PCOD9037986
Probable space group: P -1
;
_chemical_formula_sum "Si O2"
_cell_formula_units_Z 15
_cell_length_a 18.698005
_cell_length_b 5.715165
_cell_length_c 5.974937
_cell_angle_alpha 91.570634
_cell_angle_beta 92.720535
_cell_angle_gamma 77.037473
_cell_volume 621.430591
_symmetry_space_group_name_H-M "P -1"
_symmetry_group_IT_number 2
_symmetry_cell_setting 'triclinic'
loop_
_space_group_symop_operation_xyz
x,y,z
-x,-y,-z
loop_
_atom_site_type_symbol
_atom_site_label
_atom_site_fract_x
_atom_site_fract_y
_atom_site_fract_z
Si Si1 0.323239 0.378488 0.902636
Si Si2 0.861258 0.851784 0.473666
Si Si3 0.057838 0.848803 0.176729
Si Si4 0.723797 0.959453 0.749130
Si Si5 0.589407 0.367126 0.756689
Si Si6 0.000000 0.500000 0.500000
Si Si7 0.811791 0.241730 0.098932
Si Si8 0.450481 0.228437 0.618136
O O1 0.248877 0.543850 0.797601
O O2 0.378090 0.205254 0.740515
O O3 0.297564 0.239499 0.101631
O O4 0.373680 0.546195 0.018691
O O5 0.781915 0.853241 0.564704
O O6 0.911131 0.592287 0.425370
O O7 0.910626 0.957789 0.667163
O O8 0.848099 0.039852 0.274952
O O9 0.020060 0.688282 0.324413
O O10 0.124418 0.689752 0.039309
O O11 0.000000 0.000000 0.000000
O O12 0.648899 0.138109 0.667756
O O13 0.766509 0.115450 0.914111
O O14 0.511298 0.305367 0.788229
O O15 0.576008 0.570055 0.569151
O O16 0.500000 0.000000 0.500000
#
# Coordination Sequence:
#
# PCOD9037986 Si02
#       8
#     2   2   2   2   2   1   2   2
#     4  11  23  42  67  94 129 177 222 276 336 407
#     4  11  24  44  65  98 133 173 222 279 335 409
#     4  11  24  45  66  98 136 172 226 281 336 402
#     4  10  23  41  65  95 129 172 223 273 335 403
#     4  10  23  42  64  92 132 172 219 278 333 396
#     4  12  24  40  70  96 130 180 216 276 344 396
#     4  10  23  43  65  94 135 174 220 281 334 397
#     4  11  24  40  65  98 131 173 221 276 338 406
#
# _framework density 24.137855999999999
#
# number of rings (size 3 to 8) (size 9 to 14) (size 15 to 20)
#    0.000    1.333    1.333    3.200    0.000   10.133 
#    0.000    0.000    0.000    0.000    0.000    0.000 
#    0.000    0.000    0.000    0.000    0.000    0.000 
#
# Total GULP energy -83745.930632 kJ/mol
# GULP energy per Si atom -5583.062042 kJ/mol
# Density = 2.408292 g / cm^3
# Si number density = 24.137856 Si / 1000 Ang^3
#
#
#
# Elastic Constant Matrix: (Units=GPa)
#
#
# Indices 1 2 3 4 5 6 
#
# 1 153.3528 38.5576 37.8885 -5.8940 -20.4090 -31.9320
# 2 38.5576 69.1859 23.6526 -23.8075 4.3357 -21.2878
# 3 37.8885 23.6526 52.3210 -2.2740 0.4592 -3.8162
# 4 -5.8940 -23.8075 -2.2740 47.0006 -1.9879 5.6553
# 5 -20.4090 4.3357 0.4592 -1.9879 48.7889 -14.8139
# 6 -31.9320 -21.2878 -3.8162 5.6553 -14.8139 41.0812
#
#
#
# Elastic Compliance Matrix: (Units=1/GPa)
#
#
# Indices 1 2 3 4 5 6 
#
# 1 0.012221 -0.001577 -0.007422 -0.000607 0.008703 0.011214
# 2 -0.001577 0.025128 -0.009042 0.010956 0.000569 0.009652
# 3 -0.007422 -0.009042 0.027794 -0.003267 -0.005558 -0.009427
# 4 -0.000607 0.010956 -0.003267 0.026439 0.000296 0.001369
# 5 0.008703 0.000569 -0.005558 0.000296 0.029337 0.017081
# 6 0.011214 0.009652 -0.009427 0.001369 0.017081 0.043156
#
#
# Mechanical properties :
#
#
# Convention : Reuss Voigt Hill
#
# Bulk Modulus (GPa) = 34.41033 52.78413 43.59723
# Shear Modulus (GPa) = 23.82702 39.02489 31.42595
#
# Velocity S-wave (km/s) = 3.14526 4.02525 3.61215
# Velocity P-wave (km/s) = 5.24184 6.59687 5.95800
#
# Compressibility (1/GPa) = 0.02906104
#
# Stress axis : x y z
#
# Youngs Moduli (GPa) = 81.82563 39.79564 35.97872
#
# Poissons Ratio (x) = 0.06277 0.26702
# Poissons Ratio (y) = 0.12906 0.32533
# Poissons Ratio (z) = 0.60729 0.35985
#
# Static dielectric constant tensor:
#      x y z
#    x 2.020710 -0.211860 -0.127240 
#    y -0.211860 2.311340 0.335080 
#    z -0.127240 0.335080 2.074430 
# 
# From -- ./inp_files/7717.got.cif
#   From: 2010.05.17/outbox.cif.g08.bks.cpg/sg2_4_cif.got.tgz:7717.got - 2010.06.03 11:33:40.
