data_PCOD9037355
_publ_section_title
;
Structure prediction by ZEFSAII (Michael W. Deem and Ramdas Pophale) SiO2 
 PCOD9037355
Probable space group: P -1
;
_chemical_formula_sum "Si O2"
_cell_formula_units_Z 15
_cell_length_a 6.594146
_cell_length_b 16.761404
_cell_length_c 10.809629
_cell_angle_alpha 138.510430
_cell_angle_beta 121.663365
_cell_angle_gamma 50.744405
_cell_volume 609.860889
_symmetry_space_group_name_H-M "P -1"
_symmetry_group_IT_number 2
_symmetry_cell_setting 'triclinic'
loop_
_space_group_symop_operation_xyz
x,y,z
-x,-y,-z
loop_
_atom_site_type_symbol
_atom_site_label
_atom_site_fract_x
_atom_site_fract_y
_atom_site_fract_z
Si Si1 0.243708 0.563105 0.906101
Si Si2 0.900833 0.052727 0.264709
Si Si3 0.424932 0.394556 0.520815
Si Si4 0.000000 0.000000 0.000000
Si Si5 0.705657 0.849798 0.419553
Si Si6 0.729307 0.543547 0.734641
Si Si7 0.638241 0.232079 0.951073
Si Si8 0.595211 0.866145 0.685718
O O1 0.295832 0.481934 0.701067
O O2 0.992240 0.553633 0.873690
O O3 0.500000 0.500000 0.000000
O O4 0.212713 0.708820 0.024652
O O5 0.151699 0.920755 0.129160
O O6 0.700223 0.022568 0.249169
O O7 0.801879 0.112989 0.169501
O O8 0.022035 0.135287 0.478058
O O9 0.696785 0.412521 0.614957
O O10 0.283986 0.449820 0.409959
O O11 0.414692 0.255801 0.384065
O O12 0.806528 0.917872 0.851711
O O13 0.614503 0.768258 0.200933
O O14 0.646553 0.823323 0.509862
O O15 0.500000 0.000000 0.500000
O O16 0.480971 0.667783 0.858018
#
# Coordination Sequence:
#
# PCOD9037355 Si02
#       8
#     2   2   2   1   2   2   2   2
#     4  11  24  42  69 103 134 177 235 287 342 416
#     4  10  23  40  65  98 137 177 225 275 340 413
#     4  10  24  44  68 103 134 185 229 279 355 406
#     4  10  24  40  58  98 134 170 230 268 332 404
#     4   9  21  41  59  94 135 175 225 274 335 405
#     4  10  24  45  68  99 141 179 229 290 345 413
#     4  10  23  40  67  98 134 179 221 278 350 406
#     4  11  23  41  69  97 134 184 224 286 338 411
#
# _framework density 24.595772
#
# number of rings (size 3 to 8) (size 9 to 14) (size 15 to 20)
#    0.000    1.867    0.000    1.600    3.733   12.800 
#    0.000    0.000    0.000    0.000    0.000    0.000 
#    0.000    0.000    0.000    0.000    0.000    0.000 
#
# Total GULP energy -83613.994424 kJ/mol
# GULP energy per Si atom -5574.266295 kJ/mol
# Density = 2.453979 g / cm^3
# Si number density = 24.595772 Si / 1000 Ang^3
#
#
#
# Elastic Constant Matrix: (Units=GPa)
#
#
# Indices 1 2 3 4 5 6 
#
# 1 146.3254 36.6245 51.1096 1.6297 29.6512 11.8729
# 2 36.6245 79.6544 32.1239 19.3884 19.2818 12.6957
# 3 51.1096 32.1239 142.8598 -6.2197 22.8807 1.5568
# 4 1.6297 19.3884 -6.2197 34.2065 11.7358 7.9142
# 5 29.6512 19.2818 22.8807 11.7358 47.0096 13.6420
# 6 11.8729 12.6957 1.5568 7.9142 13.6420 24.7009
#
#
#
# Elastic Compliance Matrix: (Units=1/GPa)
#
#
# Indices 1 2 3 4 5 6 
#
# 1 0.009071 -0.002871 -0.001858 0.002512 -0.003846 -0.001448
# 2 -0.002871 0.018451 -0.003449 -0.009783 -0.000307 -0.004582
# 3 -0.001858 -0.003449 0.009208 0.004376 -0.003794 0.002779
# 4 0.002512 -0.009783 0.004376 0.039316 -0.008205 -0.004520
# 5 -0.003846 -0.000307 -0.003794 -0.008205 0.031325 -0.012426
# 6 -0.001448 -0.004582 0.002779 -0.004520 -0.012426 0.051671
#
#
# Mechanical properties :
#
#
# Convention : Reuss Voigt Hill
#
# Bulk Modulus (GPa) = 49.08271 67.61730 58.35000
# Shear Modulus (GPa) = 27.44405 37.78218 32.61311
#
# Velocity S-wave (km/s) = 3.34399 3.92359 3.64533
# Velocity P-wave (km/s) = 5.90836 6.93378 6.44151
#
# Compressibility (1/GPa) = 0.02037377
#
# Stress axis : x y z
#
# Youngs Moduli (GPa) = 110.24618 54.19822 108.59925
#
# Poissons Ratio (x) = 0.15558 0.20183
# Poissons Ratio (y) = 0.31647 0.37454
# Poissons Ratio (z) = 0.20489 0.18692
#
# Static dielectric constant tensor:
#      x y z
#    x 1.715040 -0.812000 0.369200 
#    y -0.812000 0.000730 0.981990 
#    z 0.369200 0.981990 1.486730 
# 
# From -- ./inp_files/364552.got.cif
#   From: 2010.05.17/outbox.cif.g08.bks.cpg/sg2_183_cif.got.tgz:364552.got - 2010.06.03 11:33:40.
