data_PCOD9037800
_publ_section_title
;
Structure prediction by ZEFSAII (Michael W. Deem and Ramdas Pophale) SiO2 
 PCOD9037800
Probable space group: P -1
;
_chemical_formula_sum "Si O2"
_cell_formula_units_Z 14
_cell_length_a 8.397667
_cell_length_b 11.198335
_cell_length_c 12.860101
_cell_angle_alpha 136.833250
_cell_angle_beta 55.924437
_cell_angle_gamma 133.078606
_cell_volume 599.624537
_symmetry_space_group_name_H-M "P -1"
_symmetry_group_IT_number 2
_symmetry_cell_setting 'triclinic'
loop_
_space_group_symop_operation_xyz
x,y,z
-x,-y,-z
loop_
_atom_site_type_symbol
_atom_site_label
_atom_site_fract_x
_atom_site_fract_y
_atom_site_fract_z
Si Si1 0.642263 0.528568 0.067891
Si Si2 0.844837 0.288425 0.741761
Si Si3 0.010035 0.096841 0.715609
Si Si4 0.447134 0.482622 0.333974
Si Si5 0.566005 0.135982 0.379396
Si Si6 0.965359 0.282121 0.484929
Si Si7 0.497161 0.134125 0.180134
O O1 0.825016 0.755403 0.165621
O O2 0.487723 0.465378 0.186337
O O3 0.500000 0.500000 0.000000
O O4 0.776628 0.409829 0.923972
O O5 0.940973 0.398377 0.666846
O O6 0.010032 0.229526 0.703021
O O7 0.614515 0.089662 0.674862
O O8 0.061554 0.916576 0.574757
O O9 0.756407 0.986297 0.769719
O O10 0.536711 0.714307 0.476627
O O11 0.547211 0.355968 0.272267
O O12 0.194867 0.384136 0.404279
O O13 0.768613 0.218398 0.435703
O O14 0.630842 0.140715 0.238066
O O15 0.500000 0.000000 0.000000
#
# Coordination Sequence:
#
# PCOD9037800 Si02
#       7
#     2   2   2   2   2   2   2
#     4  12  25  43  65  94 127 167 211 259 313 374
#     4  11  23  42  65  92 126 169 213 256 310 377
#     4  10  23  41  63  90 125 169 211 255 312 377
#     4  11  24  41  63  94 128 164 208 259 315 372
#     4  11  22  40  64  93 126 167 210 259 311 373
#     4  11  23  41  65  95 126 164 212 263 311 365
#     4  10  23  42  64  94 129 166 209 259 315 372
#
# _framework density 23.347944999999999
#
# number of rings (size 3 to 8) (size 9 to 14) (size 15 to 20)
#    0.000    1.143    0.000    6.429    0.000    5.714 
#    0.000    3.571    0.000    0.000    0.000    0.000 
#    0.000    0.000    0.000    0.000    0.000    0.000 
#
# Total GULP energy -78322.149123 kJ/mol
# GULP energy per Si atom -5594.439223 kJ/mol
# Density = 2.329480 g / cm^3
# Si number density = 23.347945 Si / 1000 Ang^3
#
#
#
# Elastic Constant Matrix: (Units=GPa)
#
#
# Indices 1 2 3 4 5 6 
#
# 1 75.2797 0.8798 18.5929 -12.4210 14.7498 -9.3321
# 2 0.8798 77.1428 32.7519 -12.2306 2.4977 5.0281
# 3 18.5929 32.7519 138.6114 -29.0406 2.5656 -3.4548
# 4 -12.4210 -12.2306 -29.0406 39.9845 -9.2534 12.3647
# 5 14.7498 2.4977 2.5656 -9.2534 42.9038 -0.1520
# 6 -9.3321 5.0281 -3.4548 12.3647 -0.1520 25.2847
#
#
#
# Elastic Compliance Matrix: (Units=1/GPa)
#
#
# Indices 1 2 3 4 5 6 
#
# 1 0.015466 0.000596 -0.001783 0.001049 -0.005002 0.004803
# 2 0.000596 0.015230 -0.002890 0.004405 0.000012 -0.005357
# 3 -0.001783 -0.002890 0.009386 0.006327 0.001578 -0.001886
# 4 0.001049 0.004405 0.006327 0.038684 0.007282 -0.018498
# 5 -0.005002 0.000012 0.001578 0.007282 0.026485 -0.005035
# 6 0.004803 -0.005357 -0.001886 -0.018498 -0.005035 0.051145
#
#
# Mechanical properties :
#
#
# Convention : Reuss Voigt Hill
#
# Bulk Modulus (GPa) = 31.32077 43.94255 37.63166
# Shear Modulus (GPa) = 28.54001 37.55524 33.04763
#
# Velocity S-wave (km/s) = 3.50004 4.01497 3.76632
# Velocity P-wave (km/s) = 5.45689 6.35255 5.92168
#
# Compressibility (1/GPa) = 0.03192769
#
# Stress axis : x y z
#
# Youngs Moduli (GPa) = 64.65908 65.65953 106.54360
#
# Poissons Ratio (x) = -0.03913 0.19000
# Poissons Ratio (y) = -0.03853 0.30786
# Poissons Ratio (z) = 0.11531 0.18972
#
# Static dielectric constant tensor:
#      x y z
#    x 1.878330 -0.028100 -0.026550 
#    y -0.028100 1.926310 -0.033960 
#    z -0.026550 -0.033960 1.915640 
# 
# From -- ./inp_files/152047.got.cif
#   From: 2010.05.17/outbox.cif.g08.bks.cpg/sg2_77_cif.got.tgz:152047.got - 2010.06.03 11:33:40.
