data_PCOD9037133
_publ_section_title
;
Structure prediction by ZEFSAII (Michael W. Deem and Ramdas Pophale) SiO2 
 PCOD9037133
Probable space group: P -1
;
_chemical_formula_sum "Si O2"
_cell_formula_units_Z 16
_cell_length_a 12.164676
_cell_length_b 14.593561
_cell_length_c 9.056235
_cell_angle_alpha 69.651221
_cell_angle_beta 61.794799
_cell_angle_gamma 121.655444
_cell_volume 732.827968
_symmetry_space_group_name_H-M "P -1"
_symmetry_group_IT_number 2
_symmetry_cell_setting 'triclinic'
loop_
_space_group_symop_operation_xyz
x,y,z
-x,-y,-z
loop_
_atom_site_type_symbol
_atom_site_label
_atom_site_fract_x
_atom_site_fract_y
_atom_site_fract_z
Si Si1 0.893451 0.815345 0.565784
Si Si2 0.658565 0.804949 0.928142
Si Si3 0.199569 0.106591 0.695520
Si Si4 0.616565 0.974912 0.376219
Si Si5 0.963129 0.315053 0.799972
Si Si6 0.165286 0.588808 0.977261
Si Si7 0.554752 0.420599 0.515320
Si Si8 0.793242 0.531391 0.747633
O O1 0.800416 0.805817 0.776229
O O2 0.838542 0.851347 0.445655
O O3 0.775572 0.635749 0.714832
O O4 0.166955 0.991248 0.298973
O O5 0.565868 0.714843 0.196485
O O6 0.443251 0.673589 0.031831
O O7 0.430757 0.294639 0.522212
O O8 0.204356 0.994976 0.707245
O O9 0.000000 0.000000 0.000000
O O10 0.500000 0.000000 0.500000
O O11 0.399880 0.766322 0.652136
O O12 0.752330 0.104031 0.075881
O O13 0.178938 0.421644 0.703951
O O14 0.040833 0.375369 0.548553
O O15 0.885651 0.367746 0.884374
O O16 0.136133 0.466050 0.142254
O O17 0.000000 0.500000 0.000000
O O18 0.500000 0.500000 0.500000
#
# Coordination Sequence:
#
# PCOD9037133 Si02
#       8
#     2   2   2   2   2   2   2   2
#     4  11  23  41  64 100 136 180 229 278 355 407
#     4  10  23  40  61  96 139 174 220 280 347 413
#     4  12  21  38  68 102 141 177 229 292 338 403
#     4  10  23  43  65  98 140 182 228 279 342 410
#     4  10  23  42  67  95 134 178 233 275 340 420
#     4  11  24  46  68  99 130 178 226 286 345 420
#     4  11  22  38  65 100 134 178 224 287 349 402
#     4  11  23  45  68  93 137 178 229 284 355 407
#
# _framework density 21.83323
#
# number of rings (size 3 to 8) (size 9 to 14) (size 15 to 20)
#    0.000    1.250    1.250    5.250    0.000    2.000 
#   13.500    0.625    0.000    0.000    0.000    0.000 
#    0.000    0.000    0.000    0.000    0.000    0.000 
#
# Total GULP energy -89164.442556 kJ/mol
# GULP energy per Si atom -5572.777660 kJ/mol
# Density = 2.178354 g / cm^3
# Si number density = 21.833230 Si / 1000 Ang^3
#
#
#
# Elastic Constant Matrix: (Units=GPa)
#
#
# Indices 1 2 3 4 5 6 
#
# 1 103.8146 27.6780 29.9377 -6.8539 12.3731 -6.8932
# 2 27.6780 64.6096 16.7237 4.8905 1.9482 -0.8278
# 3 29.9377 16.7237 128.0612 -11.1086 -5.4182 7.6499
# 4 -6.8539 4.8905 -11.1086 -5.6589 -7.1189 4.8628
# 5 12.3731 1.9482 -5.4182 -7.1189 29.0500 5.8388
# 6 -6.8932 -0.8278 7.6499 4.8628 5.8388 35.5689
#
#
#
# Elastic Compliance Matrix: (Units=1/GPa)
#
#
# Indices 1 2 3 4 5 6 
#
# 1 0.012681 -0.004316 -0.003026 -0.000977 -0.006770 0.004253
# 2 -0.004316 0.016255 0.000208 0.011345 0.004116 -0.002730
# 3 -0.003026 0.000208 0.007531 -0.011475 -0.000006 -0.000632
# 4 -0.000977 0.011345 -0.011475 -0.090409 -0.028579 0.019594
# 5 -0.006770 0.004116 -0.000006 -0.028579 0.030492 -0.002313
# 6 0.004253 -0.002730 -0.000632 0.019594 -0.002313 0.026712
#
#
# Mechanical properties :
#
#
# Convention : Reuss Voigt Hill
#
# Bulk Modulus (GPa) = 45.05046 49.46271 47.25658
# Shear Modulus (GPa) = 200.56118 26.60174 113.58146
#
# Velocity S-wave (km/s) = 9.59479 3.49435 7.22047
# Velocity P-wave (km/s) = 11.97603 6.24377 9.55013
#
# Compressibility (1/GPa) = 0.02219733
#
# Stress axis : x y z
#
# Youngs Moduli (GPa) = 78.85947 61.51902 132.78162
#
# Poissons Ratio (x) = 0.26554 0.40180
# Poissons Ratio (y) = 0.34039 -0.02756
# Poissons Ratio (z) = 0.23863 -0.01277
#
# Static dielectric constant tensor:
#      x y z
#    x 1.717100 -0.110270 -0.035940 
#    y -0.110270 1.737310 0.035870 
#    z -0.035940 0.035870 1.783150 
# 
# From -- ./inp_files/272412.got.cif
#   From: 2010.05.17/outbox.cif.g08.bks.cpg/sg2_137_cif.got.tgz:272412.got - 2010.06.03 11:33:40.
