data_PCOD9037086
_publ_section_title
;
Structure prediction by ZEFSAII (Michael W. Deem and Ramdas Pophale) SiO2 
 PCOD9037086
Probable space group: P -1
;
_chemical_formula_sum "Si O2"
_cell_formula_units_Z 12
_cell_length_a 6.872678
_cell_length_b 4.947013
_cell_length_c 19.351022
_cell_angle_alpha 109.133806
_cell_angle_beta 54.212595
_cell_angle_gamma 106.475932
_cell_volume 500.574466
_symmetry_space_group_name_H-M "P -1"
_symmetry_group_IT_number 2
_symmetry_cell_setting 'triclinic'
loop_
_space_group_symop_operation_xyz
x,y,z
-x,-y,-z
loop_
_atom_site_type_symbol
_atom_site_label
_atom_site_fract_x
_atom_site_fract_y
_atom_site_fract_z
Si Si1 0.886352 0.637894 0.145706
Si Si2 0.241634 0.010018 0.308357
Si Si3 0.796572 0.828570 0.931251
Si Si4 0.868847 0.182187 0.486884
Si Si5 0.492994 0.730345 0.119451
Si Si6 0.513800 0.363298 0.667542
O O1 0.695252 0.666341 0.127296
O O2 0.752223 0.694547 0.250147
O O3 0.973185 0.323962 0.103350
O O4 0.108706 0.876670 0.101345
O O5 0.414039 0.293254 0.322493
O O6 0.968017 0.072838 0.384962
O O7 0.321861 0.936225 0.209422
O O8 0.310241 0.748265 0.319726
O O9 0.657641 0.574788 0.893010
O O10 0.627409 0.863608 0.034777
O O11 0.593648 0.206513 0.568413
O O12 0.000000 0.500000 0.500000
O O13 0.000000 0.000000 0.500000
#
# Coordination Sequence:
#
# PCOD9037086 Si02
#       6
#     2   2   2   2   2   2
#     4  11  22  39  59  83 113 149 188 230 281 332
#     4   9  17  30  52  77 106 143 180 223 273 325
#     4  11  25  38  58  85 113 150 190 232 277 331
#     4   8  14  26  46  76 104 133 178 220 265 326
#     4  10  23  40  59  83 115 149 190 232 278 330
#     4   9  17  30  52  79 107 140 179 224 273 327
#
# _framework density 23.972456999999999
#
# number of rings (size 3 to 8) (size 9 to 14) (size 15 to 20)
#    0.000    2.333    0.000    3.000    0.000    9.333 
#    0.000    0.000    0.000    2.000    0.000    0.000 
#    0.000    0.000    0.000    0.000    0.000    0.000 
#
# Total GULP energy -67088.650410 kJ/mol
# GULP energy per Si atom -5590.720867 kJ/mol
# Density = 2.391789 g / cm^3
# Si number density = 23.972457 Si / 1000 Ang^3
#
#
#
# Elastic Constant Matrix: (Units=GPa)
#
#
# Indices 1 2 3 4 5 6 
#
# 1 48.1525 15.4151 20.4796 1.0452 -5.7504 12.9155
# 2 15.4151 85.0909 13.1515 -1.7231 -4.0615 -21.6953
# 3 20.4796 13.1515 241.4266 13.6008 -12.2121 10.5019
# 4 1.0452 -1.7231 13.6008 36.3792 3.9885 -1.6622
# 5 -5.7504 -4.0615 -12.2121 3.9885 19.9608 -1.9359
# 6 12.9155 -21.6953 10.5019 -1.6622 -1.9359 26.6850
#
#
#
# Elastic Compliance Matrix: (Units=1/GPa)
#
#
# Indices 1 2 3 4 5 6 
#
# 1 0.032096 -0.011884 -0.000598 -0.002903 0.004637 -0.024806
# 2 -0.011884 0.020010 -0.001133 0.002572 0.001647 0.022746
# 3 -0.000598 -0.001133 0.004612 -0.002157 0.002618 -0.002391
# 4 -0.002903 0.002572 -0.002157 0.029525 -0.006982 0.005677
# 5 0.004637 0.001647 0.002618 -0.006982 0.054922 0.001614
# 6 -0.024806 0.022746 -0.002391 0.005677 0.001614 0.069385
#
#
# Mechanical properties :
#
#
# Convention : Reuss Voigt Hill
#
# Bulk Modulus (GPa) = 33.91140 52.52916 43.22028
# Shear Modulus (GPa) = 20.19289 38.31328 29.25308
#
# Velocity S-wave (km/s) = 2.90545 4.00211 3.49704
# Velocity P-wave (km/s) = 5.04304 6.58147 5.86293
#
# Compressibility (1/GPa) = 0.02948861
#
# Stress axis : x y z
#
# Youngs Moduli (GPa) = 31.15615 49.97393 216.80289
#
# Poissons Ratio (x) = 0.59390 0.12968
# Poissons Ratio (y) = 0.37027 0.24563
# Poissons Ratio (z) = 0.01864 0.05662
#
# Static dielectric constant tensor:
#      x y z
#    x 1.895920 0.011570 -0.016660 
#    y 0.011570 1.828280 -0.019600 
#    z -0.016660 -0.019600 2.013570 
# 
# From -- ./inp_files/32608.got.cif
#   From: 2010.05.17/outbox.cif.g08.bks.cpg/sg2_17_cif.got.tgz:32608.got - 2010.06.03 11:33:40.
