data_PCOD9037852
_publ_section_title
;
Structure prediction by ZEFSAII (Michael W. Deem and Ramdas Pophale) SiO2 
 PCOD9037852
Probable space group: P -1
;
_chemical_formula_sum "Si O2"
_cell_formula_units_Z 10
_cell_length_a 5.150781
_cell_length_b 5.704952
_cell_length_c 16.482737
_cell_angle_alpha 73.007205
_cell_angle_beta 63.502016
_cell_angle_gamma 96.137408
_cell_volume 398.286984
_symmetry_space_group_name_H-M "P -1"
_symmetry_group_IT_number 2
_symmetry_cell_setting 'triclinic'
loop_
_space_group_symop_operation_xyz
x,y,z
-x,-y,-z
loop_
_atom_site_type_symbol
_atom_site_label
_atom_site_fract_x
_atom_site_fract_y
_atom_site_fract_z
Si Si1 0.060969 0.261979 0.560983
Si Si2 0.980464 0.009689 0.259172
Si Si3 0.639586 0.485877 0.894702
Si Si4 0.255191 0.318344 0.817582
Si Si5 0.529928 0.782769 0.621367
O O1 0.383364 0.257905 0.478913
O O2 0.000000 0.500000 0.500000
O O3 0.024489 0.245910 0.664760
O O4 0.805615 0.008383 0.594523
O O5 0.839817 0.933804 0.198275
O O6 0.767156 0.128466 0.331988
O O7 0.285837 0.229242 0.182426
O O8 0.415983 0.301901 0.881523
O O9 0.951894 0.407886 0.864658
O O10 0.500000 0.500000 0.000000
O O11 0.478900 0.529319 0.707929
#
# Coordination Sequence:
#
# PCOD9037852 Si02
#       5
#     2   2   2   2   2
#     4  11  23  39  68  98 141 186 231 279 343 408
#     4  11  25  43  70  99 144 180 234 285 345 414
#     4  11  26  48  72 104 139 178 232 296 354 416
#     4  11  25  43  76 101 140 182 232 285 355 414
#     4  10  23  41  63  99 144 182 231 279 344 407
#
# _framework density 25.107524999999999
#
# number of rings (size 3 to 8) (size 9 to 14) (size 15 to 20)
#    0.000    1.200    2.000    2.400    5.600    6.400 
#    0.000    0.000    0.000    0.000    0.000    0.000 
#    0.000    0.000    0.000    0.000    0.000    0.000 
#
# Total GULP energy -56032.227921 kJ/mol
# GULP energy per Si atom -5603.222792 kJ/mol
# Density = 2.505038 g / cm^3
# Si number density = 25.107525 Si / 1000 Ang^3
#
#
#
# Elastic Constant Matrix: (Units=GPa)
#
#
# Indices 1 2 3 4 5 6 
#
# 1 89.6470 16.5254 44.3271 8.6795 -2.5946 2.6293
# 2 16.5254 67.4813 14.1147 18.9971 -2.5290 9.8802
# 3 44.3271 14.1147 148.2504 36.4713 -9.3188 -4.4144
# 4 8.6795 18.9971 36.4713 21.2462 8.4945 9.4822
# 5 -2.5946 -2.5290 -9.3188 8.4945 32.0283 13.6013
# 6 2.6293 9.8802 -4.4144 9.4822 13.6013 42.7886
#
#
#
# Elastic Compliance Matrix: (Units=1/GPa)
#
#
# Indices 1 2 3 4 5 6 
#
# 1 0.014896 -0.006920 -0.008846 0.018742 -0.005806 -0.002538
# 2 -0.006920 0.031101 0.015590 -0.061189 0.022066 0.001398
# 3 -0.008846 0.015590 0.026306 -0.068005 0.023063 0.007397
# 4 0.018742 -0.061189 -0.068005 0.253910 -0.079858 -0.024921
# 5 -0.005806 0.022066 0.023063 -0.079858 0.062278 -0.004459
# 6 -0.002538 0.001398 0.007397 -0.024921 -0.004459 0.030907
#
#
# Mechanical properties :
#
#
# Convention : Reuss Voigt Hill
#
# Bulk Modulus (GPa) = 13.89843 50.59033 32.24438
# Shear Modulus (GPa) = 11.26801 34.57338 22.92069
#
# Velocity S-wave (km/s) = 2.12076 3.71484 3.02470
# Velocity P-wave (km/s) = 3.39771 6.21235 5.00688
#
# Compressibility (1/GPa) = 0.07195060
#
# Stress axis : x y z
#
# Youngs Moduli (GPa) = 67.12987 32.15362 38.01412
#
# Poissons Ratio (x) = 0.22249 0.33629
# Poissons Ratio (y) = 0.46452 -0.59263
# Poissons Ratio (z) = 0.59386 -0.50127
#
# Static dielectric constant tensor:
#      x y z
#    x 2.027670 -0.036700 0.054920 
#    y -0.036700 2.017120 -0.007160 
#    z 0.054920 -0.007160 1.950870 
# 
# From -- ./inp_files/4460.got.cif
#   From: 2010.05.17/outbox.cif.g08.bks.cpg/sg2_3_cif.got.tgz:4460.got - 2010.06.03 11:33:40.
