data_PCOD9037495
_publ_section_title
;
Structure prediction by ZEFSAII (Michael W. Deem and Ramdas Pophale) SiO2 
 PCOD9037495
Probable space group: P -1
;
_chemical_formula_sum "Si O2"
_cell_formula_units_Z 16
_cell_length_a 5.170130
_cell_length_b 11.529476
_cell_length_c 13.317494
_cell_angle_alpha 74.049771
_cell_angle_beta 96.555838
_cell_angle_gamma 114.518305
_cell_volume 694.452946
_symmetry_space_group_name_H-M "P -1"
_symmetry_group_IT_number 2
_symmetry_cell_setting 'triclinic'
loop_
_space_group_symop_operation_xyz
x,y,z
-x,-y,-z
loop_
_atom_site_type_symbol
_atom_site_label
_atom_site_fract_x
_atom_site_fract_y
_atom_site_fract_z
Si Si1 0.957983 0.916969 0.664764
Si Si2 0.750279 0.366556 0.482902
Si Si3 0.747189 0.195638 0.138854
Si Si4 0.475968 0.527772 0.111472
Si Si5 0.110561 0.699145 0.098664
Si Si6 0.571824 0.319189 0.264754
Si Si7 0.906343 0.799410 0.471552
Si Si8 0.253568 0.979259 0.073471
O O1 0.621804 0.833564 0.683894
O O2 0.998622 0.853089 0.576617
O O3 0.115926 0.884922 0.771883
O O4 0.062362 0.071831 0.619242
O O5 0.736495 0.378337 0.358916
O O6 0.418735 0.312135 0.515797
O O7 0.000000 0.500000 0.500000
O O8 0.868599 0.256726 0.540751
O O9 0.750751 0.316602 0.176288
O O10 0.417721 0.098959 0.126400
O O11 0.900878 0.248347 0.027680
O O12 0.315874 0.621896 0.110862
O O13 0.375108 0.393519 0.202847
O O14 0.802290 0.601499 0.141332
O O15 0.500000 0.500000 0.000000
O O16 0.184673 0.829741 0.139390
O O17 0.500000 0.000000 0.000000
O O18 0.000000 0.000000 0.000000
#
# Coordination Sequence:
#
# PCOD9037495 Si02
#       8
#     2   2   2   2   2   2   2   2
#     4  10  23  40  68 100 126 164 224 283 327 386
#     4  11  24  47  69  97 136 177 210 268 341 406
#     4  11  22  40  68  92 130 173 227 276 326 392
#     4  12  24  40  64  94 132 176 222 271 318 390
#     4  11  24  42  61  91 134 175 218 271 326 387
#     4  11  25  40  68  97 132 174 229 273 331 395
#     4  10  23  43  71  96 132 164 216 275 336 391
#     4  10  23  41  63  88 125 174 214 271 338 380
#
# _framework density 23.039718000000001
#
# number of rings (size 3 to 8) (size 9 to 14) (size 15 to 20)
#    0.000    1.250    2.500    3.000    7.000    1.500 
#    4.500    0.000    0.000    0.000    0.000    0.000 
#    0.000    0.000    0.000    0.000    0.000    0.000 
#
# Total GULP energy -89363.407093 kJ/mol
# GULP energy per Si atom -5585.212943 kJ/mol
# Density = 2.298728 g / cm^3
# Si number density = 23.039718 Si / 1000 Ang^3
#
#
#
# Elastic Constant Matrix: (Units=GPa)
#
#
# Indices 1 2 3 4 5 6 
#
# 1 119.1533 26.9246 15.7489 1.6708 29.0006 -3.3106
# 2 26.9246 99.9807 29.6640 0.1297 9.3327 14.3100
# 3 15.7489 29.6640 87.7712 -3.2655 21.4789 2.5432
# 4 1.6708 0.1297 -3.2655 34.7101 0.9924 7.3690
# 5 29.0006 9.3327 21.4789 0.9924 25.7081 1.1536
# 6 -3.3106 14.3100 2.5432 7.3690 1.1536 36.9115
#
#
#
# Elastic Compliance Matrix: (Units=1/GPa)
#
#
# Indices 1 2 3 4 5 6 
#
# 1 0.012532 -0.003061 0.002389 -0.000512 -0.015125 0.002721
# 2 -0.003061 0.012542 -0.004143 0.000715 0.002561 -0.005074
# 3 0.002389 -0.004143 0.015986 0.001643 -0.014649 0.000849
# 4 -0.000512 0.000715 0.001643 0.030411 -0.001939 -0.006447
# 5 -0.015125 0.002561 -0.014649 -0.001939 0.067482 -0.003062
# 6 0.002721 -0.005074 0.000849 -0.006447 -0.003062 0.030627
#
#
# Mechanical properties :
#
#
# Convention : Reuss Voigt Hill
#
# Bulk Modulus (GPa) = 31.81535 50.17556 40.99546
# Shear Modulus (GPa) = 26.35949 35.10379 30.73164
#
# Velocity S-wave (km/s) = 3.38611 3.90759 3.65616
# Velocity P-wave (km/s) = 5.39690 6.49493 5.97121
#
# Compressibility (1/GPa) = 0.03143136
#
# Stress axis : x y z
#
# Youngs Moduli (GPa) = 79.79339 79.73517 62.55480
#
# Poissons Ratio (x) = 0.24405 -0.14945
# Poissons Ratio (y) = 0.24423 0.25914
# Poissons Ratio (z) = -0.19063 0.33031
#
# Static dielectric constant tensor:
#      x y z
#    x 1.875060 -0.004240 -0.016380 
#    y -0.004240 2.058290 0.014180 
#    z -0.016380 0.014180 1.859450 
# 
# From -- ./inp_files/482795.got.cif
#   From: 2010.05.17/outbox.cif.g08.bks.cpg/sg2_242_cif.got.tgz:482795.got - 2010.06.03 11:33:40.
