data_PCOD9037513
_publ_section_title
;
Structure prediction by ZEFSAII (Michael W. Deem and Ramdas Pophale) SiO2 
 PCOD9037513
Probable space group: P -1
;
_chemical_formula_sum "Si O2"
_cell_formula_units_Z 16
_cell_length_a 14.017214
_cell_length_b 18.577736
_cell_length_c 9.839605
_cell_angle_alpha 110.371516
_cell_angle_beta 120.973607
_cell_angle_gamma 21.328775
_cell_volume 724.806126
_symmetry_space_group_name_H-M "P -1"
_symmetry_group_IT_number 2
_symmetry_cell_setting 'triclinic'
loop_
_space_group_symop_operation_xyz
x,y,z
-x,-y,-z
loop_
_atom_site_type_symbol
_atom_site_label
_atom_site_fract_x
_atom_site_fract_y
_atom_site_fract_z
Si Si1 0.391431 0.737360 0.388230
Si Si2 0.677020 0.716118 0.490180
Si Si3 0.859592 0.539144 0.114219
Si Si4 0.702295 0.217053 0.136191
Si Si5 0.716722 0.302092 0.944643
Si Si6 0.815748 0.792115 0.011421
Si Si7 0.641643 0.025323 0.839098
Si Si8 0.412757 0.477024 0.351143
O O1 0.518412 0.737410 0.428983
O O2 0.509971 0.639228 0.559542
O O3 0.474503 0.618195 0.260613
O O4 0.010891 0.979742 0.270621
O O5 0.455061 0.904386 0.344268
O O6 0.000000 0.500000 0.500000
O O7 0.821174 0.660094 0.694313
O O8 0.643430 0.753943 0.131899
O O9 0.596337 0.644006 0.024349
O O10 0.004539 0.406238 0.996367
O O11 0.812584 0.180799 0.052144
O O12 0.590612 0.349575 0.255132
O O13 0.500000 0.500000 0.000000
O O14 0.034685 0.135687 0.014007
O O15 0.049984 0.701085 0.194336
O O16 0.500000 0.000000 0.000000
O O17 0.727936 0.884926 0.861348
O O18 0.500000 0.500000 0.500000
#
# Coordination Sequence:
#
# PCOD9037513 Si02
#       8
#     2   2   2   2   2   2   2   2
#     4  12  23  43  71 101 134 182 234 284 344 421
#     4  10  23  40  68 104 134 173 233 286 339 403
#     4  10  23  45  69  98 137 181 224 285 341 409
#     4  11  22  43  68 100 133 181 230 275 354 412
#     4  12  22  39  70 104 135 177 227 290 351 405
#     4  11  27  47  67 100 137 189 234 274 349 422
#     4  11  22  44  71  98 138 179 228 287 346 411
#     4  11  26  46  66 102 142 176 228 295 345 410
#
# _framework density 22.074866
#
# number of rings (size 3 to 8) (size 9 to 14) (size 15 to 20)
#    0.000    1.000    2.500    5.250    3.500    2.000 
#    4.500    0.000    0.000    0.000    0.000    0.000 
#    0.000    0.000    0.000    0.000    0.000    0.000 
#
# Total GULP energy -89246.613074 kJ/mol
# GULP energy per Si atom -5577.913317 kJ/mol
# Density = 2.202462 g / cm^3
# Si number density = 22.074866 Si / 1000 Ang^3
#
#
#
# Elastic Constant Matrix: (Units=GPa)
#
#
# Indices 1 2 3 4 5 6 
#
# 1 54.9302 28.0037 32.8540 -8.2048 -7.0415 -4.1005
# 2 28.0037 110.0744 18.2044 -1.2132 19.3274 -2.0311
# 3 32.8540 18.2044 106.2575 -8.4743 17.6214 5.8786
# 4 -8.2048 -1.2132 -8.4743 35.5847 7.9615 -0.4513
# 5 -7.0415 19.3274 17.6214 7.9615 41.5447 1.9536
# 6 -4.1005 -2.0311 5.8786 -0.4513 1.9536 30.4724
#
#
#
# Elastic Compliance Matrix: (Units=1/GPa)
#
#
# Indices 1 2 3 4 5 6 
#
# 1 0.030963 -0.008333 -0.010455 0.001508 0.013044 0.004814
# 2 -0.008333 0.012319 0.001872 0.000749 -0.008075 -0.000133
# 3 -0.010455 0.001872 0.014267 0.003048 -0.009118 -0.003405
# 4 0.001508 0.000749 0.003048 0.030847 -0.007325 0.000591
# 5 0.013044 -0.008075 -0.009118 -0.007325 0.035281 0.000606
# 6 0.004814 -0.000133 -0.003405 0.000591 0.000606 0.034082
#
#
# Mechanical properties :
#
#
# Convention : Reuss Voigt Hill
#
# Bulk Modulus (GPa) = 42.16474 47.70959 44.93717
# Shear Modulus (GPa) = 25.06318 34.33368 29.69843
#
# Velocity S-wave (km/s) = 3.37318 3.94804 3.67188
# Velocity P-wave (km/s) = 5.85777 6.51477 6.19499
#
# Compressibility (1/GPa) = 0.02371650
#
# Stress axis : x y z
#
# Youngs Moduli (GPa) = 32.29655 81.17721 70.09413
#
# Poissons Ratio (x) = 0.67645 0.73284
# Poissons Ratio (y) = 0.26913 -0.13123
# Poissons Ratio (z) = 0.33766 -0.15198
#
# Static dielectric constant tensor:
#      x y z
#    x 1.849120 0.056020 -0.035060 
#    y 0.056020 1.867120 0.059720 
#    z -0.035060 0.059720 1.877630 
# 
# From -- ./inp_files/319410.got.cif
#   From: 2010.05.17/outbox.cif.g08.bks.cpg/sg2_160_cif.got.tgz:319410.got - 2010.06.03 11:33:40.
