data_PCOD9037163
_publ_section_title
;
Structure prediction by ZEFSAII (Michael W. Deem and Ramdas Pophale) SiO2 
 PCOD9037163
Probable space group: P -1
;
_chemical_formula_sum "Si O2"
_cell_formula_units_Z 16
_cell_length_a 5.513399
_cell_length_b 21.780832
_cell_length_c 21.749607
_cell_angle_alpha 18.793337
_cell_angle_beta 76.145591
_cell_angle_gamma 68.858404
_cell_volume 738.190302
_symmetry_space_group_name_H-M "P -1"
_symmetry_group_IT_number 2
_symmetry_cell_setting 'triclinic'
loop_
_space_group_symop_operation_xyz
x,y,z
-x,-y,-z
loop_
_atom_site_type_symbol
_atom_site_label
_atom_site_fract_x
_atom_site_fract_y
_atom_site_fract_z
Si Si1 0.223567 0.108528 0.979090
Si Si2 0.361596 0.599391 0.244889
Si Si3 0.670346 0.099897 0.711764
Si Si4 0.041808 0.472889 0.950585
Si Si5 0.585172 0.277014 0.738091
Si Si6 0.388623 0.024734 0.304725
Si Si7 0.262961 0.803132 0.939943
Si Si8 0.443939 0.411307 0.222574
O O1 0.333373 0.210230 0.822390
O O2 0.967465 0.308652 0.833504
O O3 0.421073 0.987838 0.139204
O O4 0.186492 0.914420 0.132537
O O5 0.520075 0.350121 0.478207
O O6 0.362021 0.697020 0.218603
O O7 0.458503 0.689408 0.094617
O O8 0.654056 0.008370 0.733113
O O9 0.000288 0.000302 0.796085
O O10 0.284149 0.546556 0.847965
O O11 0.750718 0.587545 0.823521
O O12 0.149773 0.227352 0.157881
O O13 0.000000 0.500000 0.000000
O O14 0.500000 0.500000 0.500000
O O15 0.639211 0.091834 0.220354
O O16 0.454948 0.811132 0.538529
O O17 0.249077 0.601235 0.099662
#
# Coordination Sequence:
#
# PCOD9037163 Si02
#       8
#     2   2   2   2   2   2   2   2
#     4  10  24  41  60  87 124 161 213 267 327 394
#     4  11  22  40  63  90 123 167 212 264 339 387
#     4  11  21  41  62  92 125 165 214 267 337 392
#     4  11  26  46  70 102 141 181 227 277 330 399
#     4  11  22  42  60  85 121 165 211 270 322 399
#     4  11  24  40  68  96 135 172 221 277 332 399
#     4  10  23  40  62  94 130 169 214 274 331 399
#     4  11  24  43  71 101 136 182 226 276 336 396
#
# _framework density 21.674627999999998
#
# number of rings (size 3 to 8) (size 9 to 14) (size 15 to 20)
#    0.000    1.250    3.750    1.500    1.750    2.500 
#    2.250    0.000    0.000    0.000    0.000    0.000 
#    0.000    0.000    0.000    0.000    0.000    0.000 
#
# Total GULP energy -89127.029016 kJ/mol
# GULP energy per Si atom -5570.439314 kJ/mol
# Density = 2.162530 g / cm^3
# Si number density = 21.674628 Si / 1000 Ang^3
#
#
#
# Elastic Constant Matrix: (Units=GPa)
#
#
# Indices 1 2 3 4 5 6 
#
# 1 47.2419 20.8877 48.7315 10.0530 -1.1801 8.3705
# 2 20.8877 137.5738 66.9807 8.3885 -4.3356 24.5768
# 3 48.7315 66.9807 214.8311 7.7311 -9.1898 -5.8128
# 4 10.0530 8.3885 7.7311 32.4895 0.9311 4.4034
# 5 -1.1801 -4.3356 -9.1898 0.9311 22.7624 2.7952
# 6 8.3705 24.5768 -5.8128 4.4034 2.7952 39.2021
#
#
#
# Elastic Compliance Matrix: (Units=1/GPa)
#
#
# Indices 1 2 3 4 5 6 
#
# 1 0.031110 0.000473 -0.007145 -0.007072 -0.000008 -0.007204
# 2 0.000473 0.010200 -0.003373 -0.001074 0.001507 -0.006982
# 3 -0.007145 -0.003373 0.007489 0.000639 0.001422 0.004578
# 4 -0.007072 -0.001074 0.000639 0.033320 -0.001510 -0.001357
# 5 -0.000008 0.001507 0.001422 -0.001510 0.045321 -0.003794
# 6 -0.007204 -0.006982 0.004578 -0.001357 -0.003794 0.032526
#
#
# Mechanical properties :
#
#
# Convention : Reuss Voigt Hill
#
# Bulk Modulus (GPa) = 34.83317 74.76073 54.79695
# Shear Modulus (GPa) = 26.36784 36.42727 31.39756
#
# Velocity S-wave (km/s) = 3.49166 4.10401 3.81016
# Velocity P-wave (km/s) = 5.68871 7.55145 6.68527
#
# Compressibility (1/GPa) = 0.02870827
#
# Stress axis : x y z
#
# Youngs Moduli (GPa) = 32.14412 98.04241 133.52818
#
# Poissons Ratio (x) = -0.04640 0.95408
# Poissons Ratio (y) = -0.01521 0.45043
# Poissons Ratio (z) = 0.22968 0.33072
#
# Static dielectric constant tensor:
#      x y z
#    x 2.018380 -0.036770 -0.001230 
#    y -0.036770 1.862840 0.008370 
#    z -0.001230 0.008370 1.714010 
# 
# From -- ./inp_files/11311.got.cif
#   From: 2010.05.17/outbox.cif.g08.bks.cpg/sg2_6_cif.got.tgz:11311.got - 2010.06.03 11:33:40.
