data_PCOD9037142
_publ_section_title
;
Structure prediction by ZEFSAII (Michael W. Deem and Ramdas Pophale) SiO2 
 PCOD9037142
Probable space group: P -1
;
_chemical_formula_sum "Si O2"
_cell_formula_units_Z 14
_cell_length_a 12.613115
_cell_length_b 8.578695
_cell_length_c 9.078712
_cell_angle_alpha 133.768039
_cell_angle_beta 67.247335
_cell_angle_gamma 93.733161
_cell_volume 623.245403
_symmetry_space_group_name_H-M "P -1"
_symmetry_group_IT_number 2
_symmetry_cell_setting 'triclinic'
loop_
_space_group_symop_operation_xyz
x,y,z
-x,-y,-z
loop_
_atom_site_type_symbol
_atom_site_label
_atom_site_fract_x
_atom_site_fract_y
_atom_site_fract_z
Si Si1 0.438770 0.276848 0.525328
Si Si2 0.068058 0.646634 0.646702
Si Si3 0.699019 0.713838 0.673013
Si Si4 0.761297 0.952001 0.532478
Si Si5 0.372940 0.532672 0.008834
Si Si6 0.678843 0.905408 0.120845
Si Si7 0.077176 0.118838 0.874028
O O1 0.402422 0.325864 0.405949
O O2 0.355396 0.115974 0.506677
O O3 0.575320 0.126554 0.373694
O O4 0.399352 0.490462 0.793253
O O5 0.000000 0.500000 0.500000
O O6 0.209879 0.521735 0.477882
O O7 0.026185 0.681228 0.862605
O O8 0.037404 0.893865 0.754010
O O9 0.776550 0.831863 0.604482
O O10 0.655193 0.871602 0.939382
O O11 0.870619 0.858412 0.299643
O O12 0.719671 0.222352 0.747917
O O13 0.500000 0.500000 0.000000
O O14 0.327875 0.327207 0.954895
O O15 0.809140 0.922685 0.102657
#
# Coordination Sequence:
#
# PCOD9037142 Si02
#       7
#     2   2   2   2   2   2   2
#     4  10  23  40  61  99 139 161 212 259 324 383
#     4  11  24  47  68  96 121 168 229 269 318 382
#     4  10  23  43  65  92 138 168 210 274 321 380
#     4  10  23  41  60 100 131 165 210 260 329 376
#     4  12  21  38  66  94 134 179 211 253 310 393
#     4  12  20  41  68  96 132 172 215 262 314 395
#     4  11  24  42  72  93 124 170 220 270 319 377
#
# _framework density 22.463059999999999
#
# number of rings (size 3 to 8) (size 9 to 14) (size 15 to 20)
#    0.857    0.286    4.286    2.571    0.000    1.714 
#    0.000    2.857    0.000    0.000    0.000    0.000 
#    0.000    0.000    0.000    0.000    0.000    0.000 
#
# Total GULP energy -78228.201566 kJ/mol
# GULP energy per Si atom -5587.728683 kJ/mol
# Density = 2.241193 g / cm^3
# Si number density = 22.463060 Si / 1000 Ang^3
#
#
#
# Elastic Constant Matrix: (Units=GPa)
#
#
# Indices 1 2 3 4 5 6 
#
# 1 39.1880 1.3576 -9.3529 13.1372 16.8916 15.0510
# 2 1.3576 40.5449 12.1829 -5.1805 9.1912 1.3841
# 3 -9.3529 12.1829 108.0597 -5.0183 11.1719 1.8764
# 4 13.1372 -5.1805 -5.0183 39.8952 -3.2214 2.3531
# 5 16.8916 9.1912 11.1719 -3.2214 41.7001 -2.9368
# 6 15.0510 1.3841 1.8764 2.3531 -2.9368 24.7388
#
#
#
# Elastic Compliance Matrix: (Units=1/GPa)
#
#
# Indices 1 2 3 4 5 6 
#
# 1 0.065220 0.001679 0.008731 -0.020374 -0.033695 -0.042498
# 2 0.001679 0.027048 -0.002102 0.002397 -0.006128 -0.003331
# 3 0.008731 -0.002102 0.010958 -0.001913 -0.006624 -0.006630
# 4 -0.020374 0.002397 -0.001913 0.032140 0.011475 0.010712
# 5 -0.033695 -0.006128 -0.006624 0.011475 0.043431 0.025409
# 6 -0.042498 -0.003331 -0.006630 0.010712 0.025409 0.068964
#
#
# Mechanical properties :
#
#
# Convention : Reuss Voigt Hill
#
# Bulk Modulus (GPa) = 8.34430 21.79640 15.07035
# Shear Modulus (GPa) = 18.44389 33.50716 25.97552
#
# Velocity S-wave (km/s) = 2.86855 3.86639 3.40423
# Velocity P-wave (km/s) = 3.83330 5.44575 4.70906
#
# Compressibility (1/GPa) = 0.11984228
#
# Stress axis : x y z
#
# Youngs Moduli (GPa) = 15.33278 36.97070 91.25863
#
# Poissons Ratio (x) = -0.06206 -0.79679
# Poissons Ratio (y) = -0.02574 0.19178
# Poissons Ratio (z) = -0.13387 0.07769
#
# Static dielectric constant tensor:
#      x y z
#    x 1.805230 0.020950 0.037110 
#    y 0.020950 1.880900 -0.045500 
#    z 0.037110 -0.045500 1.834740 
# 
# From -- ./inp_files/291149.got.cif
#   From: 2010.05.17/outbox.cif.g08.bks.cpg/sg2_146_cif.got.tgz:291149.got - 2010.06.03 11:33:40.
