data_PCOD9037200
_publ_section_title
;
Structure prediction by ZEFSAII (Michael W. Deem and Ramdas Pophale) SiO2 
 PCOD9037200
Probable space group: P -1
;
_chemical_formula_sum "Si O2"
_cell_formula_units_Z 16
_cell_length_a 19.671337
_cell_length_b 12.653602
_cell_length_c 7.358035
_cell_angle_alpha 108.469120
_cell_angle_beta 48.443956
_cell_angle_gamma 145.471409
_cell_volume 653.061683
_symmetry_space_group_name_H-M "P -1"
_symmetry_group_IT_number 2
_symmetry_cell_setting 'triclinic'
loop_
_space_group_symop_operation_xyz
x,y,z
-x,-y,-z
loop_
_atom_site_type_symbol
_atom_site_label
_atom_site_fract_x
_atom_site_fract_y
_atom_site_fract_z
Si Si1 0.808298 0.588828 0.819797
Si Si2 0.563038 0.217090 0.497312
Si Si3 0.809970 0.272820 0.113912
Si Si4 0.771806 0.804744 0.116191
Si Si5 0.578839 0.495253 0.608036
Si Si6 0.091015 0.716058 0.427660
Si Si7 0.515993 0.892019 0.985027
Si Si8 0.892982 0.799872 0.453053
O O1 0.620412 0.327304 0.004999
O O2 0.869002 0.665903 0.543059
O O3 0.959023 0.674412 0.690386
O O4 0.790946 0.693907 0.980125
O O5 0.721516 0.296491 0.215437
O O6 0.608188 0.393074 0.468341
O O7 0.531150 0.170400 0.749147
O O8 0.372059 0.976276 0.613829
O O9 0.861036 0.241723 0.846814
O O10 0.000000 0.500000 0.000000
O O11 0.672631 0.690199 0.422491
O O12 0.632981 0.711672 0.167660
O O13 0.971464 0.067982 0.885987
O O14 0.693014 0.629571 0.663605
O O15 0.000000 0.500000 0.500000
O O16 0.279419 0.927416 0.308202
O O17 0.500000 0.000000 0.000000
O O18 0.000000 0.000000 0.500000
#
# Coordination Sequence:
#
# PCOD9037200 Si02
#       8
#     2   2   2   2   2   2   2   2
#     4  11  23  41  64  94 128 171 219 266 329 384
#     4  10  23  40  66  96 125 179 216 265 327 389
#     4  10  23  40  63  92 131 168 217 260 320 391
#     4  10  26  42  66  97 129 174 219 279 332 390
#     4  11  23  45  67  94 136 169 223 275 336 390
#     4  11  24  39  62  95 129 169 214 264 320 387
#     4  11  22  40  66  92 134 169 213 269 320 389
#     4  10  23  42  70  95 127 168 227 271 328 394
#
# _framework density 24.499984999999999
#
# number of rings (size 3 to 8) (size 9 to 14) (size 15 to 20)
#    0.000    1.500    2.500    1.125    5.250    5.000 
#    0.000    0.000    0.000    0.000    0.000    0.000 
#    0.000    0.000    0.000    0.000    0.000    0.000 
#
# Total GULP energy -89363.608249 kJ/mol
# GULP energy per Si atom -5585.225516 kJ/mol
# Density = 2.444422 g / cm^3
# Si number density = 24.499985 Si / 1000 Ang^3
#
#
#
# Elastic Constant Matrix: (Units=GPa)
#
#
# Indices 1 2 3 4 5 6 
#
# 1 101.2898 25.5734 39.5241 -15.1913 -27.0824 -1.0105
# 2 25.5734 81.7902 18.5087 -26.1564 -22.3837 3.9595
# 3 39.5241 18.5087 70.2600 -25.1684 -28.5909 1.7728
# 4 -15.1913 -26.1564 -25.1684 45.3038 0.6628 -2.0598
# 5 -27.0824 -22.3837 -28.5909 0.6628 61.1225 -9.3336
# 6 -1.0105 3.9595 1.7728 -2.0598 -9.3336 36.5333
#
#
#
# Elastic Compliance Matrix: (Units=1/GPa)
#
#
# Indices 1 2 3 4 5 6 
#
# 1 0.013478 -0.002253 -0.006012 -0.000088 0.002574 0.001561
# 2 -0.002253 0.017663 0.003523 0.011310 0.007039 0.000289
# 3 -0.006012 0.003523 0.026380 0.014594 0.011087 0.001827
# 4 -0.000088 0.011310 0.014594 0.036654 0.010980 0.002936
# 5 0.002574 0.007039 0.011087 0.010980 0.026070 0.006050
# 6 0.001561 0.000289 0.001827 0.002936 0.006050 0.029007
#
#
# Mechanical properties :
#
#
# Convention : Reuss Voigt Hill
#
# Bulk Modulus (GPa) = 20.81699 46.72806 33.77252
# Shear Modulus (GPa) = 28.61267 39.90750 34.26008
#
# Velocity S-wave (km/s) = 3.42111 4.04031 3.74354
# Velocity P-wave (km/s) = 4.91126 6.39372 5.70088
#
# Compressibility (1/GPa) = 0.04803769
#
# Stress axis : x y z
#
# Youngs Moduli (GPa) = 74.19504 56.61562 37.90733
#
# Poissons Ratio (x) = 0.12755 0.22789
# Poissons Ratio (y) = 0.16716 -0.13355
# Poissons Ratio (z) = 0.44604 -0.19946
#
# Static dielectric constant tensor:
#      x y z
#    x 1.976700 0.054090 0.089170 
#    y 0.054090 1.915590 0.014120 
#    z 0.089170 0.014120 2.021070 
# 
# From -- ./inp_files/333365.got.cif
#   From: 2010.05.17/outbox.cif.g08.bks.cpg/sg2_167_cif.got.tgz:333365.got - 2010.06.03 11:33:40.
