data_PCOD9037486
_publ_section_title
;
Structure prediction by ZEFSAII (Michael W. Deem and Ramdas Pophale) SiO2 
 PCOD9037486
Probable space group: P -1
;
_chemical_formula_sum "Si O2"
_cell_formula_units_Z 14
_cell_length_a 12.050515
_cell_length_b 8.786108
_cell_length_c 12.198094
_cell_angle_alpha 133.054631
_cell_angle_beta 142.064056
_cell_angle_gamma 55.031027
_cell_volume 578.436827
_symmetry_space_group_name_H-M "P -1"
_symmetry_group_IT_number 2
_symmetry_cell_setting 'triclinic'
loop_
_space_group_symop_operation_xyz
x,y,z
-x,-y,-z
loop_
_atom_site_type_symbol
_atom_site_label
_atom_site_fract_x
_atom_site_fract_y
_atom_site_fract_z
Si Si1 0.201408 0.910138 0.328131
Si Si2 0.131324 0.298843 0.971705
Si Si3 0.317799 0.555589 0.087878
Si Si4 0.320084 0.633650 0.651029
Si Si5 0.494240 0.857879 0.708779
Si Si6 0.316499 0.731146 0.952902
Si Si7 0.931740 0.656645 0.622132
O O1 0.219280 0.770033 0.163352
O O2 0.360050 0.815145 0.484578
O O3 0.006119 0.881270 0.218114
O O4 0.211257 0.155948 0.434022
O O5 0.211371 0.358314 0.945762
O O6 0.307483 0.261280 0.169556
O O7 0.000000 0.500000 0.000000
O O8 0.504583 0.527334 0.285616
O O9 0.362732 0.554537 0.994109
O O10 0.371702 0.813718 0.698079
O O11 0.305497 0.706213 0.801327
O O12 0.151224 0.496259 0.429627
O O13 0.550925 0.088373 0.842064
O O14 0.106535 0.773926 0.848084
O O15 0.000000 0.500000 0.500000
#
# Coordination Sequence:
#
# PCOD9037486 Si02
#       7
#     2   2   2   2   2   2   2
#     4  11  23  44  67 102 137 172 229 269 337 404
#     4   9  21  42  62 100 138 172 217 269 334 400
#     4  10  23  40  67  98 133 180 215 277 335 394
#     4  10  23  42  64  98 133 175 227 272 330 399
#     4  11  23  41  72  98 131 181 217 280 332 389
#     4  11  22  42  65  94 136 178 224 272 329 392
#     4  10  23  43  66  95 139 173 225 277 327 398
#
# _framework density 24.203158999999999
#
# number of rings (size 3 to 8) (size 9 to 14) (size 15 to 20)
#    0.000    1.714    1.429    1.714    2.000    9.143 
#    2.571    2.857    0.000    0.000    0.000    0.000 
#    0.000    0.000    0.000    0.000    0.000    0.000 
#
# Total GULP energy -78016.502701 kJ/mol
# GULP energy per Si atom -5572.607336 kJ/mol
# Density = 2.414807 g / cm^3
# Si number density = 24.203159 Si / 1000 Ang^3
#
#
#
# Elastic Constant Matrix: (Units=GPa)
#
#
# Indices 1 2 3 4 5 6 
#
# 1 126.4382 9.7858 61.2319 0.2954 19.3535 26.3080
# 2 9.7858 47.6296 30.1811 -9.6327 0.4258 8.2032
# 3 61.2319 30.1811 97.5244 -16.7238 19.1200 20.7801
# 4 0.2954 -9.6327 -16.7238 32.4804 14.9178 5.2368
# 5 19.3535 0.4258 19.1200 14.9178 46.5554 8.1313
# 6 26.3080 8.2032 20.7801 5.2368 8.1313 38.0061
#
#
#
# Elastic Compliance Matrix: (Units=1/GPa)
#
#
# Indices 1 2 3 4 5 6 
#
# 1 0.012686 0.002890 -0.008344 -0.002740 -0.000224 -0.004418
# 2 0.002890 0.027618 -0.009536 0.002833 0.002184 -0.003605
# 3 -0.008344 -0.009536 0.024251 0.015368 -0.010400 -0.005318
# 4 -0.002740 0.002833 0.015368 0.050128 -0.019542 -0.009844
# 5 -0.000224 0.002184 -0.010400 -0.019542 0.031869 0.001244
# 6 -0.004418 -0.003605 -0.005318 -0.009844 0.001244 0.034146
#
#
# Mechanical properties :
#
#
# Convention : Reuss Voigt Hill
#
# Bulk Modulus (GPa) = 28.92221 52.66553 40.79387
# Shear Modulus (GPa) = 22.50190 34.76794 28.63492
#
# Velocity S-wave (km/s) = 3.05242 3.79424 3.44336
# Velocity P-wave (km/s) = 4.93951 6.40328 5.71842
#
# Compressibility (1/GPa) = 0.03457550
#
# Stress axis : x y z
#
# Youngs Moduli (GPa) = 78.82697 36.20782 41.23501
#
# Poissons Ratio (x) = -0.10463 0.34406
# Poissons Ratio (y) = -0.22778 0.39321
# Poissons Ratio (z) = 0.65773 0.34527
#
# Static dielectric constant tensor:
#      x y z
#    x 1.975400 -0.026200 0.037500 
#    y -0.026200 2.040810 -0.016560 
#    z 0.037500 -0.016560 1.975480 
# 
# From -- ./inp_files/190649.got.cif
#   From: 2010.05.17/outbox.cif.g08.bks.cpg/sg2_96_cif.got.tgz:190649.got - 2010.06.03 11:33:40.
