data_PCOD9037367
_publ_section_title
;
Structure prediction by ZEFSAII (Michael W. Deem and Ramdas Pophale) SiO2 
 PCOD9037367
Probable space group: P -1
;
_chemical_formula_sum "Si O2"
_cell_formula_units_Z 14
_cell_length_a 19.466539
_cell_length_b 9.366173
_cell_length_c 18.393048
_cell_angle_alpha 38.576927
_cell_angle_beta 164.581724
_cell_angle_gamma 143.052553
_cell_volume 534.564295
_symmetry_space_group_name_H-M "P -1"
_symmetry_group_IT_number 2
_symmetry_cell_setting 'triclinic'
loop_
_space_group_symop_operation_xyz
x,y,z
-x,-y,-z
loop_
_atom_site_type_symbol
_atom_site_label
_atom_site_fract_x
_atom_site_fract_y
_atom_site_fract_z
Si Si1 0.699320 0.919563 0.632798
Si Si2 0.575918 0.404331 0.262344
Si Si3 0.801022 0.732324 0.948199
Si Si4 0.737227 0.283264 0.326183
Si Si5 0.340183 0.233554 0.503926
Si Si6 0.914244 0.334608 0.129491
Si Si7 0.654054 0.901999 0.132441
O O1 0.602417 0.788239 0.661959
O O2 0.638040 0.751984 0.566813
O O3 0.632011 0.166442 0.447883
O O4 0.017625 0.019676 0.933928
O O5 0.325200 0.414493 0.051581
O O6 0.552784 0.344161 0.177750
O O7 0.762810 0.674092 0.353629
O O8 0.948482 0.566994 0.120809
O O9 0.000000 0.500000 0.500000
O O10 0.807555 0.047236 0.520907
O O11 0.574190 0.209149 0.116078
O O12 0.630263 0.285188 0.816848
O O13 0.148782 0.361191 0.299824
O O14 0.872568 0.108611 0.230940
O O15 0.500000 0.000000 0.000000
#
# Coordination Sequence:
#
# PCOD9037367 Si02
#       7
#     2   2   2   2   2   2   2
#     4  10  26  44  70 101 128 191 235 300 335 420
#     4  11  23  42  69  95 141 180 230 284 349 417
#     4  11  25  45  69  99 140 176 245 286 356 403
#     4  10  23  40  66 101 135 185 229 281 344 424
#     4  10  25  45  71 100 144 184 234 287 351 420
#     4  11  25  47  69 106 143 185 229 288 358 424
#     4  11  23  40  66 104 136 179 224 286 350 419
#
# _framework density 26.189553
#
# number of rings (size 3 to 8) (size 9 to 14) (size 15 to 20)
#    0.000    1.429    1.429    1.714   12.000    1.143 
#    0.000    2.857    0.000    0.000    0.000    0.000 
#    0.000    0.000    0.000    0.000    0.000    0.000 
#
# Total GULP energy -78350.711278 kJ/mol
# GULP energy per Si atom -5596.479377 kJ/mol
# Density = 2.612994 g / cm^3
# Si number density = 26.189553 Si / 1000 Ang^3
#
#
#
# Elastic Constant Matrix: (Units=GPa)
#
#
# Indices 1 2 3 4 5 6 
#
# 1 235.4412 48.2534 58.3276 6.1424 9.2757 -30.0951
# 2 48.2534 114.9088 21.9816 -8.7177 -1.6379 -9.0709
# 3 58.3276 21.9816 69.2861 7.7086 12.8278 -14.6650
# 4 6.1424 -8.7177 7.7086 55.0818 -11.4003 -3.2663
# 5 9.2757 -1.6379 12.8278 -11.4003 36.2291 -3.7107
# 6 -30.0951 -9.0709 -14.6650 -3.2663 -3.7107 55.6444
#
#
#
# Elastic Compliance Matrix: (Units=1/GPa)
#
#
# Indices 1 2 3 4 5 6 
#
# 1 0.005786 -0.001547 -0.003963 -0.000235 -0.000036 0.001817
# 2 -0.001547 0.010134 -0.002615 0.002726 0.002685 0.000465
# 3 -0.003963 -0.002615 0.020969 -0.004366 -0.007678 0.002189
# 4 -0.000235 0.002726 -0.004366 0.021028 0.008445 0.000964
# 5 -0.000036 0.002685 -0.007678 0.008445 0.033222 0.001106
# 6 0.001817 0.000465 0.002189 0.000964 0.001106 0.019737
#
#
# Mechanical properties :
#
#
# Convention : Reuss Voigt Hill
#
# Bulk Modulus (GPa) = 48.44931 75.19570 61.82250
# Shear Modulus (GPa) = 37.31207 48.79595 43.05401
#
# Velocity S-wave (km/s) = 3.77861 4.32114 4.05895
# Velocity P-wave (km/s) = 6.12999 7.32604 6.75454
#
# Compressibility (1/GPa) = 0.02064013
#
# Stress axis : x y z
#
# Youngs Moduli (GPa) = 172.83801 98.67715 47.68942
#
# Poissons Ratio (x) = 0.15261 0.18898
# Poissons Ratio (y) = 0.26730 0.12471
# Poissons Ratio (z) = 0.68491 0.25805
#
# Static dielectric constant tensor:
#      x y z
#    x 2.039240 0.091910 -0.015050 
#    y 0.091910 2.114460 -0.079670 
#    z -0.015050 -0.079670 2.146550 
# 
# From -- ./inp_files/40246.got.cif
#   From: 2010.05.17/outbox.cif.g08.bks.cpg/sg2_21_cif.got.tgz:40246.got - 2010.06.03 11:33:40.
