data_PCOD9037645
_publ_section_title
;
Structure prediction by ZEFSAII (Michael W. Deem and Ramdas Pophale) SiO2 
 PCOD9037645
Probable space group: P -1
;
_chemical_formula_sum "Si O2"
_cell_formula_units_Z 16
_cell_length_a 10.443724
_cell_length_b 16.081648
_cell_length_c 7.111213
_cell_angle_alpha 128.547935
_cell_angle_beta 79.386833
_cell_angle_gamma 66.966151
_cell_volume 691.098235
_symmetry_space_group_name_H-M "P -1"
_symmetry_group_IT_number 2
_symmetry_cell_setting 'triclinic'
loop_
_space_group_symop_operation_xyz
x,y,z
-x,-y,-z
loop_
_atom_site_type_symbol
_atom_site_label
_atom_site_fract_x
_atom_site_fract_y
_atom_site_fract_z
Si Si1 0.370139 0.900728 0.458325
Si Si2 0.048032 0.183135 0.924229
Si Si3 0.044802 0.388962 0.587533
Si Si4 0.472292 0.400752 0.458928
Si Si5 0.124505 0.034355 0.044249
Si Si6 0.137916 0.565741 0.954606
Si Si7 0.803441 0.118428 0.852596
Si Si8 0.281132 0.333572 0.144785
O O1 0.303557 0.923466 0.721386
O O2 0.251919 0.064485 0.656803
O O3 0.290308 0.851202 0.276990
O O4 0.571326 0.793689 0.208586
O O5 0.037364 0.175739 0.144039
O O6 0.947618 0.329197 0.052656
O O7 0.957108 0.120758 0.794563
O O8 0.871175 0.526959 0.730707
O O9 0.126983 0.445626 0.755837
O O10 0.187916 0.297915 0.256597
O O11 0.977390 0.347624 0.710440
O O12 0.500000 0.500000 0.500000
O O13 0.341145 0.484186 0.786732
O O14 0.662182 0.250301 0.213472
O O15 0.372740 0.373339 0.306396
O O16 0.154065 0.012281 0.227363
O O17 0.000000 0.000000 0.000000
#
# Coordination Sequence:
#
# PCOD9037645 Si02
#       8
#     2   2   2   2   2   2   2   2
#     4   9  19  32  54  77 109 141 177 225 261 328
#     4   9  18  32  50  77 113 136 177 221 268 320
#     4   9  20  37  58  72 102 149 190 220 269 315
#     4  10  19  32  55  83 110 138 172 225 278 326
#     4   8  18  30  50  77 107 148 177 202 268 337
#     4  10  19  35  56  80 105 144 183 225 268 321
#     4  10  17  33  52  78 114 150 170 206 277 335
#     4   9  19  38  55  74 105 142 185 226 269 317
#
# _framework density 23.151558000000001
#
# number of rings (size 3 to 8) (size 9 to 14) (size 15 to 20)
#    0.750    2.000    1.250    0.375    1.750    0.000 
#    0.000    6.875    0.000    0.000    0.000    0.000 
#    0.000    0.000    0.000    0.000    0.000    0.000 
#
# Total GULP energy -89087.189328 kJ/mol
# GULP energy per Si atom -5567.949333 kJ/mol
# Density = 2.309886 g / cm^3
# Si number density = 23.151558 Si / 1000 Ang^3
#
#
#
# Elastic Constant Matrix: (Units=GPa)
#
#
# Indices 1 2 3 4 5 6 
#
# 1 55.2596 2.6530 22.7188 -11.2673 -13.2188 9.1114
# 2 2.6530 83.9356 34.3768 -22.0892 -9.2181 8.0295
# 3 22.7188 34.3768 164.1825 -14.7602 -37.6780 0.1520
# 4 -11.2673 -22.0892 -14.7602 41.2119 -3.9923 -2.7305
# 5 -13.2188 -9.2181 -37.6780 -3.9923 42.5277 -4.1632
# 6 9.1114 8.0295 0.1520 -2.7305 -4.1632 25.0568
#
#
#
# Elastic Compliance Matrix: (Units=1/GPa)
#
#
# Indices 1 2 3 4 5 6 
#
# 1 0.022949 0.003401 -0.001757 0.007576 0.006285 -0.007554
# 2 0.003401 0.015778 -0.002397 0.008461 0.002667 -0.004913
# 3 -0.001757 -0.002397 0.008657 0.002205 0.007082 0.002772
# 4 0.007576 0.008461 0.002205 0.032520 0.009155 -0.000415
# 5 0.006285 0.002667 0.007082 0.009155 0.033511 0.003382
# 6 -0.007554 -0.004913 0.002772 -0.000415 0.003382 0.044731
#
#
# Mechanical properties :
#
#
# Convention : Reuss Voigt Hill
#
# Bulk Modulus (GPa) = 21.79711 46.98609 34.39160
# Shear Modulus (GPa) = 28.58057 38.00125 33.29091
#
# Velocity S-wave (km/s) = 3.51736 4.05583 3.79615
# Velocity P-wave (km/s) = 5.09226 6.50170 5.83966
#
# Compressibility (1/GPa) = 0.04587764
#
# Stress axis : x y z
#
# Youngs Moduli (GPa) = 43.57396 63.38097 115.51681
#
# Poissons Ratio (x) = -0.21557 0.20299
# Poissons Ratio (y) = -0.14820 0.27689
# Poissons Ratio (z) = 0.07657 0.15192
#
# Static dielectric constant tensor:
#      x y z
#    x 1.884120 0.021300 0.068220 
#    y 0.021300 1.903720 0.020450 
#    z 0.068220 0.020450 2.000530 
# 
# From -- ./inp_files/268253.got.cif
#   From: 2010.05.17/outbox.cif.g08.bks.cpg/sg2_135_cif.got.tgz:268253.got - 2010.06.03 11:33:40.
