data_PCOD9037969
_publ_section_title
;
Structure prediction by ZEFSAII (Michael W. Deem and Ramdas Pophale) SiO2 
 PCOD9037969
Probable space group: P -1
;
_chemical_formula_sum "Si O2"
_cell_formula_units_Z 14
_cell_length_a 11.881432
_cell_length_b 11.671975
_cell_length_c 6.708924
_cell_angle_alpha 66.466337
_cell_angle_beta 84.371147
_cell_angle_gamma 50.042269
_cell_volume 637.031914
_symmetry_space_group_name_H-M "P -1"
_symmetry_group_IT_number 2
_symmetry_cell_setting 'triclinic'
loop_
_space_group_symop_operation_xyz
x,y,z
-x,-y,-z
loop_
_atom_site_type_symbol
_atom_site_label
_atom_site_fract_x
_atom_site_fract_y
_atom_site_fract_z
Si Si1 0.098333 0.899593 0.860302
Si Si2 0.553951 0.326374 0.535411
Si Si3 0.633678 0.671564 0.132975
Si Si4 0.340771 0.135091 0.327189
Si Si5 0.837751 0.990109 0.583306
Si Si6 0.156116 0.442917 0.447611
Si Si7 0.700573 0.465069 0.884963
O O1 0.130955 0.000149 0.658747
O O2 0.253291 0.712900 0.005994
O O3 0.993897 0.887985 0.745146
O O4 0.000000 0.000000 0.000000
O O5 0.500000 0.500000 0.500000
O O6 0.513722 0.258102 0.765010
O O7 0.726280 0.181254 0.548228
O O8 0.447291 0.386611 0.317865
O O9 0.756265 0.593202 0.339204
O O10 0.630986 0.799607 0.916332
O O11 0.675388 0.532805 0.064676
O O12 0.240560 0.283825 0.400038
O O13 0.500000 0.000000 0.500000
O O14 0.253516 0.071307 0.336520
O O15 0.162162 0.563818 0.229777
O O16 0.000000 0.500000 0.500000
#
# Coordination Sequence:
#
# PCOD9037969 Si02
#       7
#     2   2   2   2   2   2   2
#     4  11  26  43  63  95 131 173 214 272 330 384
#     4  11  23  43  68  96 127 174 219 268 321 393
#     4  10  23  42  66  94 132 166 212 270 324 383
#     4  11  25  43  65  99 136 171 221 271 329 400
#     4  11  26  42  65  97 133 168 220 269 327 392
#     4  10  24  39  65  95 125 171 220 262 325 394
#     4  10  23  41  65  94 127 166 222 264 321 391
#
# _framework density 21.976921000000001
#
# number of rings (size 3 to 8) (size 9 to 14) (size 15 to 20)
#    0.000    1.429    0.000    4.286    6.000   11.429 
#    0.000    0.000    0.000    0.000    0.000    0.000 
#    0.000    0.000    0.000    0.000    0.000    0.000 
#
# Total GULP energy -78305.138411 kJ/mol
# GULP energy per Si atom -5593.224172 kJ/mol
# Density = 2.192690 g / cm^3
# Si number density = 21.976921 Si / 1000 Ang^3
#
#
#
# Elastic Constant Matrix: (Units=GPa)
#
#
# Indices 1 2 3 4 5 6 
#
# 1 60.3677 2.3087 13.3201 4.3606 -11.2731 -3.5709
# 2 2.3087 51.6157 39.6649 1.6858 -8.1049 2.0508
# 3 13.3201 39.6649 130.6304 17.5957 -17.7216 -6.1812
# 4 4.3606 1.6858 17.5957 30.8531 -2.1670 -2.4082
# 5 -11.2731 -8.1049 -17.7216 -2.1670 29.4301 6.0058
# 6 -3.5709 2.0508 -6.1812 -2.4082 6.0058 37.4044
#
#
#
# Elastic Compliance Matrix: (Units=1/GPa)
#
#
# Indices 1 2 3 4 5 6 
#
# 1 0.018086 0.001055 -0.001076 -0.001523 0.006383 0.000368
# 2 0.001055 0.026148 -0.008121 0.003066 0.003563 -0.003050
# 3 -0.001076 -0.008121 0.011542 -0.005631 0.003620 0.001306
# 4 -0.001523 0.003066 -0.005631 0.035710 -0.000740 0.001174
# 5 0.006383 0.003563 0.003620 -0.000740 0.040666 -0.005565
# 6 0.000368 -0.003050 0.001306 0.001174 -0.005565 0.028122
#
#
# Mechanical properties :
#
#
# Convention : Reuss Voigt Hill
#
# Bulk Modulus (GPa) = 25.32117 39.24459 32.28288
# Shear Modulus (GPa) = 26.35421 32.02552 29.18986
#
# Velocity S-wave (km/s) = 3.46667 3.82151 3.64841
# Velocity P-wave (km/s) = 5.25076 6.11293 5.69817
#
# Compressibility (1/GPa) = 0.03949264
#
# Stress axis : x y z
#
# Youngs Moduli (GPa) = 55.29127 38.24368 86.63847
#
# Poissons Ratio (x) = -0.04036 0.09324
# Poissons Ratio (y) = -0.05836 0.70361
# Poissons Ratio (z) = 0.05950 0.31058
#
# Static dielectric constant tensor:
#      x y z
#    x 1.836750 0.032570 -0.014810 
#    y 0.032570 1.767830 -0.009340 
#    z -0.014810 -0.009340 1.804460 
# 
# From -- ./inp_files/47531.got.cif
#   From: 2010.05.17/outbox.cif.g08.bks.cpg/sg2_24_cif.got.tgz:47531.got - 2010.06.03 11:33:40.
