data_PCOD9037989
_publ_section_title
;
Structure prediction by ZEFSAII (Michael W. Deem and Ramdas Pophale) SiO2 
 PCOD9037989
Probable space group: P -1
;
_chemical_formula_sum "Si O2"
_cell_formula_units_Z 14
_cell_length_a 6.752565
_cell_length_b 15.945891
_cell_length_c 18.517558
_cell_angle_alpha 153.764629
_cell_angle_beta 119.180147
_cell_angle_gamma 50.087959
_cell_volume 652.931116
_symmetry_space_group_name_H-M "P -1"
_symmetry_group_IT_number 2
_symmetry_cell_setting 'triclinic'
loop_
_space_group_symop_operation_xyz
x,y,z
-x,-y,-z
loop_
_atom_site_type_symbol
_atom_site_label
_atom_site_fract_x
_atom_site_fract_y
_atom_site_fract_z
Si Si1 0.972013 0.970462 0.855625
Si Si2 0.578477 0.214703 0.725414
Si Si3 0.440881 0.010385 0.755254
Si Si4 0.550901 0.830192 0.489100
Si Si5 0.958920 0.336116 0.237326
Si Si6 0.079420 0.579028 0.002984
Si Si7 0.494602 0.727089 0.674088
O O1 0.705321 0.022111 0.807357
O O2 0.915140 0.182238 0.055786
O O3 0.060007 0.758979 0.761365
O O4 0.214196 0.907750 0.798120
O O5 0.580228 0.207694 0.633530
O O6 0.757062 0.305725 0.856741
O O7 0.671236 0.971418 0.586066
O O8 0.274334 0.383873 0.831564
O O9 0.363716 0.980377 0.637929
O O10 0.510526 0.797818 0.650725
O O11 0.211221 0.224393 0.922415
O O12 0.760469 0.593955 0.380630
O O13 0.257987 0.288986 0.252019
O O14 0.000000 0.500000 0.000000
O O15 0.500000 0.500000 0.500000
#
# Coordination Sequence:
#
# PCOD9037989 Si02
#       7
#     2   2   2   2   2   2   2
#     4  10  23  44  64  97 133 170 220 266 315 402
#     4  10  26  45  66  95 133 168 223 267 322 389
#     4  11  25  40  70  97 129 171 217 266 330 379
#     4  11  23  45  64  98 135 169 210 279 323 378
#     4  10  23  41  65  95 134 173 214 267 324 381
#     4  11  24  46  69  94 126 176 220 269 321 389
#     4  11  23  40  67  98 129 172 216 266 326 393
#
# _framework density 21.441770999999999
#
# number of rings (size 3 to 8) (size 9 to 14) (size 15 to 20)
#    0.000    1.429    1.429    2.143    8.000    2.857 
#    0.000    0.000    0.000    0.000    0.000    0.000 
#    0.000    0.000    0.000    0.000    0.000    0.000 
#
# Total GULP energy -78209.318754 kJ/mol
# GULP energy per Si atom -5586.379911 kJ/mol
# Density = 2.139297 g / cm^3
# Si number density = 21.441771 Si / 1000 Ang^3
#
#
#
# Elastic Constant Matrix: (Units=GPa)
#
#
# Indices 1 2 3 4 5 6 
#
# 1 68.7426 20.1853 17.7164 3.4821 0.5820 -3.5867
# 2 20.1853 69.4688 37.3931 7.6742 -2.6722 4.4297
# 3 17.7164 37.3931 76.5396 8.6164 2.4904 6.2383
# 4 3.4821 7.6742 8.6164 38.5676 5.7102 -3.1412
# 5 0.5820 -2.6722 2.4904 5.7102 36.6462 1.4724
# 6 -3.5867 4.4297 6.2383 -3.1412 1.4724 18.8058
#
#
#
# Elastic Compliance Matrix: (Units=1/GPa)
#
#
# Indices 1 2 3 4 5 6 
#
# 1 0.016549 -0.003930 -0.002328 0.000306 -0.000638 0.004955
# 2 -0.003930 0.020882 -0.008824 -0.002505 0.002711 -0.003372
# 3 -0.002328 -0.008824 0.018622 -0.002395 -0.001304 -0.004841
# 4 0.000306 -0.002505 -0.002395 0.028157 -0.004674 0.006512
# 5 -0.000638 0.002711 -0.001304 -0.004674 0.028447 -0.003335
# 6 0.004955 -0.003372 -0.004841 0.006512 -0.003335 0.057869
#
#
# Mechanical properties :
#
#
# Convention : Reuss Voigt Hill
#
# Bulk Modulus (GPa) = 38.62551 40.59339 39.60945
# Shear Modulus (GPa) = 23.88693 28.10101 25.99397
#
# Velocity S-wave (km/s) = 3.34134 3.62411 3.48559
# Velocity P-wave (km/s) = 5.73928 6.04030 5.89171
#
# Compressibility (1/GPa) = 0.02588963
#
# Stress axis : x y z
#
# Youngs Moduli (GPa) = 60.42497 47.88722 53.70127
#
# Poissons Ratio (x) = 0.18818 0.12504
# Poissons Ratio (y) = 0.23745 0.47385
# Poissons Ratio (z) = 0.14069 0.42255
#
# Static dielectric constant tensor:
#      x y z
#    x 1.785980 0.008040 -0.059480 
#    y 0.008040 1.810770 0.045940 
#    z -0.059480 0.045940 1.850620 
# 
# From -- ./inp_files/28282.got.cif
#   From: 2010.05.17/outbox.cif.g08.bks.cpg/sg2_15_cif.got.tgz:28282.got - 2010.06.03 11:33:40.
