data_PCOD9037333
_publ_section_title
;
Structure prediction by ZEFSAII (Michael W. Deem and Ramdas Pophale) SiO2 
 PCOD9037333
Probable space group: P -1
;
_chemical_formula_sum "Si O2"
_cell_formula_units_Z 14
_cell_length_a 5.590402
_cell_length_b 15.931086
_cell_length_c 9.341393
_cell_angle_alpha 46.141782
_cell_angle_beta 112.646640
_cell_angle_gamma 106.409636
_cell_volume 553.479546
_symmetry_space_group_name_H-M "P -1"
_symmetry_group_IT_number 2
_symmetry_cell_setting 'triclinic'
loop_
_space_group_symop_operation_xyz
x,y,z
-x,-y,-z
loop_
_atom_site_type_symbol
_atom_site_label
_atom_site_fract_x
_atom_site_fract_y
_atom_site_fract_z
Si Si1 0.699046 0.032602 0.743374
Si Si2 0.489427 0.455660 0.710531
Si Si3 0.110042 0.730153 0.959814
Si Si4 0.122497 0.107929 0.517480
Si Si5 0.029777 0.192421 0.844173
Si Si6 0.846718 0.670257 0.557404
Si Si7 0.771472 0.504592 0.132597
O O1 0.395124 0.045928 0.622444
O O2 0.803361 0.125975 0.777150
O O3 0.901160 0.048752 0.638139
O O4 0.754940 0.905131 0.968433
O O5 0.500000 0.500000 0.500000
O O6 0.236845 0.475715 0.720727
O O7 0.679601 0.558008 0.694340
O O8 0.608923 0.329509 0.914681
O O9 0.026624 0.839000 0.715724
O O10 0.929118 0.621817 0.989961
O O11 0.065495 0.763044 0.076953
O O12 0.221668 0.217333 0.505306
O O13 0.143929 0.294811 0.648567
O O14 0.127071 0.624244 0.715330
O O15 0.500000 0.500000 0.000000
#
# Coordination Sequence:
#
# PCOD9037333 Si02
#       7
#     2   2   2   2   2   2   2
#     4  10  26  48  71 100 134 180 237 279 342 408
#     4  11  23  38  62  99 133 172 222 278 333 413
#     4  11  25  41  66 102 135 177 226 282 346 397
#     4  11  25  45  71 101 135 182 227 284 342 404
#     4  10  23  46  69  97 134 178 227 289 339 402
#     4  10  23  40  65  95 132 180 221 273 338 413
#     4  11  23  40  64  97 136 175 223 271 334 421
#
# _framework density 25.294521
#
# number of rings (size 3 to 8) (size 9 to 14) (size 15 to 20)
#    0.000    1.429    0.000    3.429   12.000   10.857 
#    2.571    0.000    0.000    0.000    0.000    0.000 
#    0.000    0.000    0.000    0.000    0.000    0.000 
#
# Total GULP energy -78262.095659 kJ/mol
# GULP energy per Si atom -5590.149690 kJ/mol
# Density = 2.523695 g / cm^3
# Si number density = 25.294521 Si / 1000 Ang^3
#
#
#
# Elastic Constant Matrix: (Units=GPa)
#
#
# Indices 1 2 3 4 5 6 
#
# 1 94.4171 27.6736 76.5465 -15.4239 7.5838 -11.3404
# 2 27.6736 97.0493 23.0334 1.8139 -1.6191 -3.8012
# 3 76.5465 23.0334 162.7198 -8.5534 -5.2060 -6.7822
# 4 -15.4239 1.8139 -8.5534 39.9683 -15.8325 -2.7273
# 5 7.5838 -1.6191 -5.2060 -15.8325 40.7979 3.5686
# 6 -11.3404 -3.8012 -6.7822 -2.7273 3.5686 36.4040
#
#
#
# Elastic Compliance Matrix: (Units=1/GPa)
#
#
# Indices 1 2 3 4 5 6 
#
# 1 0.020522 -0.003730 -0.008754 0.005169 -0.003520 0.005105
# 2 -0.003730 0.011389 0.000059 -0.001762 0.000481 -0.000141
# 3 -0.008754 0.000059 0.010303 -0.000055 0.003019 -0.001101
# 4 0.005169 -0.001762 -0.000055 0.031624 0.010998 0.002707
# 5 -0.003520 0.000481 0.003019 0.010998 0.030066 -0.002607
# 6 0.005105 -0.000141 -0.001101 0.002707 -0.002607 0.029298
#
#
# Mechanical properties :
#
#
# Convention : Reuss Voigt Hill
#
# Bulk Modulus (GPa) = 57.58716 67.63259 62.60987
# Shear Modulus (GPa) = 30.51771 38.56288 34.54029
#
# Velocity S-wave (km/s) = 3.47723 3.90879 3.69931
# Velocity P-wave (km/s) = 6.24000 6.86787 6.56145
#
# Compressibility (1/GPa) = 0.01736498
#
# Stress axis : x y z
#
# Youngs Moduli (GPa) = 48.72822 87.80453 97.05857
#
# Poissons Ratio (x) = 0.32747 0.84966
# Poissons Ratio (y) = 0.18173 -0.00575
# Poissons Ratio (z) = 0.42657 -0.00520
#
# Static dielectric constant tensor:
#      x y z
#    x 2.176560 -0.001010 0.014480 
#    y -0.001010 2.090230 0.088660 
#    z 0.014480 0.088660 1.976730 
# 
# From -- ./inp_files/136527.got.cif
#   From: 2010.05.17/outbox.cif.g08.bks.cpg/sg2_69_cif.got.tgz:136527.got - 2010.06.03 11:33:40.
