data_PCOD9037692
_publ_section_title
;
Structure prediction by ZEFSAII (Michael W. Deem and Ramdas Pophale) SiO2 
 PCOD9037692
Probable space group: P -1
;
_chemical_formula_sum "Si O2"
_cell_formula_units_Z 14
_cell_length_a 18.190940
_cell_length_b 14.770856
_cell_length_c 7.972131
_cell_angle_alpha 114.125262
_cell_angle_beta 55.690522
_cell_angle_gamma 158.172200
_cell_volume 610.437979
_symmetry_space_group_name_H-M "P -1"
_symmetry_group_IT_number 2
_symmetry_cell_setting 'triclinic'
loop_
_space_group_symop_operation_xyz
x,y,z
-x,-y,-z
loop_
_atom_site_type_symbol
_atom_site_label
_atom_site_fract_x
_atom_site_fract_y
_atom_site_fract_z
Si Si1 0.102935 0.451076 0.308802
Si Si2 0.330682 0.232744 0.550043
Si Si3 0.879185 0.870316 0.735862
Si Si4 0.619548 0.062336 0.637581
Si Si5 0.402783 0.253849 0.854487
Si Si6 0.693755 0.383201 0.495618
Si Si7 0.374194 0.643504 0.812438
O O1 0.289852 0.734661 0.293028
O O2 0.103316 0.412025 0.471379
O O3 0.852544 0.239604 0.423596
O O4 0.190475 0.465821 0.064854
O O5 0.500000 0.500000 0.500000
O O6 0.071174 0.008659 0.697816
O O7 0.443516 0.258430 0.318929
O O8 0.346705 0.211246 0.700752
O O9 0.805712 0.906332 0.903570
O O10 0.641747 0.561870 0.814161
O O11 0.000000 0.000000 0.500000
O O12 0.411956 0.830207 0.593458
O O13 0.516218 0.893724 0.800197
O O14 0.484281 0.225031 0.743281
O O15 0.734764 0.477879 0.331222
#
# Coordination Sequence:
#
# PCOD9037692 Si02
#       7
#     2   2   2   2   2   2   2
#     4  11  20  41  65  81 127 157 185 258 296 345
#     4  11  22  41  59  87 122 157 196 248 293 348
#     4  11  23  37  61  84 115 157 205 233 296 357
#     4   9  22  41  58  95 115 152 208 234 300 364
#     4  10  23  41  55  87 119 155 196 250 287 348
#     4   9  22  39  59  89 119 150 202 239 294 358
#     4   9  23  40  58  92 119 153 204 239 293 361
#
# _framework density 22.934352000000001
#
# number of rings (size 3 to 8) (size 9 to 14) (size 15 to 20)
#    0.857    1.143    1.429    1.286    4.000    1.143 
#    2.571    1.429    0.000    0.000    0.000    0.000 
#    0.000    0.000    0.000    0.000    0.000    0.000 
#
# Total GULP energy -78034.988084 kJ/mol
# GULP energy per Si atom -5573.927720 kJ/mol
# Density = 2.288215 g / cm^3
# Si number density = 22.934352 Si / 1000 Ang^3
#
#
#
# Elastic Constant Matrix: (Units=GPa)
#
#
# Indices 1 2 3 4 5 6 
#
# 1 59.6333 6.6073 11.9399 2.0722 -9.7416 12.6781
# 2 6.6073 41.1184 14.7154 -2.0839 -0.9841 -1.0541
# 3 11.9399 14.7154 108.4914 -2.4313 -27.9896 17.5312
# 4 2.0722 -2.0839 -2.4313 19.0676 -0.6611 1.7143
# 5 -9.7416 -0.9841 -27.9896 -0.6611 28.4046 -2.8615
# 6 12.6781 -1.0541 17.5312 1.7143 -2.8615 35.7199
#
#
#
# Elastic Compliance Matrix: (Units=1/GPa)
#
#
# Indices 1 2 3 4 5 6 
#
# 1 0.019641 -0.003704 0.001290 -0.001492 0.007132 -0.007071
# 2 -0.003704 0.026845 -0.005122 0.002142 -0.004922 0.004123
# 3 0.001290 -0.005122 0.014498 0.002235 0.013927 -0.006716
# 4 -0.001492 0.002142 0.002235 0.053477 0.002723 -0.002853
# 5 0.007132 -0.004922 0.013927 0.002723 0.050706 -0.005580
# 6 -0.007071 0.004123 -0.006716 -0.002853 -0.005580 0.033613
#
#
# Mechanical properties :
#
#
# Convention : Reuss Voigt Hill
#
# Bulk Modulus (GPa) = 21.78024 30.64091 26.21058
# Shear Modulus (GPa) = 21.81920 28.37044 25.09482
#
# Velocity S-wave (km/s) = 3.08778 3.52096 3.31146
# Velocity P-wave (km/s) = 4.71486 5.46981 5.10631
#
# Compressibility (1/GPa) = 0.04591318
#
# Stress axis : x y z
#
# Youngs Moduli (GPa) = 50.91278 37.25151 68.97299
#
# Poissons Ratio (x) = 0.13798 -0.08896
# Poissons Ratio (y) = 0.18858 0.35325
# Poissons Ratio (z) = -0.06567 0.19078
#
# Static dielectric constant tensor:
#      x y z
#    x 2.451660 0.117380 0.038630 
#    y 0.117380 1.892560 0.046450 
#    z 0.038630 0.046450 1.877540 
# 
# From -- ./inp_files/110877.got.cif
#   From: 2010.05.17/outbox.cif.g08.bks.cpg/sg2_56_cif.got.tgz:110877.got - 2010.06.03 11:33:40.
