data_PCOD9037655
_publ_section_title
;
Structure prediction by ZEFSAII (Michael W. Deem and Ramdas Pophale) SiO2 
 PCOD9037655
Probable space group: P -1
;
_chemical_formula_sum "Si O2"
_cell_formula_units_Z 12
_cell_length_a 12.058587
_cell_length_b 9.751765
_cell_length_c 9.307343
_cell_angle_alpha 43.873659
_cell_angle_beta 118.168754
_cell_angle_gamma 88.995542
_cell_volume 542.022215
_symmetry_space_group_name_H-M "P -1"
_symmetry_group_IT_number 2
_symmetry_cell_setting 'triclinic'
loop_
_space_group_symop_operation_xyz
x,y,z
-x,-y,-z
loop_
_atom_site_type_symbol
_atom_site_label
_atom_site_fract_x
_atom_site_fract_y
_atom_site_fract_z
Si Si1 0.352463 0.652314 0.514723
Si Si2 0.659306 0.956467 0.587827
Si Si3 0.574540 0.205309 0.820926
Si Si4 0.956554 0.235350 0.701123
Si Si5 0.958528 0.493881 0.250556
Si Si6 0.293531 0.205663 0.570501
O O1 0.516402 0.400737 0.766080
O O2 0.320755 0.787220 0.239849
O O3 0.229864 0.594945 0.518977
O O4 0.338636 0.833754 0.489448
O O5 0.669587 0.959831 0.420453
O O6 0.500000 0.000000 0.500000
O O7 0.799434 0.681393 0.928497
O O8 0.416440 0.273128 0.595314
O O9 0.663764 0.943874 0.143307
O O10 0.975598 0.269763 0.516857
O O11 0.040027 0.335518 0.758106
O O12 0.000000 0.000000 0.000000
O O13 0.109413 0.405247 0.314025
#
# Coordination Sequence:
#
# PCOD9037655 Si02
#       6
#     2   2   2   2   2   2
#     4  11  22  42  66 102 132 177 231 279 328 407
#     4  12  26  43  67  99 143 179 222 284 346 398
#     4  10  23  40  71  97 131 183 231 276 332 407
#     4  11  22  41  72 100 131 175 235 279 327 407
#     4  11  25  42  70 101 137 182 223 280 345 398
#     4  11  23  44  66  98 140 176 226 278 347 400
#
# _framework density 22.139315
#
# number of rings (size 3 to 8) (size 9 to 14) (size 15 to 20)
#    0.000    1.000    5.000    1.500    4.667    0.667 
#    0.000    0.833    0.000    0.000    0.000    0.000 
#    0.000    0.000    0.000    0.000    0.000    0.000 
#
# Total GULP energy -66911.275547 kJ/mol
# GULP energy per Si atom -5575.939629 kJ/mol
# Density = 2.208893 g / cm^3
# Si number density = 22.139315 Si / 1000 Ang^3
#
#
#
# Elastic Constant Matrix: (Units=GPa)
#
#
# Indices 1 2 3 4 5 6 
#
# 1 98.0550 -1.5818 38.1097 12.0138 12.0202 -6.4673
# 2 -1.5818 73.5437 30.3045 -1.3759 -0.4742 -18.0045
# 3 38.1097 30.3045 70.6803 2.1574 6.9358 11.2951
# 4 12.0138 -1.3759 2.1574 24.7399 0.3723 -2.3432
# 5 12.0202 -0.4742 6.9358 0.3723 41.9798 -8.2661
# 6 -6.4673 -18.0045 11.2951 -2.3432 -8.2661 29.2794
#
#
#
# Elastic Compliance Matrix: (Units=1/GPa)
#
#
# Indices 1 2 3 4 5 6 
#
# 1 0.019864 0.013468 -0.019755 -0.005272 0.001786 0.020372
# 2 0.013468 0.035937 -0.029914 0.001656 0.009226 0.039350
# 3 -0.019755 -0.029914 0.045616 0.000003 -0.010763 -0.043394
# 4 -0.005272 0.001656 0.000003 0.043409 0.001903 0.003864
# 5 0.001786 0.009226 -0.010763 0.001903 0.028819 0.018508
# 6 0.020372 0.039350 -0.043394 0.003864 0.018508 0.085125
#
#
# Mechanical properties :
#
#
# Convention : Reuss Voigt Hill
#
# Bulk Modulus (GPa) = 34.46480 41.77154 38.11817
# Shear Modulus (GPa) = 14.66942 30.89627 22.78285
#
# Velocity S-wave (km/s) = 2.57689 3.73974 3.21139
# Velocity P-wave (km/s) = 4.94518 6.12831 5.56826
#
# Compressibility (1/GPa) = 0.02901511
#
# Stress axis : x y z
#
# Youngs Moduli (GPa) = 50.34245 27.82616 21.92213
#
# Poissons Ratio (x) = -0.37475 0.43306
# Poissons Ratio (y) = -0.67799 0.65578
# Poissons Ratio (z) = 0.99450 0.83240
#
# Static dielectric constant tensor:
#      x y z
#    x 1.832430 -0.007410 -0.012070 
#    y -0.007410 1.843120 -0.019810 
#    z -0.012070 -0.019810 1.900790 
# 
# From -- ./inp_files/154574.got.cif
#   From: 2010.05.17/outbox.cif.g08.bks.cpg/sg2_78_cif.got.tgz:154574.got - 2010.06.03 11:33:40.
