data_PCOD9037034
_publ_section_title
;
Structure prediction by ZEFSAII (Michael W. Deem and Ramdas Pophale) SiO2 
 PCOD9037034
Probable space group: P -1
;
_chemical_formula_sum "Si O2"
_cell_formula_units_Z 16
_cell_length_a 9.852065
_cell_length_b 8.381652
_cell_length_c 25.304473
_cell_angle_alpha 129.545032
_cell_angle_beta 151.822808
_cell_angle_gamma 60.821031
_cell_volume 745.114709
_symmetry_space_group_name_H-M "P -1"
_symmetry_group_IT_number 2
_symmetry_cell_setting 'triclinic'
loop_
_space_group_symop_operation_xyz
x,y,z
-x,-y,-z
loop_
_atom_site_type_symbol
_atom_site_label
_atom_site_fract_x
_atom_site_fract_y
_atom_site_fract_z
Si Si1 0.351766 0.573695 0.241413
Si Si2 0.673507 0.291778 0.626830
Si Si3 0.732775 0.689289 0.593491
Si Si4 0.785520 0.788713 0.746369
Si Si5 0.324706 0.085422 0.655422
Si Si6 0.233861 0.128718 0.751803
Si Si7 0.121853 0.816653 0.972325
Si Si8 0.880663 0.362161 0.379049
O O1 0.425532 0.719953 0.349449
O O2 0.452728 0.736687 0.263436
O O3 0.558511 0.404404 0.271261
O O4 0.039446 0.417767 0.111753
O O5 0.445545 0.185656 0.481150
O O6 0.693266 0.540267 0.674454
O O7 0.988715 0.238854 0.715472
O O8 0.500000 0.500000 0.500000
O O9 0.870877 0.817408 0.719636
O O10 0.948807 0.595666 0.609165
O O11 0.037953 0.854326 0.890582
O O12 0.507450 0.897812 0.684290
O O13 0.282245 0.183892 0.718547
O O14 0.000000 0.000000 0.500000
O O15 0.117955 0.878168 0.658983
O O16 0.536547 0.167107 0.895742
O O17 0.000000 0.000000 0.000000
O O18 0.000000 0.500000 0.500000
#
# Coordination Sequence:
#
# PCOD9037034 Si02
#       8
#     2   2   2   2   2   2   2   2
#     4  11  25  41  71 103 143 187 232 290 346 422
#     4  10  23  44  68 104 138 185 230 286 361 412
#     4  10  23  39  70 100 143 175 229 285 359 410
#     4  10  23  44  69  96 141 187 222 295 342 407
#     4  12  26  41  69 108 141 177 237 286 359 416
#     4  12  26  44  74 101 137 191 241 286 346 428
#     4  11  22  50  73  96 140 194 242 282 346 418
#     4  12  24  43  71 104 139 189 231 283 367 427
#
# _framework density 21.473203000000002
#
# number of rings (size 3 to 8) (size 9 to 14) (size 15 to 20)
#    0.000    1.000    3.750    2.250   10.500    3.000 
#    0.000    0.625    2.750    0.000    0.000    0.000 
#    0.000    0.000    0.000    0.000    0.000    0.000 
#
# Total GULP energy -89332.069773 kJ/mol
# GULP energy per Si atom -5583.254361 kJ/mol
# Density = 2.142433 g / cm^3
# Si number density = 21.473203 Si / 1000 Ang^3
#
#
#
# Elastic Constant Matrix: (Units=GPa)
#
#
# Indices 1 2 3 4 5 6 
#
# 1 167.2185 22.1145 48.3696 -13.7644 -13.1385 -4.9347
# 2 22.1145 94.3180 21.4120 -6.7862 15.3359 -8.5786
# 3 48.3696 21.4120 126.6156 -23.0989 -10.2104 -1.8766
# 4 -13.7644 -6.7862 -23.0989 41.1871 0.8093 10.5682
# 5 -13.1385 15.3359 -10.2104 0.8093 36.2424 -4.9715
# 6 -4.9347 -8.5786 -1.8766 10.5682 -4.9715 36.5620
#
#
#
# Elastic Compliance Matrix: (Units=1/GPa)
#
#
# Indices 1 2 3 4 5 6 
#
# 1 0.007074 -0.001510 -0.002088 0.000725 0.002688 0.000649
# 2 -0.001510 0.012589 -0.002005 0.000112 -0.006199 0.001772
# 3 -0.002088 -0.002005 0.010130 0.004933 0.002657 -0.001297
# 4 0.000725 0.000112 0.004933 0.029400 -0.000168 -0.008144
# 5 0.002688 -0.006199 0.002657 -0.000168 0.032422 0.003502
# 6 0.000649 0.001772 -0.001297 -0.008144 0.003502 0.030618
#
#
# Mechanical properties :
#
#
# Convention : Reuss Voigt Hill
#
# Bulk Modulus (GPa) = 53.80676 63.54936 58.67806
# Shear Modulus (GPa) = 35.80756 42.54869 39.17813
#
# Velocity S-wave (km/s) = 4.08799 4.45621 4.27607
# Velocity P-wave (km/s) = 6.88435 7.49240 7.19480
#
# Compressibility (1/GPa) = 0.01858503
#
# Stress axis : x y z
#
# Youngs Moduli (GPa) = 141.36157 79.43508 98.71779
#
# Poissons Ratio (x) = 0.11998 0.20616
# Poissons Ratio (y) = 0.21352 0.19794
# Poissons Ratio (z) = 0.29522 0.15927
#
# Static dielectric constant tensor:
#      x y z
#    x 1.883550 0.087450 -0.032710 
#    y 0.087450 1.856320 0.030030 
#    z -0.032710 0.030030 1.855850 
# 
# From -- ./inp_files/606844.got.cif
#   From: 2010.05.17/outbox.cif.g08.bks.cpg/sg2_304_cif.got.tgz:606844.got - 2010.06.03 11:33:40.
