data_PCOD9037543
_publ_section_title
;
Structure prediction by ZEFSAII (Michael W. Deem and Ramdas Pophale) SiO2 
 PCOD9037543
Probable space group: P -1
;
_chemical_formula_sum "Si O2"
_cell_formula_units_Z 14
_cell_length_a 11.203363
_cell_length_b 5.381080
_cell_length_c 25.592784
_cell_angle_alpha 119.733191
_cell_angle_beta 33.647979
_cell_angle_gamma 97.912913
_cell_volume 608.926202
_symmetry_space_group_name_H-M "P -1"
_symmetry_group_IT_number 2
_symmetry_cell_setting 'triclinic'
loop_
_space_group_symop_operation_xyz
x,y,z
-x,-y,-z
loop_
_atom_site_type_symbol
_atom_site_label
_atom_site_fract_x
_atom_site_fract_y
_atom_site_fract_z
Si Si1 0.549083 0.081675 0.354504
Si Si2 0.993496 0.614132 0.072725
Si Si3 0.002879 0.311237 0.427300
Si Si4 0.761294 0.854055 0.783040
Si Si5 0.042822 0.171960 0.740495
Si Si6 0.803168 0.902681 0.436295
Si Si7 0.204426 0.101275 0.039732
O O1 0.283986 0.428351 0.467758
O O2 0.451929 0.927841 0.417383
O O3 0.777486 0.068908 0.301757
O O4 0.694853 0.850879 0.226993
O O5 0.131195 0.291423 0.029292
O O6 0.113955 0.844052 0.054013
O O7 0.000000 0.500000 0.000000
O O8 0.000000 0.500000 0.500000
O O9 0.222936 0.200548 0.291467
O O10 0.998010 0.975504 0.402442
O O11 0.035168 0.512481 0.666337
O O12 0.792650 0.162344 0.818448
O O13 0.518186 0.894650 0.904265
O O14 0.220059 0.013055 0.607363
O O15 0.936911 0.567110 0.835152
#
# Coordination Sequence:
#
# PCOD9037543 Si02
#       7
#     2   2   2   2   2   2   2
#     4  10  24  42  66  99 132 175 231 280 347 409
#     4  11  27  46  71 103 136 189 231 286 343 408
#     4  10  24  41  65  96 132 178 228 284 343 407
#     4  10  24  42  65 102 134 180 229 281 345 410
#     4  10  23  42  67 101 137 177 226 284 350 408
#     4  10  23  40  68  95 134 177 226 284 348 400
#     4  11  26  44  71 102 142 181 236 281 348 412
#
# _framework density 22.991292999999999
#
# number of rings (size 3 to 8) (size 9 to 14) (size 15 to 20)
#    0.000    1.714    0.000    1.286   14.000    9.143 
#    0.000    0.000    0.000    0.000    0.000    0.000 
#    0.000    0.000    0.000    0.000    0.000    0.000 
#
# Total GULP energy -78137.673378 kJ/mol
# GULP energy per Si atom -5581.262384 kJ/mol
# Density = 2.293896 g / cm^3
# Si number density = 22.991293 Si / 1000 Ang^3
#
#
#
# Elastic Constant Matrix: (Units=GPa)
#
#
# Indices 1 2 3 4 5 6 
#
# 1 86.7856 26.4395 37.3807 -2.6541 42.9642 9.1725
# 2 26.4395 75.3221 22.6181 -20.3184 12.5280 9.4605
# 3 37.3807 22.6181 145.0452 -28.1349 20.7408 10.7965
# 4 -2.6541 -20.3184 -28.1349 30.9429 -1.8688 2.8824
# 5 42.9642 12.5280 20.7408 -1.8688 43.7103 6.6065
# 6 9.1725 9.4605 10.7965 2.8824 6.6065 28.9929
#
#
#
# Elastic Compliance Matrix: (Units=1/GPa)
#
#
# Indices 1 2 3 4 5 6 
#
# 1 0.025692 -0.006139 -0.003903 -0.006807 -0.022090 0.001039
# 2 -0.006139 0.019472 0.001675 0.014492 0.001302 -0.006772
# 3 -0.003903 0.001675 0.009952 0.010162 -0.000334 -0.003952
# 4 -0.006807 0.014492 0.010162 0.051701 0.001723 -0.011892
# 5 -0.022090 0.001302 -0.000334 0.001723 0.045015 -0.003741
# 6 0.001039 -0.006772 -0.003952 -0.011892 -0.003741 0.039879
#
#
# Mechanical properties :
#
#
# Convention : Reuss Voigt Hill
#
# Bulk Modulus (GPa) = 26.05435 53.33662 39.69548
# Shear Modulus (GPa) = 22.60003 35.44353 29.02178
#
# Velocity S-wave (km/s) = 3.13866 3.93059 3.55673
# Velocity P-wave (km/s) = 4.94891 6.62181 5.84552
#
# Compressibility (1/GPa) = 0.03838131
#
# Stress axis : x y z
#
# Youngs Moduli (GPa) = 38.92285 51.35695 100.48011
#
# Poissons Ratio (x) = 0.31528 0.39216
# Poissons Ratio (y) = 0.23894 -0.16827
# Poissons Ratio (z) = 0.15191 -0.08601
#
# Static dielectric constant tensor:
#      x y z
#    x 1.883080 -0.033870 -0.030340 
#    y -0.033870 1.979210 0.003670 
#    z -0.030340 0.003670 1.865600 
# 
# From -- ./inp_files/65847.got.cif
#   From: 2010.05.17/outbox.cif.g08.bks.cpg/sg2_33_cif.got.tgz:65847.got - 2010.06.03 11:33:40.
