data_PCOD9037880
_publ_section_title
;
Structure prediction by ZEFSAII (Michael W. Deem and Ramdas Pophale) SiO2 
 PCOD9037880
Probable space group: P -1
;
_chemical_formula_sum "Si O2"
_cell_formula_units_Z 14
_cell_length_a 18.868926
_cell_length_b 10.479533
_cell_length_c 15.831825
_cell_angle_alpha 33.010085
_cell_angle_beta 159.257292
_cell_angle_gamma 136.206537
_cell_volume 571.595372
_symmetry_space_group_name_H-M "P -1"
_symmetry_group_IT_number 2
_symmetry_cell_setting 'triclinic'
loop_
_space_group_symop_operation_xyz
x,y,z
-x,-y,-z
loop_
_atom_site_type_symbol
_atom_site_label
_atom_site_fract_x
_atom_site_fract_y
_atom_site_fract_z
Si Si1 0.330914 0.478625 0.223283
Si Si2 0.734226 0.343903 0.201303
Si Si3 0.674836 0.206083 0.526472
Si Si4 0.756417 0.128181 0.840964
Si Si5 0.001747 0.519538 0.296104
Si Si6 0.144944 0.024802 0.782228
Si Si7 0.755180 0.963923 0.577183
O O1 0.572122 0.383896 0.513859
O O2 0.315969 0.273730 0.389233
O O3 0.172491 0.466121 0.977388
O O4 0.250062 0.753762 0.015206
O O5 0.892841 0.507526 0.272721
O O6 0.699233 0.210580 0.321235
O O7 0.514484 0.535918 0.821757
O O8 0.885913 0.105738 0.450111
O O9 0.696465 0.059041 0.719645
O O10 0.654166 0.054575 0.505541
O O11 0.884660 0.280090 0.700991
O O12 0.781116 0.967184 0.042873
O O13 0.990656 0.142375 0.082090
O O14 0.177577 0.245812 0.641721
#
# Coordination Sequence:
#
# PCOD9037880 Si02
#       7
#     2   2   2   2   2   2   2
#     4  12  23  44  66  92 133 165 206 265 316 373
#     4   9  23  44  63  96 122 170 208 260 319 359
#     4  12  23  44  65  95 128 165 219 250 319 377
#     4  11  23  42  64  97 126 167 208 261 318 365
#     4  10  23  41  64  92 130 163 208 263 303 375
#     4   9  23  46  63  95 127 161 218 259 313 376
#     4  11  26  41  65  97 127 168 210 260 310 385
#
# _framework density 24.492850000000001
#
# number of rings (size 3 to 8) (size 9 to 14) (size 15 to 20)
#    0.857    0.571    2.857    1.714    2.000    4.571 
#    2.571    1.429    0.000    0.000    0.000    0.000 
#    0.000    0.000    0.000    0.000    0.000    0.000 
#
# Total GULP energy -78099.234195 kJ/mol
# GULP energy per Si atom -5578.516728 kJ/mol
# Density = 2.443710 g / cm^3
# Si number density = 24.492850 Si / 1000 Ang^3
#
#
#
# Elastic Constant Matrix: (Units=GPa)
#
#
# Indices 1 2 3 4 5 6 
#
# 1 74.3672 33.7229 54.4684 -17.4526 -10.9895 12.3096
# 2 33.7229 76.0014 45.9824 -18.7842 -10.8062 9.1433
# 3 54.4684 45.9824 174.1668 -21.4019 7.2908 4.8890
# 4 -17.4526 -18.7842 -21.4019 40.2886 14.8493 -4.2177
# 5 -10.9895 -10.8062 7.2908 14.8493 39.1011 -4.4980
# 6 12.3096 9.1433 4.8890 -4.2177 -4.4980 27.8749
#
#
#
# Elastic Compliance Matrix: (Units=1/GPa)
#
#
# Indices 1 2 3 4 5 6 
#
# 1 0.021490 -0.004457 -0.005278 0.002226 0.004247 -0.006080
# 2 -0.004457 0.018661 -0.003102 0.003847 0.002724 -0.002587
# 3 -0.005278 -0.003102 0.008725 0.002856 -0.004884 0.001462
# 4 0.002226 0.003847 0.002856 0.033369 -0.011464 0.000453
# 5 0.004247 0.002724 -0.004884 -0.011464 0.032978 0.001674
# 6 -0.006080 -0.002587 0.001462 0.000453 0.001674 0.039491
#
#
# Mechanical properties :
#
#
# Convention : Reuss Voigt Hill
#
# Bulk Modulus (GPa) = 43.09568 65.87588 54.48578
# Shear Modulus (GPa) = 26.57874 34.14370 30.36122
#
# Velocity S-wave (km/s) = 3.29776 3.73772 3.52461
# Velocity P-wave (km/s) = 5.66866 6.75142 6.23359
#
# Compressibility (1/GPa) = 0.02320418
#
# Stress axis : x y z
#
# Youngs Moduli (GPa) = 46.53421 53.58691 114.60879
#
# Poissons Ratio (x) = 0.23882 0.60486
# Poissons Ratio (y) = 0.20739 0.35548
# Poissons Ratio (z) = 0.24559 0.16621
#
# Static dielectric constant tensor:
#      x y z
#    x 2.001920 -0.003790 -0.026280 
#    y -0.003790 1.950110 0.005080 
#    z -0.026280 0.005080 1.998330 
# 
# From -- ./inp_files/338200.got.cif
#   From: 2010.05.17/outbox.cif.g08.bks.cpg/sg2_170_cif.got.tgz:338200.got - 2010.06.03 11:33:40.
