data_PCOD9037426
_publ_section_title
;
Structure prediction by ZEFSAII (Michael W. Deem and Ramdas Pophale) SiO2 
 PCOD9037426
Probable space group: P -1
;
_chemical_formula_sum "Si O2"
_cell_formula_units_Z 12
_cell_length_a 10.287387
_cell_length_b 14.170670
_cell_length_c 10.141241
_cell_angle_alpha 128.134264
_cell_angle_beta 112.082474
_cell_angle_gamma 27.758800
_cell_volume 479.362988
_symmetry_space_group_name_H-M "P -1"
_symmetry_group_IT_number 2
_symmetry_cell_setting 'triclinic'
loop_
_space_group_symop_operation_xyz
x,y,z
-x,-y,-z
loop_
_atom_site_type_symbol
_atom_site_label
_atom_site_fract_x
_atom_site_fract_y
_atom_site_fract_z
Si Si1 0.445834 0.053636 0.367337
Si Si2 0.345170 0.358573 0.979399
Si Si3 0.694618 0.459238 0.634158
Si Si4 0.974581 0.067706 0.223652
Si Si5 0.705709 0.577994 0.468479
Si Si6 0.225921 0.624643 0.943548
O O1 0.488711 0.154034 0.412992
O O2 0.077291 0.315638 0.415384
O O3 0.500000 0.000000 0.500000
O O4 0.640000 0.795772 0.154516
O O5 0.163677 0.565124 0.970625
O O6 0.217036 0.513564 0.198440
O O7 0.713490 0.117591 0.884786
O O8 0.943649 0.165633 0.434031
O O9 0.372233 0.644142 0.719794
O O10 0.607489 0.595905 0.584858
O O11 0.977523 0.921367 0.093528
O O12 0.695016 0.502691 0.270732
O O13 0.500000 0.500000 0.000000
#
# Coordination Sequence:
#
# PCOD9037426 Si02
#       6
#     2   2   2   2   2   2
#     4  11  23  46  76  94 138 188 234 286 340 410
#     4  11  22  44  67  99 140 181 229 283 346 407
#     4  11  24  39  69 105 135 178 233 286 344 417
#     4  10  23  40  66  99 142 177 222 281 354 402
#     4  11  24  44  72 104 135 184 235 283 348 407
#     4  10  23  41  68 101 142 181 224 280 353 411
#
# _framework density 25.033221000000001
#
# number of rings (size 3 to 8) (size 9 to 14) (size 15 to 20)
#    0.000    1.333    3.333    1.500    9.333    1.333 
#    6.000    0.833    0.000    0.000    0.000    0.000 
#    0.000    0.000    0.000    0.000    0.000    0.000 
#
# Total GULP energy -67015.900117 kJ/mol
# GULP energy per Si atom -5584.658343 kJ/mol
# Density = 2.497624 g / cm^3
# Si number density = 25.033221 Si / 1000 Ang^3
#
#
#
# Elastic Constant Matrix: (Units=GPa)
#
#
# Indices 1 2 3 4 5 6 
#
# 1 99.4776 45.3516 65.7674 2.9210 31.4560 41.3220
# 2 45.3516 101.9472 62.6583 -13.2290 17.3453 31.1241
# 3 65.7674 62.6583 232.4803 -10.7590 40.1918 35.4560
# 4 2.9210 -13.2290 -10.7590 48.9688 5.7172 2.5954
# 5 31.4560 17.3453 40.1918 5.7172 43.2861 17.2128
# 6 41.3220 31.1241 35.4560 2.5954 17.2128 69.5647
#
#
#
# Elastic Compliance Matrix: (Units=1/GPa)
#
#
# Indices 1 2 3 4 5 6 
#
# 1 0.017918 -0.003898 -0.001931 -0.001399 -0.007048 -0.006119
# 2 -0.003898 0.014298 -0.002054 0.003839 -0.000259 -0.003114
# 3 -0.001931 -0.002054 0.006107 0.001326 -0.003531 -0.000222
# 4 -0.001399 0.003839 0.001326 0.022392 -0.004167 -0.001367
# 5 -0.007048 -0.000259 -0.003531 -0.004167 0.032905 -0.001885
# 6 -0.006119 -0.003114 -0.000222 -0.001367 -0.001885 0.020034
#
#
# Mechanical properties :
#
#
# Convention : Reuss Voigt Hill
#
# Bulk Modulus (GPa) = 44.33237 86.82887 65.58062
# Shear Modulus (GPa) = 36.51239 49.70579 43.10909
#
# Velocity S-wave (km/s) = 3.82325 4.46083 4.15429
# Velocity P-wave (km/s) = 6.10225 7.82897 7.01891
#
# Compressibility (1/GPa) = 0.02255688
#
# Stress axis : x y z
#
# Youngs Moduli (GPa) = 55.81006 69.93869 163.74676
#
# Poissons Ratio (x) = 0.27264 0.31626
# Poissons Ratio (y) = 0.21756 0.33626
# Poissons Ratio (z) = 0.10779 0.14362
#
# Static dielectric constant tensor:
#      x y z
#    x 2.126580 0.035550 0.024370 
#    y 0.035550 1.926490 0.049910 
#    z 0.024370 0.049910 2.020730 
# 
# From -- ./inp_files/274399.got.cif
#   From: 2010.05.17/outbox.cif.g08.bks.cpg/sg2_138_cif.got.tgz:274399.got - 2010.06.03 11:33:40.
