data_PCOD9037867
_publ_section_title
;
Structure prediction by ZEFSAII (Michael W. Deem and Ramdas Pophale) SiO2 
 PCOD9037867
Probable space group: P -1
;
_chemical_formula_sum "Si O2"
_cell_formula_units_Z 14
_cell_length_a 13.959254
_cell_length_b 5.285234
_cell_length_c 22.375519
_cell_angle_alpha 109.804309
_cell_angle_beta 157.035488
_cell_angle_gamma 71.633898
_cell_volume 605.968905
_symmetry_space_group_name_H-M "P -1"
_symmetry_group_IT_number 2
_symmetry_cell_setting 'triclinic'
loop_
_space_group_symop_operation_xyz
x,y,z
-x,-y,-z
loop_
_atom_site_type_symbol
_atom_site_label
_atom_site_fract_x
_atom_site_fract_y
_atom_site_fract_z
Si Si1 0.285905 0.362519 0.944438
Si Si2 0.434317 0.949864 0.357626
Si Si3 0.851614 0.221829 0.396040
Si Si4 0.439871 0.121239 0.885544
Si Si5 0.394275 0.532278 0.205839
Si Si6 0.061028 0.266738 0.092852
Si Si7 0.727283 0.309691 0.632813
O O1 0.349996 0.253208 0.906106
O O2 0.997451 0.421157 0.787384
O O3 0.453188 0.627773 0.070540
O O4 0.348943 0.102445 0.999990
O O5 0.502790 0.793769 0.322924
O O6 0.310179 0.787793 0.328348
O O7 0.228869 0.168065 0.235914
O O8 0.676406 0.066425 0.537565
O O9 0.596989 0.315900 0.287795
O O10 0.000000 0.500000 0.500000
O O11 0.774760 0.058965 0.279885
O O12 0.000000 0.000000 0.500000
O O13 0.227781 0.428789 0.155904
O O14 0.206692 0.591101 0.048020
O O15 0.000000 0.000000 0.000000
O O16 0.500000 0.500000 0.500000
#
# Coordination Sequence:
#
# PCOD9037867 Si02
#       7
#     2   2   2   2   2   2   2
#     4  10  24  47  76  99 140 185 239 300 346 417
#     4  10  23  41  64 105 141 184 235 289 370 425
#     4  12  29  47  73 110 144 189 238 299 362 435
#     4  10  24  49  73 104 132 189 244 289 353 417
#     4  10  23  44  68 101 138 189 230 294 362 431
#     4   9  20  41  68  96 134 184 231 282 354 427
#     4  11  25  41  66 107 139 184 234 297 361 421
#
# _framework density 23.103494999999999
#
# number of rings (size 3 to 8) (size 9 to 14) (size 15 to 20)
#    0.000    1.714    0.000    1.714   10.000    5.714 
#    2.571    0.000    0.000    0.000    0.000    0.000 
#    0.000    0.000    0.000    0.000    0.000    0.000 
#
# Total GULP energy -78168.715203 kJ/mol
# GULP energy per Si atom -5583.479657 kJ/mol
# Density = 2.305091 g / cm^3
# Si number density = 23.103495 Si / 1000 Ang^3
#
#
#
# Elastic Constant Matrix: (Units=GPa)
#
#
# Indices 1 2 3 4 5 6 
#
# 1 44.5575 28.9330 22.5511 -9.5609 -15.7182 1.4544
# 2 28.9330 121.0930 43.2406 -8.3841 -3.5176 0.4684
# 3 22.5511 43.2406 107.3193 -5.0458 -12.8629 0.9135
# 4 -9.5609 -8.3841 -5.0458 67.1714 -4.3904 -5.0158
# 5 -15.7182 -3.5176 -12.8629 -4.3904 35.3849 -2.2898
# 6 1.4544 0.4684 0.9135 -5.0158 -2.2898 38.1019
#
#
#
# Elastic Compliance Matrix: (Units=1/GPa)
#
#
# Indices 1 2 3 4 5 6 
#
# 1 0.033934 -0.006431 -0.002629 0.004775 0.014092 0.000322
# 2 -0.006431 0.010925 -0.003412 -0.000004 -0.003010 0.000012
# 3 -0.002629 -0.003412 0.011585 0.000254 0.002740 0.000063
# 4 0.004775 -0.000004 0.000254 0.016032 0.004344 0.002183
# 5 0.014092 -0.003010 0.002740 0.004344 0.035896 0.002162
# 6 0.000322 0.000012 0.000063 0.002183 0.002162 0.026649
#
#
# Mechanical properties :
#
#
# Convention : Reuss Voigt Hill
#
# Bulk Modulus (GPa) = 31.74398 51.37990 41.56194
# Shear Modulus (GPa) = 29.33157 40.01464 34.67311
#
# Velocity S-wave (km/s) = 3.56697 4.16621 3.87818
# Velocity P-wave (km/s) = 5.54384 6.74021 6.17108
#
# Compressibility (1/GPa) = 0.03150204
#
# Stress axis : x y z
#
# Youngs Moduli (GPa) = 29.46863 91.53234 86.31978
#
# Poissons Ratio (x) = 0.58860 0.22692
# Poissons Ratio (y) = 0.18950 0.29450
# Poissons Ratio (z) = 0.07747 0.31228
#
# Static dielectric constant tensor:
#      x y z
#    x 0.000000 0.000000 0.000000 
#    y 0.000000 0.000000 0.000000 
#    z 0.000000 0.000000 0.000000 
# 
# From -- ./inp_files/611197.got.cif
#   From: 2010.05.17/outbox.cif.g08.bks.cpg/sg2_306_cif.got.tgz:611197.got - 2010.06.03 11:33:40.
