data_PCOD9037290
_publ_section_title
;
Structure prediction by ZEFSAII (Michael W. Deem and Ramdas Pophale) SiO2 
 PCOD9037290
Probable space group: P -1
;
_chemical_formula_sum "Si O2"
_cell_formula_units_Z 16
_cell_length_a 15.735668
_cell_length_b 8.777849
_cell_length_c 18.940681
_cell_angle_alpha 148.362469
_cell_angle_beta 152.870412
_cell_angle_gamma 37.506433
_cell_volume 618.818211
_symmetry_space_group_name_H-M "P -1"
_symmetry_group_IT_number 2
_symmetry_cell_setting 'triclinic'
loop_
_space_group_symop_operation_xyz
x,y,z
-x,-y,-z
loop_
_atom_site_type_symbol
_atom_site_label
_atom_site_fract_x
_atom_site_fract_y
_atom_site_fract_z
Si Si1 0.298926 0.617414 0.862426
Si Si2 0.547675 0.588123 0.720531
Si Si3 0.773014 0.839877 0.085638
Si Si4 0.336672 0.070393 0.309455
Si Si5 0.194983 0.867058 0.625824
Si Si6 0.695789 0.900599 0.437640
Si Si7 0.091510 0.221672 0.311931
Si Si8 0.805170 0.491255 0.742760
O O1 0.286777 0.881812 0.900862
O O2 0.235412 0.345373 0.665055
O O3 0.133381 0.722711 0.837456
O O4 0.500000 0.500000 0.000000
O O5 0.472963 0.283202 0.530293
O O6 0.367563 0.841280 0.688836
O O7 0.709772 0.616458 0.794569
O O8 0.630666 0.618263 0.871532
O O9 0.766327 0.957725 0.206544
O O10 0.980659 0.663722 0.155883
O O11 0.191580 0.022273 0.244571
O O12 0.219757 0.266359 0.240513
O O13 0.492834 0.845645 0.295716
O O14 0.168206 0.532864 0.490035
O O15 0.000000 0.000000 0.500000
O O16 0.840626 0.897560 0.608445
O O17 0.684451 0.230558 0.530196
#
# Coordination Sequence:
#
# PCOD9037290 Si02
#       8
#     2   2   2   2   2   2   2   2
#     4  12  28  41  67  97 134 180 215 275 341 396
#     4  10  23  40  64  99 132 169 218 275 331 380
#     4  12  23  43  65  99 139 171 221 275 337 398
#     4  10  24  42  72  99 125 177 229 277 321 389
#     4  11  24  42  70  99 133 177 224 276 328 396
#     4  11  21  45  69  95 134 173 231 264 328 405
#     4  11  22  45  64  97 130 173 226 270 327 396
#     4  11  23  43  70  98 129 181 227 274 322 396
#
# _framework density 25.855737000000001
#
# number of rings (size 3 to 8) (size 9 to 14) (size 15 to 20)
#    0.000    1.000    2.500    5.250    5.250    0.000 
#    2.250    0.625    0.000    0.000    0.000    0.000 
#    0.000    0.000    0.000    0.000    0.000    0.000 
#
# Total GULP energy -89653.737335 kJ/mol
# GULP energy per Si atom -5603.358583 kJ/mol
# Density = 2.579689 g / cm^3
# Si number density = 25.855737 Si / 1000 Ang^3
#
#
#
# Elastic Constant Matrix: (Units=GPa)
#
#
# Indices 1 2 3 4 5 6 
#
# 1 109.2313 41.0839 33.1858 -20.5891 -10.3484 -30.1496
# 2 41.0839 110.9714 29.2799 -30.3891 -3.0746 -19.4359
# 3 33.1858 29.2799 67.6608 -14.7028 -18.1028 -7.4727
# 4 -20.5891 -30.3891 -14.7028 49.2994 -8.4679 8.2647
# 5 -10.3484 -3.0746 -18.1028 -8.4679 30.6817 -9.1636
# 6 -30.1496 -19.4359 -7.4727 8.2647 -9.1636 48.7775
#
#
#
# Elastic Compliance Matrix: (Units=1/GPa)
#
#
# Indices 1 2 3 4 5 6 
#
# 1 0.014301 -0.001939 -0.002718 0.003703 0.006510 0.008246
# 2 -0.001939 0.012540 -0.002427 0.006024 0.001644 0.002715
# 3 -0.002718 -0.002427 0.022753 0.006261 0.014754 0.002549
# 4 0.003703 0.006024 0.006261 0.029356 0.014673 0.003431
# 5 0.006510 0.001644 0.014754 0.014673 0.051953 0.014213
# 6 0.008246 0.002715 0.002549 0.003431 0.014213 0.029159
#
#
# Mechanical properties :
#
#
# Convention : Reuss Voigt Hill
#
# Bulk Modulus (GPa) = 28.22817 54.99586 41.61202
# Shear Modulus (GPa) = 26.87620 38.03930 32.45775
#
# Velocity S-wave (km/s) = 3.22758 3.83980 3.54692
# Velocity P-wave (km/s) = 4.98306 6.40119 5.73612
#
# Compressibility (1/GPa) = 0.03542560
#
# Stress axis : x y z
#
# Youngs Moduli (GPa) = 69.92762 79.74438 43.95092
#
# Poissons Ratio (x) = 0.15460 0.11946
# Poissons Ratio (y) = 0.13557 0.10668
# Poissons Ratio (z) = 0.19006 0.19355
#
# Static dielectric constant tensor:
#      x y z
#    x 2.077350 0.075190 0.034920 
#    y 0.075190 2.132180 -0.015550 
#    z 0.034920 -0.015550 2.032620 
# 
# From -- ./inp_files/572951.got.cif
#   From: 2010.05.17/outbox.cif.g08.bks.cpg/sg2_287_cif.got.tgz:572951.got - 2010.06.03 11:33:40.
