data_PCOD9037342
_publ_section_title
;
Structure prediction by ZEFSAII (Michael W. Deem and Ramdas Pophale) SiO2 
 PCOD9037342
Probable space group: P -1
;
_chemical_formula_sum "Si O2"
_cell_formula_units_Z 16
_cell_length_a 16.833601
_cell_length_b 11.699693
_cell_length_c 9.210834
_cell_angle_alpha 78.822600
_cell_angle_beta 69.023304
_cell_angle_gamma 138.991095
_cell_volume 725.855242
_symmetry_space_group_name_H-M "P -1"
_symmetry_group_IT_number 2
_symmetry_cell_setting 'triclinic'
loop_
_space_group_symop_operation_xyz
x,y,z
-x,-y,-z
loop_
_atom_site_type_symbol
_atom_site_label
_atom_site_fract_x
_atom_site_fract_y
_atom_site_fract_z
Si Si1 0.738879 0.312106 0.414290
Si Si2 0.182935 0.789207 0.386681
Si Si3 0.185709 0.387864 0.517496
Si Si4 0.635508 0.884422 0.096617
Si Si5 0.106583 0.397885 0.255412
Si Si6 0.291660 0.818878 0.835692
Si Si7 0.051720 0.131733 0.122778
Si Si8 0.293456 0.260250 0.774215
O O1 0.727303 0.194732 0.568409
O O2 0.854097 0.560864 0.349943
O O3 0.808305 0.344363 0.208282
O O4 0.522089 0.094832 0.588114
O O5 0.000000 0.500000 0.500000
O O6 0.099996 0.794443 0.532696
O O7 0.316501 0.002187 0.118888
O O8 0.404415 0.609814 0.339878
O O9 0.175966 0.437702 0.355696
O O10 0.042036 0.101925 0.693555
O O11 0.700696 0.832557 0.085230
O O12 0.742347 0.096024 0.095605
O O13 0.238038 0.660378 0.034277
O O14 0.097455 0.281072 0.178147
O O15 0.885767 0.976195 0.161861
O O16 0.242178 0.322396 0.863390
O O17 0.500000 0.500000 0.500000
#
# Coordination Sequence:
#
# PCOD9037342 Si02
#       8
#     2   2   2   2   2   2   2   2
#     4  10  23  40  65  96 131 171 228 273 349 402
#     4  12  23  41  64  98 137 179 221 278 344 408
#     4  11  22  45  68  93 140 185 223 283 341 401
#     4  11  23  43  70  97 132 182 233 277 345 406
#     4  12  25  42  65  99 139 172 229 279 343 400
#     4  10  23  40  66  99 128 171 221 295 333 404
#     4  11  27  44  70 101 137 181 227 285 335 402
#     4  11  25  48  72 101 135 180 232 279 341 401
#
# _framework density 22.042961999999999
#
# number of rings (size 3 to 8) (size 9 to 14) (size 15 to 20)
#    0.000    1.000    3.750    1.875    5.250    3.500 
#    2.250    1.250    0.000    0.000    0.000    0.000 
#    0.000    0.000    0.000    0.000    0.000    0.000 
#
# Total GULP energy -89517.986679 kJ/mol
# GULP energy per Si atom -5594.874167 kJ/mol
# Density = 2.199279 g / cm^3
# Si number density = 22.042962 Si / 1000 Ang^3
#
#
#
# Elastic Constant Matrix: (Units=GPa)
#
#
# Indices 1 2 3 4 5 6 
#
# 1 95.4977 11.2848 10.0668 2.3146 -7.9286 -7.5436
# 2 11.2848 77.8848 3.6796 16.1356 -21.8490 -21.9888
# 3 10.0668 3.6796 87.4135 -1.7814 -10.8321 -14.3080
# 4 2.3146 16.1356 -1.7814 25.1477 -2.7608 -0.7512
# 5 -7.9286 -21.8490 -10.8321 -2.7608 46.3539 10.2256
# 6 -7.5436 -21.9888 -14.3080 -0.7512 10.2256 30.6411
#
#
#
# Elastic Compliance Matrix: (Units=1/GPa)
#
#
# Indices 1 2 3 4 5 6 
#
# 1 0.010855 -0.000796 -0.000884 -0.000406 0.000950 0.001361
# 2 -0.000796 0.020957 0.001946 -0.012120 0.006548 0.013270
# 3 -0.000884 0.001946 0.012799 0.000189 0.002363 0.006372
# 4 -0.000406 -0.012120 0.000189 0.047231 -0.001359 -0.007098
# 5 0.000950 0.006548 0.002363 -0.001359 0.025874 -0.002632
# 6 0.001361 0.013270 0.006372 -0.007098 -0.002632 0.046173
#
#
# Mechanical properties :
#
#
# Convention : Reuss Voigt Hill
#
# Bulk Modulus (GPa) = 22.15206 34.53984 28.34595
# Shear Modulus (GPa) = 28.02592 36.14619 32.08606
#
# Velocity S-wave (km/s) = 3.56957 4.05385 3.81939
# Velocity P-wave (km/s) = 5.20196 6.13310 5.68662
#
# Compressibility (1/GPa) = 0.04514253
#
# Stress axis : x y z
#
# Youngs Moduli (GPa) = 92.12338 47.71658 78.12902
#
# Poissons Ratio (x) = 0.03798 0.06909
# Poissons Ratio (y) = 0.07333 -0.15203
# Poissons Ratio (z) = 0.08146 -0.09285
#
# Static dielectric constant tensor:
#      x y z
#    x 1.797960 0.001130 -0.010060 
#    y 0.001130 1.790980 0.001880 
#    z -0.010060 0.001880 1.844480 
# 
# From -- ./inp_files/306135.got.cif
#   From: 2010.05.17/outbox.cif.g08.bks.cpg/sg2_154_cif.got.tgz:306135.got - 2010.06.03 11:33:40.
