data_PCOD9037935
_publ_section_title
;
Structure prediction by ZEFSAII (Michael W. Deem and Ramdas Pophale) SiO2 
 PCOD9037935
Probable space group: P -1
;
_chemical_formula_sum "Si O2"
_cell_formula_units_Z 16
_cell_length_a 5.056653
_cell_length_b 9.215044
_cell_length_c 19.128144
_cell_angle_alpha 136.659744
_cell_angle_beta 71.221759
_cell_angle_gamma 110.705301
_cell_volume 569.308371
_symmetry_space_group_name_H-M "P -1"
_symmetry_group_IT_number 2
_symmetry_cell_setting 'triclinic'
loop_
_space_group_symop_operation_xyz
x,y,z
-x,-y,-z
loop_
_atom_site_type_symbol
_atom_site_label
_atom_site_fract_x
_atom_site_fract_y
_atom_site_fract_z
Si Si1 0.967337 0.198552 0.016542
Si Si2 0.192937 0.563840 0.056497
Si Si3 0.214312 0.345144 0.494502
Si Si4 0.117696 0.785107 0.638500
Si Si5 0.501269 0.325942 0.191211
Si Si6 0.563558 0.983233 0.178279
Si Si7 0.379168 0.013915 0.438166
Si Si8 0.909819 0.433879 0.761513
O O1 0.900350 0.380358 0.003104
O O2 0.648436 0.220857 0.078351
O O3 0.204692 0.123938 0.920048
O O4 0.000000 0.000000 0.000000
O O5 0.130811 0.461094 0.119354
O O6 0.281843 0.810511 0.160447
O O7 0.500000 0.500000 0.000000
O O8 0.500000 0.500000 0.500000
O O9 0.032076 0.534503 0.582157
O O10 0.173107 0.189447 0.509591
O O11 0.145399 0.191276 0.379297
O O12 0.250092 0.920464 0.738697
O O13 0.361967 0.854585 0.583335
O O14 0.468810 0.165337 0.202043
O O15 0.216132 0.398901 0.217538
O O16 0.750203 0.531178 0.259693
O O17 0.500000 0.000000 0.500000
O O18 0.254426 0.795985 0.330258
#
# Coordination Sequence:
#
# PCOD9037935 Si02
#       8
#     2   2   2   2   2   2   2   2
#     4   9  23  45  67 100 149 185 246 302 367 437
#     4  10  23  41  64  99 138 186 240 296 358 430
#     4   9  22  46  69 106 142 187 238 320 372 453
#     4  10  23  45  74 106 148 183 258 305 382 452
#     4  10  25  43  70 102 153 190 255 297 368 441
#     4  11  23  44  73 108 141 206 240 308 377 451
#     4  11  25  45  73 103 142 197 245 309 389 448
#     4  10  25  44  69 106 147 191 248 311 361 445
#
# _framework density 28.104275999999999
#
# number of rings (size 3 to 8) (size 9 to 14) (size 15 to 20)
#    0.750    1.250    0.000    1.125    7.000    6.000 
#   15.750    0.000    0.000    0.000    0.000    0.000 
#    0.000    0.000    0.000    0.000    0.000    0.000 
#
# Total GULP energy -89126.677726 kJ/mol
# GULP energy per Si atom -5570.417358 kJ/mol
# Density = 2.804031 g / cm^3
# Si number density = 28.104276 Si / 1000 Ang^3
#
#
#
# Elastic Constant Matrix: (Units=GPa)
#
#
# Indices 1 2 3 4 5 6 
#
# 1 83.8344 27.7036 42.5354 2.1920 38.1564 -19.7195
# 2 27.7036 193.4251 98.6377 -1.9892 28.4428 2.8521
# 3 42.5354 98.6377 213.5085 7.0772 53.3968 6.4654
# 4 2.1920 -1.9892 7.0772 40.9326 12.5613 8.7415
# 5 38.1564 28.4428 53.3968 12.5613 54.7816 0.5134
# 6 -19.7195 2.8521 6.4654 8.7415 0.5134 47.0714
#
#
#
# Elastic Compliance Matrix: (Units=1/GPa)
#
#
# Indices 1 2 3 4 5 6 
#
# 1 0.020856 -0.000725 -0.000653 0.001356 -0.013907 0.008771
# 2 -0.000725 0.006854 -0.002931 0.001128 -0.000451 -0.000521
# 3 -0.000653 -0.002931 0.007562 0.000524 -0.005504 -0.001172
# 4 0.001356 0.001128 0.000524 0.027893 -0.008393 -0.004661
# 5 -0.013907 -0.000451 -0.005504 -0.008393 0.035501 -0.003871
# 6 0.008771 -0.000521 -0.001172 -0.004661 -0.003871 0.026019
#
#
# Mechanical properties :
#
#
# Convention : Reuss Voigt Hill
#
# Bulk Modulus (GPa) = 37.51476 92.05792 64.78634
# Shear Modulus (GPa) = 35.16484 50.01653 42.59069
#
# Velocity S-wave (km/s) = 3.54111 4.22320 3.89710
# Velocity P-wave (km/s) = 5.48604 7.52379 6.58423
#
# Compressibility (1/GPa) = 0.02665617
#
# Stress axis : x y z
#
# Youngs Moduli (GPa) = 47.94712 145.90086 132.23380
#
# Poissons Ratio (x) = 0.10573 0.08630
# Poissons Ratio (y) = 0.03475 0.38757
# Poissons Ratio (z) = 0.03129 0.42763
#
# Static dielectric constant tensor:
#      x y z
#    x 2.575630 0.026220 -0.265570 
#    y 0.026220 2.439240 0.229190 
#    z -0.265570 0.229190 2.231660 
# 
# From -- ./inp_files/548207.got.cif
#   From: 2010.05.17/outbox.cif.g08.bks.cpg/sg2_275_cif.got.tgz:548207.got - 2010.06.03 11:33:40.
