data_PCOD9037172
_publ_section_title
;
Structure prediction by ZEFSAII (Michael W. Deem and Ramdas Pophale) SiO2 
 PCOD9037172
Probable space group: P -1
;
_chemical_formula_sum "Si O2"
_cell_formula_units_Z 16
_cell_length_a 17.007447
_cell_length_b 9.075723
_cell_length_c 11.585601
_cell_angle_alpha 57.352334
_cell_angle_beta 29.424124
_cell_angle_gamma 48.964865
_cell_volume 660.153968
_symmetry_space_group_name_H-M "P -1"
_symmetry_group_IT_number 2
_symmetry_cell_setting 'triclinic'
loop_
_space_group_symop_operation_xyz
x,y,z
-x,-y,-z
loop_
_atom_site_type_symbol
_atom_site_label
_atom_site_fract_x
_atom_site_fract_y
_atom_site_fract_z
Si Si1 0.052723 0.165704 0.326095
Si Si2 0.418895 0.610777 0.770836
Si Si3 0.653062 0.042876 0.106727
Si Si4 0.488863 0.334034 0.000983
Si Si5 0.852726 0.728037 0.599669
Si Si6 0.077054 0.442828 0.754892
Si Si7 0.694595 0.653538 0.265757
Si Si8 0.997881 0.159492 0.841927
O O1 0.158915 0.205357 0.280146
O O2 0.894080 0.385797 0.416653
O O3 0.000000 0.000000 0.500000
O O4 0.135986 0.103708 0.116337
O O5 0.408924 0.792348 0.786963
O O6 0.549664 0.578771 0.510795
O O7 0.498162 0.415105 0.828834
O O8 0.211061 0.688470 0.973244
O O9 0.623618 0.141885 0.977452
O O10 0.582498 0.882379 0.279726
O O11 0.320004 0.286434 0.222799
O O12 0.500000 0.500000 0.000000
O O13 0.000000 0.500000 0.500000
O O14 0.917436 0.866570 0.384415
O O15 0.110824 0.259333 0.712738
O O16 0.199785 0.369924 0.739610
O O17 0.862606 0.536025 0.016928
O O18 0.000000 0.000000 0.000000
#
# Coordination Sequence:
#
# PCOD9037172 Si02
#       8
#     2   2   2   2   2   2   2   2
#     4  11  24  40  72 100 138 179 226 288 340 405
#     4  11  22  40  65  97 128 175 227 275 333 415
#     4  10  23  40  62  96 132 170 228 273 335 394
#     4  10  24  40  68  97 132 178 225 283 337 401
#     4  12  24  46  69  97 137 180 229 280 339 414
#     4  10  23  44  65  97 136 178 225 284 342 405
#     4  10  23  40  66  92 130 175 224 274 336 408
#     4  12  26  42  69  98 137 177 229 281 345 405
#
# _framework density 24.23677
#
# number of rings (size 3 to 8) (size 9 to 14) (size 15 to 20)
#    0.000    1.250    2.500    1.875    8.750    3.000 
#    0.000    0.000    0.000    0.000    0.000    0.000 
#    0.000    0.000    0.000    0.000    0.000    0.000 
#
# Total GULP energy -89184.303664 kJ/mol
# GULP energy per Si atom -5574.018979 kJ/mol
# Density = 2.418161 g / cm^3
# Si number density = 24.236770 Si / 1000 Ang^3
#
#
#
# Elastic Constant Matrix: (Units=GPa)
#
#
# Indices 1 2 3 4 5 6 
#
# 1 85.3657 31.5954 26.7503 -6.5676 3.1164 2.9513
# 2 31.5954 83.4734 25.3820 -29.0953 17.3960 -1.3081
# 3 26.7503 25.3820 123.4863 -24.9596 5.3334 0.1919
# 4 -6.5676 -29.0953 -24.9596 47.1855 -13.6984 16.6028
# 5 3.1164 17.3960 5.3334 -13.6984 34.3230 -7.2575
# 6 2.9513 -1.3081 0.1919 16.6028 -7.2575 31.2488
#
#
#
# Elastic Compliance Matrix: (Units=1/GPa)
#
#
# Indices 1 2 3 4 5 6 
#
# 1 0.014411 -0.005816 -0.002501 -0.002630 0.000986 0.000037
# 2 -0.005816 0.019377 -0.000133 0.011489 -0.005984 -0.006133
# 3 -0.002501 -0.000133 0.009850 0.005942 0.000530 -0.002864
# 4 -0.002630 0.011489 0.005942 0.039212 0.005136 -0.018948
# 5 0.000986 -0.005984 0.000530 0.005136 0.035120 0.005081
# 6 0.000037 -0.006133 -0.002864 -0.018948 0.005081 0.043006
#
#
# Mechanical properties :
#
#
# Convention : Reuss Voigt Hill
#
# Bulk Modulus (GPa) = 37.39820 51.08674 44.24247
# Shear Modulus (GPa) = 26.76843 36.45798 31.61320
#
# Velocity S-wave (km/s) = 3.32694 3.88266 3.61549
# Velocity P-wave (km/s) = 5.49744 6.42060 5.97687
#
# Compressibility (1/GPa) = 0.02673926
#
# Stress axis : x y z
#
# Youngs Moduli (GPa) = 69.39236 51.60706 101.52760
#
# Poissons Ratio (x) = 0.30014 0.25387
# Poissons Ratio (y) = 0.40357 0.01348
# Poissons Ratio (z) = 0.17352 0.00685
#
# Static dielectric constant tensor:
#      x y z
#    x 1.939250 -0.015170 -0.012260 
#    y -0.015170 2.026680 0.043160 
#    z -0.012260 0.043160 2.061240 
# 
# From -- ./inp_files/461875.got.cif
#   From: 2010.05.17/outbox.cif.g08.bks.cpg/sg2_231_cif.got.tgz:461875.got - 2010.06.03 11:33:40.
