data_PCOD9037525
_publ_section_title
;
Structure prediction by ZEFSAII (Michael W. Deem and Ramdas Pophale) SiO2 
 PCOD9037525
Probable space group: P -1
;
_chemical_formula_sum "Si O2"
_cell_formula_units_Z 14
_cell_length_a 12.391707
_cell_length_b 7.917639
_cell_length_c 8.923569
_cell_angle_alpha 89.432344
_cell_angle_beta 49.578204
_cell_angle_gamma 93.572831
_cell_volume 663.769515
_symmetry_space_group_name_H-M "P -1"
_symmetry_group_IT_number 2
_symmetry_cell_setting 'triclinic'
loop_
_space_group_symop_operation_xyz
x,y,z
-x,-y,-z
loop_
_atom_site_type_symbol
_atom_site_label
_atom_site_fract_x
_atom_site_fract_y
_atom_site_fract_z
Si Si1 0.032513 0.476339 0.730247
Si Si2 0.514977 0.549380 0.246586
Si Si3 0.687931 0.636591 0.791339
Si Si4 0.771311 0.412378 0.193969
Si Si5 0.609273 0.126157 0.493857
Si Si6 0.123720 0.679489 0.378383
Si Si7 0.657729 0.005039 0.780465
O O1 0.168611 0.483487 0.715208
O O2 0.058261 0.647221 0.603677
O O3 0.996972 0.330155 0.639913
O O4 0.895596 0.453375 0.960400
O O5 0.397851 0.410816 0.284498
O O6 0.628967 0.470141 0.248846
O O7 0.456407 0.705839 0.383897
O O8 0.588142 0.619808 0.027301
O O9 0.791965 0.488833 0.718332
O O10 0.732657 0.834926 0.745418
O O11 0.737376 0.215525 0.275627
O O12 0.647477 0.030136 0.610823
O O13 0.500000 0.000000 0.500000
O O14 0.240117 0.835214 0.256567
O O15 0.500000 0.000000 0.000000
#
# Coordination Sequence:
#
# PCOD9037525 Si02
#       7
#     2   2   2   2   2   2   2
#     4  10  23  40  68  87 131 184 224 258 313 397
#     4  11  21  40  65 101 134 168 214 274 335 395
#     4  11  21  39  72 101 129 166 221 276 330 383
#     4  11  22  41  66  93 130 182 214 264 334 390
#     4  12  25  39  64 103 138 166 209 280 346 387
#     4  11  22  45  68  96 129 178 226 265 319 389
#     4  12  23  40  68 101 135 163 218 278 331 388
#
# _framework density 21.091659
#
# number of rings (size 3 to 8) (size 9 to 14) (size 15 to 20)
#    0.000    0.857    5.714    2.143    2.000    1.143 
#    0.000    2.857    6.286    3.429    0.000    0.000 
#    0.000    0.000    0.000    0.000    0.000    0.000 
#
# Total GULP energy -78101.772917 kJ/mol
# GULP energy per Si atom -5578.698065 kJ/mol
# Density = 2.104365 g / cm^3
# Si number density = 21.091659 Si / 1000 Ang^3
#
#
#
# Elastic Constant Matrix: (Units=GPa)
#
#
# Indices 1 2 3 4 5 6 
#
# 1 96.1062 26.9089 13.1693 -1.0745 24.1099 30.8380
# 2 26.9089 130.5765 45.2561 -19.0907 -4.4097 14.1380
# 3 13.1693 45.2561 127.0061 -20.0644 8.3675 9.1838
# 4 -1.0745 -19.0907 -20.0644 32.9296 2.9449 -3.8056
# 5 24.1099 -4.4097 8.3675 2.9449 30.6575 -2.8346
# 6 30.8380 14.1380 9.1838 -3.8056 -2.8346 40.1313
#
#
#
# Elastic Compliance Matrix: (Units=1/GPa)
#
#
# Indices 1 2 3 4 5 6 
#
# 1 0.021659 -0.003934 0.001540 -0.000863 -0.019514 -0.017070
# 2 -0.003934 0.010119 -0.003039 0.003527 0.005119 0.000850
# 3 0.001540 -0.003039 0.010020 0.004575 -0.005037 -0.002327
# 4 -0.000863 0.003527 0.004575 0.035646 -0.003346 0.001518
# 5 -0.019514 0.005119 -0.005037 -0.003346 0.052034 0.017703
# 6 -0.017070 0.000850 -0.002327 0.001518 0.017703 0.039663
#
#
# Mechanical properties :
#
#
# Convention : Reuss Voigt Hill
#
# Bulk Modulus (GPa) = 32.33098 58.26195 45.29647
# Shear Modulus (GPa) = 26.27174 38.63400 32.45287
#
# Velocity S-wave (km/s) = 3.53313 4.28450 3.92683
# Velocity P-wave (km/s) = 5.65739 7.22213 6.48711
#
# Compressibility (1/GPa) = 0.03093009
#
# Stress axis : x y z
#
# Youngs Moduli (GPa) = 46.17061 98.82495 99.80137
#
# Poissons Ratio (x) = 0.38878 -0.15365
# Poissons Ratio (y) = 0.18164 0.30333
# Poissons Ratio (z) = -0.07108 0.30036
#
# Static dielectric constant tensor:
#      x y z
#    x 1.788650 -0.003010 -0.004690 
#    y -0.003010 1.744770 -0.006040 
#    z -0.004690 -0.006040 1.856610 
# 
# From -- ./inp_files/195811.got.cif
#   From: 2010.05.17/outbox.cif.g08.bks.cpg/sg2_98_cif.got.tgz:195811.got - 2010.06.03 11:33:40.
