data_PCOD9037607
_publ_section_title
;
Structure prediction by ZEFSAII (Michael W. Deem and Ramdas Pophale) SiO2 
 PCOD9037607
Probable space group: P -1
;
_chemical_formula_sum "Si O2"
_cell_formula_units_Z 16
_cell_length_a 11.597012
_cell_length_b 9.513086
_cell_length_c 15.050285
_cell_angle_alpha 42.374231
_cell_angle_beta 112.586738
_cell_angle_gamma 137.505829
_cell_volume 707.322487
_symmetry_space_group_name_H-M "P -1"
_symmetry_group_IT_number 2
_symmetry_cell_setting 'triclinic'
loop_
_space_group_symop_operation_xyz
x,y,z
-x,-y,-z
loop_
_atom_site_type_symbol
_atom_site_label
_atom_site_fract_x
_atom_site_fract_y
_atom_site_fract_z
Si Si1 0.728136 0.327201 0.182942
Si Si2 0.583680 0.746198 0.333526
Si Si3 0.959123 0.597538 0.294601
Si Si4 0.871133 0.548388 0.932779
Si Si5 0.666454 0.224312 0.854411
Si Si6 0.150275 0.243370 0.653154
Si Si7 0.610356 0.846833 0.873539
Si Si8 0.048654 0.280616 0.424761
O O1 0.520324 0.149847 0.219244
O O2 0.858449 0.547615 0.198636
O O3 0.717184 0.068650 0.274898
O O4 0.803831 0.518520 0.025261
O O5 0.500000 0.500000 0.500000
O O6 0.449453 0.731111 0.245153
O O7 0.684810 0.717963 0.307760
O O8 0.918680 0.298165 0.421331
O O9 0.877285 0.620230 0.342968
O O10 0.179485 0.900558 0.214613
O O11 0.705000 0.288564 0.939333
O O12 0.975195 0.876131 0.772527
O O13 0.000000 0.500000 0.000000
O O14 0.860000 0.489401 0.737687
O O15 0.607852 0.931816 0.934052
O O16 0.172514 0.376194 0.501633
O O17 0.500000 0.500000 0.000000
O O18 0.000000 0.000000 0.500000
#
# Coordination Sequence:
#
# PCOD9037607 Si02
#       8
#     2   2   2   2   2   2   2   2
#     4  11  25  47  69 100 145 184 239 289 346 438
#     4  11  23  44  72 103 140 181 236 294 355 427
#     4  11  26  46  70 106 140 187 234 296 369 414
#     4  12  23  41  69 106 135 186 246 288 350 426
#     4  10  23  40  70 102 133 181 237 291 349 417
#     4  12  24  42  71 104 141 181 237 298 352 428
#     4  10  23  44  67  95 142 187 229 288 351 422
#     4  11  20  42  73  98 133 182 230 294 354 415
#
# _framework density 22.620518000000001
#
# number of rings (size 3 to 8) (size 9 to 14) (size 15 to 20)
#    0.000    1.000    3.750    3.375    0.000    5.000 
#    6.750    0.625    0.000    0.000    0.000    0.000 
#    0.000    0.000    0.000    0.000    0.000    0.000 
#
# Total GULP energy -89353.596137 kJ/mol
# GULP energy per Si atom -5584.599759 kJ/mol
# Density = 2.256903 g / cm^3
# Si number density = 22.620518 Si / 1000 Ang^3
#
#
#
# Elastic Constant Matrix: (Units=GPa)
#
#
# Indices 1 2 3 4 5 6 
#
# 1 164.7289 72.1304 12.2329 4.3431 2.8371 -24.9275
# 2 72.1304 137.0510 23.7216 16.9063 7.6197 -10.2298
# 3 12.2329 23.7216 66.3799 -2.6251 2.9350 -10.5546
# 4 4.3431 16.9063 -2.6251 39.1740 -5.9390 5.7012
# 5 2.8371 7.6197 2.9350 -5.9390 29.0243 -8.3923
# 6 -24.9275 -10.2298 -10.5546 5.7012 -8.3923 43.5993
#
#
#
# Elastic Compliance Matrix: (Units=1/GPa)
#
#
# Indices 1 2 3 4 5 6 
#
# 1 0.008582 -0.004485 0.000649 0.000658 0.001633 0.004240
# 2 -0.004485 0.010942 -0.003254 -0.004831 -0.003323 -0.000792
# 3 0.000649 -0.003254 0.016720 0.002024 0.000524 0.003491
# 4 0.000658 -0.004831 0.002024 0.029020 0.006103 -0.002888
# 5 0.001633 -0.003323 0.000524 0.006103 0.038347 0.006864
# 6 0.004240 -0.000792 0.003491 -0.002888 0.006864 0.027719
#
#
# Mechanical properties :
#
#
# Convention : Reuss Voigt Hill
#
# Bulk Modulus (GPa) = 45.32062 64.92552 55.12307
# Shear Modulus (GPa) = 32.70887 39.69784 36.20335
#
# Velocity S-wave (km/s) = 3.80673 4.19375 4.00492
# Velocity P-wave (km/s) = 6.27697 7.22596 6.76812
#
# Compressibility (1/GPa) = 0.02206501
#
# Stress axis : x y z
#
# Youngs Moduli (GPa) = 116.51929 91.39399 59.80860
#
# Poissons Ratio (x) = 0.40988 -0.03882
# Poissons Ratio (y) = 0.52256 0.19460
# Poissons Ratio (z) = -0.07563 0.29738
#
# Static dielectric constant tensor:
#      x y z
#    x 1.911580 0.053800 0.000090 
#    y 0.053800 1.863110 -0.041600 
#    z 0.000090 -0.041600 1.891360 
# 
# From -- ./inp_files/259868.got.cif
#   From: 2010.05.17/outbox.cif.g08.bks.cpg/sg2_130_cif.got.tgz:259868.got - 2010.06.03 11:33:40.
