data_PCOD9037648
_publ_section_title
;
Structure prediction by ZEFSAII (Michael W. Deem and Ramdas Pophale) SiO2 
 PCOD9037648
Probable space group: P -1
;
_chemical_formula_sum "Si O2"
_cell_formula_units_Z 14
_cell_length_a 11.124431
_cell_length_b 9.116931
_cell_length_c 7.501456
_cell_angle_alpha 99.614172
_cell_angle_beta 55.225586
_cell_angle_gamma 76.569778
_cell_volume 563.517073
_symmetry_space_group_name_H-M "P -1"
_symmetry_group_IT_number 2
_symmetry_cell_setting 'triclinic'
loop_
_space_group_symop_operation_xyz
x,y,z
-x,-y,-z
loop_
_atom_site_type_symbol
_atom_site_label
_atom_site_fract_x
_atom_site_fract_y
_atom_site_fract_z
Si Si1 0.370537 0.899539 0.533489
Si Si2 0.541436 0.796592 0.037026
Si Si3 0.815091 0.367563 0.936328
Si Si4 0.054713 0.146470 0.962599
Si Si5 0.487745 0.688326 0.713379
Si Si6 0.672458 0.362104 0.676092
Si Si7 0.897286 0.628914 0.762804
O O1 0.492688 0.771326 0.540742
O O2 0.270239 0.799351 0.523201
O O3 0.246715 0.061072 0.759382
O O4 0.458034 0.923419 0.288805
O O5 0.460078 0.821793 0.919048
O O6 0.727670 0.749026 0.849005
O O7 0.497149 0.645087 0.114005
O O8 0.781811 0.337841 0.751768
O O9 0.842556 0.532097 0.939035
O O10 0.970786 0.238206 0.872795
O O11 0.664793 0.359792 0.167741
O O12 0.019711 0.270726 0.182865
O O13 0.000000 0.000000 0.000000
O O14 0.632892 0.524607 0.627057
O O15 0.000000 0.500000 0.500000
#
# Coordination Sequence:
#
# PCOD9037648 Si02
#       7
#     2   2   2   2   2   2   2
#     4  10  23  40  71 109 143 192 228 295 363 436
#     4   9  21  42  67 105 137 180 246 290 358 419
#     4  11  21  45  73 101 147 184 251 289 353 435
#     4  12  28  46  69 107 151 193 237 291 374 436
#     4  11  17  40  76 106 140 185 240 302 349 435
#     4   9  19  38  73 103 134 184 236 294 352 417
#     4  12  27  49  71 103 146 193 246 305 351 430
#
# _framework density 24.843966999999999
#
# number of rings (size 3 to 8) (size 9 to 14) (size 15 to 20)
#    0.857    0.571    4.286    1.714    2.000    1.143 
#   10.286    0.714    0.000    0.000    0.000    0.000 
#    0.000    0.000    0.000    0.000    0.000    0.000 
#
# Total GULP energy -78189.837721 kJ/mol
# GULP energy per Si atom -5584.988409 kJ/mol
# Density = 2.478742 g / cm^3
# Si number density = 24.843967 Si / 1000 Ang^3
#
#
#
# Elastic Constant Matrix: (Units=GPa)
#
#
# Indices 1 2 3 4 5 6 
#
# 1 145.2278 45.9040 45.3284 -5.4663 9.0245 9.8816
# 2 45.9040 83.3913 28.3577 0.1037 12.1683 5.9837
# 3 45.3284 28.3577 96.0399 21.0908 15.3520 16.0200
# 4 -5.4663 0.1037 21.0908 39.9632 2.6967 -4.6878
# 5 9.0245 12.1683 15.3520 2.6967 43.2807 -3.3039
# 6 9.8816 5.9837 16.0200 -4.6878 -3.3039 31.0571
#
#
#
# Elastic Compliance Matrix: (Units=1/GPa)
#
#
# Indices 1 2 3 4 5 6 
#
# 1 0.009531 -0.003891 -0.004304 0.003617 0.000448 0.000531
# 2 -0.003891 0.015374 -0.002299 0.000745 -0.002797 -0.000723
# 3 -0.004304 -0.002299 0.017863 -0.010803 -0.004848 -0.009548
# 4 0.003617 0.000745 -0.010803 0.032203 0.001572 0.009306
# 5 0.000448 -0.002797 -0.004848 0.001572 0.025869 0.005886
# 6 0.000531 -0.000723 -0.009548 0.009306 0.005886 0.039125
#
#
# Mechanical properties :
#
#
# Convention : Reuss Voigt Hill
#
# Bulk Modulus (GPa) = 45.91415 62.64879 54.28147
# Shear Modulus (GPa) = 29.72422 36.53145 33.12783
#
# Velocity S-wave (km/s) = 3.46271 3.83879 3.65559
# Velocity P-wave (km/s) = 5.87437 6.70224 6.30191
#
# Compressibility (1/GPa) = 0.02177978
#
# Stress axis : x y z
#
# Youngs Moduli (GPa) = 104.91857 65.04299 55.98310
#
# Poissons Ratio (x) = 0.25308 0.24097
# Poissons Ratio (y) = 0.40823 0.12870
# Poissons Ratio (z) = 0.45160 0.14953
#
# Static dielectric constant tensor:
#      x y z
#    x 2.010670 0.041560 0.002980 
#    y 0.041560 1.985720 0.051940 
#    z 0.002980 0.051940 2.036910 
# 
# From -- ./inp_files/302516.got.cif
#   From: 2010.05.17/outbox.cif.g08.bks.cpg/sg2_152_cif.got.tgz:302516.got - 2010.06.03 11:33:40.
