data_PCOD9037175
_publ_section_title
;
Structure prediction by ZEFSAII (Michael W. Deem and Ramdas Pophale) SiO2 
 PCOD9037175
Probable space group: P -1
;
_chemical_formula_sum "Si O2"
_cell_formula_units_Z 16
_cell_length_a 23.273985
_cell_length_b 4.941247
_cell_length_c 5.631357
_cell_angle_alpha 97.325344
_cell_angle_beta 64.298439
_cell_angle_gamma 89.317545
_cell_volume 577.146335
_symmetry_space_group_name_H-M "P -1"
_symmetry_group_IT_number 2
_symmetry_cell_setting 'triclinic'
loop_
_space_group_symop_operation_xyz
x,y,z
-x,-y,-z
loop_
_atom_site_type_symbol
_atom_site_label
_atom_site_fract_x
_atom_site_fract_y
_atom_site_fract_z
Si Si1 0.892954 0.026861 0.793506
Si Si2 0.578463 0.777924 0.462255
Si Si3 0.133709 0.747339 0.720135
Si Si4 0.012877 0.729064 0.692764
Si Si5 0.544382 0.339234 0.095593
Si Si6 0.642443 0.264337 0.534286
Si Si7 0.216890 0.340879 0.203012
Si Si8 0.758211 0.870316 0.367779
O O1 0.939214 0.071777 0.496272
O O2 0.838587 0.857367 0.772899
O O3 0.863861 0.303343 0.003280
O O4 0.945241 0.891815 0.874229
O O5 0.568995 0.574534 0.241946
O O6 0.507042 0.837713 0.703213
O O7 0.622758 0.576620 0.535565
O O8 0.611352 0.055097 0.384079
O O9 0.062842 0.635044 0.793440
O O10 0.178394 0.603487 0.421260
O O11 0.169227 0.036500 0.716354
O O12 0.000000 0.500000 0.500000
O O13 0.500000 0.500000 0.000000
O O14 0.604178 0.198089 0.835080
O O15 0.714832 0.148999 0.421891
O O16 0.258250 0.238499 0.350647
O O17 0.249172 0.317952 0.878728
#
# Coordination Sequence:
#
# PCOD9037175 Si02
#       8
#     2   2   2   2   2   2   2   2
#     4  10  23  40  62  97 128 166 226 279 351 425
#     4  10  23  42  69 104 143 183 232 295 357 422
#     4  11  24  42  68  90 137 174 225 286 354 411
#     4  11  21  39  63  96 127 170 216 285 351 422
#     4   9  21  42  71 104 143 183 230 291 361 420
#     4  11  25  43  68 103 140 187 242 291 352 424
#     4  11  25  46  68  96 132 181 232 285 352 414
#     4  11  28  45  69  98 136 184 237 285 343 420
#
# _framework density 27.722605000000001
#
# number of rings (size 3 to 8) (size 9 to 14) (size 15 to 20)
#    0.000    1.500    2.500    0.750    5.250    8.000 
#    0.000    0.000    0.000    0.000    0.000    0.000 
#    0.000    0.000    0.000    0.000    0.000    0.000 
#
# Total GULP energy -89265.217010 kJ/mol
# GULP energy per Si atom -5579.076063 kJ/mol
# Density = 2.765951 g / cm^3
# Si number density = 27.722605 Si / 1000 Ang^3
#
#
#
# Elastic Constant Matrix: (Units=GPa)
#
#
# Indices 1 2 3 4 5 6 
#
# 1 108.5183 16.5508 52.2115 4.0252 -5.9344 3.2964
# 2 16.5508 78.7981 18.3787 13.3476 6.2276 -4.3763
# 3 52.2115 18.3787 159.2975 23.6656 22.6491 -2.4317
# 4 4.0252 13.3476 23.6656 37.3366 4.7977 3.1510
# 5 -5.9344 6.2276 22.6491 4.7977 57.3998 8.0520
# 6 3.2964 -4.3763 -2.4317 3.1510 8.0520 42.4877
#
#
#
# Elastic Compliance Matrix: (Units=1/GPa)
#
#
# Indices 1 2 3 4 5 6 
#
# 1 0.011867 -0.002193 -0.004457 0.002083 0.003357 -0.002192
# 2 -0.002193 0.014223 0.000082 -0.004876 -0.001721 0.002328
# 3 -0.004457 0.000082 0.009050 -0.004950 -0.003904 0.001979
# 4 0.002083 -0.004876 -0.004950 0.031658 0.000528 -0.003395
# 5 0.003357 -0.001721 -0.003904 0.000528 0.020084 -0.004507
# 6 -0.002192 0.002328 0.001979 -0.003395 -0.004507 0.025165
#
#
# Mechanical properties :
#
#
# Convention : Reuss Voigt Hill
#
# Bulk Modulus (GPa) = 45.44386 57.87733 51.66060
# Shear Modulus (GPa) = 37.73123 44.74302 41.23712
#
# Velocity S-wave (km/s) = 3.69321 4.02176 3.86098
# Velocity P-wave (km/s) = 5.88340 6.51834 6.20899
#
# Compressibility (1/GPa) = 0.02200517
#
# Stress axis : x y z
#
# Youngs Moduli (GPa) = 84.27021 70.30735 110.50297
#
# Poissons Ratio (x) = 0.15418 0.49247
# Poissons Ratio (y) = 0.18480 -0.00911
# Poissons Ratio (z) = 0.37556 -0.00579
#
# Static dielectric constant tensor:
#      x y z
#    x 2.511430 -0.255470 -0.149820 
#    y -0.255470 2.405710 -0.078450 
#    z -0.149820 -0.078450 2.423830 
# 
# From -- ./inp_files/12927.got.cif
#   From: 2010.05.17/outbox.cif.g08.bks.cpg/sg2_7_cif.got.tgz:12927.got - 2010.06.03 11:33:40.
