data_PCOD9037049
_publ_section_title
;
Structure prediction by ZEFSAII (Michael W. Deem and Ramdas Pophale) SiO2 
 PCOD9037049
Probable space group: P -1
;
_chemical_formula_sum "Si O2"
_cell_formula_units_Z 16
_cell_length_a 9.713490
_cell_length_b 12.672071
_cell_length_c 7.216563
_cell_angle_alpha 94.103632
_cell_angle_beta 107.774740
_cell_angle_gamma 118.602286
_cell_volume 717.035380
_symmetry_space_group_name_H-M "P -1"
_symmetry_group_IT_number 2
_symmetry_cell_setting 'triclinic'
loop_
_space_group_symop_operation_xyz
x,y,z
-x,-y,-z
loop_
_atom_site_type_symbol
_atom_site_label
_atom_site_fract_x
_atom_site_fract_y
_atom_site_fract_z
Si Si1 0.273234 0.828916 0.865552
Si Si2 0.984350 0.466152 0.273491
Si Si3 0.257077 0.275047 0.127133
Si Si4 0.555516 0.784180 0.110947
Si Si5 0.673759 0.843712 0.551608
Si Si6 0.138405 0.892908 0.137302
Si Si7 0.637801 0.141200 0.517167
Si Si8 0.259994 0.519212 0.101340
O O1 0.123523 0.684138 0.809965
O O2 0.299696 0.854108 0.662892
O O3 0.444290 0.843756 0.022112
O O4 0.222214 0.911400 0.972122
O O5 0.000000 0.500000 0.500000
O O6 0.162160 0.519459 0.246755
O O7 0.875985 0.511878 0.123235
O O8 0.282489 0.249952 0.346817
O O9 0.305035 0.414254 0.128481
O O10 0.365974 0.237550 0.041120
O O11 0.061550 0.185694 0.977693
O O12 0.689556 0.855750 0.338748
O O13 0.423158 0.649671 0.128715
O O14 0.476872 0.798638 0.509200
O O15 0.792606 0.976765 0.715779
O O16 0.208567 0.818609 0.272788
O O17 0.500000 0.000000 0.500000
#
# Coordination Sequence:
#
# PCOD9037049 Si02
#       8
#     2   2   2   2   2   2   2   2
#     4  11  22  42  72 100 133 183 223 287 339 396
#     4  10  23  39  71 103 134 174 231 282 337 401
#     4  12  25  45  67  99 145 179 219 289 347 400
#     4  11  25  42  70  98 140 179 230 277 341 408
#     4  11  25  43  67 101 136 184 227 280 340 407
#     4  11  25  44  70 100 137 176 237 284 328 408
#     4  10  23  41  68 100 129 176 231 275 329 402
#     4  10  24  43  66 103 136 178 225 286 337 401
#
# _framework density 22.314101999999998
#
# number of rings (size 3 to 8) (size 9 to 14) (size 15 to 20)
#    0.000    1.250    3.750    0.750    3.500    7.000 
#    0.000    0.000    0.000    0.000    0.000    0.000 
#    0.000    0.000    0.000    0.000    0.000    0.000 
#
# Total GULP energy -89581.175884 kJ/mol
# GULP energy per Si atom -5598.823493 kJ/mol
# Density = 2.226331 g / cm^3
# Si number density = 22.314102 Si / 1000 Ang^3
#
#
#
# Elastic Constant Matrix: (Units=GPa)
#
#
# Indices 1 2 3 4 5 6 
#
# 1 57.9654 5.3905 3.2966 -3.2968 9.4737 7.2246
# 2 5.3905 56.6720 -3.2357 -3.7910 9.6223 7.1217
# 3 3.2966 -3.2357 105.3145 -12.0262 -5.1964 2.2013
# 4 -3.2968 -3.7910 -12.0262 30.9026 -0.6497 -2.5525
# 5 9.4737 9.6223 -5.1964 -0.6497 31.9593 -0.2102
# 6 7.2246 7.1217 2.2013 -2.5525 -0.2102 31.1839
#
#
#
# Elastic Compliance Matrix: (Units=1/GPa)
#
#
# Indices 1 2 3 4 5 6 
#
# 1 0.018823 -0.000264 -0.000642 0.001262 -0.005606 -0.004190
# 2 -0.000264 0.019341 0.000657 0.002130 -0.005623 -0.004266
# 3 -0.000642 0.000657 0.010078 0.003939 0.001709 -0.000379
# 4 0.001262 0.002130 0.003939 0.034441 0.000337 0.001765
# 5 -0.005606 -0.005623 0.001709 0.000337 0.034947 0.002725
# 6 -0.004190 -0.004266 -0.000379 0.001765 0.002725 0.034202
#
#
# Mechanical properties :
#
#
# Convention : Reuss Voigt Hill
#
# Bulk Modulus (GPa) = 20.94512 25.65053 23.29782
# Shear Modulus (GPa) = 29.71848 33.10919 31.41383
#
# Velocity S-wave (km/s) = 3.65338 3.85616 3.75614
# Velocity P-wave (km/s) = 5.21566 5.59882 5.41063
#
# Compressibility (1/GPa) = 0.04774382
#
# Stress axis : x y z
#
# Youngs Moduli (GPa) = 53.12640 51.70284 99.22929
#
# Poissons Ratio (x) = 0.01366 0.06374
# Poissons Ratio (y) = 0.01404 -0.06524
# Poissons Ratio (z) = 0.03412 -0.03399
#
# Static dielectric constant tensor:
#      x y z
#    x 1.800570 -0.016320 0.008250 
#    y -0.016320 1.848430 0.006050 
#    z 0.008250 0.006050 1.824980 
# 
# From -- ./inp_files/39449.got.cif
#   From: 2010.05.17/outbox.cif.g08.bks.cpg/sg2_20_cif.got.tgz:39449.got - 2010.06.03 11:33:40.
