data_PCOD9037319
_publ_section_title
;
Structure prediction by ZEFSAII (Michael W. Deem and Ramdas Pophale) SiO2 
 PCOD9037319
Probable space group: P -1
;
_chemical_formula_sum "Si O2"
_cell_formula_units_Z 14
_cell_length_a 9.460456
_cell_length_b 11.073310
_cell_length_c 11.178674
_cell_angle_alpha 58.190551
_cell_angle_beta 53.149774
_cell_angle_gamma 90.979135
_cell_volume 694.197462
_symmetry_space_group_name_H-M "P -1"
_symmetry_group_IT_number 2
_symmetry_cell_setting 'triclinic'
loop_
_space_group_symop_operation_xyz
x,y,z
-x,-y,-z
loop_
_atom_site_type_symbol
_atom_site_label
_atom_site_fract_x
_atom_site_fract_y
_atom_site_fract_z
Si Si1 0.543425 0.449190 0.632431
Si Si2 0.844444 0.311359 0.202738
Si Si3 0.156219 0.217767 0.063978
Si Si4 0.545133 0.167083 0.637560
Si Si5 0.296205 0.964439 0.195264
Si Si6 0.015081 0.346132 0.624397
Si Si7 0.148948 0.849447 0.945959
O O1 0.500000 0.500000 0.500000
O O2 0.564718 0.291037 0.668120
O O3 0.747213 0.588047 0.513619
O O4 0.352881 0.389183 0.846639
O O5 0.667829 0.271209 0.406633
O O6 0.762885 0.220701 0.164591
O O7 0.990289 0.239821 0.210760
O O8 0.000000 0.500000 0.000000
O O9 0.042264 0.156776 0.024321
O O10 0.235518 0.103284 0.137123
O O11 0.650983 0.065312 0.683471
O O12 0.314455 0.032665 0.799099
O O13 0.107168 0.801822 0.325669
O O14 0.500000 0.000000 0.000000
O O15 0.000000 0.500000 0.500000
O O16 0.918709 0.270323 0.843147
#
# Coordination Sequence:
#
# PCOD9037319 Si02
#       7
#     2   2   2   2   2   2   2
#     4  12  22  36  63  95 122 162 210 264 304 362
#     4  10  23  44  65  90 127 163 211 261 312 368
#     4  10  23  41  60  94 124 167 210 255 309 371
#     4  12  23  41  67  89 128 169 208 253 322 371
#     4  12  23  40  63  94 130 165 200 267 314 370
#     4  12  22  37  61  97 127 159 206 259 319 359
#     4  10  23  40  65  92 123 166 214 253 310 376
#
# _framework density 20.167172000000001
#
# number of rings (size 3 to 8) (size 9 to 14) (size 15 to 20)
#    0.857    0.000    5.714    2.143    2.000    1.714 
#    0.000    0.000    0.000    1.714    0.000    0.000 
#    0.000    0.000    0.000    0.000    0.000    0.000 
#
# Total GULP energy -78088.595775 kJ/mol
# GULP energy per Si atom -5577.756841 kJ/mol
# Density = 2.012127 g / cm^3
# Si number density = 20.167172 Si / 1000 Ang^3
#
#
#
# Elastic Constant Matrix: (Units=GPa)
#
#
# Indices 1 2 3 4 5 6 
#
# 1 86.8724 -4.4841 13.3145 -17.5719 -9.6188 -9.7793
# 2 -4.4841 38.6000 10.7380 -8.7555 -10.2355 -4.9665
# 3 13.3145 10.7380 113.6036 -11.8902 -12.6963 5.9881
# 4 -17.5719 -8.7555 -11.8902 33.5034 4.1629 -0.5061
# 5 -9.6188 -10.2355 -12.6963 4.1629 41.5735 -17.6624
# 6 -9.7793 -4.9665 5.9881 -0.5061 -17.6624 38.2368
#
#
#
# Elastic Compliance Matrix: (Units=1/GPa)
#
#
# Indices 1 2 3 4 5 6 
#
# 1 0.015814 0.007518 -0.001199 0.008964 0.008099 0.009068
# 2 0.007518 0.035477 -0.002198 0.010833 0.014556 0.013742
# 3 -0.001199 -0.002198 0.009583 0.002016 0.001279 -0.001475
# 4 0.008964 0.010833 0.002016 0.037683 0.004023 0.005741
# 5 0.008099 0.014556 0.001279 0.004023 0.038718 0.021700
# 6 0.009068 0.013742 -0.001475 0.005741 0.021700 0.040588
#
#
# Mechanical properties :
#
#
# Convention : Reuss Voigt Hill
#
# Bulk Modulus (GPa) = 14.46857 30.91255 22.69056
# Shear Modulus (GPa) = 25.95274 37.29658 31.62466
#
# Velocity S-wave (km/s) = 3.59120 4.30510 3.96425
# Velocity P-wave (km/s) = 4.93817 6.33034 5.67709
#
# Compressibility (1/GPa) = 0.06911534
#
# Stress axis : x y z
#
# Youngs Moduli (GPa) = 63.23679 28.18739 104.35609
#
# Poissons Ratio (x) = -0.21191 0.12509
# Poissons Ratio (y) = -0.47542 0.22939
# Poissons Ratio (z) = 0.07580 0.06196
#
# Static dielectric constant tensor:
#      x y z
#    x 1.748330 -0.034990 0.034660 
#    y -0.034990 1.738620 -0.006310 
#    z 0.034660 -0.006310 1.723630 
# 
# From -- ./inp_files/392327.got.cif
#   From: 2010.05.17/outbox.cif.g08.bks.cpg/sg2_197_cif.got.tgz:392327.got - 2010.06.03 11:33:40.
