data_PCOD9037146
_publ_section_title
;
Structure prediction by ZEFSAII (Michael W. Deem and Ramdas Pophale) SiO2 
 PCOD9037146
Probable space group: P -1
;
_chemical_formula_sum "Si O2"
_cell_formula_units_Z 16
_cell_length_a 17.339122
_cell_length_b 8.107230
_cell_length_c 16.275322
_cell_angle_alpha 73.109353
_cell_angle_beta 154.765849
_cell_angle_gamma 89.195458
_cell_volume 685.413604
_symmetry_space_group_name_H-M "P -1"
_symmetry_group_IT_number 2
_symmetry_cell_setting 'triclinic'
loop_
_space_group_symop_operation_xyz
x,y,z
-x,-y,-z
loop_
_atom_site_type_symbol
_atom_site_label
_atom_site_fract_x
_atom_site_fract_y
_atom_site_fract_z
Si Si1 0.758075 0.522670 0.047740
Si Si2 0.846016 0.286659 0.785775
Si Si3 0.471973 0.769108 0.434314
Si Si4 0.004031 0.992290 0.368937
Si Si5 0.521209 0.793748 0.129152
Si Si6 0.476078 0.217665 0.050689
Si Si7 0.755895 0.316163 0.507505
Si Si8 0.741401 0.741790 0.846031
O O1 0.913465 0.247628 0.236893
O O2 0.718164 0.617911 0.087913
O O3 0.478825 0.658017 0.731272
O O4 0.849905 0.590373 0.055070
O O5 0.607192 0.562889 0.530124
O O6 0.781378 0.163601 0.796847
O O7 0.854450 0.244938 0.703856
O O8 0.064287 0.276879 0.018540
O O9 0.616150 0.687411 0.672148
O O10 0.443204 0.984111 0.346933
O O11 0.278999 0.821953 0.696908
O O12 0.041338 0.877062 0.334001
O O13 0.775107 0.046961 0.184556
O O14 0.648284 0.572008 0.341783
O O15 0.557294 0.964965 0.168840
O O16 0.623163 0.697394 0.149501
#
# Coordination Sequence:
#
# PCOD9037146 Si02
#       8
#     2   2   2   2   2   2   2   2
#     4  10  23  41  62  93 126 162 205 253 300 364
#     4  11  23  41  65  92 120 162 200 247 310 364
#     4  10  24  44  62  90 126 152 202 258 300 364
#     4  10  23  40  62  88 126 170 202 248 306 354
#     4  10  23  41  63  92 124 161 208 254 300 359
#     4  10  23  41  63  92 124 161 208 254 300 359
#     4  10  23  41  62  93 126 162 205 253 300 364
#     4  11  23  41  65  92 120 162 200 247 310 364
#
# _framework density 23.343571000000001
#
# number of rings (size 3 to 8) (size 9 to 14) (size 15 to 20)
#    0.000    1.750    1.250    1.125    5.250    7.500 
#    2.250    2.500    0.000    0.000    0.000    0.000 
#    0.000    0.000    0.000    0.000    0.000    0.000 
#
# Total GULP energy -89442.914927 kJ/mol
# GULP energy per Si atom -5590.182183 kJ/mol
# Density = 2.329044 g / cm^3
# Si number density = 23.343571 Si / 1000 Ang^3
#
#
#
# Elastic Constant Matrix: (Units=GPa)
#
#
# Indices 1 2 3 4 5 6 
#
# 1 69.0893 22.9833 8.4085 2.8821 -1.7991 -6.2553
# 2 22.9833 67.7423 0.6246 13.2395 -1.8932 -2.9759
# 3 8.4085 0.6246 39.8720 12.5377 5.6611 1.8597
# 4 2.8821 13.2395 12.5377 20.6041 6.1409 5.7365
# 5 -1.7991 -1.8932 5.6611 6.1409 22.5963 4.6783
# 6 -6.2553 -2.9759 1.8597 5.7365 4.6783 35.5744
#
#
#
# Elastic Compliance Matrix: (Units=1/GPa)
#
#
# Indices 1 2 3 4 5 6 
#
# 1 0.017274 -0.006507 -0.004996 0.004076 0.000555 0.002024
# 2 -0.006507 0.020650 0.005994 -0.017944 0.004042 0.002632
# 3 -0.004996 0.005994 0.033667 -0.023484 -0.002354 0.001959
# 4 0.004076 -0.017944 -0.023484 0.081277 -0.015175 -0.010667
# 5 0.000555 0.004042 -0.002354 -0.015175 0.050093 -0.003582
# 6 0.002024 0.002632 0.001959 -0.010667 -0.003582 0.030775
#
#
# Mechanical properties :
#
#
# Convention : Reuss Voigt Hill
#
# Bulk Modulus (GPa) = 16.50855 26.74850 21.62852
# Shear Modulus (GPa) = 18.87191 25.40075 22.13633
#
# Velocity S-wave (km/s) = 2.84639 3.30225 3.08276
# Velocity P-wave (km/s) = 4.22965 5.10131 4.68579
#
# Compressibility (1/GPa) = 0.06057466
#
# Stress axis : x y z
#
# Youngs Moduli (GPa) = 57.88947 48.42698 29.70254
#
# Poissons Ratio (x) = 0.31511 0.14839
# Poissons Ratio (y) = 0.37668 -0.17805
# Poissons Ratio (z) = 0.28921 -0.29029
#
# Static dielectric constant tensor:
#      x y z
#    x 1.866630 0.024450 0.044880 
#    y 0.024450 1.898710 -0.007100 
#    z 0.044880 -0.007100 1.943400 
# 
# From -- ./inp_files/340550.got.cif
#   From: 2010.05.17/outbox.cif.g08.bks.cpg/sg2_171_cif.got.tgz:340550.got - 2010.06.03 11:33:40.
