data_PCOD9037575
_publ_section_title
;
Structure prediction by ZEFSAII (Michael W. Deem and Ramdas Pophale) SiO2 
 PCOD9037575
Probable space group: P -1
;
_chemical_formula_sum "Si O2"
_cell_formula_units_Z 14
_cell_length_a 10.432902
_cell_length_b 14.721407
_cell_length_c 7.833324
_cell_angle_alpha 108.622771
_cell_angle_beta 62.511191
_cell_angle_gamma 58.663882
_cell_volume 614.878102
_symmetry_space_group_name_H-M "P -1"
_symmetry_group_IT_number 2
_symmetry_cell_setting 'triclinic'
loop_
_space_group_symop_operation_xyz
x,y,z
-x,-y,-z
loop_
_atom_site_type_symbol
_atom_site_label
_atom_site_fract_x
_atom_site_fract_y
_atom_site_fract_z
Si Si1 0.543368 0.962779 0.209028
Si Si2 0.659051 0.607281 0.599555
Si Si3 0.807653 0.952908 0.316262
Si Si4 0.828499 0.729342 0.578594
Si Si5 0.784782 0.345537 0.253714
Si Si6 0.385161 0.455802 0.050435
Si Si7 0.671084 0.224414 0.425056
O O1 0.702297 0.931776 0.232792
O O2 0.385020 0.955333 0.360944
O O3 0.340766 0.145992 0.394470
O O4 0.711280 0.843799 0.880725
O O5 0.798929 0.631384 0.554060
O O6 0.833143 0.429282 0.324844
O O7 0.554324 0.627549 0.856920
O O8 0.463252 0.725095 0.641458
O O9 0.812201 0.057347 0.302133
O O10 0.071439 0.770746 0.066220
O O11 0.100736 0.611780 0.315273
O O12 0.500000 0.500000 0.500000
O O13 0.819265 0.244390 0.313992
O O14 0.500000 0.500000 0.000000
O O15 0.480337 0.348774 0.763535
#
# Coordination Sequence:
#
# PCOD9037575 Si02
#       7
#     2   2   2   2   2   2   2
#     4  10  24  41  68 100 137 187 230 294 346 406
#     4  11  23  45  69 102 141 182 235 287 346 412
#     4  11  22  44  68  99 139 182 240 282 347 424
#     4  11  24  45  68 101 144 181 237 291 347 417
#     4  10  23  40  69 102 140 180 228 291 349 411
#     4  12  26  43  70 105 143 184 231 290 353 414
#     4  11  24  43  70 104 139 188 232 282 358 414
#
# _framework density 22.768740000000001
#
# number of rings (size 3 to 8) (size 9 to 14) (size 15 to 20)
#    0.000    1.143    2.857    2.571    4.000    2.857 
#    0.000    0.000    0.000   10.286    0.000    0.000 
#    0.000    0.000    0.000    0.000    0.000    0.000 
#
# Total GULP energy -78244.276350 kJ/mol
# GULP energy per Si atom -5588.876882 kJ/mol
# Density = 2.271692 g / cm^3
# Si number density = 22.768740 Si / 1000 Ang^3
#
#
#
# Elastic Constant Matrix: (Units=GPa)
#
#
# Indices 1 2 3 4 5 6 
#
# 1 73.8519 33.4197 28.7146 4.1177 -18.2094 15.3710
# 2 33.4197 105.5845 24.8362 -2.9198 -9.3308 27.3298
# 3 28.7146 24.8362 130.4220 8.2844 -5.2413 3.8043
# 4 4.1177 -2.9198 8.2844 36.6205 0.7785 0.9094
# 5 -18.2094 -9.3308 -5.2413 0.7785 27.4998 -8.3242
# 6 15.3710 27.3298 3.8043 0.9094 -8.3242 53.3645
#
#
#
# Elastic Compliance Matrix: (Units=1/GPa)
#
#
# Indices 1 2 3 4 5 6 
#
# 1 0.019654 -0.004244 -0.002915 -0.002075 0.010596 -0.001592
# 2 -0.004244 0.012508 -0.001438 0.001938 -0.000465 -0.005186
# 3 -0.002915 -0.001438 0.008650 -0.001757 -0.000441 0.000921
# 4 -0.002075 0.001938 -0.001757 0.028166 -0.002178 -0.001090
# 5 0.010596 -0.000465 -0.000441 -0.002178 0.044468 0.004192
# 6 -0.001592 -0.005186 0.000921 -0.001090 0.004192 0.022460
#
#
# Mechanical properties :
#
#
# Convention : Reuss Voigt Hill
#
# Bulk Modulus (GPa) = 42.34162 53.75549 48.04856
# Shear Modulus (GPa) = 31.06112 38.35615 34.70863
#
# Velocity S-wave (km/s) = 3.69751 4.10884 3.90859
# Velocity P-wave (km/s) = 6.07170 6.79490 6.44345
#
# Compressibility (1/GPa) = 0.02361742
#
# Stress axis : x y z
#
# Youngs Moduli (GPa) = 50.88018 79.95119 115.60624
#
# Poissons Ratio (x) = 0.33934 0.33698
# Poissons Ratio (y) = 0.21595 0.16623
# Poissons Ratio (z) = 0.14831 0.11496
#
# Static dielectric constant tensor:
#      x y z
#    x 1.878960 -0.020870 -0.027390 
#    y -0.020870 1.893300 -0.027150 
#    z -0.027390 -0.027150 1.904280 
# 
# From -- ./inp_files/154072.got.cif
#   From: 2010.05.17/outbox.cif.g08.bks.cpg/sg2_78_cif.got.tgz:154072.got - 2010.06.03 11:33:40.
