data_PCOD9037549
_publ_section_title
;
Structure prediction by ZEFSAII (Michael W. Deem and Ramdas Pophale) SiO2 
 PCOD9037549
Probable space group: P -1
;
_chemical_formula_sum "Si O2"
_cell_formula_units_Z 15
_cell_length_a 16.186979
_cell_length_b 6.517749
_cell_length_c 15.982039
_cell_angle_alpha 105.230009
_cell_angle_beta 26.199851
_cell_angle_gamma 94.362505
_cell_volume 665.952268
_symmetry_space_group_name_H-M "P -1"
_symmetry_group_IT_number 2
_symmetry_cell_setting 'triclinic'
loop_
_space_group_symop_operation_xyz
x,y,z
-x,-y,-z
loop_
_atom_site_type_symbol
_atom_site_label
_atom_site_fract_x
_atom_site_fract_y
_atom_site_fract_z
Si Si1 0.500000 0.500000 0.500000
Si Si2 0.832644 0.041545 0.085632
Si Si3 0.377264 0.727605 0.084653
Si Si4 0.236538 0.195237 0.308458
Si Si5 0.194940 0.539175 0.082647
Si Si6 0.978961 0.680700 0.662059
Si Si7 0.459878 0.234397 0.674676
Si Si8 0.107224 0.028728 0.675915
O O1 0.668637 0.295424 0.272190
O O2 0.509750 0.316415 0.548935
O O3 0.715690 0.867979 0.182438
O O4 0.957809 0.017398 0.884177
O O5 0.000000 0.000000 0.000000
O O6 0.247155 0.675860 0.125521
O O7 0.254680 0.936090 0.280169
O O8 0.500000 0.500000 0.000000
O O9 0.540686 0.802976 0.897702
O O10 0.138290 0.246422 0.310636
O O11 0.115905 0.411988 0.497538
O O12 0.168789 0.324607 0.129381
O O13 0.993064 0.713534 0.240827
O O14 0.372860 0.441379 0.843094
O O15 0.096223 0.842228 0.598472
O O16 0.666326 0.045978 0.503838
#
# Coordination Sequence:
#
# PCOD9037549 Si02
#       8
#     1   2   2   2   2   2   2   2
#     4  12  26  48  78 110 140 186 238 294 368 438
#     4  12  27  50  79 107 145 184 240 298 365 449
#     4  11  22  41  68 100 139 194 244 300 357 424
#     4  10  23  40  68  96 139 187 245 304 350 422
#     4  12  25  45  70 104 148 189 244 298 364 431
#     4  11  23  44  66 101 140 189 245 298 360 426
#     4  12  28  48  76 110 144 191 239 299 366 443
#     4  12  26  48  71 107 150 189 237 305 367 433
#
# _framework density 22.524137
#
# number of rings (size 3 to 8) (size 9 to 14) (size 15 to 20)
#    0.000    0.533    6.667    1.200    0.000    5.333 
#    2.400    0.000    0.000    0.000    0.000    0.000 
#    0.000    0.000    0.000    0.000    0.000    0.000 
#
# Total GULP energy -83621.315780 kJ/mol
# GULP energy per Si atom -5574.754385 kJ/mol
# Density = 2.247287 g / cm^3
# Si number density = 22.524137 Si / 1000 Ang^3
#
#
#
# Elastic Constant Matrix: (Units=GPa)
#
#
# Indices 1 2 3 4 5 6 
#
# 1 62.6657 19.8347 22.0580 -10.1374 -1.1384 -3.1754
# 2 19.8347 56.2162 20.6837 16.4565 -4.0795 -9.1332
# 3 22.0580 20.6837 91.2575 7.6816 8.0591 0.8449
# 4 -10.1374 16.4565 7.6816 47.9435 3.0458 2.1807
# 5 -1.1384 -4.0795 8.0591 3.0458 37.7509 -3.6262
# 6 -3.1754 -9.1332 0.8449 2.1807 -3.6262 40.5827
#
#
#
# Elastic Compliance Matrix: (Units=1/GPa)
#
#
# Indices 1 2 3 4 5 6 
#
# 1 0.021315 -0.008589 -0.003867 0.008115 -0.000176 -0.000637
# 2 -0.008589 0.026762 -0.003553 -0.011038 0.004902 0.006456
# 3 -0.003867 -0.003553 0.013127 -0.001416 -0.003342 -0.001598
# 4 0.008115 -0.011038 -0.001416 0.026952 -0.003161 -0.003550
# 5 -0.000176 0.004902 -0.003342 -0.003161 0.028353 0.003862
# 6 -0.000637 0.006456 -0.001598 -0.003550 0.003862 0.026613
#
#
# Mechanical properties :
#
#
# Convention : Reuss Voigt Hill
#
# Bulk Modulus (GPa) = 34.26376 37.25468 35.75922
# Shear Modulus (GPa) = 27.04603 35.09294 31.06948
#
# Velocity S-wave (km/s) = 3.46895 3.95145 3.71804
# Velocity P-wave (km/s) = 5.59374 6.11510 5.86022
#
# Compressibility (1/GPa) = 0.02918535
#
# Stress axis : x y z
#
# Youngs Moduli (GPa) = 46.91578 37.36608 76.17801
#
# Poissons Ratio (x) = 0.32095 0.29457
# Poissons Ratio (y) = 0.40298 0.27067
# Poissons Ratio (z) = 0.18142 0.13277
#
# Static dielectric constant tensor:
#      x y z
#    x 1.818840 0.018390 0.034830 
#    y 0.018390 1.891570 -0.001790 
#    z 0.034830 -0.001790 1.880850 
# 
# From -- ./inp_files/525828.got.cif
#   From: 2010.05.17/outbox.cif.g08.bks.cpg/sg2_263_cif.got.tgz:525828.got - 2010.06.03 11:33:40.
