data_PCOD9037878
_publ_section_title
;
Structure prediction by ZEFSAII (Michael W. Deem and Ramdas Pophale) SiO2 
 PCOD9037878
Probable space group: P -1
;
_chemical_formula_sum "Si O2"
_cell_formula_units_Z 16
_cell_length_a 10.681253
_cell_length_b 10.185220
_cell_length_c 11.016465
_cell_angle_alpha 38.257126
_cell_angle_beta 81.011666
_cell_angle_gamma 68.290362
_cell_volume 670.428175
_symmetry_space_group_name_H-M "P -1"
_symmetry_group_IT_number 2
_symmetry_cell_setting 'triclinic'
loop_
_space_group_symop_operation_xyz
x,y,z
-x,-y,-z
loop_
_atom_site_type_symbol
_atom_site_label
_atom_site_fract_x
_atom_site_fract_y
_atom_site_fract_z
Si Si1 0.187950 0.777685 0.390190
Si Si2 0.705693 0.736068 0.246678
Si Si3 0.199701 0.294235 0.482541
Si Si4 0.347942 0.475118 0.920250
Si Si5 0.873593 0.240700 0.865679
Si Si6 0.385839 0.985547 0.161400
Si Si7 0.544417 0.723940 0.684959
Si Si8 0.871237 0.118919 0.226501
O O1 0.226082 0.524923 0.624708
O O2 0.199154 0.720777 0.284253
O O3 0.299562 0.880932 0.329766
O O4 0.035923 0.969149 0.304809
O O5 0.785863 0.748926 0.345629
O O6 0.543623 0.805614 0.253695
O O7 0.693441 0.938846 0.009659
O O8 0.079586 0.542631 0.289671
O O9 0.330581 0.340838 0.381904
O O10 0.189898 0.069595 0.591070
O O11 0.433781 0.615301 0.750960
O O12 0.191466 0.663613 0.831525
O O13 0.377693 0.234203 0.024654
O O14 0.403096 0.382511 0.113915
O O15 0.821443 0.209875 0.030382
O O16 0.000000 0.000000 0.000000
O O17 0.500000 0.000000 0.500000
#
# Coordination Sequence:
#
# PCOD9037878 Si02
#       8
#     2   2   2   2   2   2   2   2
#     4  10  23  41  64  92 127 170 212 253 309 375
#     4  10  24  42  65  93 121 168 217 259 311 365
#     4  11  21  38  68  95 122 158 205 269 316 362
#     4  11  25  40  63  95 126 167 209 252 318 381
#     4   9  20  37  62  92 124 160 204 258 310 364
#     4  11  24  43  64  89 131 169 209 261 303 371
#     4  11  22  40  62  93 124 158 207 262 314 362
#     4  11  22  40  63  97 130 162 207 255 321 382
#
# _framework density 23.865345999999999
#
# number of rings (size 3 to 8) (size 9 to 14) (size 15 to 20)
#    0.000    1.500    2.500    1.875    1.750   13.000 
#    0.000    0.625    0.000    0.000    0.000    0.000 
#    0.000    0.000    0.000    0.000    0.000    0.000 
#
# Total GULP energy -89328.051715 kJ/mol
# GULP energy per Si atom -5583.003232 kJ/mol
# Density = 2.381103 g / cm^3
# Si number density = 23.865346 Si / 1000 Ang^3
#
#
#
# Elastic Constant Matrix: (Units=GPa)
#
#
# Indices 1 2 3 4 5 6 
#
# 1 36.9384 20.6173 24.0695 -9.9376 -19.9608 -14.5295
# 2 20.6173 75.1722 8.5212 -18.1974 -1.4800 -19.4350
# 3 24.0695 8.5212 103.2452 -16.7220 4.4023 -4.6526
# 4 -9.9376 -18.1974 -16.7220 46.7205 -3.5634 -0.8072
# 5 -19.9608 -1.4800 4.4023 -3.5634 31.4017 -1.6145
# 6 -14.5295 -19.4350 -4.6526 -0.8072 -1.6145 24.6232
#
#
#
# Elastic Compliance Matrix: (Units=1/GPa)
#
#
# Indices 1 2 3 4 5 6 
#
# 1 0.147891 -0.006643 -0.030167 0.027563 0.105378 0.084136
# 2 -0.006643 0.019664 0.001673 0.006890 -0.002131 0.012004
# 3 -0.030167 0.001673 0.016574 -0.001798 -0.022389 -0.014875
# 4 0.027563 0.006890 -0.001798 0.031466 0.022897 0.023896
# 5 0.105378 -0.002131 -0.022389 0.022897 0.107761 0.064084
# 6 0.084136 0.012004 -0.014875 0.023896 0.064084 0.101907
#
#
# Mechanical properties :
#
#
# Convention : Reuss Voigt Hill
#
# Bulk Modulus (GPa) = 8.78301 35.75243 22.26772
# Shear Modulus (GPa) = 9.37228 31.35893 20.36561
#
# Velocity S-wave (km/s) = 1.98385 3.62884 2.92439
# Velocity P-wave (km/s) = 2.98928 5.70713 4.55561
#
# Compressibility (1/GPa) = 0.11385618
#
# Stress axis : x y z
#
# Youngs Moduli (GPa) = 6.76175 50.85353 60.33687
#
# Poissons Ratio (x) = 0.33780 1.82019
# Poissons Ratio (y) = 0.04492 -0.10097
# Poissons Ratio (z) = 0.20398 -0.08510
#
# Static dielectric constant tensor:
#      x y z
#    x 1.959140 -0.022690 0.048410 
#    y -0.022690 2.021450 -0.044140 
#    z 0.048410 -0.044140 1.947940 
# 
# From -- ./inp_files/84511.got.cif
#   From: 2010.05.17/outbox.cif.g08.bks.cpg/sg2_43_cif.got.tgz:84511.got - 2010.06.03 11:33:40.
