data_PCOD9037124
_publ_section_title
;
Structure prediction by ZEFSAII (Michael W. Deem and Ramdas Pophale) SiO2 
 PCOD9037124
Probable space group: P -1
;
_chemical_formula_sum "Si O2"
_cell_formula_units_Z 16
_cell_length_a 16.030216
_cell_length_b 7.739028
_cell_length_c 7.096233
_cell_angle_alpha 65.243660
_cell_angle_beta 63.863950
_cell_angle_gamma 99.381971
_cell_volume 649.240160
_symmetry_space_group_name_H-M "P -1"
_symmetry_group_IT_number 2
_symmetry_cell_setting 'triclinic'
loop_
_space_group_symop_operation_xyz
x,y,z
-x,-y,-z
loop_
_atom_site_type_symbol
_atom_site_label
_atom_site_fract_x
_atom_site_fract_y
_atom_site_fract_z
Si Si1 0.019077 0.325838 0.676867
Si Si2 0.296476 0.058784 0.330024
Si Si3 0.901449 0.947726 0.493909
Si Si4 0.309699 0.712599 0.989660
Si Si5 0.643605 0.494414 0.310489
Si Si6 0.557595 0.830089 0.183400
Si Si7 0.826423 0.102927 0.166192
Si Si8 0.211856 0.567434 0.556041
O O1 0.092737 0.237288 0.548377
O O2 0.089295 0.457215 0.718610
O O3 0.000000 0.500000 0.500000
O O4 0.909992 0.129305 0.911261
O O5 0.211826 0.113467 0.277088
O O6 0.274605 0.090519 0.556124
O O7 0.253817 0.806982 0.475527
O O8 0.406060 0.146512 0.082384
O O9 0.901233 0.121252 0.264180
O O10 0.000000 0.000000 0.500000
O O11 0.354526 0.590487 0.863548
O O12 0.221638 0.745197 0.940298
O O13 0.391610 0.945452 0.866270
O O14 0.262863 0.598093 0.284111
O O15 0.606743 0.677077 0.277978
O O16 0.561866 0.293616 0.600053
O O17 0.750177 0.557117 0.280871
#
# Coordination Sequence:
#
# PCOD9037124 Si02
#       8
#     2   2   2   2   2   2   2   2
#     4  12  24  39  64  96 133 171 223 279 322 400
#     4   9  22  43  62  92 129 176 214 272 333 397
#     4  10  23  40  61  89 128 178 221 268 336 396
#     4  11  23  45  69  98 138 180 220 281 339 408
#     4  11  24  48  68 106 130 178 226 284 344 397
#     4  10  25  44  73  97 139 170 229 282 339 407
#     4  10  23  41  63  92 134 174 226 262 339 398
#     4  11  24  43  67  98 136 174 229 278 332 406
#
# _framework density 24.644193000000001
#
# number of rings (size 3 to 8) (size 9 to 14) (size 15 to 20)
#    0.750    0.750    2.500    1.500    5.250    3.500 
#    2.250    1.250    0.000    0.000    0.000    0.000 
#    0.000    0.000    0.000    0.000    0.000    0.000 
#
# Total GULP energy -89096.677426 kJ/mol
# GULP energy per Si atom -5568.542339 kJ/mol
# Density = 2.458810 g / cm^3
# Si number density = 24.644193 Si / 1000 Ang^3
#
#
#
# Elastic Constant Matrix: (Units=GPa)
#
#
# Indices 1 2 3 4 5 6 
#
# 1 83.2212 22.4271 -0.4768 9.1942 10.0462 -16.3682
# 2 22.4271 82.5661 19.0200 3.0187 -2.7767 -4.3551
# 3 -0.4768 19.0200 83.6220 2.7608 5.1150 15.9981
# 4 9.1942 3.0187 2.7608 26.4991 -1.6938 -6.4317
# 5 10.0462 -2.7767 5.1150 -1.6938 28.5040 0.2787
# 6 -16.3682 -4.3551 15.9981 -6.4317 0.2787 24.4360
#
#
#
# Elastic Compliance Matrix: (Units=1/GPa)
#
#
# Indices 1 2 3 4 5 6 
#
# 1 0.016033 -0.003862 -0.000366 -0.003171 -0.006243 0.009527
# 2 -0.003862 0.014333 -0.004083 0.001057 0.003525 0.002879
# 3 -0.000366 -0.004083 0.015559 -0.004201 -0.003191 -0.012228
# 4 -0.003171 0.001057 -0.004201 0.042324 0.004373 0.011904
# 5 -0.006243 0.003525 -0.003191 0.004373 0.038466 -0.000752
# 6 0.009527 0.002879 -0.012228 0.011904 -0.000752 0.058966
#
#
# Mechanical properties :
#
#
# Convention : Reuss Voigt Hill
#
# Bulk Modulus (GPa) = 34.12864 36.81667 35.47265
# Shear Modulus (GPa) = 23.57715 29.78377 26.68046
#
# Velocity S-wave (km/s) = 3.09642 3.48019 3.29390
# Velocity P-wave (km/s) = 5.16356 5.57859 5.37508
#
# Compressibility (1/GPa) = 0.02930091
#
# Stress axis : x y z
#
# Youngs Moduli (GPa) = 62.37279 69.76952 64.27322
#
# Poissons Ratio (x) = 0.26945 0.02354
# Poissons Ratio (y) = 0.24088 0.26245
# Poissons Ratio (z) = 0.02285 0.28489
#
# Static dielectric constant tensor:
#      x y z
#    x 2.222550 0.245060 -0.070400 
#    y 0.245060 2.163470 -0.021850 
#    z -0.070400 -0.021850 2.113480 
# 
# From -- ./inp_files/325888.got.cif
#   From: 2010.05.17/outbox.cif.g08.bks.cpg/sg2_163_cif.got.tgz:325888.got - 2010.06.03 11:33:40.
