data_PCOD9037799
_publ_section_title
;
Structure prediction by ZEFSAII (Michael W. Deem and Ramdas Pophale) SiO2 
 PCOD9037799
Probable space group: P -1
;
_chemical_formula_sum "Si O2"
_cell_formula_units_Z 16
_cell_length_a 7.862477
_cell_length_b 20.182686
_cell_length_c 8.750599
_cell_angle_alpha 118.328372
_cell_angle_beta 34.336875
_cell_angle_gamma 120.973473
_cell_volume 668.025328
_symmetry_space_group_name_H-M "P -1"
_symmetry_group_IT_number 2
_symmetry_cell_setting 'triclinic'
loop_
_space_group_symop_operation_xyz
x,y,z
-x,-y,-z
loop_
_atom_site_type_symbol
_atom_site_label
_atom_site_fract_x
_atom_site_fract_y
_atom_site_fract_z
Si Si1 0.181851 0.680037 0.725421
Si Si2 0.273018 0.056783 0.765693
Si Si3 0.036251 0.082251 0.638939
Si Si4 0.509019 0.359282 0.844954
Si Si5 0.614478 0.778563 0.963783
Si Si6 0.783150 0.428319 0.996606
Si Si7 0.418377 0.827515 0.857377
Si Si8 0.257884 0.332400 0.475593
O O1 0.197681 0.770870 0.839704
O O2 0.475166 0.672882 0.605374
O O3 0.824391 0.635631 0.969062
O O4 0.272080 0.657360 0.467820
O O5 0.199456 0.083215 0.681149
O O6 0.500000 0.000000 0.500000
O O7 0.338837 0.136792 0.902773
O O8 0.000000 0.000000 0.000000
O O9 0.243553 0.146291 0.441716
O O10 0.000000 0.000000 0.500000
O O11 0.704630 0.097459 0.937493
O O12 0.446969 0.285413 0.926885
O O13 0.689468 0.431743 0.893049
O O14 0.387198 0.785640 0.998743
O O15 0.847759 0.743605 0.639445
O O16 0.978370 0.362364 0.785482
O O17 0.454866 0.400250 0.294719
O O18 0.000000 0.500000 0.000000
#
# Coordination Sequence:
#
# PCOD9037799 Si02
#       8
#     2   2   2   2   2   2   2   2
#     4  11  22  40  62  95 125 159 211 260 312 367
#     4  12  25  40  60  87 121 159 204 259 311 368
#     4  12  24  40  58  84 119 160 205 256 321 380
#     4  11  23  40  66  94 125 163 210 262 307 372
#     4  10  23  41  63  90 120 162 212 254 308 372
#     4  11  23  43  66  95 129 169 209 254 313 378
#     4  11  23  39  62  85 118 159 201 261 313 369
#     4  10  23  41  67  92 128 169 209 258 313 378
#
# _framework density 23.951188999999999
#
# number of rings (size 3 to 8) (size 9 to 14) (size 15 to 20)
#    0.000    1.000    0.000    7.500    0.000    9.000 
#    0.000    3.750    0.000    0.000    0.000    0.000 
#    0.000    0.000    0.000    0.000    0.000    0.000 
#
# Total GULP energy -89263.399328 kJ/mol
# GULP energy per Si atom -5578.962458 kJ/mol
# Density = 2.389668 g / cm^3
# Si number density = 23.951189 Si / 1000 Ang^3
#
#
#
# Elastic Constant Matrix: (Units=GPa)
#
#
# Indices 1 2 3 4 5 6 
#
# 1 74.3975 10.1720 25.9892 10.0589 7.6991 18.6438
# 2 10.1720 90.7803 31.7326 20.2476 19.5224 38.5463
# 3 25.9892 31.7326 115.4939 8.2057 7.3507 10.5741
# 4 10.0589 20.2476 8.2057 31.4356 7.1309 6.5653
# 5 7.6991 19.5224 7.3507 7.1309 49.5908 10.9188
# 6 18.6438 38.5463 10.5741 6.5653 10.9188 42.1921
#
#
#
# Elastic Compliance Matrix: (Units=1/GPa)
#
#
# Indices 1 2 3 4 5 6 
#
# 1 0.017626 0.005406 -0.004014 -0.005611 -0.001139 -0.010553
# 2 0.005406 0.024005 -0.004944 -0.010830 -0.003487 -0.020493
# 3 -0.004014 -0.004944 0.010526 0.000972 0.000105 0.003474
# 4 -0.005611 -0.010830 0.000972 0.039443 -0.002122 0.006541
# 5 -0.001139 -0.003487 0.000105 -0.002122 0.022401 -0.001804
# 6 -0.010553 -0.020493 0.003474 0.006541 -0.001804 0.045664
#
#
# Mechanical properties :
#
#
# Convention : Reuss Voigt Hill
#
# Bulk Modulus (GPa) = 22.19687 46.27325 34.23506
# Shear Modulus (GPa) = 27.50442 38.82891 33.16667
#
# Velocity S-wave (km/s) = 3.39241 4.03074 3.72527
# Velocity P-wave (km/s) = 4.96309 6.40502 5.72960
#
# Compressibility (1/GPa) = 0.04505139
#
# Stress axis : x y z
#
# Youngs Moduli (GPa) = 56.73574 41.65802 94.99926
#
# Poissons Ratio (x) = -0.22519 0.38133
# Poissons Ratio (y) = -0.30669 0.46971
# Poissons Ratio (z) = 0.22774 0.20597
#
# Static dielectric constant tensor:
#      x y z
#    x 1.959160 -0.025020 -0.042510 
#    y -0.025020 1.983050 0.052500 
#    z -0.042510 0.052500 1.956770 
# 
# From -- ./inp_files/226419.got.cif
#   From: 2010.05.17/outbox.cif.g08.bks.cpg/sg2_114_cif.got.tgz:226419.got - 2010.06.03 11:33:40.
