data_PCOD9037043
_publ_section_title
;
Structure prediction by ZEFSAII (Michael W. Deem and Ramdas Pophale) SiO2 
 PCOD9037043
Probable space group: P -1
;
_chemical_formula_sum "Si O2"
_cell_formula_units_Z 15
_cell_length_a 14.241226
_cell_length_b 14.285519
_cell_length_c 14.712341
_cell_angle_alpha 160.495203
_cell_angle_beta 38.338418
_cell_angle_gamma 141.244047
_cell_volume 607.959529
_symmetry_space_group_name_H-M "P -1"
_symmetry_group_IT_number 2
_symmetry_cell_setting 'triclinic'
loop_
_space_group_symop_operation_xyz
x,y,z
-x,-y,-z
loop_
_atom_site_type_symbol
_atom_site_label
_atom_site_fract_x
_atom_site_fract_y
_atom_site_fract_z
Si Si1 0.832142 0.894476 0.576696
Si Si2 0.998095 0.505686 0.200318
Si Si3 0.000000 0.500000 0.500000
Si Si4 0.490497 0.193428 0.906529
Si Si5 0.133777 0.956145 0.980291
Si Si6 0.428498 0.194817 0.662666
Si Si7 0.735684 0.431586 0.091356
Si Si8 0.137156 0.792184 0.533785
O O1 0.869484 0.688792 0.439032
O O2 0.767612 0.179237 0.902833
O O3 0.724341 0.701859 0.408487
O O4 0.000000 0.000000 0.500000
O O5 0.920251 0.214693 0.042179
O O6 0.110561 0.477443 0.005130
O O7 0.105741 0.688773 0.361928
O O8 0.912102 0.257590 0.263288
O O9 0.829239 0.446783 0.642908
O O10 0.595930 0.302115 0.013102
O O11 0.311508 0.096531 0.976601
O O12 0.541898 0.933091 0.575809
O O13 0.519451 0.468686 0.070179
O O14 0.026373 0.198415 0.280023
O O15 0.500000 0.000000 0.500000
O O16 0.246442 0.094933 0.727964
#
# Coordination Sequence:
#
# PCOD9037043 Si02
#       8
#     2   2   1   2   2   2   2   2
#     4  10  23  39  70 105 135 170 230 290 345 406
#     4  11  22  39  72  98 130 181 234 280 342 414
#     4   8  22  40  62  92 134 168 232 270 338 378
#     4  12  26  46  68 101 142 183 228 282 359 397
#     4  10  25  43  67  96 141 184 228 283 342 417
#     4  12  26  45  71 100 137 181 238 287 339 408
#     4  11  23  43  69 103 138 174 226 294 344 404
#     4  10  23  43  67  98 134 182 231 282 330 417
#
# _framework density 24.672694
#
# number of rings (size 3 to 8) (size 9 to 14) (size 15 to 20)
#    0.800    0.533    1.333    4.400    9.333    0.533 
#    0.000    1.333    0.000    0.000    0.000    0.000 
#    0.000    0.000    0.000    0.000    0.000    0.000 
#
# Total GULP energy -83857.061310 kJ/mol
# GULP energy per Si atom -5590.470754 kJ/mol
# Density = 2.461654 g / cm^3
# Si number density = 24.672694 Si / 1000 Ang^3
#
#
#
# Elastic Constant Matrix: (Units=GPa)
#
#
# Indices 1 2 3 4 5 6 
#
# 1 81.2889 27.8417 19.7780 12.7499 -10.9239 -7.0573
# 2 27.8417 136.2500 29.6124 24.0154 -16.6584 13.2541
# 3 19.7780 29.6124 107.0621 20.8088 8.5145 3.2447
# 4 12.7499 24.0154 20.8088 34.9218 -6.5030 -5.2679
# 5 -10.9239 -16.6584 8.5145 -6.5030 38.7639 8.2707
# 6 -7.0573 13.2541 3.2447 -5.2679 8.2707 44.0122
#
#
#
# Elastic Compliance Matrix: (Units=1/GPa)
#
#
# Indices 1 2 3 4 5 6 
#
# 1 0.014359 -0.002070 -0.002039 -0.001726 0.002816 0.002340
# 2 -0.002070 0.009957 -0.001579 -0.005068 0.004175 -0.004605
# 3 -0.002039 -0.001579 0.011740 -0.006132 -0.004741 -0.000560
# 4 -0.001726 -0.005068 -0.006132 0.037959 0.003873 0.005517
# 5 0.002816 0.004175 -0.004741 0.003873 0.031331 -0.005880
# 6 0.002340 -0.004605 -0.000560 0.005517 -0.005880 0.026290
#
#
# Mechanical properties :
#
#
# Convention : Reuss Voigt Hill
#
# Bulk Modulus (GPa) = 40.51979 53.22946 46.87462
# Shear Modulus (GPa) = 33.06019 40.03084 36.54552
#
# Velocity S-wave (km/s) = 3.66450 4.03237 3.85283
# Velocity P-wave (km/s) = 5.86203 6.58035 6.23155
#
# Compressibility (1/GPa) = 0.02467930
#
# Stress axis : x y z
#
# Youngs Moduli (GPa) = 69.64077 100.42775 85.18037
#
# Poissons Ratio (x) = 0.20789 0.17372
# Poissons Ratio (y) = 0.14416 0.13451
# Poissons Ratio (z) = 0.14203 0.15859
#
# Static dielectric constant tensor:
#      x y z
#    x 2.029400 -0.014290 -0.065440 
#    y -0.014290 1.982700 0.001660 
#    z -0.065440 0.001660 1.967170 
# 
# From -- ./inp_files/534674.got.cif
#   From: 2010.05.17/outbox.cif.g08.bks.cpg/sg2_268_cif.got.tgz:534674.got - 2010.06.03 11:33:40.
