data_PCOD9037899
_publ_section_title
;
Structure prediction by ZEFSAII (Michael W. Deem and Ramdas Pophale) SiO2 
 PCOD9037899
Probable space group: P -1
;
_chemical_formula_sum "Si O2"
_cell_formula_units_Z 16
_cell_length_a 6.371050
_cell_length_b 15.172757
_cell_length_c 18.278398
_cell_angle_alpha 151.249356
_cell_angle_beta 68.114801
_cell_angle_gamma 111.851058
_cell_volume 784.540929
_symmetry_space_group_name_H-M "P -1"
_symmetry_group_IT_number 2
_symmetry_cell_setting 'triclinic'
loop_
_space_group_symop_operation_xyz
x,y,z
-x,-y,-z
loop_
_atom_site_type_symbol
_atom_site_label
_atom_site_fract_x
_atom_site_fract_y
_atom_site_fract_z
Si Si1 0.875476 0.048270 0.474134
Si Si2 0.505050 0.276415 0.753181
Si Si3 0.735215 0.421420 0.386557
Si Si4 0.623257 0.106610 0.885078
Si Si5 0.748605 0.391159 0.958720
Si Si6 0.724006 0.131417 0.047790
Si Si7 0.141977 0.927722 0.797797
Si Si8 0.077343 0.186327 0.398703
O O1 0.697198 0.195105 0.621487
O O2 0.034574 0.137536 0.453463
O O3 0.718731 0.871360 0.332633
O O4 0.000000 0.000000 0.500000
O O5 0.627313 0.317153 0.845530
O O6 0.415923 0.468909 0.883131
O O7 0.500000 0.500000 0.500000
O O8 0.724883 0.294051 0.223346
O O9 0.822080 0.278163 0.329670
O O10 0.898633 0.601642 0.473165
O O11 0.748737 0.217955 0.884745
O O12 0.354564 0.075677 0.893090
O O13 0.696942 0.900835 0.720704
O O14 0.702323 0.200978 0.018771
O O15 0.000000 0.500000 0.000000
O O16 0.500000 0.000000 0.000000
O O17 0.932020 0.004969 0.923542
O O18 0.107165 0.918022 0.707844
#
# Coordination Sequence:
#
# PCOD9037899 Si02
#       8
#     2   2   2   2   2   2   2   2
#     4  11  23  43  66  94 139 170 215 282 336 393
#     4  10  23  41  64  95 130 172 224 264 338 401
#     4  12  23  44  65  97 134 170 220 274 324 393
#     4  11  23  42  67  93 128 175 218 267 330 394
#     4  11  23  42  67  94 132 173 222 279 328 395
#     4  11  24  43  66  95 131 172 224 263 329 394
#     4  11  23  45  67  91 136 176 217 274 329 389
#     4  11  24  40  66  98 126 173 221 264 335 394
#
# _framework density 20.394093000000002
#
# number of rings (size 3 to 8) (size 9 to 14) (size 15 to 20)
#    0.000    1.000    2.500    4.500    0.000    7.000 
#    2.250    0.000    0.000    0.000    0.000    0.000 
#    0.000    0.000    0.000    0.000    0.000    0.000 
#
# Total GULP energy -89235.677655 kJ/mol
# GULP energy per Si atom -5577.229853 kJ/mol
# Density = 2.034767 g / cm^3
# Si number density = 20.394093 Si / 1000 Ang^3
#
#
#
# Elastic Constant Matrix: (Units=GPa)
#
#
# Indices 1 2 3 4 5 6 
#
# 1 103.9725 39.5231 37.1387 -5.3258 2.5063 -1.2221
# 2 39.5231 87.4766 24.4798 -6.9173 7.6930 -8.5652
# 3 37.1387 24.4798 126.3986 -2.5867 -4.2023 -3.4414
# 4 -5.3258 -6.9173 -2.5867 25.4785 1.1036 2.1354
# 5 2.5063 7.6930 -4.2023 1.1036 36.7656 -6.2665
# 6 -1.2221 -8.5652 -3.4414 2.1354 -6.2665 27.4709
#
#
#
# Elastic Compliance Matrix: (Units=1/GPa)
#
#
# Indices 1 2 3 4 5 6 
#
# 1 0.012519 -0.004902 -0.002761 0.001151 -0.000435 -0.001506
# 2 -0.004902 0.014787 -0.001355 0.002666 -0.002404 0.003467
# 3 -0.002761 -0.001355 0.009064 -0.000180 0.001681 0.000988
# 4 0.001151 0.002666 -0.000180 0.040534 -0.002356 -0.002828
# 5 -0.000435 -0.002404 0.001681 -0.002356 0.029061 0.006254
# 6 -0.001506 0.003467 0.000988 -0.002828 0.006254 0.039186
#
#
# Mechanical properties :
#
#
# Convention : Reuss Voigt Hill
#
# Bulk Modulus (GPa) = 54.53842 57.79233 56.16537
# Shear Modulus (GPa) = 29.53363 32.39008 30.96186
#
# Velocity S-wave (km/s) = 3.80958 3.98956 3.90061
# Velocity P-wave (km/s) = 6.79344 7.04425 6.91998
#
# Compressibility (1/GPa) = 0.01833570
#
# Stress axis : x y z
#
# Youngs Moduli (GPa) = 79.87708 67.62619 110.32473
#
# Poissons Ratio (x) = 0.33150 0.30460
# Poissons Ratio (y) = 0.39155 0.14944
# Poissons Ratio (z) = 0.22054 0.09160
#
# Static dielectric constant tensor:
#      x y z
#    x 1.793660 -0.025200 0.013070 
#    y -0.025200 1.727020 -0.016430 
#    z 0.013070 -0.016430 1.759270 
# 
# From -- ./inp_files/106624.got.cif
#   From: 2010.05.17/outbox.cif.g08.bks.cpg/sg2_54_cif.got.tgz:106624.got - 2010.06.03 11:33:40.
