data_PCOD9037993
_publ_section_title
;
Structure prediction by ZEFSAII (Michael W. Deem and Ramdas Pophale) SiO2 
 PCOD9037993
Probable space group: P -1
;
_chemical_formula_sum "Si O2"
_cell_formula_units_Z 16
_cell_length_a 5.574979
_cell_length_b 15.381329
_cell_length_c 23.241974
_cell_angle_alpha 21.352522
_cell_angle_beta 107.189660
_cell_angle_gamma 99.402623
_cell_volume 656.414868
_symmetry_space_group_name_H-M "P -1"
_symmetry_group_IT_number 2
_symmetry_cell_setting 'triclinic'
loop_
_space_group_symop_operation_xyz
x,y,z
-x,-y,-z
loop_
_atom_site_type_symbol
_atom_site_label
_atom_site_fract_x
_atom_site_fract_y
_atom_site_fract_z
Si Si1 0.742496 0.221711 0.290342
Si Si2 0.886231 0.205626 0.016834
Si Si3 0.895425 0.525711 0.912949
Si Si4 0.354316 0.606770 0.694682
Si Si5 0.957756 0.758688 0.114846
Si Si6 0.408219 0.231618 0.487585
Si Si7 0.407595 0.485056 0.435918
Si Si8 0.856785 0.675049 0.328849
O O1 0.425755 0.373715 0.166461
O O2 0.782367 0.252572 0.343101
O O3 0.951034 0.323241 0.208255
O O4 0.746845 0.954253 0.429061
O O5 0.792061 0.965007 0.159979
O O6 0.984754 0.254335 0.055359
O O7 0.651245 0.460622 0.828183
O O8 0.085648 0.168881 0.000614
O O9 0.000000 0.500000 0.000000
O O10 0.362238 0.791330 0.528923
O O11 0.260175 0.378433 0.804317
O O12 0.222148 0.519996 0.287906
O O13 0.000000 0.000000 0.000000
O O14 0.472764 0.225630 0.563895
O O15 0.500000 0.500000 0.500000
O O16 0.585545 0.623463 0.329609
O O17 0.089459 0.601783 0.343455
O O18 0.000000 0.500000 0.500000
#
# Coordination Sequence:
#
# PCOD9037993 Si02
#       8
#     2   2   2   2   2   2   2   2
#     4  11  25  47  71 102 136 178 235 287 345 404
#     4  10  23  41  65  95 137 181 219 288 341 408
#     4  11  25  45  71 102 135 182 232 280 347 417
#     4  10  24  44  66 100 136 184 227 283 354 407
#     4  11  24  41  67  99 137 181 229 277 353 413
#     4  11  26  40  70 102 136 181 229 291 335 418
#     4  10  24  42  61  96 135 173 217 275 343 396
#     4  10  23  41  66  93 132 178 228 273 338 404
#
# _framework density 24.374827
#
# number of rings (size 3 to 8) (size 9 to 14) (size 15 to 20)
#    0.000    1.500    1.250    1.500    8.750    5.500 
#    0.000    0.000    0.000    0.000    0.000    0.000 
#    0.000    0.000    0.000    0.000    0.000    0.000 
#
# Total GULP energy -89257.199097 kJ/mol
# GULP energy per Si atom -5578.574944 kJ/mol
# Density = 2.431935 g / cm^3
# Si number density = 24.374827 Si / 1000 Ang^3
#
#
#
# Elastic Constant Matrix: (Units=GPa)
#
#
# Indices 1 2 3 4 5 6 
#
# 1 143.0451 39.3814 26.6955 -8.8405 -24.2441 -5.8802
# 2 39.3814 165.7702 11.3560 -16.6618 1.2633 -16.4026
# 3 26.6955 11.3560 39.9830 -24.6906 -4.5529 -7.1807
# 4 -8.8405 -16.6618 -24.6906 41.1262 6.8285 -4.5016
# 5 -24.2441 1.2633 -4.5529 6.8285 37.9955 -4.1247
# 6 -5.8802 -16.4026 -7.1807 -4.5016 -4.1247 38.5648
#
#
#
# Elastic Compliance Matrix: (Units=1/GPa)
#
#
# Indices 1 2 3 4 5 6 
#
# 1 0.009970 -0.002452 -0.008654 -0.005197 0.006224 -0.001075
# 2 -0.002452 0.007285 0.003104 0.005012 -0.001936 0.003680
# 3 -0.008654 0.003104 0.052008 0.032692 -0.003848 0.013089
# 4 -0.005197 0.005012 0.032692 0.047314 -0.006741 0.012229
# 5 0.006224 -0.001936 -0.003848 -0.006741 0.031319 0.001972
# 6 -0.001075 0.003680 0.013089 0.012229 0.001972 0.031407
#
#
# Mechanical properties :
#
#
# Convention : Reuss Voigt Hill
#
# Bulk Modulus (GPa) = 18.77619 55.96267 37.36943
# Shear Modulus (GPa) = 23.46739 41.62831 32.54785
#
# Velocity S-wave (km/s) = 3.10622 4.13709 3.65815
# Velocity P-wave (km/s) = 4.53703 6.76976 5.76257
#
# Compressibility (1/GPa) = 0.05325895
#
# Stress axis : x y z
#
# Youngs Moduli (GPa) = 100.29759 137.26800 19.22769
#
# Poissons Ratio (x) = 0.33657 0.16640
# Poissons Ratio (y) = 0.24592 -0.05967
# Poissons Ratio (z) = 0.86797 -0.42601
#
# Static dielectric constant tensor:
#      x y z
#    x 2.002440 -0.054610 0.038870 
#    y -0.054610 2.117490 -0.016780 
#    z 0.038870 -0.016780 1.937790 
# 
# From -- ./inp_files/69039.got.cif
#   From: 2010.05.17/outbox.cif.g08.bks.cpg/sg2_35_cif.got.tgz:69039.got - 2010.06.03 11:33:40.
