data_PCOD9037664
_publ_section_title
;
Structure prediction by ZEFSAII (Michael W. Deem and Ramdas Pophale) SiO2 
 PCOD9037664
Probable space group: P -1
;
_chemical_formula_sum "Si O2"
_cell_formula_units_Z 16
_cell_length_a 11.803014
_cell_length_b 8.909235
_cell_length_c 13.851837
_cell_angle_alpha 105.433684
_cell_angle_beta 42.010508
_cell_angle_gamma 128.594338
_cell_volume 705.606815
_symmetry_space_group_name_H-M "P -1"
_symmetry_group_IT_number 2
_symmetry_cell_setting 'triclinic'
loop_
_space_group_symop_operation_xyz
x,y,z
-x,-y,-z
loop_
_atom_site_type_symbol
_atom_site_label
_atom_site_fract_x
_atom_site_fract_y
_atom_site_fract_z
Si Si1 0.173134 0.999298 0.329721
Si Si2 0.048007 0.371864 0.839839
Si Si3 0.098685 0.464650 0.519329
Si Si4 0.679011 0.382279 0.099298
Si Si5 0.318786 0.714074 0.600831
Si Si6 0.573177 0.665595 0.167823
Si Si7 0.779662 0.015092 0.257552
Si Si8 0.824853 0.912064 0.881712
O O1 0.428596 0.163151 0.234969
O O2 0.187936 0.072587 0.222481
O O3 0.000000 0.000000 0.500000
O O4 0.072085 0.764341 0.365757
O O5 0.186619 0.508424 0.868383
O O6 0.235913 0.501890 0.660943
O O7 0.944124 0.141875 0.881322
O O8 0.840648 0.358115 0.939496
O O9 0.185646 0.641708 0.572649
O O10 0.324192 0.517989 0.345329
O O11 0.000000 0.500000 0.500000
O O12 0.652610 0.535835 0.096255
O O13 0.579542 0.871239 0.437529
O O14 0.248674 0.821198 0.726726
O O15 0.725540 0.866276 0.177423
O O16 0.596249 0.746790 0.058769
O O17 0.007534 0.117217 0.187569
#
# Coordination Sequence:
#
# PCOD9037664 Si02
#       8
#     2   2   2   2   2   2   2   2
#     4  12  28  49  71 105 138 187 235 287 353 421
#     4  11  25  43  71 103 139 188 232 292 342 410
#     4  11  26  46  70  99 144 186 232 290 352 415
#     4  11  26  44  71 102 149 181 233 288 351 411
#     4  10  23  42  66 104 136 188 237 285 347 412
#     4  11  24  46  69 105 142 184 232 292 345 416
#     4  10  23  40  72 101 142 179 238 289 345 415
#     4  12  26  43  74 104 138 187 234 286 353 414
#
# _framework density 22.675518
#
# number of rings (size 3 to 8) (size 9 to 14) (size 15 to 20)
#    0.000    1.000    3.750    1.125    8.750    3.500 
#    0.000    0.000    0.000    0.000    0.000    0.000 
#    0.000    0.000    0.000    0.000    0.000    0.000 
#
# Total GULP energy -89412.972841 kJ/mol
# GULP energy per Si atom -5588.310803 kJ/mol
# Density = 2.262391 g / cm^3
# Si number density = 22.675518 Si / 1000 Ang^3
#
#
#
# Elastic Constant Matrix: (Units=GPa)
#
#
# Indices 1 2 3 4 5 6 
#
# 1 64.2356 16.4647 26.0614 -5.7136 5.5645 0.3242
# 2 16.4647 90.6101 45.8388 -18.3834 -6.1732 -4.1046
# 3 26.0614 45.8388 89.6325 -20.0049 3.1890 -3.4369
# 4 -5.7136 -18.3834 -20.0049 32.3290 -2.0543 2.9232
# 5 5.5645 -6.1732 3.1890 -2.0543 34.9602 -6.1975
# 6 0.3242 -4.1046 -3.4369 2.9232 -6.1975 35.0365
#
#
#
# Elastic Compliance Matrix: (Units=1/GPa)
#
#
# Indices 1 2 3 4 5 6 
#
# 1 0.017989 -0.001281 -0.004628 -0.000486 -0.002917 -0.001246
# 2 -0.001281 0.016076 -0.006870 0.004791 0.004229 0.001570
# 3 -0.004628 -0.006870 0.017403 0.005924 -0.001689 0.000152
# 4 -0.000486 0.004791 0.005924 0.037525 0.002309 -0.001576
# 5 -0.002917 0.004229 -0.001689 0.002309 0.031109 0.005667
# 6 -0.001246 0.001570 0.000152 -0.001576 0.005667 0.029886
#
#
# Mechanical properties :
#
#
# Convention : Reuss Voigt Hill
#
# Bulk Modulus (GPa) = 38.59365 46.80090 42.69727
# Shear Modulus (GPa) = 27.14689 30.87269 29.00979
#
# Velocity S-wave (km/s) = 3.46380 3.69385 3.58067
# Velocity P-wave (km/s) = 5.74927 6.23514 5.99713
#
# Compressibility (1/GPa) = 0.02591100
#
# Stress axis : x y z
#
# Youngs Moduli (GPa) = 55.58819 62.20604 57.45990
#
# Poissons Ratio (x) = 0.07972 0.26590
# Poissons Ratio (y) = 0.07123 0.39473
# Poissons Ratio (z) = 0.25724 0.42734
#
# Static dielectric constant tensor:
#      x y z
#    x 1.825800 0.000400 0.016900 
#    y 0.000400 1.872530 0.015300 
#    z 0.016900 0.015300 1.884350 
# 
# From -- ./inp_files/514402.got.cif
#   From: 2010.05.17/outbox.cif.g08.bks.cpg/sg2_258_cif.got.tgz:514402.got - 2010.06.03 11:33:40.
