data_PCOD9037801
_publ_section_title
;
Structure prediction by ZEFSAII (Michael W. Deem and Ramdas Pophale) SiO2 
 PCOD9037801
Probable space group: P -1
;
_chemical_formula_sum "Si O2"
_cell_formula_units_Z 14
_cell_length_a 8.629465
_cell_length_b 17.628404
_cell_length_c 23.535612
_cell_angle_alpha 160.423171
_cell_angle_beta 148.955442
_cell_angle_gamma 39.129177
_cell_volume 608.294808
_symmetry_space_group_name_H-M "P -1"
_symmetry_group_IT_number 2
_symmetry_cell_setting 'triclinic'
loop_
_space_group_symop_operation_xyz
x,y,z
-x,-y,-z
loop_
_atom_site_type_symbol
_atom_site_label
_atom_site_fract_x
_atom_site_fract_y
_atom_site_fract_z
Si Si1 0.846428 0.145429 0.411564
Si Si2 0.056396 0.527397 0.219599
Si Si3 0.416164 0.842553 0.776780
Si Si4 0.003582 0.035934 0.875094
Si Si5 0.113423 0.329914 0.847246
Si Si6 0.489349 0.729408 0.318072
Si Si7 0.310877 0.433843 0.528059
O O1 0.872161 0.329851 0.599920
O O2 0.588922 0.111452 0.258776
O O3 0.152703 0.256321 0.549830
O O4 0.842705 0.899906 0.268059
O O5 0.397502 0.476664 0.277303
O O6 0.906292 0.667115 0.224645
O O7 0.877279 0.269817 0.990505
O O8 0.358634 0.569870 0.580060
O O9 0.159882 0.953263 0.808950
O O10 0.733024 0.933445 0.972722
O O11 0.741516 0.838515 0.676728
O O12 0.766850 0.352392 0.772887
O O13 0.356741 0.553033 0.101369
O O14 0.500000 0.000000 0.500000
O O15 0.000000 0.500000 0.500000
#
# Coordination Sequence:
#
# PCOD9037801 Si02
#       7
#     2   2   2   2   2   2   2
#     4  11  24  40  61  95 131 161 198 262 309 359
#     4  11  24  38  63  95 127 161 206 253 310 365
#     4   9  20  38  60  87 121 159 210 253 299 367
#     4   9  20  37  62  88 118 165 206 252 303 362
#     4  10  23  41  63  90 127 165 207 246 303 379
#     4   9  22  40  60  90 117 163 210 250 297 357
#     4   9  20  39  61  90 117 163 208 250 304 361
#
# _framework density 23.015156000000001
#
# number of rings (size 3 to 8) (size 9 to 14) (size 15 to 20)
#    0.000    2.286    0.000    1.286   10.000    6.286 
#    0.000    1.429    0.000    0.000    0.000    0.000 
#    0.000    0.000    0.000    0.000    0.000    0.000 
#
# Total GULP energy -78062.950534 kJ/mol
# GULP energy per Si atom -5575.925038 kJ/mol
# Density = 2.296277 g / cm^3
# Si number density = 23.015156 Si / 1000 Ang^3
#
#
#
# Elastic Constant Matrix: (Units=GPa)
#
#
# Indices 1 2 3 4 5 6 
#
# 1 40.5455 36.5679 29.2549 2.0510 -18.1374 25.9161
# 2 36.5679 106.5621 37.0316 12.1583 -9.9153 43.6999
# 3 29.2549 37.0316 116.7707 25.7416 4.6939 18.7355
# 4 2.0510 12.1583 25.7416 32.1951 1.3933 2.7111
# 5 -18.1374 -9.9153 4.6939 1.3933 34.6759 -9.8545
# 6 25.9161 43.6999 18.7355 2.7111 -9.8545 38.8781
#
#
#
# Elastic Compliance Matrix: (Units=1/GPa)
#
#
# Indices 1 2 3 4 5 6 
#
# 1 0.070558 -0.007321 -0.014974 0.011074 0.029309 -0.024932
# 2 -0.007321 0.019301 -0.000335 -0.004994 -0.002908 -0.017042
# 3 -0.014974 -0.000335 0.014843 -0.010535 -0.009046 0.001647
# 4 0.011074 -0.004994 -0.010535 0.040322 0.004646 0.001674
# 5 0.029309 -0.002908 -0.009046 0.004646 0.044073 -0.001062
# 6 -0.024932 -0.017042 0.001647 0.001674 -0.001062 0.060316
#
#
# Mechanical properties :
#
#
# Convention : Reuss Voigt Hill
#
# Bulk Modulus (GPa) = 16.82327 52.17633 34.49980
# Shear Modulus (GPa) = 15.89892 31.88476 23.89184
#
# Velocity S-wave (km/s) = 2.63116 3.72611 3.22544
# Velocity P-wave (km/s) = 4.06893 6.42117 5.37530
#
# Compressibility (1/GPa) = 0.05944148
#
# Stress axis : x y z
#
# Youngs Moduli (GPa) = 14.17283 51.81189 67.37064
#
# Poissons Ratio (x) = 0.37931 1.00883
# Poissons Ratio (y) = 0.10376 0.02254
# Poissons Ratio (z) = 0.21223 0.01734
#
# Static dielectric constant tensor:
#      x y z
#    x 1.962710 -0.094290 0.007950 
#    y -0.094290 1.899650 0.023260 
#    z 0.007950 0.023260 1.886010 
# 
# From -- ./inp_files/291623.got.cif
#   From: 2010.05.17/outbox.cif.g08.bks.cpg/sg2_146_cif.got.tgz:291623.got - 2010.06.03 11:33:40.
