data_PCOD9037596
_publ_section_title
;
Structure prediction by ZEFSAII (Michael W. Deem and Ramdas Pophale) SiO2 
 PCOD9037596
Probable space group: P -1
;
_chemical_formula_sum "Si O2"
_cell_formula_units_Z 12
_cell_length_a 17.940021
_cell_length_b 12.433579
_cell_length_c 8.754783
_cell_angle_alpha 32.686218
_cell_angle_beta 37.364727
_cell_angle_gamma 28.838227
_cell_volume 496.116252
_symmetry_space_group_name_H-M "P -1"
_symmetry_group_IT_number 2
_symmetry_cell_setting 'triclinic'
loop_
_space_group_symop_operation_xyz
x,y,z
-x,-y,-z
loop_
_atom_site_type_symbol
_atom_site_label
_atom_site_fract_x
_atom_site_fract_y
_atom_site_fract_z
Si Si1 0.352717 0.925223 0.244664
Si Si2 0.852754 0.589833 0.847091
Si Si3 0.010838 0.205410 0.316481
Si Si4 0.531771 0.537512 0.163274
Si Si5 0.263481 0.676272 0.205303
Si Si6 0.973533 0.825546 0.160969
O O1 0.474786 0.769016 0.093838
O O2 0.393903 0.715178 0.553817
O O3 0.316133 0.172488 0.092620
O O4 0.181024 0.053970 0.295728
O O5 0.964272 0.412724 0.017250
O O6 0.921187 0.705971 0.502627
O O7 0.873515 0.390492 0.930046
O O8 0.869641 0.341953 0.505866
O O9 0.000000 0.000000 0.500000
O O10 0.380978 0.598251 0.246768
O O11 0.644421 0.485232 0.903114
O O12 0.172170 0.973840 0.954132
O O13 0.000000 0.000000 0.000000
#
# Coordination Sequence:
#
# PCOD9037596 Si02
#       6
#     2   2   2   2   2   2
#     4  11  22  43  69 101 135 188 236 288 348 416
#     4  11  24  40  69 108 138 180 240 294 348 418
#     4  12  23  40  72 105 136 178 243 296 345 407
#     4  10  23  40  69  96 147 190 223 285 364 412
#     4  11  22  42  69  99 137 188 230 284 358 413
#     4  11  23  42  72 106 140 178 238 300 352 406
#
# _framework density 24.18788
#
# number of rings (size 3 to 8) (size 9 to 14) (size 15 to 20)
#    0.000    1.000    5.000    1.500    0.000    0.000 
#    0.000    1.667    0.000    0.000    0.000    0.000 
#    0.000    0.000    0.000    0.000    0.000    0.000 
#
# Total GULP energy -67204.082501 kJ/mol
# GULP energy per Si atom -5600.340208 kJ/mol
# Density = 2.413283 g / cm^3
# Si number density = 24.187880 Si / 1000 Ang^3
#
#
#
# Elastic Constant Matrix: (Units=GPa)
#
#
# Indices 1 2 3 4 5 6 
#
# 1 106.7141 61.0647 39.7601 -21.1927 21.7600 10.6701
# 2 61.0647 216.7616 40.5265 -1.9751 9.8573 40.3141
# 3 39.7601 40.5265 136.6080 -9.8895 35.6278 -7.9849
# 4 -21.1927 -1.9751 -9.8895 44.3245 -1.1500 6.1631
# 5 21.7600 9.8573 35.6278 -1.1500 39.5967 -11.1030
# 6 10.6701 40.3141 -7.9849 6.1631 -11.1030 59.0795
#
#
#
# Elastic Compliance Matrix: (Units=1/GPa)
#
#
# Indices 1 2 3 4 5 6 
#
# 1 0.014517 -0.002983 -0.001277 0.006727 -0.006650 -0.002711
# 2 -0.002983 0.006421 -0.001370 -0.000899 0.000152 -0.003906
# 3 -0.001277 -0.001370 0.010318 0.001295 -0.007942 0.000932
# 4 0.006727 -0.000899 0.001295 0.026470 -0.005028 -0.004133
# 5 -0.006650 0.000152 -0.007942 -0.005028 0.038029 0.007696
# 6 -0.002711 -0.003906 0.000932 -0.004133 0.007696 0.022084
#
#
# Mechanical properties :
#
#
# Convention : Reuss Voigt Hill
#
# Bulk Modulus (GPa) = 50.01003 82.53180 66.27092
# Shear Modulus (GPa) = 36.82855 49.84894 43.33875
#
# Velocity S-wave (km/s) = 3.90629 4.54465 4.23750
# Velocity P-wave (km/s) = 6.40828 7.85707 7.16937
#
# Compressibility (1/GPa) = 0.01999599
#
# Stress axis : x y z
#
# Youngs Moduli (GPa) = 68.88610 155.73764 96.92076
#
# Poissons Ratio (x) = 0.46455 0.12378
# Poissons Ratio (y) = 0.20548 0.13275
# Poissons Ratio (z) = 0.08798 0.21331
#
# Static dielectric constant tensor:
#      x y z
#    x 1.991210 0.039130 -0.003570 
#    y 0.039130 2.001610 -0.008150 
#    z -0.003570 -0.008150 1.876650 
# 
# From -- ./inp_files/332698.got.cif
#   From: 2010.05.17/outbox.cif.g08.bks.cpg/sg2_167_cif.got.tgz:332698.got - 2010.06.03 11:33:40.
