data_PCOD9037812
_publ_section_title
;
Structure prediction by ZEFSAII (Michael W. Deem and Ramdas Pophale) SiO2 
 PCOD9037812
Probable space group: P -1
;
_chemical_formula_sum "Si O2"
_cell_formula_units_Z 16
_cell_length_a 5.382347
_cell_length_b 14.507806
_cell_length_c 24.571092
_cell_angle_alpha 18.841918
_cell_angle_beta 75.014428
_cell_angle_gamma 78.005882
_cell_volume 594.369553
_symmetry_space_group_name_H-M "P -1"
_symmetry_group_IT_number 2
_symmetry_cell_setting 'triclinic'
loop_
_space_group_symop_operation_xyz
x,y,z
-x,-y,-z
loop_
_atom_site_type_symbol
_atom_site_label
_atom_site_fract_x
_atom_site_fract_y
_atom_site_fract_z
Si Si1 0.468030 0.051978 0.341066
Si Si2 0.766974 0.607419 0.394397
Si Si3 0.493116 0.970318 0.887832
Si Si4 0.898810 0.874138 0.350413
Si Si5 0.084195 0.578245 0.188126
Si Si6 0.227512 0.876784 0.112042
Si Si7 0.085125 0.778513 0.701841
Si Si8 0.220781 0.375531 0.011466
O O1 0.163081 0.051768 0.367041
O O2 0.638776 0.061591 0.382355
O O3 0.564380 0.359845 0.135288
O O4 0.616289 0.842922 0.411489
O O5 0.500000 0.500000 0.500000
O O6 0.709929 0.809771 0.235455
O O7 0.917577 0.346392 0.513851
O O8 0.897898 0.800307 0.328057
O O9 0.705987 0.139921 0.819428
O O10 0.609358 0.868622 0.882835
O O11 0.359244 0.679723 0.086520
O O12 0.031418 0.205298 0.161173
O O13 0.129356 0.590522 0.243506
O O14 0.941537 0.323986 0.302028
O O15 0.932470 0.854612 0.035742
O O16 0.500000 0.000000 0.000000
O O17 0.074206 0.491263 0.901743
#
# Coordination Sequence:
#
# PCOD9037812 Si02
#       8
#     2   2   2   2   2   2   2   2
#     4  10  23  36  58  84 115 155 199 244 298 344
#     4  11  25  38  58  76 115 163 202 247 282 334
#     4  11  19  35  55  81 117 154 195 234 294 347
#     4  11  24  39  51  82 110 157 210 243 284 343
#     4  10  17  33  52  83 122 143 185 230 301 363
#     4   9  19  29  53  82 114 150 180 234 290 367
#     4  10  20  33  55  86 112 154 179 240 304 345
#     4  10  20  33  57  82 116 152 189 246 293 341
#
# _framework density 26.919281000000002
#
# number of rings (size 3 to 8) (size 9 to 14) (size 15 to 20)
#    0.750    1.000    3.750    1.125    3.500    0.500 
#    0.000    0.000    0.000    0.000    0.000    1.750 
#    0.000    0.000    0.000    0.000    0.000    0.000 
#
# Total GULP energy -89433.937692 kJ/mol
# GULP energy per Si atom -5589.621106 kJ/mol
# Density = 2.685801 g / cm^3
# Si number density = 26.919281 Si / 1000 Ang^3
#
#
#
# Elastic Constant Matrix: (Units=GPa)
#
#
# Indices 1 2 3 4 5 6 
#
# 1 109.2852 9.5292 25.7130 -8.2467 24.0010 -5.4577
# 2 9.5292 100.9090 8.0551 -17.8388 12.0368 9.6366
# 3 25.7130 8.0551 79.4772 -10.2176 10.1719 -2.0708
# 4 -8.2467 -17.8388 -10.2176 24.0986 -8.9443 0.9354
# 5 24.0010 12.0368 10.1719 -8.9443 39.9154 -1.0834
# 6 -5.4577 9.6366 -2.0708 0.9354 -1.0834 49.6886
#
#
#
# Elastic Compliance Matrix: (Units=1/GPa)
#
#
# Indices 1 2 3 4 5 6 
#
# 1 0.011182 -0.000178 -0.002784 0.000298 -0.005867 0.001013
# 2 -0.000178 0.011808 0.000065 0.008171 -0.001707 -0.002498
# 3 -0.002784 0.000065 0.014210 0.004783 -0.000890 0.000164
# 4 0.000298 0.008171 0.004783 0.052685 0.007885 -0.002173
# 5 -0.005867 -0.001707 -0.000890 0.007885 0.031094 0.000179
# 6 0.001013 -0.002498 0.000164 -0.002173 0.000179 0.020773
#
#
# Mechanical properties :
#
#
# Convention : Reuss Voigt Hill
#
# Bulk Modulus (GPa) = 31.84226 41.80733 36.82479
# Shear Modulus (GPa) = 31.64243 39.16548 35.40395
#
# Velocity S-wave (km/s) = 3.43221 3.81848 3.63049
# Velocity P-wave (km/s) = 5.24988 5.91654 5.59315
#
# Compressibility (1/GPa) = 0.03140481
#
# Stress axis : x y z
#
# Youngs Moduli (GPa) = 89.42585 84.68691 70.37510
#
# Poissons Ratio (x) = 0.01508 0.19594
# Poissons Ratio (y) = 0.01593 -0.00455
# Poissons Ratio (z) = 0.24899 -0.00548
#
# Static dielectric constant tensor:
#      x y z
#    x 2.172980 0.026880 -0.041240 
#    y 0.026880 2.138620 -0.005390 
#    z -0.041240 -0.005390 2.113000 
# 
# From -- ./inp_files/93368.got.cif
#   From: 2010.05.17/outbox.cif.g08.bks.cpg/sg2_47_cif.got.tgz:93368.got - 2010.06.03 11:33:40.
