data_PCOD9037497
_publ_section_title
;
Structure prediction by ZEFSAII (Michael W. Deem and Ramdas Pophale) SiO2 
 PCOD9037497
Probable space group: P -1
;
_chemical_formula_sum "Si O2"
_cell_formula_units_Z 14
_cell_length_a 10.154361
_cell_length_b 13.848938
_cell_length_c 21.944551
_cell_angle_alpha 19.616013
_cell_angle_beta 148.319999
_cell_angle_gamma 144.221538
_cell_volume 543.268850
_symmetry_space_group_name_H-M "P -1"
_symmetry_group_IT_number 2
_symmetry_cell_setting 'triclinic'
loop_
_space_group_symop_operation_xyz
x,y,z
-x,-y,-z
loop_
_atom_site_type_symbol
_atom_site_label
_atom_site_fract_x
_atom_site_fract_y
_atom_site_fract_z
Si Si1 0.927819 0.421901 0.312797
Si Si2 0.694746 0.752105 0.213433
Si Si3 0.597155 0.067213 0.306502
Si Si4 0.361386 0.425644 0.575705
Si Si5 0.776560 0.518925 0.016485
Si Si6 0.486155 0.337055 0.283794
Si Si7 0.873677 0.185716 0.940542
O O1 0.184812 0.397449 0.464741
O O2 0.954648 0.707145 0.111845
O O3 0.839244 0.154980 0.392645
O O4 0.711722 0.439325 0.266731
O O5 0.792640 0.665297 0.369411
O O6 0.537139 0.490467 0.276180
O O7 0.500000 0.000000 0.000000
O O8 0.888830 0.886926 0.159726
O O9 0.384315 0.238649 0.156810
O O10 0.495418 0.742403 0.449612
O O11 0.659193 0.223208 0.173839
O O12 0.591629 0.216231 0.788298
O O13 0.750836 0.570789 0.903947
O O14 0.051495 0.581639 0.115346
O O15 0.500000 0.000000 0.500000
#
# Coordination Sequence:
#
# PCOD9037497 Si02
#       7
#     2   2   2   2   2   2   2
#     4  10  23  40  68 100 127 177 228 278 332 406
#     4  10  24  43  61  96 140 178 223 274 343 403
#     4   9  20  41  62  97 133 168 228 276 338 399
#     4  11  23  42  66  95 136 187 217 277 340 412
#     4   9  20  39  64  94 130 171 218 290 328 394
#     4  11  24  43  70 102 132 178 234 281 342 408
#     4  10  23  43  63 100 139 172 224 276 347 403
#
# _framework density 25.769931
#
# number of rings (size 3 to 8) (size 9 to 14) (size 15 to 20)
#    0.000    2.000    0.000    3.000    6.000    3.429 
#    5.143    1.429    0.000    0.000    0.000    0.000 
#    0.000    0.000    0.000    0.000    0.000    0.000 
#
# Total GULP energy -78353.517446 kJ/mol
# GULP energy per Si atom -5596.679818 kJ/mol
# Density = 2.571128 g / cm^3
# Si number density = 25.769931 Si / 1000 Ang^3
#
#
#
# Elastic Constant Matrix: (Units=GPa)
#
#
# Indices 1 2 3 4 5 6 
#
# 1 98.1421 30.7268 40.3968 -5.2663 -30.1704 2.3317
# 2 30.7268 152.3390 55.2708 16.0769 -15.6717 -5.4929
# 3 40.3968 55.2708 98.6459 -2.8289 -29.8509 0.3866
# 4 -5.2663 16.0769 -2.8289 57.4792 -4.5933 -4.3298
# 5 -30.1704 -15.6717 -29.8509 -4.5933 48.8105 -5.0029
# 6 2.3317 -5.4929 0.3866 -4.3298 -5.0029 28.8095
#
#
#
# Elastic Compliance Matrix: (Units=1/GPa)
#
#
# Indices 1 2 3 4 5 6 
#
# 1 0.013935 -0.001276 -0.002933 0.002027 0.006613 0.000121
# 2 -0.001276 0.008800 -0.004808 -0.002804 -0.001040 0.001243
# 3 -0.002933 -0.004808 0.016167 0.002467 0.006831 0.000661
# 4 0.002027 -0.002804 0.002467 0.019016 0.003939 0.002810
# 5 0.006613 -0.001040 0.006831 0.003939 0.029287 0.004853
# 6 0.000121 0.001243 0.000661 0.002810 0.004853 0.036194
#
#
# Mechanical properties :
#
#
# Convention : Reuss Voigt Hill
#
# Bulk Modulus (GPa) = 47.91855 66.87954 57.39904
# Shear Modulus (GPa) = 33.69539 41.86868 37.78203
#
# Velocity S-wave (km/s) = 3.61992 4.03514 3.83316
# Velocity P-wave (km/s) = 6.00890 6.90787 6.47401
#
# Compressibility (1/GPa) = 0.02086875
#
# Stress axis : x y z
#
# Youngs Moduli (GPa) = 71.76265 113.63812 61.85251
#
# Poissons Ratio (x) = 0.14498 0.18140
# Poissons Ratio (y) = 0.09155 0.29739
# Poissons Ratio (z) = 0.21047 0.54638
#
# Static dielectric constant tensor:
#      x y z
#    x 2.087210 0.052700 0.041020 
#    y 0.052700 2.057820 0.043040 
#    z 0.041020 0.043040 2.048250 
# 
# From -- ./inp_files/610511.got.cif
#   From: 2010.05.17/outbox.cif.g08.bks.cpg/sg2_306_cif.got.tgz:610511.got - 2010.06.03 11:33:40.
