data_PCOD9037900
_publ_section_title
;
Structure prediction by ZEFSAII (Michael W. Deem and Ramdas Pophale) SiO2 
 PCOD9037900
Probable space group: P -1
;
_chemical_formula_sum "Si O2"
_cell_formula_units_Z 15
_cell_length_a 6.852087
_cell_length_b 10.550008
_cell_length_c 13.068646
_cell_angle_alpha 72.746293
_cell_angle_beta 136.837493
_cell_angle_gamma 105.004657
_cell_volume 615.867554
_symmetry_space_group_name_H-M "P -1"
_symmetry_group_IT_number 2
_symmetry_cell_setting 'triclinic'
loop_
_space_group_symop_operation_xyz
x,y,z
-x,-y,-z
loop_
_atom_site_type_symbol
_atom_site_label
_atom_site_fract_x
_atom_site_fract_y
_atom_site_fract_z
Si Si1 0.488923 0.302828 0.774672
Si Si2 0.962017 0.648209 0.910453
Si Si3 0.252353 0.874771 0.225179
Si Si4 0.640943 0.391842 0.320729
Si Si5 0.074490 0.739256 0.713445
Si Si6 0.412830 0.069627 0.058653
Si Si7 0.000000 0.000000 0.500000
Si Si8 0.860745 0.179989 0.584839
O O1 0.615893 0.263344 0.723200
O O2 0.414198 0.455277 0.719303
O O3 0.201580 0.217743 0.716889
O O4 0.760058 0.272995 0.956888
O O5 0.938689 0.662872 0.776861
O O6 0.650091 0.681685 0.818893
O O7 0.000000 0.500000 0.000000
O O8 0.268059 0.891590 0.347982
O O9 0.425594 0.973798 0.188112
O O10 0.913248 0.887550 0.074927
O O11 0.874295 0.366088 0.330660
O O12 0.725108 0.317221 0.472811
O O13 0.363181 0.809526 0.857544
O O14 0.932954 0.864585 0.579959
O O15 0.500000 0.000000 0.000000
O O16 0.837088 0.090675 0.497220
#
# Coordination Sequence:
#
# PCOD9037900 Si02
#       8
#     2   2   2   2   2   2   1   2
#     4  11  23  42  65  97 133 174 226 275 332 401
#     4  10  23  41  64  95 131 171 222 277 329 394
#     4  11  23  38  67  98 129 173 221 276 337 403
#     4  10  25  42  63  96 134 176 223 278 335 396
#     4  11  22  41  65  91 133 178 218 273 343 402
#     4  11  23  41  64  98 135 172 221 281 339 399
#     4  10  24  42  64  96 132 172 216 274 336 398
#     4  11  24  44  68  96 133 178 224 276 338 405
#
# _framework density 24.355885000000001
#
# number of rings (size 3 to 8) (size 9 to 14) (size 15 to 20)
#    0.000    1.333    0.000    5.200    0.000   11.200 
#    0.000    4.667    0.000    0.000    0.000    0.000 
#    0.000    0.000    0.000    0.000    0.000    0.000 
#
# Total GULP energy -83578.719616 kJ/mol
# GULP energy per Si atom -5571.914641 kJ/mol
# Density = 2.430045 g / cm^3
# Si number density = 24.355885 Si / 1000 Ang^3
#
#
#
# Elastic Constant Matrix: (Units=GPa)
#
#
# Indices 1 2 3 4 5 6 
#
# 1 119.8933 48.8403 42.1231 -11.5859 -12.6010 -1.0516
# 2 48.8403 69.7317 11.7100 -12.2073 -4.8368 -8.7369
# 3 42.1231 11.7100 71.0497 -7.9815 -19.7540 12.8569
# 4 -11.5859 -12.2073 -7.9815 34.3323 12.1568 5.0727
# 5 -12.6010 -4.8368 -19.7540 12.1568 57.5140 4.0467
# 6 -1.0516 -8.7369 12.8569 5.0727 4.0467 34.2833
#
#
#
# Elastic Compliance Matrix: (Units=1/GPa)
#
#
# Indices 1 2 3 4 5 6 
#
# 1 0.014515 -0.008822 -0.007379 -0.000045 -0.000156 0.000989
# 2 -0.008822 0.021610 0.001151 0.004708 -0.001013 0.004228
# 3 -0.007379 0.001151 0.021887 0.002176 0.006184 -0.009193
# 4 -0.000045 0.004708 0.002176 0.033915 -0.005757 -0.003956
# 5 -0.000156 -0.001013 0.006184 -0.005757 0.020904 -0.004198
# 6 0.000989 0.004228 -0.009193 -0.003956 -0.004198 0.034805
#
#
# Mechanical properties :
#
#
# Convention : Reuss Voigt Hill
#
# Bulk Modulus (GPa) = 35.82694 51.78017 43.80356
# Shear Modulus (GPa) = 26.73227 35.75935 31.24581
#
# Velocity S-wave (km/s) = 3.31655 3.83587 3.58562
# Velocity P-wave (km/s) = 5.42289 6.39723 5.93010
#
# Compressibility (1/GPa) = 0.02791196
#
# Stress axis : x y z
#
# Youngs Moduli (GPa) = 68.89473 46.27497 45.68883
#
# Poissons Ratio (x) = 0.40823 0.33714
# Poissons Ratio (y) = 0.60778 -0.05258
# Poissons Ratio (z) = 0.50837 -0.05325
#
# Static dielectric constant tensor:
#      x y z
#    x 1.937480 0.077670 0.031190 
#    y 0.077670 1.952090 0.069300 
#    z 0.031190 0.069300 2.086370 
# 
# From -- ./inp_files/362830.got.cif
#   From: 2010.05.17/outbox.cif.g08.bks.cpg/sg2_182_cif.got.tgz:362830.got - 2010.06.03 11:33:40.
