data_PCOD9037582
_publ_section_title
;
Structure prediction by ZEFSAII (Michael W. Deem and Ramdas Pophale) SiO2 
 PCOD9037582
Probable space group: P -1
;
_chemical_formula_sum "Si O2"
_cell_formula_units_Z 12
_cell_length_a 7.984642
_cell_length_b 12.096724
_cell_length_c 7.758174
_cell_angle_alpha 64.719149
_cell_angle_beta 41.138409
_cell_angle_gamma 75.596242
_cell_volume 442.408023
_symmetry_space_group_name_H-M "P -1"
_symmetry_group_IT_number 2
_symmetry_cell_setting 'triclinic'
loop_
_space_group_symop_operation_xyz
x,y,z
-x,-y,-z
loop_
_atom_site_type_symbol
_atom_site_label
_atom_site_fract_x
_atom_site_fract_y
_atom_site_fract_z
Si Si1 0.808322 0.140022 0.074656
Si Si2 0.903223 0.990810 0.783710
Si Si3 0.701368 0.738148 0.563599
Si Si4 0.199356 0.234529 0.154717
Si Si5 0.566088 0.491553 0.707634
Si Si6 0.810214 0.394457 0.304366
O O1 0.571350 0.209351 0.269728
O O2 0.874217 0.043722 0.233490
O O3 0.074749 0.229062 0.772050
O O4 0.753918 0.075300 0.971346
O O5 0.712225 0.862839 0.981102
O O6 0.000000 0.000000 0.500000
O O7 0.819189 0.800495 0.606975
O O8 0.646199 0.590208 0.725943
O O9 0.921763 0.267167 0.288378
O O10 0.376867 0.365092 0.936894
O O11 0.808443 0.437883 0.474057
O O12 0.455609 0.587873 0.593806
O O13 0.000000 0.500000 0.000000
#
# Coordination Sequence:
#
# PCOD9037582 Si02
#       6
#     2   2   2   2   2   2
#     4  11  29  52  76 111 149 197 246 314 367 437
#     4  11  25  53  77 108 146 199 255 306 368 441
#     4  12  27  48  75 111 152 191 246 308 376 442
#     4  11  24  43  71 107 142 197 242 304 366 443
#     4  10  23  40  69 106 146 193 238 307 370 445
#     4   9  21  40  65 104 142 191 245 295 373 435
#
# _framework density 27.124283999999999
#
# number of rings (size 3 to 8) (size 9 to 14) (size 15 to 20)
#    0.000    1.333    1.667    1.500   14.000    4.000 
#    6.000    0.000    0.000    0.000    0.000    0.000 
#    0.000    0.000    0.000    0.000    0.000    0.000 
#
# Total GULP energy -66929.832456 kJ/mol
# GULP energy per Si atom -5577.486038 kJ/mol
# Density = 2.706255 g / cm^3
# Si number density = 27.124284 Si / 1000 Ang^3
#
#
#
# Elastic Constant Matrix: (Units=GPa)
#
#
# Indices 1 2 3 4 5 6 
#
# 1 83.0102 -5.1740 32.6630 5.8519 13.0222 19.3281
# 2 -5.1740 76.9091 28.3734 26.7286 4.7245 43.7553
# 3 32.6630 28.3734 103.5150 8.2430 0.4003 -9.6323
# 4 5.8519 26.7286 8.2430 30.4230 -10.6300 8.5529
# 5 13.0222 4.7245 0.4003 -10.6300 33.3970 7.7132
# 6 19.3281 43.7553 -9.6323 8.5529 7.7132 51.3520
#
#
#
# Elastic Compliance Matrix: (Units=1/GPa)
#
#
# Indices 1 2 3 4 5 6 
#
# 1 -0.061858 -0.131623 0.059858 0.090787 0.041996 0.125233
# 2 -0.131623 -0.220397 0.109755 0.155206 0.079756 0.220091
# 3 0.059858 0.109755 -0.042425 -0.081054 -0.040023 -0.104495
# 4 0.090787 0.155206 -0.081054 -0.066535 -0.039547 -0.164598
# 5 0.041996 0.079756 -0.040023 -0.039547 0.010085 -0.086199
# 6 0.125233 0.220091 -0.104495 -0.164598 -0.086199 -0.194433
#
#
# Mechanical properties :
#
#
# Convention : Reuss Voigt Hill
#
# Bulk Modulus (GPa) = -4.02090 41.68435 18.83172
# Shear Modulus (GPa) = -6.80788 36.87250 15.03231
#
# Velocity S-wave (km/s) = -1.58598 3.69099 2.35670
# Velocity P-wave (km/s) = 2.19986 5.79360 3.78988
#
# Compressibility (1/GPa) = -0.24870039
#
# Stress axis : x y z
#
# Youngs Moduli (GPa) = -16.16616 -4.53726 -23.57087
#
# Poissons Ratio (x) = -0.59721 1.41090
# Poissons Ratio (y) = -2.12784 2.58703
# Poissons Ratio (z) = 0.96767 0.49799
#
# Static dielectric constant tensor:
#      x y z
#    x 2.240920 0.017890 0.083210 
#    y 0.017890 2.221660 -0.131000 
#    z 0.083210 -0.131000 2.343020 
# 
# From -- ./inp_files/175661.got.cif
#   From: 2010.05.17/outbox.cif.g08.bks.cpg/sg2_88_cif.got.tgz:175661.got - 2010.06.03 11:33:40.
