data_PCOD9037610
_publ_section_title
;
Structure prediction by ZEFSAII (Michael W. Deem and Ramdas Pophale) SiO2 
 PCOD9037610
Probable space group: P -1
;
_chemical_formula_sum "Si O2"
_cell_formula_units_Z 16
_cell_length_a 5.838477
_cell_length_b 15.619987
_cell_length_c 13.688433
_cell_angle_alpha 34.453945
_cell_angle_beta 69.764474
_cell_angle_gamma 84.972097
_cell_volume 615.046067
_symmetry_space_group_name_H-M "P -1"
_symmetry_group_IT_number 2
_symmetry_cell_setting 'triclinic'
loop_
_space_group_symop_operation_xyz
x,y,z
-x,-y,-z
loop_
_atom_site_type_symbol
_atom_site_label
_atom_site_fract_x
_atom_site_fract_y
_atom_site_fract_z
Si Si1 0.408003 0.034223 0.877340
Si Si2 0.842220 0.191879 0.028861
Si Si3 0.649588 0.949497 0.623290
Si Si4 0.863730 0.957639 0.780667
Si Si5 0.082460 0.487528 0.385657
Si Si6 0.882851 0.343068 0.237111
Si Si7 0.694305 0.739750 0.627329
Si Si8 0.500389 0.388414 0.512220
O O1 0.636362 0.018758 0.788498
O O2 0.365787 0.199920 0.732192
O O3 0.167513 0.905763 0.977940
O O4 0.500000 0.000000 0.000000
O O5 0.637235 0.113877 0.221342
O O6 0.798545 0.346717 0.848498
O O7 0.120587 0.200229 0.021466
O O8 0.646188 0.837453 0.637567
O O9 0.827188 0.917028 0.711181
O O10 0.778159 0.147356 0.407230
O O11 0.125836 0.117256 0.605209
O O12 0.316277 0.422266 0.425910
O O13 0.000000 0.500000 0.500000
O O14 0.806291 0.404311 0.446627
O O15 0.592928 0.349220 0.294226
O O16 0.118312 0.352852 0.270603
O O17 0.000000 0.500000 0.000000
O O18 0.500000 0.500000 0.500000
#
# Coordination Sequence:
#
# PCOD9037610 Si02
#       8
#     2   2   2   2   2   2   2   2
#     4  11  25  42  70 101 134 190 236 289 355 426
#     4  11  24  42  71  99 139 184 240 290 345 426
#     4  10  23  43  71 102 134 186 236 285 340 421
#     4  10  23  40  70 102 139 175 244 293 342 411
#     4  10  23  42  68  94 135 177 221 289 349 402
#     4  11  22  40  68 102 138 183 227 287 352 408
#     4  11  23  45  73  99 141 189 236 282 346 422
#     4  10  23  44  66  94 132 174 223 283 348 409
#
# _framework density 26.014310999999999
#
# number of rings (size 3 to 8) (size 9 to 14) (size 15 to 20)
#    0.000    1.500    1.250    3.750   10.500    0.500 
#    0.000    8.750    0.000    0.000    0.000    0.000 
#    0.000    0.000    0.000    0.000    0.000    0.000 
#
# Total GULP energy -89202.949390 kJ/mol
# GULP energy per Si atom -5575.184337 kJ/mol
# Density = 2.595510 g / cm^3
# Si number density = 26.014311 Si / 1000 Ang^3
#
#
#
# Elastic Constant Matrix: (Units=GPa)
#
#
# Indices 1 2 3 4 5 6 
#
# 1 229.8280 26.0416 49.8183 -5.6876 43.6847 -8.8372
# 2 26.0416 109.9362 26.4685 8.1741 4.9790 -18.9712
# 3 49.8183 26.4685 108.6264 -10.1685 40.9941 -18.6623
# 4 -5.6876 8.1741 -10.1685 20.4586 -9.4054 1.6786
# 5 43.6847 4.9790 40.9941 -9.4054 61.8459 1.9753
# 6 -8.8372 -18.9712 -18.6623 1.6786 1.9753 26.8943
#
#
#
# Elastic Compliance Matrix: (Units=1/GPa)
#
#
# Indices 1 2 3 4 5 6 
#
# 1 0.005249 -0.000723 -0.000955 -0.000204 -0.003073 0.000791
# 2 -0.000723 0.011381 -0.001618 -0.006379 -0.000530 0.007105
# 3 -0.000955 -0.001618 0.015535 0.002998 -0.009351 0.009825
# 4 -0.000204 -0.006379 0.002998 0.056863 0.007529 -0.006589
# 5 -0.003073 -0.000530 -0.009351 0.007529 0.026053 -0.010256
# 6 0.000791 0.007105 0.009825 -0.006589 -0.010256 0.050436
#
#
# Mechanical properties :
#
#
# Convention : Reuss Voigt Hill
#
# Bulk Modulus (GPa) = 39.10102 72.56081 55.83091
# Shear Modulus (GPa) = 27.68008 44.91059 36.29533
#
# Velocity S-wave (km/s) = 3.26549 4.15948 3.73930
# Velocity P-wave (km/s) = 5.41120 7.14294 6.33651
#
# Compressibility (1/GPa) = 0.02557478
#
# Stress axis : x y z
#
# Youngs Moduli (GPa) = 190.49659 87.86239 64.36908
#
# Poissons Ratio (x) = 0.06350 0.06146
# Poissons Ratio (y) = 0.13768 0.10416
# Poissons Ratio (z) = 0.18190 0.14217
#
# Static dielectric constant tensor:
#      x y z
#    x 2.207900 0.003500 -0.106100 
#    y 0.003500 2.003140 0.060520 
#    z -0.106100 0.060520 2.062100 
# 
# From -- ./inp_files/485119.got.cif
#   From: 2010.05.17/outbox.cif.g08.bks.cpg/sg2_243_cif.got.tgz:485119.got - 2010.06.03 11:33:40.
