data_PCOD9037119
_publ_section_title
;
Structure prediction by ZEFSAII (Michael W. Deem and Ramdas Pophale) SiO2 
 PCOD9037119
Probable space group: P -1
;
_chemical_formula_sum "Si O2"
_cell_formula_units_Z 14
_cell_length_a 7.784159
_cell_length_b 8.215854
_cell_length_c 21.716618
_cell_angle_alpha 51.749870
_cell_angle_beta 51.472458
_cell_angle_gamma 34.587106
_cell_volume 598.840627
_symmetry_space_group_name_H-M "P -1"
_symmetry_group_IT_number 2
_symmetry_cell_setting 'triclinic'
loop_
_space_group_symop_operation_xyz
x,y,z
-x,-y,-z
loop_
_atom_site_type_symbol
_atom_site_label
_atom_site_fract_x
_atom_site_fract_y
_atom_site_fract_z
Si Si1 0.620616 0.331268 0.334380
Si Si2 0.465741 0.866464 0.094592
Si Si3 0.158086 0.444959 0.238207
Si Si4 0.466172 0.121638 0.786242
Si Si5 0.940462 0.589992 0.595431
Si Si6 0.594105 0.239543 0.497292
Si Si7 0.803076 0.227290 0.183485
O O1 0.532283 0.632147 0.280115
O O2 0.324009 0.382795 0.377516
O O3 0.728550 0.211498 0.407445
O O4 0.823227 0.158703 0.267669
O O5 0.463942 0.978230 0.135211
O O6 0.740283 0.513649 0.120721
O O7 0.137961 0.961667 0.141326
O O8 0.500000 0.000000 0.000000
O O9 0.998003 0.522676 0.322021
O O10 0.492196 0.330574 0.201791
O O11 0.883084 0.715963 0.192910
O O12 0.271858 0.154831 0.250209
O O13 0.252305 0.363804 0.538932
O O14 0.813802 0.911444 0.551604
O O15 0.500000 0.500000 0.500000
#
# Coordination Sequence:
#
# PCOD9037119 Si02
#       7
#     2   2   2   2   2   2   2
#     4  10  23  40  61  87 120 162 210 248 301 368
#     4  11  23  43  66  94 124 159 201 247 304 372
#     4  11  22  41  62  92 125 161 209 251 302 363
#     4  11  23  40  65  91 120 161 204 255 303 363
#     4  11  24  39  59  85 122 163 203 256 305 353
#     4  12  24  38  58  87 121 160 206 261 306 346
#     4  10  23  41  66  90 124 166 201 248 306 369
#
# _framework density 23.378505000000001
#
# number of rings (size 3 to 8) (size 9 to 14) (size 15 to 20)
#    0.000    1.143    0.000    6.857    0.000   10.286 
#    0.000    4.286    0.000    0.000    0.000    0.000 
#    0.000    0.000    0.000    0.000    0.000    0.000 
#
# Total GULP energy -78349.556193 kJ/mol
# GULP energy per Si atom -5596.396871 kJ/mol
# Density = 2.332529 g / cm^3
# Si number density = 23.378505 Si / 1000 Ang^3
#
#
#
# Elastic Constant Matrix: (Units=GPa)
#
#
# Indices 1 2 3 4 5 6 
#
# 1 104.5138 15.1043 49.9213 0.9865 9.7554 -10.6695
# 2 15.1043 93.2013 10.1717 5.7685 -2.9198 -15.9693
# 3 49.9213 10.1717 138.2069 5.4423 17.2695 -10.8136
# 4 0.9865 5.7685 5.4423 21.8515 -7.8417 0.0713
# 5 9.7554 -2.9198 17.2695 -7.8417 24.1931 1.1845
# 6 -10.6695 -15.9693 -10.8136 0.0713 1.1845 37.9553
#
#
#
# Elastic Compliance Matrix: (Units=1/GPa)
#
#
# Indices 1 2 3 4 5 6 
#
# 1 0.011972 -0.001282 -0.003780 -0.000134 -0.002417 0.001825
# 2 -0.001282 0.011935 -0.000052 -0.002784 0.000866 0.004624
# 3 -0.003780 -0.000052 0.009845 -0.004850 -0.007178 0.001954
# 4 -0.000134 -0.002784 -0.004850 0.055363 0.021289 -0.003359
# 5 -0.002417 0.000866 -0.007178 0.021289 0.054638 -0.004105
# 6 0.001825 0.004624 0.001954 -0.003359 -0.004105 0.029496
#
#
# Mechanical properties :
#
#
# Convention : Reuss Voigt Hill
#
# Bulk Modulus (GPa) = 42.51049 54.03517 48.27283
# Shear Modulus (GPa) = 26.13428 34.18164 30.15796
#
# Velocity S-wave (km/s) = 3.34709 3.82789 3.59553
# Velocity P-wave (km/s) = 5.75851 6.53455 6.15876
#
# Compressibility (1/GPa) = 0.02352361
#
# Stress axis : x y z
#
# Youngs Moduli (GPa) = 83.52757 83.78891 101.57008
#
# Poissons Ratio (x) = 0.10746 0.38394
# Poissons Ratio (y) = 0.10712 0.00527
# Poissons Ratio (z) = 0.31574 0.00434
#
# Static dielectric constant tensor:
#      x y z
#    x 2.005980 0.015980 -0.014190 
#    y 0.015980 1.857980 0.004450 
#    z -0.014190 0.004450 1.829620 
# 
# From -- ./inp_files/51091.got.cif
#   From: 2010.05.17/outbox.cif.g08.bks.cpg/sg2_26_cif.got.tgz:51091.got - 2010.06.03 11:33:40.
