data_PCOD9037076
_publ_section_title
;
Structure prediction by ZEFSAII (Michael W. Deem and Ramdas Pophale) SiO2 
 PCOD9037076
Probable space group: P -1
;
_chemical_formula_sum "Si O2"
_cell_formula_units_Z 12
_cell_length_a 14.859952
_cell_length_b 8.685034
_cell_length_c 9.367869
_cell_angle_alpha 67.756172
_cell_angle_beta 60.643578
_cell_angle_gamma 28.398748
_cell_volume 497.106101
_symmetry_space_group_name_H-M "P -1"
_symmetry_group_IT_number 2
_symmetry_cell_setting 'triclinic'
loop_
_space_group_symop_operation_xyz
x,y,z
-x,-y,-z
loop_
_atom_site_type_symbol
_atom_site_label
_atom_site_fract_x
_atom_site_fract_y
_atom_site_fract_z
Si Si1 0.714424 0.164136 0.881480
Si Si2 0.385489 0.044815 0.939912
Si Si3 0.578925 0.489644 0.580908
Si Si4 0.146762 0.603184 0.727818
Si Si5 0.817631 0.773573 0.361375
Si Si6 0.239916 0.319909 0.259458
O O1 0.677997 0.239057 0.713839
O O2 0.500000 0.500000 0.000000
O O3 0.923170 0.967337 0.820970
O O4 0.748905 0.929942 0.994863
O O5 0.278876 0.350450 0.844102
O O6 0.617304 0.716038 0.817021
O O7 0.368638 0.068183 0.116197
O O8 0.500000 0.500000 0.500000
O O9 0.738500 0.407095 0.435729
O O10 0.382062 0.857296 0.666471
O O11 0.131104 0.464230 0.683307
O O12 0.762168 0.784196 0.559300
O O13 0.008322 0.634112 0.276313
#
# Coordination Sequence:
#
# PCOD9037076 Si02
#       6
#     2   2   2   2   2   2
#     4  12  28  45  67 105 144 175 224 295 356 393
#     4  11  23  46  69 104 131 186 231 284 330 413
#     4  12  28  47  68 105 145 180 222 288 356 403
#     4  12  26  47  74  97 138 189 237 273 335 426
#     4  11  23  46  73 105 129 191 234 277 328 427
#     4  10  23  39  77  97 135 168 247 276 327 392
#
# _framework density 24.139717999999998
#
# number of rings (size 3 to 8) (size 9 to 14) (size 15 to 20)
#    0.000    0.667    3.333    3.500    9.333    1.333 
#    0.000    1.667    0.000    0.000    0.000    0.000 
#    0.000    0.000    0.000    0.000    0.000    0.000 
#
# Total GULP energy -67040.540525 kJ/mol
# GULP energy per Si atom -5586.711710 kJ/mol
# Density = 2.408477 g / cm^3
# Si number density = 24.139718 Si / 1000 Ang^3
#
#
#
# Elastic Constant Matrix: (Units=GPa)
#
#
# Indices 1 2 3 4 5 6 
#
# 1 78.1357 39.1870 55.8111 7.8815 -28.1278 -29.8978
# 2 39.1870 106.2519 56.9421 13.6742 -27.0926 -26.4624
# 3 55.8111 56.9421 157.3960 -0.2182 -24.4109 -21.8577
# 4 7.8815 13.6742 -0.2182 41.6929 -11.9165 -9.9781
# 5 -28.1278 -27.0926 -24.4109 -11.9165 53.7735 9.4803
# 6 -29.8978 -26.4624 -21.8577 -9.9781 9.4803 39.8210
#
#
#
# Elastic Compliance Matrix: (Units=1/GPa)
#
#
# Indices 1 2 3 4 5 6 
#
# 1 0.025176 -0.001114 -0.005395 0.001117 0.008013 0.013573
# 2 -0.001114 0.014182 -0.003447 -0.002166 0.003583 0.005300
# 3 -0.005395 -0.003447 0.009473 0.002131 0.000335 -0.000687
# 4 0.001117 -0.002166 0.002131 0.027536 0.005475 0.006165
# 5 0.008013 0.003583 0.000335 0.005475 0.025265 0.003939
# 6 0.013573 0.005300 -0.000687 0.006165 0.003939 0.039055
#
#
# Mechanical properties :
#
#
# Convention : Reuss Voigt Hill
#
# Bulk Modulus (GPa) = 34.57911 71.74045 53.15978
# Shear Modulus (GPa) = 29.37063 39.71369 34.54216
#
# Velocity S-wave (km/s) = 3.49190 4.06046 3.78686
# Velocity P-wave (km/s) = 5.53294 7.19489 6.41794
#
# Compressibility (1/GPa) = 0.02891920
#
# Stress axis : x y z
#
# Youngs Moduli (GPa) = 39.72041 70.51034 105.56422
#
# Poissons Ratio (x) = 0.07856 0.56951
# Poissons Ratio (y) = 0.04425 0.36388
# Poissons Ratio (z) = 0.21429 0.24305
#
# Static dielectric constant tensor:
#      x y z
#    x 2.264020 0.071270 0.069560 
#    y 0.071270 1.927610 0.062320 
#    z 0.069560 0.062320 1.864810 
# 
# From -- ./inp_files/153292.got.cif
#   From: 2010.05.17/outbox.cif.g08.bks.cpg/sg2_77_cif.got.tgz:153292.got - 2010.06.03 11:33:40.
