data_PCOD9037020
_publ_section_title
;
Structure prediction by ZEFSAII (Michael W. Deem and Ramdas Pophale) SiO2 
 PCOD9037020
Probable space group: P -1
;
_chemical_formula_sum "Si O2"
_cell_formula_units_Z 16
_cell_length_a 13.952156
_cell_length_b 7.464199
_cell_length_c 12.271954
_cell_angle_alpha 71.819386
_cell_angle_beta 50.061932
_cell_angle_gamma 45.160019
_cell_volume 671.178603
_symmetry_space_group_name_H-M "P -1"
_symmetry_group_IT_number 2
_symmetry_cell_setting 'triclinic'
loop_
_space_group_symop_operation_xyz
x,y,z
-x,-y,-z
loop_
_atom_site_type_symbol
_atom_site_label
_atom_site_fract_x
_atom_site_fract_y
_atom_site_fract_z
Si Si1 0.381828 0.574515 0.207698
Si Si2 0.676726 0.968677 0.100235
Si Si3 0.304182 0.606274 0.493404
Si Si4 0.794104 0.869703 0.509154
Si Si5 0.599608 0.729842 0.045005
Si Si6 0.625943 0.039932 0.378900
Si Si7 0.842005 0.596769 0.721046
Si Si8 0.074057 0.139482 0.232280
O O1 0.521972 0.276298 0.116284
O O2 0.308390 0.550335 0.373493
O O3 0.495820 0.643099 0.140799
O O4 0.211910 0.830841 0.221980
O O5 0.685911 0.976161 0.222525
O O6 0.647961 0.785587 0.111415
O O7 0.851318 0.856190 0.935430
O O8 0.495660 0.347823 0.440734
O O9 0.127833 0.706798 0.654011
O O10 0.287547 0.845920 0.462407
O O11 0.730318 0.791872 0.663064
O O12 0.999827 0.665756 0.405780
O O13 0.766640 0.864049 0.402496
O O14 0.764103 0.541779 0.879907
O O15 0.500000 0.000000 0.000000
O O16 0.500000 0.000000 0.500000
O O17 0.897297 0.728229 0.721775
#
# Coordination Sequence:
#
# PCOD9037020 Si02
#       8
#     2   2   2   2   2   2   2   2
#     4  11  22  39  67 100 139 174 219 279 331 401
#     4  10  25  42  67  96 137 179 224 275 334 403
#     4  11  24  42  67  99 133 175 223 275 330 405
#     4  11  23  43  65  99 132 173 223 275 332 396
#     4  11  21  39  66 101 136 172 222 274 341 388
#     4  11  26  45  68  90 133 182 224 268 333 407
#     4  10  23  39  69 102 132 167 223 280 335 396
#     4  11  21  42  63 102 133 170 220 276 340 382
#
# _framework density 23.838661999999999
#
# number of rings (size 3 to 8) (size 9 to 14) (size 15 to 20)
#    0.000    1.250    3.750    1.875    5.250    0.000 
#    0.000    6.250    0.000    0.000    0.000    0.000 
#    0.000    0.000    0.000    0.000    0.000    0.000 
#
# Total GULP energy -89372.695047 kJ/mol
# GULP energy per Si atom -5585.793440 kJ/mol
# Density = 2.378440 g / cm^3
# Si number density = 23.838662 Si / 1000 Ang^3
#
#
#
# Elastic Constant Matrix: (Units=GPa)
#
#
# Indices 1 2 3 4 5 6 
#
# 1 95.9183 27.4431 43.7906 -13.0482 12.1014 10.8183
# 2 27.4431 76.3189 27.3282 -2.6785 12.1584 10.9433
# 3 43.7906 27.3282 180.4890 5.9562 9.0592 -6.9346
# 4 -13.0482 -2.6785 5.9562 22.4018 1.6119 7.0590
# 5 12.1014 12.1584 9.0592 1.6119 37.2149 -1.7338
# 6 10.8183 10.9433 -6.9346 7.0590 -1.7338 38.1774
#
#
#
# Elastic Compliance Matrix: (Units=1/GPa)
#
#
# Indices 1 2 3 4 5 6 
#
# 1 0.015966 -0.002120 -0.004027 0.012702 -0.004404 -0.007197
# 2 -0.002120 0.016155 -0.002012 0.003189 -0.004479 -0.005189
# 3 -0.004027 -0.002012 0.007139 -0.005832 0.000674 0.004124
# 4 0.012702 0.003189 -0.005832 0.059827 -0.007134 -0.016959
# 5 -0.004404 -0.004479 0.000674 -0.007134 0.030160 0.005343
# 6 -0.007197 -0.005189 0.004124 -0.016959 0.005343 0.033847
#
#
# Mechanical properties :
#
#
# Convention : Reuss Voigt Hill
#
# Bulk Modulus (GPa) = 43.58631 61.09444 52.34037
# Shear Modulus (GPa) = 26.72955 36.50311 31.61633
#
# Velocity S-wave (km/s) = 3.35217 3.91737 3.64574
# Velocity P-wave (km/s) = 5.77116 6.79301 6.30283
#
# Compressibility (1/GPa) = 0.02294298
#
# Stress axis : x y z
#
# Youngs Moduli (GPa) = 62.63379 61.90103 140.06999
#
# Poissons Ratio (x) = 0.13120 0.56411
# Poissons Ratio (y) = 0.13276 0.28176
# Poissons Ratio (z) = 0.25225 0.12452
#
# Static dielectric constant tensor:
#      x y z
#    x 1.954090 0.084890 -0.030690 
#    y 0.084890 1.883720 0.044370 
#    z -0.030690 0.044370 1.953680 
# 
# From -- ./inp_files/447093.got.cif
#   From: 2010.05.17/outbox.cif.g08.bks.cpg/sg2_224_cif.got.tgz:447093.got - 2010.06.03 11:33:40.
