data_PCOD9037315
_publ_section_title
;
Structure prediction by ZEFSAII (Michael W. Deem and Ramdas Pophale) SiO2 
 PCOD9037315
Probable space group: P -1
;
_chemical_formula_sum "Si O2"
_cell_formula_units_Z 16
_cell_length_a 9.344639
_cell_length_b 9.642684
_cell_length_c 12.450440
_cell_angle_alpha 140.387676
_cell_angle_beta 90.837572
_cell_angle_gamma 85.613666
_cell_volume 711.468156
_symmetry_space_group_name_H-M "P -1"
_symmetry_group_IT_number 2
_symmetry_cell_setting 'triclinic'
loop_
_space_group_symop_operation_xyz
x,y,z
-x,-y,-z
loop_
_atom_site_type_symbol
_atom_site_label
_atom_site_fract_x
_atom_site_fract_y
_atom_site_fract_z
Si Si1 0.362053 0.381021 0.361813
Si Si2 0.543332 0.245791 0.880246
Si Si3 0.771570 0.648462 0.433416
Si Si4 0.117249 0.017162 0.892259
Si Si5 0.321978 0.875952 0.629066
Si Si6 0.055138 0.354906 0.246821
Si Si7 0.662422 0.055325 0.562347
Si Si8 0.378970 0.774747 0.880724
O O1 0.312469 0.282754 0.416039
O O2 0.390177 0.638292 0.532382
O O3 0.210581 0.404851 0.312212
O O4 0.477484 0.246474 0.204730
O O5 0.658615 0.180854 0.749177
O O6 0.422195 0.074904 0.761829
O O7 0.500000 0.500000 0.000000
O O8 0.590869 0.212729 0.984845
O O9 0.686888 0.453745 0.272387
O O10 0.934623 0.548567 0.390257
O O11 0.758909 0.833785 0.455493
O O12 0.180234 0.958731 0.742091
O O13 0.255475 0.946567 0.930139
O O14 0.996463 0.856427 0.818836
O O15 0.060490 0.263974 0.070153
O O16 0.293256 0.834395 0.479367
O O17 0.500000 0.000000 0.500000
#
# Coordination Sequence:
#
# PCOD9037315 Si02
#       8
#     2   2   2   2   2   2   2   2
#     4  12  23  39  69  99 136 170 221 276 324 384
#     4  11  23  40  61  95 138 174 206 269 346 388
#     4  11  23  43  64  99 131 179 218 262 334 395
#     4  10  23  41  65 101 132 173 216 278 322 392
#     4  11  22  41  64  96 128 172 223 268 319 389
#     4  10  23  43  64  94 140 175 213 265 341 386
#     4  10  23  40  65  91 133 171 215 266 323 393
#     4  11  22  37  66 100 131 163 224 275 328 375
#
# _framework density 22.488709
#
# number of rings (size 3 to 8) (size 9 to 14) (size 15 to 20)
#    0.000    1.250    2.500    5.250    5.250    1.000 
#    0.000    1.250    0.000    1.500    0.000    0.000 
#    0.000    0.000    0.000    0.000    0.000    0.000 
#
# Total GULP energy -89379.942887 kJ/mol
# GULP energy per Si atom -5586.246430 kJ/mol
# Density = 2.243752 g / cm^3
# Si number density = 22.488709 Si / 1000 Ang^3
#
#
#
# Elastic Constant Matrix: (Units=GPa)
#
#
# Indices 1 2 3 4 5 6 
#
# 1 100.0927 12.3938 27.8965 -8.6577 -15.4366 10.1233
# 2 12.3938 112.0665 36.6214 -19.6138 -4.6230 6.8138
# 3 27.8965 36.6214 87.2137 -23.4211 -10.9970 6.9458
# 4 -8.6577 -19.6138 -23.4211 55.2383 10.1582 -7.0760
# 5 -15.4366 -4.6230 -10.9970 10.1582 37.1327 -6.7322
# 6 10.1233 6.8138 6.9458 -7.0760 -6.7322 21.5424
#
#
#
# Elastic Compliance Matrix: (Units=1/GPa)
#
#
# Indices 1 2 3 4 5 6 
#
# 1 0.011723 0.000001 -0.003193 -0.000611 0.003441 -0.003605
# 2 0.000001 0.010616 -0.003863 0.002045 -0.000681 -0.001654
# 3 -0.003193 -0.003863 0.015505 0.004376 0.001520 -0.000364
# 4 -0.000611 0.002045 0.004376 0.021846 -0.003922 0.004179
# 5 0.003441 -0.000681 0.001520 -0.003922 0.030978 0.006501
# 6 -0.003605 -0.001654 -0.000364 0.004179 0.006501 0.052159
#
#
# Mechanical properties :
#
#
# Convention : Reuss Voigt Hill
#
# Bulk Modulus (GPa) = 42.13300 50.35515 46.24408
# Shear Modulus (GPa) = 30.33079 37.61344 33.97212
#
# Velocity S-wave (km/s) = 3.67647 4.09412 3.89090
# Velocity P-wave (km/s) = 6.06611 6.69246 6.38697
#
# Compressibility (1/GPa) = 0.02373437
#
# Stress axis : x y z
#
# Youngs Moduli (GPa) = 85.30174 94.19832 64.49329
#
# Poissons Ratio (x) = -0.00012 0.20595
# Poissons Ratio (y) = -0.00011 0.24914
# Poissons Ratio (z) = 0.27239 0.36389
#
# Static dielectric constant tensor:
#      x y z
#    x 1.847800 -0.002670 0.019880 
#    y -0.002670 1.837720 0.009760 
#    z 0.019880 0.009760 1.918790 
# 
# From -- ./inp_files/418618.got.cif
#   From: 2010.05.17/outbox.cif.g08.bks.cpg/sg2_210_cif.got.tgz:418618.got - 2010.06.03 11:33:40.
