data_PCOD9037978
_publ_section_title
;
Structure prediction by ZEFSAII (Michael W. Deem and Ramdas Pophale) SiO2 
 PCOD9037978
Probable space group: P -1
;
_chemical_formula_sum "Si O2"
_cell_formula_units_Z 16
_cell_length_a 22.521767
_cell_length_b 8.908969
_cell_length_c 21.769325
_cell_angle_alpha 141.072846
_cell_angle_beta 17.351630
_cell_angle_gamma 131.110310
_cell_volume 729.387510
_symmetry_space_group_name_H-M "P -1"
_symmetry_group_IT_number 2
_symmetry_cell_setting 'triclinic'
loop_
_space_group_symop_operation_xyz
x,y,z
-x,-y,-z
loop_
_atom_site_type_symbol
_atom_site_label
_atom_site_fract_x
_atom_site_fract_y
_atom_site_fract_z
Si Si1 0.904502 0.102946 0.716584
Si Si2 0.761883 0.788592 0.668233
Si Si3 0.011862 0.061042 0.864817
Si Si4 0.290018 0.459229 0.598335
Si Si5 0.410847 0.992762 0.755246
Si Si6 0.553199 0.745600 0.406236
Si Si7 0.562354 0.406793 0.707970
Si Si8 0.003257 0.215029 0.780440
O O1 0.969858 0.046643 0.705429
O O2 0.092452 0.167578 0.517137
O O3 0.883118 0.855282 0.626818
O O4 0.656295 0.360082 0.034552
O O5 0.716417 0.529190 0.625633
O O6 0.500000 0.000000 0.000000
O O7 0.048901 0.109771 0.771921
O O8 0.888889 0.343917 0.112226
O O9 0.839464 0.935043 0.992713
O O10 0.241081 0.848896 0.601371
O O11 0.506954 0.227193 0.342663
O O12 0.364762 0.651120 0.550751
O O13 0.195401 0.298207 0.600480
O O14 0.546255 0.820768 0.508223
O O15 0.454895 0.247994 0.803778
O O16 0.500000 0.000000 0.500000
O O17 0.784112 0.496094 0.085044
#
# Coordination Sequence:
#
# PCOD9037978 Si02
#       8
#     2   2   2   2   2   2   2   2
#     4  10  23  41  65  95 123 151 201 267 317 375
#     4   9  21  45  68  88 121 159 194 253 335 383
#     4  11  21  38  63  88 125 179 210 244 298 373
#     4  11  22  39  60  85 130 182 214 238 304 365
#     4  11  20  38  61  86 126 177 217 242 299 371
#     4  11  23  37  56  89 130 166 215 268 295 343
#     4  11  21  37  66  93 116 159 211 253 308 372
#     4  12  22  37  62  91 122 164 211 255 308 355
#
# _framework density 21.936212000000001
#
# number of rings (size 3 to 8) (size 9 to 14) (size 15 to 20)
#    0.000    1.250    3.750    3.375    0.000    4.500 
#    0.000    0.625    0.000    7.500    0.000    0.000 
#    0.000    0.000    0.000    0.000    0.000    0.000 
#
# Total GULP energy -89164.219152 kJ/mol
# GULP energy per Si atom -5572.763697 kJ/mol
# Density = 2.188628 g / cm^3
# Si number density = 21.936212 Si / 1000 Ang^3
#
#
#
# Elastic Constant Matrix: (Units=GPa)
#
#
# Indices 1 2 3 4 5 6 
#
# 1 69.4582 -7.8498 -15.4864 0.1141 -29.4147 3.7238
# 2 -7.8498 95.2145 -25.1039 -17.0865 -37.8676 15.4138
# 3 -15.4864 -25.1039 70.0573 -6.5842 -25.1307 1.9620
# 4 0.1141 -17.0865 -6.5842 31.2002 6.0656 -9.6648
# 5 -29.4147 -37.8676 -25.1307 6.0656 -20.0879 -9.4282
# 6 3.7238 15.4138 1.9620 -9.6648 -9.4282 29.9173
#
#
#
# Elastic Compliance Matrix: (Units=1/GPa)
#
#
# Indices 1 2 3 4 5 6 
#
# 1 0.010549 -0.002428 -0.001437 -0.000981 -0.008044 -0.002820
# 2 -0.002428 0.008565 0.000013 0.004744 -0.008681 -0.005315
# 3 -0.001437 0.000013 0.010957 0.003412 -0.009459 -0.002425
# 4 -0.000981 0.004744 0.003412 0.038873 -0.004126 0.008712
# 5 -0.008044 -0.008681 -0.009459 -0.004126 -0.011573 0.001114
# 6 -0.002820 -0.005315 -0.002425 0.008712 0.001114 0.039839
#
#
# Mechanical properties :
#
#
# Convention : Reuss Voigt Hill
#
# Bulk Modulus (GPa) = 44.70942 15.31663 30.01302
# Shear Modulus (GPa) = 44.49619 27.08391 35.79005
#
# Velocity S-wave (km/s) = 4.50870 3.51759 4.04363
# Velocity P-wave (km/s) = 6.89422 4.84721 5.95927
#
# Compressibility (1/GPa) = 0.02236665
#
# Stress axis : x y z
#
# Youngs Moduli (GPa) = 94.79990 116.75129 91.26943
#
# Poissons Ratio (x) = 0.28348 0.13116
# Poissons Ratio (y) = 0.23018 -0.00121
# Poissons Ratio (z) = 0.13623 -0.00155
#
# Static dielectric constant tensor:
#      x y z
#    x 1.846460 0.038130 -0.000280 
#    y 0.038130 1.866100 -0.041650 
#    z -0.000280 -0.041650 1.896590 
# 
# From -- ./inp_files/294206.got.cif
#   From: 2010.05.17/outbox.cif.g08.bks.cpg/sg2_148_cif.got.tgz:294206.got - 2010.06.03 11:33:40.
