data_PCOD9037322
_publ_section_title
;
Structure prediction by ZEFSAII (Michael W. Deem and Ramdas Pophale) SiO2 
 PCOD9037322
Probable space group: P -1
;
_chemical_formula_sum "Si O2"
_cell_formula_units_Z 16
_cell_length_a 10.658954
_cell_length_b 9.584440
_cell_length_c 13.371499
_cell_angle_alpha 61.562270
_cell_angle_beta 46.430542
_cell_angle_gamma 39.537835
_cell_volume 625.508570
_symmetry_space_group_name_H-M "P -1"
_symmetry_group_IT_number 2
_symmetry_cell_setting 'triclinic'
loop_
_space_group_symop_operation_xyz
x,y,z
-x,-y,-z
loop_
_atom_site_type_symbol
_atom_site_label
_atom_site_fract_x
_atom_site_fract_y
_atom_site_fract_z
Si Si1 0.565541 0.535004 0.629966
Si Si2 0.948579 0.831896 0.605983
Si Si3 0.873908 0.558483 0.832220
Si Si4 0.078803 0.674001 0.804040
Si Si5 0.344378 0.881285 0.023882
Si Si6 0.978412 0.193499 0.762985
Si Si7 0.589642 0.150993 0.235828
Si Si8 0.626139 0.053859 0.536109
O O1 0.809808 0.297677 0.544224
O O2 0.592866 0.611072 0.693276
O O3 0.335760 0.565538 0.739593
O O4 0.514154 0.711583 0.518258
O O5 0.888998 0.681879 0.695193
O O6 0.008445 0.823950 0.691826
O O7 0.728202 0.038257 0.593219
O O8 0.064451 0.503915 0.827149
O O9 0.910179 0.372489 0.818561
O O10 0.612451 0.738601 0.965795
O O11 0.855121 0.858184 0.934752
O O12 0.240027 0.781367 0.153096
O O13 0.385851 0.842624 0.896090
O O14 0.146921 0.131482 0.597950
O O15 0.160362 0.968146 0.805754
O O16 0.526319 0.009977 0.347219
#
# Coordination Sequence:
#
# PCOD9037322 Si02
#       8
#     2   2   2   2   2   2   2   2
#     4  11  22  42  69  97 134 171 223 281 323 388
#     4  10  23  41  69  95 132 175 223 267 336 388
#     4  10  23  40  65  92 132 174 217 267 329 394
#     4  10  23  43  64  93 134 184 212 265 334 401
#     4  12  22  44  66  95 136 173 219 267 337 394
#     4  11  23  40  65 100 131 166 227 278 322 388
#     4  11  22  39  69  94 131 174 216 273 338 386
#     4  11  22  41  68 102 128 171 225 279 328 386
#
# _framework density 25.579187999999998
#
# number of rings (size 3 to 8) (size 9 to 14) (size 15 to 20)
#    0.750    0.500    3.750    4.500    1.750    1.500 
#    0.000    0.625    2.750    0.000    0.000    0.000 
#    0.000    0.000    0.000    0.000    0.000    0.000 
#
# Total GULP energy -89530.051683 kJ/mol
# GULP energy per Si atom -5595.628230 kJ/mol
# Density = 2.552097 g / cm^3
# Si number density = 25.579188 Si / 1000 Ang^3
#
#
#
# Elastic Constant Matrix: (Units=GPa)
#
#
# Indices 1 2 3 4 5 6 
#
# 1 97.9274 13.2246 29.4896 10.2164 -8.8654 12.2207
# 2 13.2246 18.2015 2.0172 -4.6532 -8.0938 2.4152
# 3 29.4896 2.0172 85.2094 12.7557 -12.6455 -3.8819
# 4 10.2164 -4.6532 12.7557 25.6823 -4.5348 -2.1386
# 5 -8.8654 -8.0938 -12.6455 -4.5348 54.3719 -3.5654
# 6 12.2207 2.4152 -3.8819 -2.1386 -3.5654 38.3940
#
#
#
# Elastic Compliance Matrix: (Units=1/GPa)
#
#
# Indices 1 2 3 4 5 6 
#
# 1 0.014077 -0.011262 -0.004056 -0.006214 -0.001147 -0.004635
# 2 -0.011262 0.072591 0.000978 0.019166 0.010874 0.001195
# 3 -0.004056 0.000978 0.014318 -0.004640 0.002602 0.002660
# 4 -0.006214 0.019166 -0.004640 0.048361 0.005021 0.003463
# 5 -0.001147 0.010874 0.002602 0.005021 0.020990 0.002173
# 6 -0.004635 0.001195 0.002660 0.003463 0.002173 0.028110
#
#
# Mechanical properties :
#
#
# Convention : Reuss Voigt Hill
#
# Bulk Modulus (GPa) = 13.82998 32.31122 23.07060
# Shear Modulus (GPa) = 19.90213 34.13010 27.01612
#
# Velocity S-wave (km/s) = 2.79240 3.65676 3.25341
# Velocity P-wave (km/s) = 3.97682 5.52163 4.81163
#
# Compressibility (1/GPa) = 0.07230668
#
# Stress axis : x y z
#
# Youngs Moduli (GPa) = 71.03852 13.77575 69.84053
#
# Poissons Ratio (x) = 0.15514 0.28329
# Poissons Ratio (y) = 0.80002 -0.06831
# Poissons Ratio (z) = 0.28815 -0.01347
#
# Static dielectric constant tensor:
#      x y z
#    x 2.019750 -0.021920 -0.009320 
#    y -0.021920 2.003600 -0.006740 
#    z -0.009320 -0.006740 1.993670 
# 
# From -- ./inp_files/399754.got.cif
#   From: 2010.05.17/outbox.cif.g08.bks.cpg/sg2_200_cif.got.tgz:399754.got - 2010.06.03 11:33:40.
