data_PCOD9037735
_publ_section_title
;
Structure prediction by ZEFSAII (Michael W. Deem and Ramdas Pophale) SiO2 
 PCOD9037735
Probable space group: P -1
;
_chemical_formula_sum "Si O2"
_cell_formula_units_Z 16
_cell_length_a 11.695227
_cell_length_b 11.582988
_cell_length_c 9.126611
_cell_angle_alpha 123.852898
_cell_angle_beta 124.245963
_cell_angle_gamma 59.055364
_cell_volume 811.647386
_symmetry_space_group_name_H-M "P -1"
_symmetry_group_IT_number 2
_symmetry_cell_setting 'triclinic'
loop_
_space_group_symop_operation_xyz
x,y,z
-x,-y,-z
loop_
_atom_site_type_symbol
_atom_site_label
_atom_site_fract_x
_atom_site_fract_y
_atom_site_fract_z
Si Si1 0.792852 0.591723 0.907113
Si Si2 0.034357 0.402922 0.246127
Si Si3 0.491426 0.641995 0.193082
Si Si4 0.792502 0.678325 0.404832
Si Si5 0.491036 0.344149 0.429524
Si Si6 0.814591 0.287972 0.881091
Si Si7 0.190562 0.853136 0.518475
Si Si8 0.098351 0.183694 0.657111
O O1 0.644361 0.671978 0.772110
O O2 0.779100 0.448764 0.885524
O O3 0.906743 0.546254 0.824069
O O4 0.844379 0.706027 0.124094
O O5 0.905300 0.533083 0.314086
O O6 0.163843 0.342437 0.409313
O O7 0.958365 0.280438 0.066691
O O8 0.625277 0.692996 0.265979
O O9 0.519030 0.643379 0.391264
O O10 0.319675 0.721002 0.123661
O O11 0.500000 0.500000 0.000000
O O12 0.833740 0.808140 0.446868
O O13 0.500000 0.500000 0.500000
O O14 0.640512 0.229532 0.405079
O O15 0.840744 0.169054 0.690440
O O16 0.075140 0.783588 0.461865
O O17 0.153084 0.021986 0.647040
#
# Coordination Sequence:
#
# PCOD9037735 Si02
#       8
#     2   2   2   2   2   2   2   2
#     4  12  20  37  65  89 115 154 202 245 289 346
#     4  11  21  34  59  90 118 149 200 248 286 341
#     4  11  20  35  54  85 123 149 185 240 300 340
#     4  11  23  35  55  91 122 150 192 248 296 348
#     4  11  23  37  62  90 119 153 199 247 287 345
#     4  11  20  37  61  89 115 158 198 242 292 345
#     4  10  23  41  62  86 118 156 198 245 296 346
#     4  11  23  41  63  85 120 157 198 241 299 355
#
# _framework density 19.712990999999999
#
# number of rings (size 3 to 8) (size 9 to 14) (size 15 to 20)
#    0.000    1.000    7.500    1.125    0.000    0.500 
#    0.000    3.125    0.000    0.000    0.000    0.000 
#    0.000    0.000    0.000    0.000    0.000    0.000 
#
# Total GULP energy -89112.479405 kJ/mol
# GULP energy per Si atom -5569.529963 kJ/mol
# Density = 1.966812 g / cm^3
# Si number density = 19.712991 Si / 1000 Ang^3
#
#
#
# Elastic Constant Matrix: (Units=GPa)
#
#
# Indices 1 2 3 4 5 6 
#
# 1 133.7776 20.3556 20.4370 0.6878 22.2478 -5.0307
# 2 20.3556 38.0271 30.8667 3.6524 4.5163 -3.0515
# 3 20.4370 30.8667 92.2938 -1.0039 19.2308 -7.9597
# 4 0.6878 3.6524 -1.0039 22.5788 -2.3270 2.4639
# 5 22.2478 4.5163 19.2308 -2.3270 32.3085 -4.6198
# 6 -5.0307 -3.0515 -7.9597 2.4639 -4.6198 25.2487
#
#
#
# Elastic Compliance Matrix: (Units=1/GPa)
#
#
# Indices 1 2 3 4 5 6 
#
# 1 0.009100 -0.004837 0.000903 -0.000126 -0.006078 0.000414
# 2 -0.004837 0.039779 -0.013322 -0.006460 0.005416 0.001265
# 3 0.000903 -0.013322 0.017067 0.001770 -0.008473 0.002227
# 4 -0.000126 -0.006460 0.001770 0.046156 0.002650 -0.004267
# 5 -0.006078 0.005416 -0.008473 0.002650 0.040166 0.003863
# 6 0.000414 0.001265 0.002227 -0.004267 0.003863 0.041667
#
#
# Mechanical properties :
#
#
# Convention : Reuss Voigt Hill
#
# Bulk Modulus (GPa) = 31.81272 45.26856 38.54064
# Shear Modulus (GPa) = 20.92713 28.85647 24.89180
#
# Velocity S-wave (km/s) = 3.26174 3.83015 3.55732
# Velocity P-wave (km/s) = 5.50983 6.52486 6.03871
#
# Compressibility (1/GPa) = 0.03143397
#
# Stress axis : x y z
#
# Youngs Moduli (GPa) = 109.88866 25.13908 58.59251
#
# Poissons Ratio (x) = 0.12161 -0.05294
# Poissons Ratio (y) = 0.53158 0.78057
# Poissons Ratio (z) = -0.09928 0.33490
#
# Static dielectric constant tensor:
#      x y z
#    x 1.799500 -0.025860 0.010350 
#    y -0.025860 1.721080 -0.029390 
#    z 0.010350 -0.029390 1.738970 
# 
# From -- ./inp_files/263573.got.cif
#   From: 2010.05.17/outbox.cif.g08.bks.cpg/sg2_132_cif.got.tgz:263573.got - 2010.06.03 11:33:40.
