data_PCOD9037599
_publ_section_title
;
Structure prediction by ZEFSAII (Michael W. Deem and Ramdas Pophale) SiO2 
 PCOD9037599
Probable space group: P -1
;
_chemical_formula_sum "Si O2"
_cell_formula_units_Z 14
_cell_length_a 5.214319
_cell_length_b 24.065194
_cell_length_c 17.237805
_cell_angle_alpha 159.614105
_cell_angle_beta 120.964660
_cell_angle_gamma 66.296293
_cell_volume 622.329307
_symmetry_space_group_name_H-M "P -1"
_symmetry_group_IT_number 2
_symmetry_cell_setting 'triclinic'
loop_
_space_group_symop_operation_xyz
x,y,z
-x,-y,-z
loop_
_atom_site_type_symbol
_atom_site_label
_atom_site_fract_x
_atom_site_fract_y
_atom_site_fract_z
Si Si1 0.026783 0.763225 0.038243
Si Si2 0.165698 0.539490 0.493779
Si Si3 0.265682 0.381154 0.747366
Si Si4 0.216108 0.924143 0.989710
Si Si5 0.199811 0.483559 0.085546
Si Si6 0.065651 0.988978 0.781231
Si Si7 0.740117 0.827593 0.234125
O O1 0.394000 0.842576 0.212622
O O2 0.804241 0.749235 0.059396
O O3 0.920073 0.883093 0.118349
O O4 0.008386 0.589413 0.766781
O O5 0.500000 0.500000 0.500000
O O6 0.000000 0.500000 0.500000
O O7 0.184569 0.727852 0.720082
O O8 0.460315 0.398977 0.722583
O O9 0.974599 0.455629 0.792206
O O10 0.141446 0.194496 0.511679
O O11 0.500000 0.500000 0.000000
O O12 0.580868 0.012368 0.148469
O O13 0.102597 0.952575 0.095749
O O14 0.000000 0.000000 0.000000
O O15 0.203609 0.296800 0.854416
O O16 0.000000 0.500000 0.000000
O O17 0.000000 0.000000 0.500000
#
# Coordination Sequence:
#
# PCOD9037599 Si02
#       7
#     2   2   2   2   2   2   2
#     4  12  26  44  77 104 142 192 243 290 363 435
#     4  12  23  48  73 106 143 189 240 294 373 433
#     4  10  23  40  69  97 140 182 237 281 352 427
#     4  12  26  46  75 111 145 182 240 313 360 429
#     4  10  23  43  65  94 136 192 226 283 358 406
#     4  12  25  45  74 108 140 194 239 291 371 430
#     4  12  28  44  71 107 145 183 244 300 342 426
#
# _framework density 22.496127999999999
#
# number of rings (size 3 to 8) (size 9 to 14) (size 15 to 20)
#    0.000    0.571    2.857    4.286    8.000    3.429 
#    0.000    0.000    0.000    0.000    0.000    0.000 
#    0.000    0.000    0.000    0.000    0.000    0.000 
#
# Total GULP energy -78307.041520 kJ/mol
# GULP energy per Si atom -5593.360109 kJ/mol
# Density = 2.244493 g / cm^3
# Si number density = 22.496128 Si / 1000 Ang^3
#
#
#
# Elastic Constant Matrix: (Units=GPa)
#
#
# Indices 1 2 3 4 5 6 
#
# 1 150.9013 4.6242 17.1940 -3.2988 12.4472 -20.4202
# 2 4.6242 87.4966 39.1726 24.4101 -3.8422 -15.5108
# 3 17.1940 39.1726 136.6947 19.6477 3.9994 -8.2724
# 4 -3.2988 24.4101 19.6477 28.8949 1.2337 -3.0224
# 5 12.4472 -3.8422 3.9994 1.2337 34.1121 1.4248
# 6 -20.4202 -15.5108 -8.2724 -3.0224 1.4248 34.9164
#
#
#
# Elastic Compliance Matrix: (Units=1/GPa)
#
#
# Indices 1 2 3 4 5 6 
#
# 1 0.007635 0.000143 -0.000923 0.001984 -0.002926 0.004601
# 2 0.000143 0.017253 -0.002945 -0.012042 0.002425 0.005909
# 3 -0.000923 -0.002945 0.008814 -0.003576 -0.000898 -0.000032
# 4 0.001984 -0.012042 -0.003576 0.047500 -0.003346 -0.000788
# 5 -0.002926 0.002425 -0.000898 -0.003346 0.030982 -0.002400
# 6 0.004601 0.005909 -0.000032 -0.000788 -0.002400 0.033978
#
#
# Mechanical properties :
#
#
# Convention : Reuss Voigt Hill
#
# Bulk Modulus (GPa) = 38.08964 55.23046 46.66005
# Shear Modulus (GPa) = 30.79546 40.52481 35.66013
#
# Velocity S-wave (km/s) = 3.70391 4.24891 3.98574
# Velocity P-wave (km/s) = 5.93804 6.97677 6.47826
#
# Compressibility (1/GPa) = 0.02625386
#
# Stress axis : x y z
#
# Youngs Moduli (GPa) = 130.97706 57.95938 113.45890
#
# Poissons Ratio (x) = -0.00830 0.10467
# Poissons Ratio (y) = -0.01875 0.33411
# Poissons Ratio (z) = 0.12083 0.17068
#
# Static dielectric constant tensor:
#      x y z
#    x 2.269430 -0.046260 0.076070 
#    y -0.046260 1.836840 -0.040740 
#    z 0.076070 -0.040740 1.878860 
# 
# From -- ./inp_files/473466.got.cif
#   From: 2010.05.17/outbox.cif.g08.bks.cpg/sg2_237_cif.got.tgz:473466.got - 2010.06.03 11:33:40.
