data_PCOD9037847
_publ_section_title
;
Structure prediction by ZEFSAII (Michael W. Deem and Ramdas Pophale) SiO2 
 PCOD9037847
Probable space group: P -1
;
_chemical_formula_sum "Si O2"
_cell_formula_units_Z 16
_cell_length_a 11.746476
_cell_length_b 11.888053
_cell_length_c 12.437871
_cell_angle_alpha 69.806881
_cell_angle_beta 42.488909
_cell_angle_gamma 102.625333
_cell_volume 732.839395
_symmetry_space_group_name_H-M "P -1"
_symmetry_group_IT_number 2
_symmetry_cell_setting 'triclinic'
loop_
_space_group_symop_operation_xyz
x,y,z
-x,-y,-z
loop_
_atom_site_type_symbol
_atom_site_label
_atom_site_fract_x
_atom_site_fract_y
_atom_site_fract_z
Si Si1 0.592404 0.186784 0.376532
Si Si2 0.571258 0.718929 0.155085
Si Si3 0.091505 0.311354 0.367957
Si Si4 0.673111 0.204433 0.080310
Si Si5 0.328083 0.791332 0.451520
Si Si6 0.060913 0.034056 0.819919
Si Si7 0.591454 0.741850 0.887645
Si Si8 0.083084 0.311842 0.619036
O O1 0.728772 0.277901 0.137680
O O2 0.733415 0.280357 0.360273
O O3 0.339505 0.132020 0.573540
O O4 0.500000 0.000000 0.500000
O O5 0.438017 0.743430 0.318173
O O6 0.601338 0.783844 0.991648
O O7 0.379115 0.505297 0.352239
O O8 0.847822 0.842849 0.970382
O O9 0.343638 0.526225 0.118004
O O10 0.993112 0.267034 0.573112
O O11 0.900203 0.265098 0.431402
O O12 0.172895 0.218175 0.317835
O O13 0.550634 0.007801 0.234576
O O14 0.465165 0.178685 0.177604
O O15 0.920980 0.322061 0.795819
O O16 0.046736 0.161186 0.742583
O O17 0.000000 0.000000 0.000000
#
# Coordination Sequence:
#
# PCOD9037847 Si02
#       8
#     2   2   2   2   2   2   2   2
#     4  10  23  42  64  96 133 173 216 268 323 382
#     4  11  24  42  69  99 128 174 216 267 335 379
#     4  10  23  42  64  93 135 165 219 274 321 391
#     4  11  22  40  67  95 135 172 218 270 324 387
#     4  11  22  41  64  95 129 175 218 264 325 390
#     4  12  23  45  70  95 135 169 219 272 316 395
#     4  10  23  41  63  98 128 169 216 276 326 381
#     4  11  24  44  69  99 132 171 216 272 325 386
#
# _framework density 21.832886999999999
#
# number of rings (size 3 to 8) (size 9 to 14) (size 15 to 20)
#    0.000    1.250    2.500    3.000    5.250    4.000 
#    0.000    2.500    0.000    0.000    0.000    0.000 
#    0.000    0.000    0.000    0.000    0.000    0.000 
#
# Total GULP energy -89501.093806 kJ/mol
# GULP energy per Si atom -5593.818363 kJ/mol
# Density = 2.178319 g / cm^3
# Si number density = 21.832887 Si / 1000 Ang^3
#
#
#
# Elastic Constant Matrix: (Units=GPa)
#
#
# Indices 1 2 3 4 5 6 
#
# 1 30.1431 -33.3994 50.8211 51.6980 -110.2761 152.7705
# 2 -33.3994 28.0073 31.0829 38.8971 -65.1617 101.4108
# 3 50.8211 31.0829 77.2121 22.1013 -2.7401 23.6685
# 4 51.6980 38.8971 22.1013 43.0794 33.1813 -25.2296
# 5 -110.2761 -65.1617 -2.7401 33.1813 -68.5500 120.8366
# 6 152.7705 101.4108 23.6685 -25.2296 120.8366 -77.5300
#
#
#
# Elastic Compliance Matrix: (Units=1/GPa)
#
#
# Indices 1 2 3 4 5 6 
#
# 1 0.008085 -0.004358 -0.004759 0.001065 -0.003837 0.002451
# 2 -0.004358 0.016335 -0.003903 -0.001449 -0.006979 0.001182
# 3 -0.004759 -0.003903 0.020164 -0.004775 0.002112 -0.003481
# 4 0.001065 -0.001449 -0.004775 0.021255 0.002438 -0.004371
# 5 -0.003837 -0.006979 0.002112 0.002438 0.017378 0.010248
# 6 0.002451 0.001182 -0.003481 -0.004371 0.010248 0.009809
#
#
# Mechanical properties :
#
#
# Convention : Reuss Voigt Hill
#
# Bulk Modulus (GPa) = 53.92657 25.81907 39.87282
# Shear Modulus (GPa) = 39.92107 -14.80956 12.55575
#
# Velocity S-wave (km/s) = 4.28072 -2.60727 2.40069
# Velocity P-wave (km/s) = 7.01327 1.66962 5.09773
#
# Compressibility (1/GPa) = 0.01854373
#
# Stress axis : x y z
#
# Youngs Moduli (GPa) = 123.69005 61.21867 49.59323
#
# Poissons Ratio (x) = 0.26678 0.23604
# Poissons Ratio (y) = 0.53902 0.19354
# Poissons Ratio (z) = 0.58870 0.23891
#
# Static dielectric constant tensor:
#      x y z
#    x 1.770830 0.005480 0.011120 
#    y 0.005480 1.798660 -0.010500 
#    z 0.011120 -0.010500 1.819020 
# 
# From -- ./inp_files/219043.got.cif
#   From: 2010.05.17/outbox.cif.g08.bks.cpg/sg2_110_cif.got.tgz:219043.got - 2010.06.03 11:33:40.
