data_PCOD9037509
_publ_section_title
;
Structure prediction by ZEFSAII (Michael W. Deem and Ramdas Pophale) SiO2 
 PCOD9037509
Probable space group: P -1
;
_chemical_formula_sum "Si O2"
_cell_formula_units_Z 14
_cell_length_a 9.335428
_cell_length_b 11.410891
_cell_length_c 9.624315
_cell_angle_alpha 47.102145
_cell_angle_beta 78.850551
_cell_angle_gamma 57.092276
_cell_volume 604.040181
_symmetry_space_group_name_H-M "P -1"
_symmetry_group_IT_number 2
_symmetry_cell_setting 'triclinic'
loop_
_space_group_symop_operation_xyz
x,y,z
-x,-y,-z
loop_
_atom_site_type_symbol
_atom_site_label
_atom_site_fract_x
_atom_site_fract_y
_atom_site_fract_z
Si Si1 0.950696 0.991700 0.856548
Si Si2 0.721220 0.656286 0.539084
Si Si3 0.949799 0.353438 0.509120
Si Si4 0.321873 0.429478 0.831710
Si Si5 0.471992 0.325086 0.169300
Si Si6 0.831432 0.167320 0.310340
Si Si7 0.441882 0.868401 0.182970
O O1 0.768652 0.009094 0.868530
O O2 0.919034 0.185566 0.638622
O O3 0.097038 0.823371 0.862660
O O4 0.000000 0.000000 0.000000
O O5 0.842285 0.738320 0.459102
O O6 0.662815 0.627208 0.720900
O O7 0.545482 0.784927 0.375024
O O8 0.857135 0.459086 0.586268
O O9 0.845669 0.516907 0.275854
O O10 0.254588 0.638864 0.737207
O O11 0.484349 0.318590 0.781812
O O12 0.396621 0.298053 0.062357
O O13 0.669400 0.148170 0.322756
O O14 0.500000 0.500000 0.000000
O O15 0.000000 0.000000 0.500000
O O16 0.500000 0.000000 0.000000
#
# Coordination Sequence:
#
# PCOD9037509 Si02
#       7
#     2   2   2   2   2   2   2
#     4  12  25  40  71  98 138 181 233 283 341 416
#     4  10  23  43  68  98 139 177 230 289 333 418
#     4  10  23  42  67 100 133 182 231 278 350 399
#     4  10  23  44  69  98 138 177 234 276 350 413
#     4  10  23  40  68 102 138 180 229 280 352 410
#     4  11  22  42  64 105 137 174 229 282 347 408
#     4  11  25  47  68  99 138 186 237 285 345 412
#
# _framework density 23.177264999999998
#
# number of rings (size 3 to 8) (size 9 to 14) (size 15 to 20)
#    0.000    1.429    1.429    2.571   10.000    1.714 
#    2.571    1.429    0.000    0.000    0.000    0.000 
#    0.000    0.000    0.000    0.000    0.000    0.000 
#
# Total GULP energy -78151.408646 kJ/mol
# GULP energy per Si atom -5582.243475 kJ/mol
# Density = 2.312451 g / cm^3
# Si number density = 23.177265 Si / 1000 Ang^3
#
#
#
# Elastic Constant Matrix: (Units=GPa)
#
#
# Indices 1 2 3 4 5 6 
#
# 1 108.4437 28.8298 37.6161 19.8881 5.3594 -34.3530
# 2 28.8298 98.4917 27.1794 18.7594 4.2423 -9.7380
# 3 37.6161 27.1794 104.7483 36.8570 27.9784 -15.5372
# 4 19.8881 18.7594 36.8570 47.5892 5.6116 -1.8769
# 5 5.3594 4.2423 27.9784 5.6116 46.2501 -3.8381
# 6 -34.3530 -9.7380 -15.5372 -1.8769 -3.8381 31.7982
#
#
#
# Elastic Compliance Matrix: (Units=1/GPa)
#
#
# Indices 1 2 3 4 5 6 
#
# 1 0.016038 -0.001913 -0.001824 -0.004059 0.001220 0.015758
# 2 -0.001913 0.011670 -0.001361 -0.002762 0.000369 0.000724
# 3 -0.001824 -0.001361 0.017314 -0.010941 -0.008444 0.004408
# 4 -0.004059 -0.002762 -0.010941 0.031610 0.002812 -0.008371
# 5 0.001220 0.000369 -0.008444 0.002812 0.026267 0.000642
# 6 0.015758 0.000724 0.004408 -0.008371 0.000642 0.050431
#
#
# Mechanical properties :
#
#
# Convention : Reuss Voigt Hill
#
# Bulk Modulus (GPa) = 28.71264 55.43714 42.07489
# Shear Modulus (GPa) = 28.54967 39.66472 34.10719
#
# Velocity S-wave (km/s) = 3.51350 4.14135 3.84028
# Velocity P-wave (km/s) = 5.37353 6.84386 6.15277
#
# Compressibility (1/GPa) = 0.03482787
#
# Stress axis : x y z
#
# Youngs Moduli (GPa) = 62.35083 85.68744 57.75785
#
# Poissons Ratio (x) = 0.16391 0.10534
# Poissons Ratio (y) = 0.11927 0.07858
# Poissons Ratio (z) = 0.11371 0.11658
#
# Static dielectric constant tensor:
#      x y z
#    x 1.861320 0.047640 0.048550 
#    y 0.047640 1.908970 -0.037250 
#    z 0.048550 -0.037250 1.935350 
# 
# From -- ./inp_files/185011.got.cif
#   From: 2010.05.17/outbox.cif.g08.bks.cpg/sg2_93_cif.got.tgz:185011.got - 2010.06.03 11:33:40.
