data_PCOD9037064
_publ_section_title
;
Structure prediction by ZEFSAII (Michael W. Deem and Ramdas Pophale) SiO2 
 PCOD9037064
Probable space group: P -1
;
_chemical_formula_sum "Si O2"
_cell_formula_units_Z 15
_cell_length_a 12.050751
_cell_length_b 8.912656
_cell_length_c 13.455251
_cell_angle_alpha 62.742215
_cell_angle_beta 145.383765
_cell_angle_gamma 131.520519
_cell_volume 601.503859
_symmetry_space_group_name_H-M "P -1"
_symmetry_group_IT_number 2
_symmetry_cell_setting 'triclinic'
loop_
_space_group_symop_operation_xyz
x,y,z
-x,-y,-z
loop_
_atom_site_type_symbol
_atom_site_label
_atom_site_fract_x
_atom_site_fract_y
_atom_site_fract_z
Si Si1 0.820104 0.908462 0.485612
Si Si2 0.095015 0.074836 0.157472
Si Si3 0.662001 0.923425 0.017732
Si Si4 0.849924 0.306554 0.376794
Si Si5 0.042959 0.554754 0.249896
Si Si6 0.766931 0.610416 0.695499
Si Si7 0.579380 0.277905 0.898088
Si Si8 0.500000 0.000000 0.500000
O O1 0.882344 0.808711 0.647049
O O2 0.567249 0.737401 0.301390
O O3 0.822604 0.104958 0.462127
O O4 0.000000 0.000000 0.500000
O O5 0.157111 0.296812 0.168162
O O6 0.344125 0.101586 0.351397
O O7 0.000000 0.000000 0.000000
O O8 0.866498 0.930931 0.103613
O O9 0.419983 0.774486 0.821254
O O10 0.672661 0.134723 0.977973
O O11 0.609440 0.834218 0.117193
O O12 0.000000 0.500000 0.500000
O O13 0.981354 0.388603 0.341740
O O14 0.153839 0.530611 0.239825
O O15 0.241728 0.775182 0.370554
O O16 0.786034 0.483972 0.041899
O O17 0.500000 0.500000 0.500000
#
# Coordination Sequence:
#
# PCOD9037064 Si02
#       8
#     2   2   2   2   2   2   2   1
#     4  11  22  41  74 110 139 189 258 312 375 460
#     4  12  28  48  73 106 158 202 254 315 384 457
#     4   9  19  41  72 105 142 192 242 313 379 447
#     4  10  23  39  72 106 152 190 240 322 391 444
#     4  11  23  48  68 106 149 195 252 313 382 462
#     4  12  25  46  74 103 147 202 254 305 372 468
#     4   9  19  41  76 106 141 183 253 320 373 446
#     4  12  30  48  72 106 156 202 250 316 384 458
#
# _framework density 24.937495999999999
#
# number of rings (size 3 to 8) (size 9 to 14) (size 15 to 20)
#    0.000    1.333    4.000    1.600    3.733    2.133 
#    2.400    2.667    0.000    0.000    0.000    0.000 
#    0.000    0.000    0.000    0.000    0.000    0.000 
#
# Total GULP energy -83519.223248 kJ/mol
# GULP energy per Si atom -5567.948217 kJ/mol
# Density = 2.488074 g / cm^3
# Si number density = 24.937496 Si / 1000 Ang^3
#
#
#
# Elastic Constant Matrix: (Units=GPa)
#
#
# Indices 1 2 3 4 5 6 
#
# 1 106.1442 1.8748 44.7335 1.9029 -10.0590 1.3508
# 2 1.8748 61.0033 24.8489 24.5966 -13.7131 15.8999
# 3 44.7335 24.8489 127.3155 30.1265 -11.6462 3.3560
# 4 1.9029 24.5966 30.1265 55.4887 5.2419 -2.3453
# 5 -10.0590 -13.7131 -11.6462 5.2419 43.9194 8.8178
# 6 1.3508 15.8999 3.3560 -2.3453 8.8178 22.3468
#
#
#
# Elastic Compliance Matrix: (Units=1/GPa)
#
#
# Indices 1 2 3 4 5 6 
#
# 1 0.011497 0.002755 -0.004298 0.000307 0.002948 -0.003141
# 2 0.002755 0.042384 -0.000436 -0.022805 0.025008 -0.042519
# 3 -0.004298 -0.000436 0.011300 -0.006229 0.003233 -0.003057
# 4 0.000307 -0.022805 -0.006229 0.034429 -0.018440 0.028033
# 5 0.002948 0.025008 0.003233 -0.018440 0.041709 -0.036850
# 6 -0.003141 -0.042519 -0.003057 0.028033 -0.036850 0.093133
#
#
# Mechanical properties :
#
#
# Convention : Reuss Voigt Hill
#
# Bulk Modulus (GPa) = 16.33327 48.59750 32.46538
# Shear Modulus (GPa) = 19.31863 39.21802 29.26832
#
# Velocity S-wave (km/s) = 2.78633 3.96997 3.42960
# Velocity P-wave (km/s) = 4.11284 6.36744 5.36002
#
# Compressibility (1/GPa) = 0.06122474
#
# Stress axis : x y z
#
# Youngs Moduli (GPa) = 86.97566 23.59380 88.49656
#
# Poissons Ratio (x) = -0.06499 0.38032
# Poissons Ratio (y) = -0.23960 0.03854
# Poissons Ratio (z) = 0.37378 0.01028
#
# Static dielectric constant tensor:
#      x y z
#    x 2.044520 0.024740 0.028170 
#    y 0.024740 2.058100 0.040330 
#    z 0.028170 0.040330 1.990480 
# 
# From -- ./inp_files/515440.got.cif
#   From: 2010.05.17/outbox.cif.g08.bks.cpg/sg2_258_cif.got.tgz:515440.got - 2010.06.03 11:33:40.
