data_PCOD9037557
_publ_section_title
;
Structure prediction by ZEFSAII (Michael W. Deem and Ramdas Pophale) SiO2 
 PCOD9037557
Probable space group: P -1
;
_chemical_formula_sum "Si O2"
_cell_formula_units_Z 14
_cell_length_a 11.015449
_cell_length_b 5.889065
_cell_length_c 14.746765
_cell_angle_alpha 131.923512
_cell_angle_beta 47.632690
_cell_angle_gamma 116.456498
_cell_volume 525.865166
_symmetry_space_group_name_H-M "P -1"
_symmetry_group_IT_number 2
_symmetry_cell_setting 'triclinic'
loop_
_space_group_symop_operation_xyz
x,y,z
-x,-y,-z
loop_
_atom_site_type_symbol
_atom_site_label
_atom_site_fract_x
_atom_site_fract_y
_atom_site_fract_z
Si Si1 0.324455 0.184359 0.223684
Si Si2 0.407290 0.964895 0.825380
Si Si3 0.885578 0.855304 0.243575
Si Si4 0.925135 0.547433 0.431176
Si Si5 0.285008 0.670680 0.234368
Si Si6 0.678553 0.572603 0.395442
Si Si7 0.883249 0.715532 0.000292
O O1 0.507707 0.213671 0.181941
O O2 0.184042 0.361166 0.401835
O O3 0.326635 0.333925 0.163478
O O4 0.293800 0.831544 0.173200
O O5 0.305000 0.720370 0.755827
O O6 0.568442 0.120408 0.739961
O O7 0.272145 0.232071 0.973380
O O8 0.719916 0.854526 0.386007
O O9 0.839003 0.756721 0.139411
O O10 0.962380 0.185144 0.306968
O O11 0.013471 0.596574 0.144089
O O12 0.803611 0.593784 0.420286
O O13 0.097923 0.716043 0.374629
O O14 0.500000 0.500000 0.500000
O O15 0.000000 0.000000 0.000000
#
# Coordination Sequence:
#
# PCOD9037557 Si02
#       7
#     2   2   2   2   2   2   2
#     4  10  24  40  68  96 143 185 231 275 356 418
#     4  10  23  40  68  97 136 181 232 280 354 409
#     4  11  26  37  73  99 140 181 234 287 360 405
#     4  12  24  40  65 100 141 179 232 290 348 421
#     4  10  25  43  66 100 139 192 228 281 352 426
#     4  12  24  41  64 108 140 172 227 296 351 416
#     4  11  22  46  64  99 137 185 236 288 345 419
#
# _framework density 26.622793999999999
#
# number of rings (size 3 to 8) (size 9 to 14) (size 15 to 20)
#    0.857    0.286    4.286    0.857    8.000    0.571 
#    0.000    0.714    0.000    4.286    0.000    0.000 
#    0.000    0.000    0.000    0.000    0.000    0.000 
#
# Total GULP energy -78141.880741 kJ/mol
# GULP energy per Si atom -5581.562910 kJ/mol
# Density = 2.656220 g / cm^3
# Si number density = 26.622794 Si / 1000 Ang^3
#
#
#
# Elastic Constant Matrix: (Units=GPa)
#
#
# Indices 1 2 3 4 5 6 
#
# 1 165.1022 53.8657 38.8831 -29.5292 -21.9174 -2.5427
# 2 53.8657 140.9351 30.0474 -10.7945 -2.7193 -9.6124
# 3 38.8831 30.0474 55.9443 8.8658 -15.7624 -8.3455
# 4 -29.5292 -10.7945 8.8658 39.7228 -2.9821 -5.9333
# 5 -21.9174 -2.7193 -15.7624 -2.9821 49.5740 -3.2031
# 6 -2.5427 -9.6124 -8.3455 -5.9333 -3.2031 61.9989
#
#
#
# Elastic Compliance Matrix: (Units=1/GPa)
#
#
# Indices 1 2 3 4 5 6 
#
# 1 0.010147 -0.001701 -0.006711 0.008825 0.002805 0.000238
# 2 -0.001701 0.008823 -0.004154 0.002084 -0.001408 0.000866
# 3 -0.006711 -0.004154 0.028425 -0.011760 0.005268 0.002054
# 4 0.008825 0.002084 -0.011760 0.035513 0.002583 0.002634
# 5 0.002805 -0.001408 0.005268 0.002583 0.023298 0.002057
# 6 0.000238 0.000866 0.002054 0.002634 0.002057 0.016908
#
#
# Mechanical properties :
#
#
# Convention : Reuss Voigt Hill
#
# Bulk Modulus (GPa) = 44.92036 67.50822 56.21429
# Shear Modulus (GPa) = 32.11976 46.20482 39.16229
#
# Velocity S-wave (km/s) = 3.47720 4.17050 3.83953
# Velocity P-wave (km/s) = 5.74724 6.97159 6.38881
#
# Compressibility (1/GPa) = 0.02226162
#
# Stress axis : x y z
#
# Youngs Moduli (GPa) = 98.55315 113.34369 35.18024
#
# Poissons Ratio (x) = 0.19279 0.23611
# Poissons Ratio (y) = 0.16763 0.14614
# Poissons Ratio (z) = 0.66143 0.47084
#
# Static dielectric constant tensor:
#      x y z
#    x 2.118790 -0.069100 0.020590 
#    y -0.069100 2.081560 0.005410 
#    z 0.020590 0.005410 2.280440 
# 
# From -- ./inp_files/564568.got.cif
#   From: 2010.05.17/outbox.cif.g08.bks.cpg/sg2_283_cif.got.tgz:564568.got - 2010.06.03 11:33:40.
