data_PCOD9037317
_publ_section_title
;
Structure prediction by ZEFSAII (Michael W. Deem and Ramdas Pophale) SiO2 
 PCOD9037317
Probable space group: P -1
;
_chemical_formula_sum "Si O2"
_cell_formula_units_Z 14
_cell_length_a 5.199333
_cell_length_b 8.629756
_cell_length_c 21.482292
_cell_angle_alpha 140.821794
_cell_angle_beta 116.979707
_cell_angle_gamma 62.984992
_cell_volume 533.573717
_symmetry_space_group_name_H-M "P -1"
_symmetry_group_IT_number 2
_symmetry_cell_setting 'triclinic'
loop_
_space_group_symop_operation_xyz
x,y,z
-x,-y,-z
loop_
_atom_site_type_symbol
_atom_site_label
_atom_site_fract_x
_atom_site_fract_y
_atom_site_fract_z
Si Si1 0.075137 0.749951 0.197205
Si Si2 0.635702 0.687108 0.667489
Si Si3 0.348690 0.972501 0.042474
Si Si4 0.003574 0.210520 0.410800
Si Si5 0.461142 0.473544 0.259039
Si Si6 0.386224 0.791789 0.122143
Si Si7 0.118295 0.232234 0.559115
O O1 0.201734 0.581184 0.217111
O O2 0.229817 0.664183 0.121388
O O3 0.732047 0.754447 0.158977
O O4 0.115483 0.029086 0.309168
O O5 0.346629 0.794384 0.629103
O O6 0.553042 0.528406 0.668526
O O7 0.868046 0.476091 0.595135
O O8 0.748333 0.917212 0.785028
O O9 0.503397 0.182240 0.158159
O O10 0.368998 0.765636 0.036934
O O11 0.500000 0.000000 0.000000
O O12 0.000000 0.000000 0.000000
O O13 0.000000 0.500000 0.500000
O O14 0.207726 0.127158 0.466974
O O15 0.696463 0.652343 0.332285
O O16 0.000000 0.000000 0.500000
#
# Coordination Sequence:
#
# PCOD9037317 Si02
#       7
#     2   2   2   2   2   2   2
#     4  11  25  43  67 105 146 189 226 290 355 414
#     4  10  23  40  65  91 138 193 243 289 341 411
#     4  11  26  50  82 108 133 180 240 295 363 433
#     4  11  22  40  62  96 137 197 247 284 331 417
#     4  11  27  44  69 102 146 184 236 301 358 419
#     4  10  24  45  74 102 141 180 233 288 352 425
#     4  12  26  39  65 101 147 190 242 291 348 413
#
# _framework density 26.238174999999998
#
# number of rings (size 3 to 8) (size 9 to 14) (size 15 to 20)
#    0.000    1.143    1.429    3.000   16.000    1.143 
#    0.000    4.286    0.000    0.000    0.000    0.000 
#    0.000    0.000    0.000    0.000    0.000    0.000 
#
# Total GULP energy -77981.730434 kJ/mol
# GULP energy per Si atom -5570.123602 kJ/mol
# Density = 2.617846 g / cm^3
# Si number density = 26.238175 Si / 1000 Ang^3
#
#
#
# Elastic Constant Matrix: (Units=GPa)
#
#
# Indices 1 2 3 4 5 6 
#
# 1 122.3785 8.4051 46.2331 -26.4144 -10.7932 -1.3621
# 2 8.4051 81.0718 14.8090 -36.1073 2.9307 3.5358
# 3 46.2331 14.8090 133.4054 -9.6559 -9.8451 6.8069
# 4 -26.4144 -36.1073 -9.6559 54.5742 3.7923 5.9473
# 5 -10.7932 2.9307 -9.8451 3.7923 47.8178 -10.8256
# 6 -1.3621 3.5358 6.8069 5.9473 -10.8256 33.1859
#
#
#
# Elastic Compliance Matrix: (Units=1/GPa)
#
#
# Indices 1 2 3 4 5 6 
#
# 1 0.010692 0.002055 -0.003439 0.005815 0.001179 0.000268
# 2 0.002055 0.019079 -0.001793 0.014103 -0.003372 -0.005208
# 3 -0.003439 -0.001793 0.008936 -0.001202 0.000987 -0.001246
# 4 0.005815 0.014103 -0.001202 0.031411 -0.004098 -0.007983
# 5 0.001179 -0.003372 0.000987 -0.004098 0.023891 0.008733
# 6 0.000268 -0.005208 -0.001246 -0.007983 0.008733 0.035234
#
#
# Mechanical properties :
#
#
# Convention : Reuss Voigt Hill
#
# Bulk Modulus (GPa) = 30.90801 52.86112 41.88457
# Shear Modulus (GPa) = 34.15770 44.94282 39.55026
#
# Velocity S-wave (km/s) = 3.61201 4.14318 3.88668
# Velocity P-wave (km/s) = 5.40378 6.56341 6.01162
#
# Compressibility (1/GPa) = 0.03235407
#
# Stress axis : x y z
#
# Youngs Moduli (GPa) = 93.53151 52.41340 111.90439
#
# Poissons Ratio (x) = -0.10773 0.38486
# Poissons Ratio (y) = -0.19225 0.20060
# Poissons Ratio (z) = 0.32168 0.09396
#
# Static dielectric constant tensor:
#      x y z
#    x 2.235620 0.177210 -0.108390 
#    y 0.177210 2.921600 0.378110 
#    z -0.108390 0.378110 2.084310 
# 
# From -- ./inp_files/582686.got.cif
#   From: 2010.05.17/outbox.cif.g08.bks.cpg/sg2_292_cif.got.tgz:582686.got - 2010.06.03 11:33:40.
