data_PCOD9037329
_publ_section_title
;
Structure prediction by ZEFSAII (Michael W. Deem and Ramdas Pophale) SiO2 
 PCOD9037329
Probable space group: P -1
;
_chemical_formula_sum "Si O2"
_cell_formula_units_Z 16
_cell_length_a 14.124351
_cell_length_b 11.706782
_cell_length_c 14.835627
_cell_angle_alpha 150.104352
_cell_angle_beta 137.417834
_cell_angle_gamma 42.419634
_cell_volume 790.191536
_symmetry_space_group_name_H-M "P -1"
_symmetry_group_IT_number 2
_symmetry_cell_setting 'triclinic'
loop_
_space_group_symop_operation_xyz
x,y,z
-x,-y,-z
loop_
_atom_site_type_symbol
_atom_site_label
_atom_site_fract_x
_atom_site_fract_y
_atom_site_fract_z
Si Si1 0.561840 0.863523 0.542149
Si Si2 0.543808 0.583888 0.771139
Si Si3 0.697436 0.304694 0.521991
Si Si4 0.263051 0.242218 0.837348
Si Si5 0.767106 0.207487 0.309011
Si Si6 0.169968 0.459445 0.567826
Si Si7 0.385266 0.349826 0.817820
Si Si8 0.008022 0.271185 0.789481
O O1 0.499583 0.639548 0.365664
O O2 0.737062 0.764811 0.583164
O O3 0.500000 0.000000 0.500000
O O4 0.488935 0.073964 0.703717
O O5 0.587651 0.503133 0.643670
O O6 0.396842 0.804843 0.831191
O O7 0.671145 0.649725 0.958613
O O8 0.735137 0.365846 0.487968
O O9 0.849582 0.248564 0.644692
O O10 0.667106 0.046699 0.317484
O O11 0.292937 0.374891 0.860934
O O12 0.091486 0.288192 0.766805
O O13 0.818931 0.321219 0.336510
O O14 0.885934 0.962355 0.248797
O O15 0.272491 0.420489 0.702718
O O16 0.000000 0.500000 0.500000
O O17 0.500000 0.500000 0.000000
O O18 0.000000 0.500000 0.000000
#
# Coordination Sequence:
#
# PCOD9037329 Si02
#       8
#     2   2   2   2   2   2   2   2
#     4   9  19  38  62  90 124 170 213 257 313 389
#     4  11  21  41  64 100 126 164 214 270 327 370
#     4  11  23  41  66  93 127 171 218 259 328 386
#     4  11  22  39  70  94 126 169 218 264 320 388
#     4  10  23  41  63  93 134 161 217 270 322 387
#     4  10  23  40  65  95 128 172 213 273 334 375
#     4  11  22  41  67  94 131 170 225 266 314 396
#     4  11  24  43  63  94 130 175 213 267 321 393
#
# _framework density 20.248256000000001
#
# number of rings (size 3 to 8) (size 9 to 14) (size 15 to 20)
#    0.000    1.500    2.500    4.125    3.500    2.000 
#    4.500    1.875    0.000    0.000    0.000    0.000 
#    0.000    0.000    0.000    0.000    0.000    0.000 
#
# Total GULP energy -89198.858503 kJ/mol
# GULP energy per Si atom -5574.928656 kJ/mol
# Density = 2.020217 g / cm^3
# Si number density = 20.248256 Si / 1000 Ang^3
#
#
#
# Elastic Constant Matrix: (Units=GPa)
#
#
# Indices 1 2 3 4 5 6 
#
# 1 133.3620 44.9571 25.8959 -2.1363 0.3549 1.2149
# 2 44.9571 82.6498 18.2863 -7.6077 9.3830 -11.9804
# 3 25.8959 18.2863 84.0095 -5.2929 0.1778 -1.2948
# 4 -2.1363 -7.6077 -5.2929 18.9729 -0.7293 -2.4843
# 5 0.3549 9.3830 0.1778 -0.7293 30.2682 -4.4855
# 6 1.2149 -11.9804 -1.2948 -2.4843 -4.4855 46.0429
#
#
#
# Elastic Compliance Matrix: (Units=1/GPa)
#
#
# Indices 1 2 3 4 5 6 
#
# 1 0.009676 -0.005384 -0.001952 -0.001785 0.001275 -0.001683
# 2 -0.005384 0.017100 -0.001593 0.006219 -0.004419 0.004452
# 3 -0.001952 -0.001593 0.013032 0.002825 0.000539 0.000209
# 4 -0.001785 0.006219 0.002825 0.056422 0.000148 0.004804
# 5 0.001275 -0.004419 0.000539 0.000148 0.034723 0.002222
# 6 -0.001683 0.004452 0.000209 0.004804 0.002222 0.023403
#
#
# Mechanical properties :
#
#
# Convention : Reuss Voigt Hill
#
# Bulk Modulus (GPa) = 45.55790 53.14443 49.35117
# Shear Modulus (GPa) = 27.85059 33.11559 30.48309
#
# Velocity S-wave (km/s) = 3.71274 4.04849 3.88424
# Velocity P-wave (km/s) = 6.39748 6.93953 6.67401
#
# Compressibility (1/GPa) = 0.02195009
#
# Stress axis : x y z
#
# Youngs Moduli (GPa) = 103.35053 58.48014 76.73566
#
# Poissons Ratio (x) = 0.31488 0.14976
# Poissons Ratio (y) = 0.55648 0.12221
# Poissons Ratio (z) = 0.20171 0.09313
#
# Static dielectric constant tensor:
#      x y z
#    x 1.776440 -0.003290 -0.038700 
#    y -0.003290 1.753880 0.006190 
#    z -0.038700 0.006190 1.744590 
# 
# From -- ./inp_files/504920.got.cif
#   From: 2010.05.17/outbox.cif.g08.bks.cpg/sg2_253_cif.got.tgz:504920.got - 2010.06.03 11:33:40.
