data_PCOD9037406
_publ_section_title
;
Structure prediction by ZEFSAII (Michael W. Deem and Ramdas Pophale) SiO2 
 PCOD9037406
Probable space group: P -1
;
_chemical_formula_sum "Si O2"
_cell_formula_units_Z 14
_cell_length_a 15.139134
_cell_length_b 9.044549
_cell_length_c 12.699310
_cell_angle_alpha 62.225634
_cell_angle_beta 27.663614
_cell_angle_gamma 53.291374
_cell_volume 637.753720
_symmetry_space_group_name_H-M "P -1"
_symmetry_group_IT_number 2
_symmetry_cell_setting 'triclinic'
loop_
_space_group_symop_operation_xyz
x,y,z
-x,-y,-z
loop_
_atom_site_type_symbol
_atom_site_label
_atom_site_fract_x
_atom_site_fract_y
_atom_site_fract_z
Si Si1 0.997776 0.674576 0.877242
Si Si2 0.998458 0.217146 0.694799
Si Si3 0.884387 0.535999 0.370963
Si Si4 0.347513 0.182830 0.661140
Si Si5 0.668816 0.180362 0.477906
Si Si6 0.476553 0.668470 0.894705
Si Si7 0.603534 0.953030 0.791641
O O1 0.985810 0.650119 0.772596
O O2 0.207558 0.699175 0.669878
O O3 0.794800 0.843063 0.088393
O O4 0.000000 0.500000 0.000000
O O5 0.994746 0.400106 0.692286
O O6 0.136548 0.167244 0.456364
O O7 0.148728 0.033044 0.665473
O O8 0.763070 0.242443 0.923920
O O9 0.803738 0.686367 0.312223
O O10 0.663324 0.568286 0.645711
O O11 0.500107 0.252287 0.538468
O O12 0.500000 0.000000 0.500000
O O13 0.560918 0.141141 0.708754
O O14 0.520675 0.824636 0.857162
O O15 0.500000 0.500000 0.000000
O O16 0.500000 0.000000 0.000000
#
# Coordination Sequence:
#
# PCOD9037406 Si02
#       7
#     2   2   2   2   2   2   2
#     4  10  25  41  60  97 133 172 218 263 323 377
#     4   9  22  42  64  94 127 169 221 265 330 385
#     4  10  23  43  62  98 133 165 220 270 323 393
#     4  11  21  41  69  96 131 172 217 263 323 397
#     4  10  23  40  66  96 133 171 213 270 322 385
#     4  11  24  42  67  93 127 172 222 272 327 386
#     4   9  22  42  62  97 126 166 222 265 325 387
#
# _framework density 21.952047
#
# number of rings (size 3 to 8) (size 9 to 14) (size 15 to 20)
#    0.857    1.143    1.429    0.000    6.000    9.143 
#    2.571    0.000    0.000    0.000    0.000    0.000 
#    0.000    0.000    0.000    0.000    0.000    0.000 
#
# Total GULP energy -78024.852130 kJ/mol
# GULP energy per Si atom -5573.203724 kJ/mol
# Density = 2.190208 g / cm^3
# Si number density = 21.952047 Si / 1000 Ang^3
#
#
#
# Elastic Constant Matrix: (Units=GPa)
#
#
# Indices 1 2 3 4 5 6 
#
# 1 44.7502 19.4255 51.2151 4.2930 -0.7302 19.8758
# 2 19.4255 53.3778 56.5071 0.3689 11.2635 16.9408
# 3 51.2151 56.5071 166.6838 15.8034 7.3209 37.8380
# 4 4.2930 0.3689 15.8034 41.8559 13.9467 2.6555
# 5 -0.7302 11.2635 7.3209 13.9467 44.3493 7.1947
# 6 19.8758 16.9408 37.8380 2.6555 7.1947 30.0168
#
#
#
# Elastic Compliance Matrix: (Units=1/GPa)
#
#
# Indices 1 2 3 4 5 6 
#
# 1 0.039879 -0.002205 -0.007821 -0.002009 0.005819 -0.016520
# 2 -0.002205 0.032831 -0.010038 0.006695 -0.008334 -0.003011
# 3 -0.007821 -0.010038 0.013626 -0.004747 0.002729 -0.006567
# 4 -0.002009 0.006695 -0.004747 0.029171 -0.010694 0.003518
# 5 0.005819 -0.008334 0.002729 -0.010694 0.029070 -0.008612
# 6 -0.016520 -0.003011 -0.006567 0.003518 -0.008612 0.055984
#
#
# Mechanical properties :
#
#
# Convention : Reuss Voigt Hill
#
# Bulk Modulus (GPa) = 21.64038 57.67857 39.65948
# Shear Modulus (GPa) = 19.52430 32.42203 25.97316
#
# Velocity S-wave (km/s) = 2.98553 3.84728 3.44347
# Velocity P-wave (km/s) = 4.66518 6.78728 5.82371
#
# Compressibility (1/GPa) = 0.04620990
#
# Stress axis : x y z
#
# Youngs Moduli (GPa) = 25.07584 30.45918 73.38774
#
# Poissons Ratio (x) = 0.06715 0.57394
# Poissons Ratio (y) = 0.05528 0.73665
# Poissons Ratio (z) = 0.19611 0.30574
#
# Static dielectric constant tensor:
#      x y z
#    x 1.810280 -0.012830 0.003800 
#    y -0.012830 1.968480 0.127790 
#    z 0.003800 0.127790 1.842470 
# 
# From -- ./inp_files/447025.got.cif
#   From: 2010.05.17/outbox.cif.g08.bks.cpg/sg2_224_cif.got.tgz:447025.got - 2010.06.03 11:33:40.
