data_PCOD9037691
_publ_section_title
;
Structure prediction by ZEFSAII (Michael W. Deem and Ramdas Pophale) SiO2 
 PCOD9037691
Probable space group: P -1
;
_chemical_formula_sum "Si O2"
_cell_formula_units_Z 16
_cell_length_a 15.982594
_cell_length_b 4.999586
_cell_length_c 9.068553
_cell_angle_alpha 56.678885
_cell_angle_beta 88.176729
_cell_angle_gamma 100.019138
_cell_volume 589.085838
_symmetry_space_group_name_H-M "P -1"
_symmetry_group_IT_number 2
_symmetry_cell_setting 'triclinic'
loop_
_space_group_symop_operation_xyz
x,y,z
-x,-y,-z
loop_
_atom_site_type_symbol
_atom_site_label
_atom_site_fract_x
_atom_site_fract_y
_atom_site_fract_z
Si Si1 0.185055 0.090255 0.381461
Si Si2 0.607124 0.923529 0.821079
Si Si3 0.760410 0.307855 0.255313
Si Si4 0.088249 0.395929 0.502896
Si Si5 0.743682 0.212106 0.964933
Si Si6 0.637034 0.478126 0.429825
Si Si7 0.097592 0.107710 0.906155
Si Si8 0.464556 0.507028 0.292614
O O1 0.225981 0.000307 0.558784
O O2 0.157613 0.748045 0.399743
O O3 0.241698 0.407544 0.203087
O O4 0.101417 0.209755 0.409669
O O5 0.569591 0.592174 0.838083
O O6 0.674679 0.982891 0.931412
O O7 0.651705 0.159159 0.613472
O O8 0.716085 0.531860 0.295745
O O9 0.853394 0.536722 0.140568
O O10 0.712014 0.199482 0.139530
O O11 0.096731 0.174377 0.711313
O O12 0.000000 0.500000 0.500000
O O13 0.531430 0.107905 0.807393
O O14 0.836833 0.118751 0.986289
O O15 0.553632 0.413881 0.348760
O O16 0.600211 0.648453 0.521413
O O17 0.000000 0.000000 0.000000
#
# Coordination Sequence:
#
# PCOD9037691 Si02
#       8
#     2   2   2   2   2   2   2   2
#     4  11  27  47  72 107 148 199 256 318 389 468
#     4  10  23  40  76 110 154 200 256 312 391 458
#     4  11  27  49  74 115 156 208 267 322 399 473
#     4  11  24  48  75 106 141 195 260 324 397 467
#     4  12  28  45  77 111 159 208 262 331 393 470
#     4   9  22  42  79 107 162 201 260 316 388 468
#     4  11  27  48  73 109 154 206 265 335 392 460
#     4   9  21  43  74 118 150 207 255 315 388 466
#
# _framework density 27.160727999999999
#
# number of rings (size 3 to 8) (size 9 to 14) (size 15 to 20)
#    0.750    0.750    1.250    1.500   10.500    2.500 
#    0.000    1.250    0.000    0.000    0.000    0.000 
#    0.000    0.000    0.000    0.000    0.000    0.000 
#
# Total GULP energy -89539.511890 kJ/mol
# GULP energy per Si atom -5596.219493 kJ/mol
# Density = 2.709891 g / cm^3
# Si number density = 27.160728 Si / 1000 Ang^3
#
#
#
# Elastic Constant Matrix: (Units=GPa)
#
#
# Indices 1 2 3 4 5 6 
#
# 1 141.9300 19.3711 43.7317 -0.1033 7.9540 -9.6281
# 2 19.3711 109.2386 47.5397 8.6077 -1.3448 -7.9383
# 3 43.7317 47.5397 151.0454 0.0422 15.5539 -6.1214
# 4 -0.1033 8.6077 0.0422 45.3895 -8.4755 3.8354
# 5 7.9540 -1.3448 15.5539 -8.4755 39.8123 3.8691
# 6 -9.6281 -7.9383 -6.1214 3.8354 3.8691 29.1646
#
#
#
# Elastic Compliance Matrix: (Units=1/GPa)
#
#
# Indices 1 2 3 4 5 6 
#
# 1 0.007921 -0.000370 -0.001969 -0.000311 -0.001115 0.002290
# 2 -0.000370 0.011038 -0.003387 -0.002079 0.001104 0.002298
# 3 -0.001969 -0.003387 0.008608 -0.000014 -0.003150 0.000654
# 4 -0.000311 -0.002079 -0.000014 0.023838 0.005513 -0.004538
# 5 -0.001115 0.001104 -0.003150 0.005513 0.028288 -0.005206
# 6 0.002290 0.002298 0.000654 -0.004538 -0.005206 0.037094
#
#
# Mechanical properties :
#
#
# Convention : Reuss Voigt Hill
#
# Bulk Modulus (GPa) = 62.05887 69.27768 65.66827
# Shear Modulus (GPa) = 37.42210 42.31139 39.86674
#
# Velocity S-wave (km/s) = 3.71590 3.95120 3.83536
# Velocity P-wave (km/s) = 6.42720 6.81013 6.62144
#
# Compressibility (1/GPa) = 0.01611373
#
# Stress axis : x y z
#
# Youngs Moduli (GPa) = 126.25444 90.59328 116.17756
#
# Poissons Ratio (x) = 0.03356 0.22875
# Poissons Ratio (y) = 0.04677 0.39348
# Poissons Ratio (z) = 0.24859 0.30683
#
# Static dielectric constant tensor:
#      x y z
#    x 2.161520 0.028350 -0.047480 
#    y 0.028350 2.199310 -0.052340 
#    z -0.047480 -0.052340 2.136090 
# 
# From -- ./inp_files/288495.got.cif
#   From: 2010.05.17/outbox.cif.g08.bks.cpg/sg2_145_cif.got.tgz:288495.got - 2010.06.03 11:33:40.
