data_PCOD9037279
_publ_section_title
;
Structure prediction by ZEFSAII (Michael W. Deem and Ramdas Pophale) SiO2 
 PCOD9037279
Probable space group: P -1
;
_chemical_formula_sum "Si O2"
_cell_formula_units_Z 16
_cell_length_a 16.934368
_cell_length_b 14.704581
_cell_length_c 6.623982
_cell_angle_alpha 120.800398
_cell_angle_beta 116.027479
_cell_angle_gamma 28.709700
_cell_volume 680.384261
_symmetry_space_group_name_H-M "P -1"
_symmetry_group_IT_number 2
_symmetry_cell_setting 'triclinic'
loop_
_space_group_symop_operation_xyz
x,y,z
-x,-y,-z
loop_
_atom_site_type_symbol
_atom_site_label
_atom_site_fract_x
_atom_site_fract_y
_atom_site_fract_z
Si Si1 0.587961 0.121150 0.844349
Si Si2 0.438624 0.682222 0.665673
Si Si3 0.724496 0.532880 0.695032
Si Si4 0.215416 0.192519 0.937215
Si Si5 0.871128 0.867355 0.581504
Si Si6 0.862930 0.549878 0.554042
Si Si7 0.052255 0.060124 0.544344
Si Si8 0.334264 0.221660 0.776109
O O1 0.477233 0.130168 0.699899
O O2 0.697347 0.034464 0.677615
O O3 0.522297 0.300855 0.055985
O O4 0.690836 0.973149 0.983729
O O5 0.500000 0.500000 0.500000
O O6 0.558726 0.632171 0.603923
O O7 0.240074 0.887078 0.642280
O O8 0.750023 0.578186 0.575696
O O9 0.884575 0.299305 0.661602
O O10 0.711109 0.630052 0.972036
O O11 0.119170 0.210657 0.704554
O O12 0.338820 0.126675 0.843995
O O13 0.117120 0.379823 0.171449
O O14 0.918204 0.938488 0.657217
O O15 0.999047 0.669807 0.628771
O O16 0.795448 0.676572 0.424411
O O17 0.000000 0.000000 0.500000
#
# Coordination Sequence:
#
# PCOD9037279 Si02
#       8
#     2   2   2   2   2   2   2   2
#     4  11  25  41  65  99 132 171 221 272 330 394
#     4  11  22  43  71  94 130 173 221 278 338 394
#     4   9  22  41  64  98 134 177 216 271 332 392
#     4  11  22  41  66  94 136 179 218 263 328 394
#     4  11  25  41  65  99 132 171 221 272 330 394
#     4  10  23  40  64  96 135 175 218 266 322 392
#     4  11  22  43  71  94 130 173 221 278 338 394
#     4  10  23  40  64  96 135 175 218 266 322 392
#
# _framework density 23.516121999999999
#
# number of rings (size 3 to 8) (size 9 to 14) (size 15 to 20)
#    0.000    1.500    2.500    1.500    3.500    6.000 
#    0.000    2.500    0.000    0.000    0.000    0.000 
#    0.000    0.000    0.000    0.000    0.000    0.000 
#
# Total GULP energy -89129.466588 kJ/mol
# GULP energy per Si atom -5570.591662 kJ/mol
# Density = 2.346260 g / cm^3
# Si number density = 23.516122 Si / 1000 Ang^3
#
#
#
# Elastic Constant Matrix: (Units=GPa)
#
#
# Indices 1 2 3 4 5 6 
#
# 1 192.6223 35.8101 43.8653 17.9708 -13.0274 3.7877
# 2 35.8101 70.1127 14.5029 3.1484 4.3150 7.0005
# 3 43.8653 14.5029 55.2102 5.3672 2.4664 10.9659
# 4 17.9708 3.1484 5.3672 29.1599 -1.5016 -0.0104
# 5 -13.0274 4.3150 2.4664 -1.5016 29.3119 6.3059
# 6 3.7877 7.0005 10.9659 -0.0104 6.3059 40.0922
#
#
#
# Elastic Compliance Matrix: (Units=1/GPa)
#
#
# Indices 1 2 3 4 5 6 
#
# 1 0.007443 -0.002896 -0.005141 -0.003128 0.003878 0.000598
# 2 -0.002896 0.016421 -0.001551 0.000132 -0.003209 -0.001665
# 3 -0.005141 -0.001551 0.023912 -0.001221 -0.002988 -0.005314
# 4 -0.003128 0.000132 -0.001221 0.036455 0.000443 0.000546
# 5 0.003878 -0.003209 -0.002988 0.000443 0.037642 -0.004909
# 6 0.000598 -0.001665 -0.005314 0.000546 -0.004909 0.027403
#
#
# Mechanical properties :
#
#
# Convention : Reuss Voigt Hill
#
# Bulk Modulus (GPa) = 34.96547 56.25576 45.61061
# Shear Modulus (GPa) = 28.09235 34.63060 31.36148
#
# Velocity S-wave (km/s) = 3.46005 3.84165 3.65583
# Velocity P-wave (km/s) = 5.55550 6.60696 6.10391
#
# Compressibility (1/GPa) = 0.02859964
#
# Stress axis : x y z
#
# Youngs Moduli (GPa) = 134.35591 60.89924 41.81976
#
# Poissons Ratio (x) = 0.17636 0.21498
# Poissons Ratio (y) = 0.38909 0.06488
# Poissons Ratio (z) = 0.69068 0.09448
#
# Static dielectric constant tensor:
#      x y z
#    x 1.965260 -0.079510 -0.013100 
#    y -0.079510 2.098520 0.013320 
#    z -0.013100 0.013320 1.893660 
# 
# From -- ./inp_files/110968.got.cif
#   From: 2010.05.17/outbox.cif.g08.bks.cpg/sg2_56_cif.got.tgz:110968.got - 2010.06.03 11:33:40.
