data_PCOD9037786
_publ_section_title
;
Structure prediction by ZEFSAII (Michael W. Deem and Ramdas Pophale) SiO2 
 PCOD9037786
Probable space group: P -1
;
_chemical_formula_sum "Si O2"
_cell_formula_units_Z 16
_cell_length_a 12.555589
_cell_length_b 15.353964
_cell_length_c 10.061090
_cell_angle_alpha 72.939509
_cell_angle_beta 88.682863
_cell_angle_gamma 152.606216
_cell_volume 652.335196
_symmetry_space_group_name_H-M "P -1"
_symmetry_group_IT_number 2
_symmetry_cell_setting 'triclinic'
loop_
_space_group_symop_operation_xyz
x,y,z
-x,-y,-z
loop_
_atom_site_type_symbol
_atom_site_label
_atom_site_fract_x
_atom_site_fract_y
_atom_site_fract_z
Si Si1 0.992728 0.846477 0.089119
Si Si2 0.640077 0.846619 0.490871
Si Si3 0.766648 0.392100 0.595116
Si Si4 0.083531 0.058282 0.781820
Si Si5 0.281124 0.904802 0.004608
Si Si6 0.729590 0.103476 0.493596
Si Si7 0.474282 0.627414 0.873664
Si Si8 0.768536 0.391138 0.102970
O O1 0.837961 0.775803 0.247235
O O2 0.771483 0.632695 0.074394
O O3 0.185353 0.912890 0.095311
O O4 0.171653 0.066162 0.901830
O O5 0.334358 0.628334 0.517682
O O6 0.786789 0.887994 0.374526
O O7 0.781864 0.061154 0.410504
O O8 0.375632 0.206820 0.336807
O O9 0.000000 0.500000 0.500000
O O10 0.956175 0.602804 0.600184
O O11 0.467336 0.104950 0.792685
O O12 0.725954 0.780137 0.884655
O O13 0.975141 0.607374 0.109793
O O14 0.500000 0.000000 0.000000
O O15 0.500000 0.000000 0.500000
O O16 0.527973 0.897713 0.708844
O O17 0.333845 0.599350 0.974099
O O18 0.000000 0.500000 0.000000
#
# Coordination Sequence:
#
# PCOD9037786 Si02
#       8
#     2   2   2   2   2   2   2   2
#     4  10  24  44  67 101 136 173 241 283 347 414
#     4  11  25  44  66 102 139 182 238 281 352 416
#     4  12  24  42  71 100 145 186 224 291 349 416
#     4  11  23  46  68  95 139 183 231 291 344 411
#     4  11  24  43  68 103 137 177 225 289 350 411
#     4  11  23  42  66 101 140 182 231 280 348 423
#     4  10  24  42  68  96 135 183 231 290 338 419
#     4  10  23  41  63 100 135 173 227 282 342 411
#
# _framework density 24.527266999999998
#
# number of rings (size 3 to 8) (size 9 to 14) (size 15 to 20)
#    0.000    1.250    2.500    2.250    5.250    3.500 
#    2.250    0.000    0.000    0.000    0.000    0.000 
#    0.000    0.000    0.000    0.000    0.000    0.000 
#
# Total GULP energy -89284.054275 kJ/mol
# GULP energy per Si atom -5580.253392 kJ/mol
# Density = 2.447144 g / cm^3
# Si number density = 24.527267 Si / 1000 Ang^3
#
#
#
# Elastic Constant Matrix: (Units=GPa)
#
#
# Indices 1 2 3 4 5 6 
#
# 1 198.0859 34.9651 35.9415 20.7559 -39.4175 -14.8001
# 2 34.9651 109.0818 2.5953 9.9266 -3.3264 -8.5614
# 3 35.9415 2.5953 77.2535 14.0421 -3.1852 -9.6372
# 4 20.7559 9.9266 14.0421 22.9906 -5.3828 -10.6496
# 5 -39.4175 -3.3264 -3.1852 -5.3828 43.6479 9.2776
# 6 -14.8001 -8.5614 -9.6372 -10.6496 9.2776 49.9775
#
#
#
# Elastic Compliance Matrix: (Units=1/GPa)
#
#
# Indices 1 2 3 4 5 6 
#
# 1 0.007328 -0.001862 -0.002604 -0.003004 0.006002 -0.000405
# 2 -0.001862 0.010067 0.001186 -0.003276 -0.001439 0.000970
# 3 -0.002604 0.001186 0.015563 -0.007639 -0.002331 0.001238
# 4 -0.003004 -0.003276 -0.007639 0.056774 0.001595 0.008878
# 5 0.006002 -0.001439 -0.002331 0.001595 0.029093 -0.003980
# 6 -0.000405 0.000970 0.001238 0.008878 -0.003980 0.022925
#
#
# Mechanical properties :
#
#
# Convention : Reuss Voigt Hill
#
# Bulk Modulus (GPa) = 37.88428 59.04723 48.46576
# Shear Modulus (GPa) = 31.82483 44.05116 37.93799
#
# Velocity S-wave (km/s) = 3.60603 4.24253 3.93716
# Velocity P-wave (km/s) = 5.72863 6.93723 6.36170
#
# Compressibility (1/GPa) = 0.02639617
#
# Stress axis : x y z
#
# Youngs Moduli (GPa) = 136.45676 99.33758 64.25568
#
# Poissons Ratio (x) = 0.18502 0.16732
# Poissons Ratio (y) = 0.25415 -0.07618
# Poissons Ratio (z) = 0.35533 -0.11778
#
# Static dielectric constant tensor:
#      x y z
#    x 2.238730 -0.019380 0.096040 
#    y -0.019380 1.985460 0.031290 
#    z 0.096040 0.031290 2.095110 
# 
# From -- ./inp_files/431398.got.cif
#   From: 2010.05.17/outbox.cif.g08.bks.cpg/sg2_216_cif.got.tgz:431398.got - 2010.06.03 11:33:40.
