data_PCOD9037397
_publ_section_title
;
Structure prediction by ZEFSAII (Michael W. Deem and Ramdas Pophale) SiO2 
 PCOD9037397
Probable space group: P -1
;
_chemical_formula_sum "Si O2"
_cell_formula_units_Z 16
_cell_length_a 10.021265
_cell_length_b 25.846491
_cell_length_c 19.334002
_cell_angle_alpha 16.605647
_cell_angle_beta 34.769260
_cell_angle_gamma 33.012252
_cell_volume 774.556614
_symmetry_space_group_name_H-M "P -1"
_symmetry_group_IT_number 2
_symmetry_cell_setting 'triclinic'
loop_
_space_group_symop_operation_xyz
x,y,z
-x,-y,-z
loop_
_atom_site_type_symbol
_atom_site_label
_atom_site_fract_x
_atom_site_fract_y
_atom_site_fract_z
Si Si1 0.277900 0.357773 0.555068
Si Si2 0.316789 0.354178 0.380883
Si Si3 0.608083 0.728266 0.133496
Si Si4 0.292903 0.969091 0.849933
Si Si5 0.933548 0.946962 0.915425
Si Si6 0.626264 0.379372 0.494516
Si Si7 0.066127 0.796860 0.899145
Si Si8 0.735856 0.081309 0.472505
O O1 0.349228 0.344638 0.461625
O O2 0.464467 0.426931 0.433530
O O3 0.000000 0.500000 0.500000
O O4 0.269870 0.154579 0.848341
O O5 0.575399 0.274968 0.331696
O O6 0.185177 0.195898 0.620268
O O7 0.170058 0.567603 0.149313
O O8 0.718013 0.550689 0.262457
O O9 0.551411 0.648545 0.332594
O O10 0.359118 0.857089 0.037234
O O11 0.793040 0.846225 0.919267
O O12 0.126296 0.901615 0.954506
O O13 0.560563 0.950309 0.726584
O O14 0.049177 0.866042 0.896338
O O15 0.826241 0.174200 0.663792
O O16 0.225645 0.879727 0.673708
O O17 0.000000 0.000000 0.500000
#
# Coordination Sequence:
#
# PCOD9037397 Si02
#       8
#     2   2   2   2   2   2   2   2
#     4  12  22  40  65  99 133 167 208 261 327 382
#     4  10  23  40  66  95 127 169 215 255 324 376
#     4  11  22  42  65  91 132 172 215 258 320 388
#     4  10  24  42  63  95 127 169 213 266 317 376
#     4  12  25  38  66  99 134 164 211 270 322 380
#     4  11  25  38  63  98 134 170 211 261 325 385
#     4  12  22  42  69  91 129 170 215 264 315 381
#     4  10  23  43  69  91 122 174 222 261 314 377
#
# _framework density 20.656980000000001
#
# number of rings (size 3 to 8) (size 9 to 14) (size 15 to 20)
#    0.750    0.250    3.750    3.000    3.500    4.500 
#    0.000    0.000    0.000    2.250    0.000    0.000 
#    0.000    0.000    0.000    0.000    0.000    0.000 
#
# Total GULP energy -89407.074146 kJ/mol
# GULP energy per Si atom -5587.942134 kJ/mol
# Density = 2.060996 g / cm^3
# Si number density = 20.656980 Si / 1000 Ang^3
#
#
#
# Elastic Constant Matrix: (Units=GPa)
#
#
# Indices 1 2 3 4 5 6 
#
# 1 117.8269 22.3187 -0.5073 2.4395 -3.2384 15.1723
# 2 22.3187 66.4123 -1.6694 -5.2506 -1.8040 6.7724
# 3 -0.5073 -1.6694 41.3329 -4.9350 4.6255 7.1609
# 4 2.4395 -5.2506 -4.9350 45.2236 3.2176 10.8060
# 5 -3.2384 -1.8040 4.6255 3.2176 30.8463 -0.8569
# 6 15.1723 6.7724 7.1609 10.8060 -0.8569 30.7689
#
#
#
# Elastic Compliance Matrix: (Units=1/GPa)
#
#
# Indices 1 2 3 4 5 6 
#
# 1 0.009578 -0.002720 0.000727 0.000248 0.000590 -0.004364
# 2 -0.002720 0.016656 0.001684 0.003180 -0.000002 -0.003834
# 3 0.000727 0.001684 0.027053 0.005627 -0.004723 -0.009133
# 4 0.000248 0.003180 0.005627 0.026064 -0.003667 -0.011387
# 5 0.000590 -0.000002 -0.004723 -0.003667 0.033656 0.003033
# 6 -0.004364 -0.003834 -0.009133 -0.011387 0.003033 0.041706
#
#
# Mechanical properties :
#
#
# Convention : Reuss Voigt Hill
#
# Bulk Modulus (GPa) = 18.98628 29.53957 24.26293
# Shear Modulus (GPa) = 28.92044 35.06310 31.99177
#
# Velocity S-wave (km/s) = 3.74576 4.12442 3.93964
# Velocity P-wave (km/s) = 5.28382 6.08376 5.69785
#
# Compressibility (1/GPa) = 0.05266961
#
# Stress axis : x y z
#
# Youngs Moduli (GPa) = 104.40087 60.03771 36.96405
#
# Poissons Ratio (x) = 0.16330 -0.02688
# Poissons Ratio (y) = 0.28397 -0.06223
# Poissons Ratio (z) = -0.07593 -0.10107
#
# Static dielectric constant tensor:
#      x y z
#    x 1.716980 -0.020940 0.004440 
#    y -0.020940 1.747700 -0.026740 
#    z 0.004440 -0.026740 1.763090 
# 
# From -- ./inp_files/215741.got.cif
#   From: 2010.05.17/outbox.cif.g08.bks.cpg/sg2_108_cif.got.tgz:215741.got - 2010.06.03 11:33:40.
