data_PCOD9037554
_publ_section_title
;
Structure prediction by ZEFSAII (Michael W. Deem and Ramdas Pophale) SiO2 
 PCOD9037554
Probable space group: P -1
;
_chemical_formula_sum "Si O2"
_cell_formula_units_Z 16
_cell_length_a 7.879254
_cell_length_b 7.921767
_cell_length_c 21.785170
_cell_angle_alpha 138.389997
_cell_angle_beta 120.517033
_cell_angle_gamma 88.672620
_cell_volume 608.369196
_symmetry_space_group_name_H-M "P -1"
_symmetry_group_IT_number 2
_symmetry_cell_setting 'triclinic'
loop_
_space_group_symop_operation_xyz
x,y,z
-x,-y,-z
loop_
_atom_site_type_symbol
_atom_site_label
_atom_site_fract_x
_atom_site_fract_y
_atom_site_fract_z
Si Si1 0.088839 0.440030 0.765516
Si Si2 0.416992 0.221148 0.736831
Si Si3 0.196649 0.537108 0.472206
Si Si4 0.690203 0.161575 0.201413
Si Si5 0.936216 0.789835 0.042780
Si Si6 0.388485 0.209827 0.486203
Si Si7 0.373228 0.407231 0.242039
Si Si8 0.199426 0.520558 0.952028
O O1 0.208419 0.270693 0.717387
O O2 0.214782 0.746991 0.826718
O O3 0.137037 0.494268 0.861745
O O4 0.790186 0.165723 0.628604
O O5 0.553875 0.337981 0.727679
O O6 0.291572 0.844243 0.616728
O O7 0.645829 0.494576 0.896184
O O8 0.217494 0.286403 0.442280
O O9 0.395750 0.683842 0.493129
O O10 0.926848 0.368702 0.346269
O O11 0.511227 0.262527 0.204868
O O12 0.502426 0.781988 0.080085
O O13 0.942318 0.811736 0.124281
O O14 0.076673 0.126132 0.123237
O O15 0.088712 0.673448 0.010702
O O16 0.505387 0.431774 0.627371
#
# Coordination Sequence:
#
# PCOD9037554 Si02
#       8
#     2   2   2   2   2   2   2   2
#     4  11  24  42  67  98 135 169 215 267 319 389
#     4  11  24  42  67  98 131 174 213 263 327 386
#     4  11  26  42  67  97 129 169 220 268 328 382
#     4  10  23  44  67  98 132 172 213 265 325 383
#     4  10  23  40  68  97 131 173 216 265 320 378
#     4  11  26  42  66  97 129 167 220 274 319 387
#     4  10  23  43  67  97 134 169 215 265 320 387
#     4  10  23  41  68  97 131 171 219 265 319 382
#
# _framework density 26.299821000000001
#
# number of rings (size 3 to 8) (size 9 to 14) (size 15 to 20)
#    0.000    1.500    0.000    3.000   10.500    7.500 
#    0.000    0.000    0.000    0.000    0.000    0.000 
#    0.000    0.000    0.000    0.000    0.000    0.000 
#
# Total GULP energy -89656.698805 kJ/mol
# GULP energy per Si atom -5603.543675 kJ/mol
# Density = 2.623996 g / cm^3
# Si number density = 26.299821 Si / 1000 Ang^3
#
#
#
# Elastic Constant Matrix: (Units=GPa)
#
#
# Indices 1 2 3 4 5 6 
#
# 1 118.2031 30.6331 9.4352 8.9892 -3.4013 29.2735
# 2 30.6331 150.6526 33.3499 11.3639 -8.5086 42.2972
# 3 9.4352 33.3499 100.4567 10.9683 10.7931 25.5192
# 4 8.9892 11.3639 10.9683 39.3702 13.0029 -2.2844
# 5 -3.4013 -8.5086 10.7931 13.0029 32.5467 -10.5956
# 6 29.2735 42.2972 25.5192 -2.2844 -10.5956 46.5297
#
#
#
# Elastic Compliance Matrix: (Units=1/GPa)
#
#
# Indices 1 2 3 4 5 6 
#
# 1 0.010446 -0.000138 0.001358 -0.002941 -0.000657 -0.007485
# 2 -0.000138 0.009393 -0.000939 -0.003391 0.001587 -0.007741
# 3 0.001358 -0.000939 0.013343 -0.002096 -0.006596 -0.008924
# 4 -0.002941 -0.003391 -0.002096 0.031739 -0.011548 0.005011
# 5 -0.000657 0.001587 -0.006596 -0.011548 0.041615 0.011498
# 6 -0.007485 -0.007741 -0.008924 0.005011 0.011498 0.040996
#
#
# Mechanical properties :
#
#
# Convention : Reuss Voigt Hill
#
# Bulk Modulus (GPa) = 29.63627 57.34987 43.49307
# Shear Modulus (GPa) = 31.60186 43.41559 37.50872
#
# Velocity S-wave (km/s) = 3.47017 4.06740 3.78060
# Velocity P-wave (km/s) = 5.22965 6.62660 5.96913
#
# Compressibility (1/GPa) = 0.03374244
#
# Stress axis : x y z
#
# Youngs Moduli (GPa) = 95.73185 106.46586 74.94498
#
# Poissons Ratio (x) = 0.01474 -0.10176
# Poissons Ratio (y) = 0.01326 0.07037
# Poissons Ratio (z) = -0.12998 0.09996
#
# Static dielectric constant tensor:
#      x y z
#    x 2.048810 -0.065220 -0.002870 
#    y -0.065220 2.078660 0.004320 
#    z -0.002870 0.004320 2.043380 
# 
# From -- ./inp_files/588142.got.cif
#   From: 2010.05.17/outbox.cif.g08.bks.cpg/sg2_295_cif.got.tgz:588142.got - 2010.06.03 11:33:40.
