data_PCOD9037259
_publ_section_title
;
Structure prediction by ZEFSAII (Michael W. Deem and Ramdas Pophale) SiO2 
 PCOD9037259
Probable space group: P -1
;
_chemical_formula_sum "Si O2"
_cell_formula_units_Z 16
_cell_length_a 12.525458
_cell_length_b 11.388246
_cell_length_c 14.731535
_cell_angle_alpha 32.011503
_cell_angle_beta 94.976216
_cell_angle_gamma 115.973375
_cell_volume 803.179031
_symmetry_space_group_name_H-M "P -1"
_symmetry_group_IT_number 2
_symmetry_cell_setting 'triclinic'
loop_
_space_group_symop_operation_xyz
x,y,z
-x,-y,-z
loop_
_atom_site_type_symbol
_atom_site_label
_atom_site_fract_x
_atom_site_fract_y
_atom_site_fract_z
Si Si1 0.040975 0.910393 0.280080
Si Si2 0.482645 0.115773 0.158785
Si Si3 0.809204 0.286860 0.330681
Si Si4 0.153384 0.608471 0.531081
Si Si5 0.406458 0.227932 0.600146
Si Si6 0.060500 0.757660 0.910190
Si Si7 0.413608 0.366350 0.300888
Si Si8 0.361604 0.563241 0.855510
O O1 0.053157 0.688804 0.474389
O O2 0.939738 0.715883 0.312335
O O3 0.980061 0.040878 0.241118
O O4 0.209888 0.210348 0.073189
O O5 0.554397 0.332682 0.110985
O O6 0.304866 0.866310 0.317951
O O7 0.533928 0.936603 0.284608
O O8 0.543795 0.334486 0.932906
O O9 0.800290 0.367930 0.377973
O O10 0.695946 0.269729 0.272913
O O11 0.746886 0.949761 0.538548
O O12 0.971296 0.560318 0.123369
O O13 0.500000 0.500000 0.500000
O O14 0.419390 0.348725 0.420808
O O15 0.235374 0.985516 0.775481
O O16 0.000000 0.500000 0.000000
O O17 0.531234 0.371033 0.257642
#
# Coordination Sequence:
#
# PCOD9037259 Si02
#       8
#     2   2   2   2   2   2   2   2
#     4  10  23  40  64  92 139 166 204 286 324 386
#     4  12  23  42  72  99 131 168 216 282 323 397
#     4  11  22  38  70  93 131 175 214 271 333 389
#     4  11  22  41  63 104 131 161 216 276 351 382
#     4  12  27  46  65  94 133 179 224 269 317 387
#     4  11  23  46  63  87 132 180 222 258 313 397
#     4  12  22  40  68  98 129 170 217 270 330 384
#     4  11  20  39  67 101 130 159 218 275 337 387
#
# _framework density 19.920838
#
# number of rings (size 3 to 8) (size 9 to 14) (size 15 to 20)
#    0.000    0.750    5.000    3.750    0.000    3.500 
#    2.250    1.250    0.000    0.000    0.000    0.000 
#    0.000    0.000    0.000    0.000    0.000    0.000 
#
# Total GULP energy -89366.765240 kJ/mol
# GULP energy per Si atom -5585.422828 kJ/mol
# Density = 1.987550 g / cm^3
# Si number density = 19.920838 Si / 1000 Ang^3
#
#
#
# Elastic Constant Matrix: (Units=GPa)
#
#
# Indices 1 2 3 4 5 6 
#
# 1 98.6414 18.6337 9.7244 -20.4148 -1.8317 -21.7044
# 2 18.6337 97.8466 24.3147 -39.9202 -8.8006 -22.5037
# 3 9.7244 24.3147 27.8981 -41.7638 -10.1926 -44.7717
# 4 -20.4148 -39.9202 -41.7638 24.1569 -5.9958 -26.1272
# 5 -1.8317 -8.8006 -10.1926 -5.9958 19.2559 -20.3698
# 6 -21.7044 -22.5037 -44.7717 -26.1272 -20.3698 -15.3646
#
#
#
# Elastic Compliance Matrix: (Units=1/GPa)
#
#
# Indices 1 2 3 4 5 6 
#
# 1 0.010659 -0.001373 -0.003577 -0.000080 -0.001733 -0.000190
# 2 -0.001373 0.013981 -0.008498 0.004687 0.000573 -0.002503
# 3 -0.003577 -0.008498 0.016466 -0.003738 -0.009237 -0.011877
# 4 -0.000080 0.004687 -0.003738 0.021306 -0.011303 -0.017103
# 5 -0.001733 0.000573 -0.009237 -0.011303 0.039180 -0.004197
# 6 -0.000190 -0.002503 -0.011877 -0.017103 -0.004197 0.008108
#
#
# Mechanical properties :
#
#
# Convention : Reuss Voigt Hill
#
# Bulk Modulus (GPa) = 70.37468 36.63685 53.50577
# Shear Modulus (GPa) = 35.37719 17.05719 26.21719
#
# Velocity S-wave (km/s) = 4.21870 2.92935 3.63170
# Velocity P-wave (km/s) = 7.68985 5.46558 6.67107
#
# Compressibility (1/GPa) = 0.01420966
#
# Stress axis : x y z
#
# Youngs Moduli (GPa) = 93.81592 71.52326 60.73258
#
# Poissons Ratio (x) = 0.09824 0.21721
# Poissons Ratio (y) = 0.12885 0.51612
# Poissons Ratio (z) = 0.33554 0.60783
#
# Static dielectric constant tensor:
#      x y z
#    x 1.725570 0.007380 0.034780 
#    y 0.007380 1.687470 -0.005270 
#    z 0.034780 -0.005270 1.720950 
# 
# From -- ./inp_files/332793.got.cif
#   From: 2010.05.17/outbox.cif.g08.bks.cpg/sg2_167_cif.got.tgz:332793.got - 2010.06.03 11:33:40.
