data_PCOD9037489
_publ_section_title
;
Structure prediction by ZEFSAII (Michael W. Deem and Ramdas Pophale) SiO2 
 PCOD9037489
Probable space group: P -1
;
_chemical_formula_sum "Si O2"
_cell_formula_units_Z 14
_cell_length_a 12.922948
_cell_length_b 26.422237
_cell_length_c 8.968853
_cell_angle_alpha 26.949097
_cell_angle_beta 144.371459
_cell_angle_gamma 153.769680
_cell_volume 612.090606
_symmetry_space_group_name_H-M "P -1"
_symmetry_group_IT_number 2
_symmetry_cell_setting 'triclinic'
loop_
_space_group_symop_operation_xyz
x,y,z
-x,-y,-z
loop_
_atom_site_type_symbol
_atom_site_label
_atom_site_fract_x
_atom_site_fract_y
_atom_site_fract_z
Si Si1 0.376233 0.749083 0.184390
Si Si2 0.535571 0.446062 0.832214
Si Si3 0.154686 0.824377 0.944213
Si Si4 0.915303 0.949298 0.204117
Si Si5 0.991986 0.801023 0.133848
Si Si6 0.987535 0.578988 0.913161
Si Si7 0.282377 0.469279 0.898402
O O1 0.631802 0.836994 0.179481
O O2 0.332495 0.620468 0.568483
O O3 0.348344 0.847171 0.000924
O O4 0.178528 0.660944 0.053946
O O5 0.500000 0.500000 0.500000
O O6 0.280101 0.312567 0.944534
O O7 0.728104 0.434845 0.045331
O O8 0.701937 0.580333 0.790298
O O9 0.040670 0.888273 0.570165
O O10 0.166593 0.855765 0.053109
O O11 0.951241 0.647944 0.155307
O O12 0.000000 0.000000 0.000000
O O13 0.984668 0.076140 0.067774
O O14 0.008996 0.707576 0.517725
O O15 0.000000 0.500000 0.000000
O O16 0.500000 0.500000 0.000000
#
# Coordination Sequence:
#
# PCOD9037489 Si02
#       7
#     2   2   2   2   2   2   2
#     4  12  27  46  73 107 142 185 239 287 358 420
#     4  10  23  40  67  98 140 174 230 283 351 405
#     4  12  25  47  74 103 143 182 240 295 350 420
#     4  12  29  48  72  99 143 195 236 286 348 425
#     4  11  25  46  69 102 141 189 238 283 353 421
#     4  11  25  40  69 107 141 178 231 296 354 406
#     4  12  22  43  75 106 139 180 227 298 357 408
#
# _framework density 22.872432
#
# number of rings (size 3 to 8) (size 9 to 14) (size 15 to 20)
#    0.000    0.571    4.286    2.571    8.000    2.857 
#    0.000    0.000    0.000    0.000    0.000    0.000 
#    0.000    0.000    0.000    0.000    0.000    0.000 
#
# Total GULP energy -78002.634263 kJ/mol
# GULP energy per Si atom -5571.616733 kJ/mol
# Density = 2.282037 g / cm^3
# Si number density = 22.872432 Si / 1000 Ang^3
#
#
#
# Elastic Constant Matrix: (Units=GPa)
#
#
# Indices 1 2 3 4 5 6 
#
# 1 178.9010 30.8650 59.8334 9.2744 3.3917 -14.0939
# 2 30.8650 90.9581 34.1830 11.2672 0.9423 -14.8606
# 3 59.8334 34.1830 119.2139 12.5514 11.4252 -3.6499
# 4 9.2744 11.2672 12.5514 29.6822 -9.7597 -0.3004
# 5 3.3917 0.9423 11.4252 -9.7597 40.0929 1.8858
# 6 -14.0939 -14.8606 -3.6499 -0.3004 1.8858 40.1402
#
#
#
# Elastic Compliance Matrix: (Units=1/GPa)
#
#
# Indices 1 2 3 4 5 6 
#
# 1 0.006955 -0.000813 -0.003165 -0.000464 0.000133 0.001843
# 2 -0.000813 0.013565 -0.002888 -0.003814 -0.000566 0.004472
# 3 -0.003165 -0.002888 0.011584 -0.004112 -0.003921 -0.000974
# 4 -0.000464 -0.003814 -0.004112 0.040720 0.011315 -0.002176
# 5 0.000133 -0.000566 -0.003921 0.011315 0.028900 -0.001792
# 6 0.001843 0.004472 -0.000974 -0.002176 -0.001792 0.027195
#
#
# Mechanical properties :
#
#
# Convention : Reuss Voigt Hill
#
# Bulk Modulus (GPa) = 54.43762 70.98177 62.70970
# Shear Modulus (GPa) = 33.60752 39.59583 36.60167
#
# Velocity S-wave (km/s) = 3.83736 4.16523 4.00466
# Velocity P-wave (km/s) = 6.59439 7.36433 6.98997
#
# Compressibility (1/GPa) = 0.01836965
#
# Stress axis : x y z
#
# Youngs Moduli (GPa) = 143.77429 73.72176 86.32647
#
# Poissons Ratio (x) = 0.05997 0.27324
# Poissons Ratio (y) = 0.11695 0.24935
# Poissons Ratio (z) = 0.45507 0.21294
#
# Static dielectric constant tensor:
#      x y z
#    x -10.980790 2.760150 -4.171740 
#    y 2.760150 1.312320 0.898160 
#    z -4.171740 0.898160 0.536150 
# 
# From -- ./inp_files/285126.got.cif
#   From: 2010.05.17/outbox.cif.g08.bks.cpg/sg2_143_cif.got.tgz:285126.got - 2010.06.03 11:33:40.
