data_PCOD9037467
_publ_section_title
;
Structure prediction by ZEFSAII (Michael W. Deem and Ramdas Pophale) SiO2 
 PCOD9037467
Probable space group: P -1
;
_chemical_formula_sum "Si O2"
_cell_formula_units_Z 16
_cell_length_a 22.225635
_cell_length_b 11.788091
_cell_length_c 27.293456
_cell_angle_alpha 147.069531
_cell_angle_beta 11.519422
_cell_angle_gamma 148.456822
_cell_volume 746.437205
_symmetry_space_group_name_H-M "P -1"
_symmetry_group_IT_number 2
_symmetry_cell_setting 'triclinic'
loop_
_space_group_symop_operation_xyz
x,y,z
-x,-y,-z
loop_
_atom_site_type_symbol
_atom_site_label
_atom_site_fract_x
_atom_site_fract_y
_atom_site_fract_z
Si Si1 0.277643 0.636590 0.862430
Si Si2 0.186864 0.570551 0.767709
Si Si3 0.740901 0.874576 0.699683
Si Si4 0.678208 0.440001 0.535255
Si Si5 0.796616 0.757316 0.082209
Si Si6 0.504354 0.020428 0.266400
Si Si7 0.207050 0.113944 0.221679
Si Si8 0.372928 0.404081 0.947949
O O1 0.533630 0.510641 0.626502
O O2 0.428518 0.863272 0.798076
O O3 0.000000 0.500000 0.000000
O O4 0.083910 0.619568 0.060534
O O5 0.500000 0.500000 0.500000
O O6 0.269065 0.803554 0.814715
O O7 0.038619 0.616817 0.852006
O O8 0.683058 0.630782 0.639247
O O9 0.834836 0.891517 0.687775
O O10 0.000000 0.000000 0.500000
O O11 0.446715 0.974209 0.967780
O O12 0.430653 0.246753 0.691047
O O13 0.022275 0.419147 0.244130
O O14 0.621020 0.668681 0.139940
O O15 0.000000 0.000000 0.000000
O O16 0.140573 0.982270 0.556652
O O17 0.567224 0.787491 0.136126
O O18 0.376920 0.362053 0.160516
#
# Coordination Sequence:
#
# PCOD9037467 Si02
#       8
#     2   2   2   2   2   2   2   2
#     4   9  22  41  62  96 129 167 223 269 322 388
#     4  10  23  40  67  96 130 171 221 276 326 388
#     4  11  22  42  68 100 126 170 228 270 329 384
#     4  11  24  42  71  97 133 173 223 278 326 398
#     4  11  24  45  66  99 131 172 222 270 334 401
#     4  11  24  44  64  97 136 176 219 272 337 392
#     4  11  25  41  70  96 134 176 221 279 325 397
#     4  12  25  45  67  98 138 177 218 271 339 401
#
# _framework density 21.435158999999999
#
# number of rings (size 3 to 8) (size 9 to 14) (size 15 to 20)
#    0.000    1.250    3.750    1.125    8.750    1.500 
#    0.000    0.625    0.000    0.000    0.000    0.000 
#    0.000    0.000    0.000    0.000    0.000    0.000 
#
# Total GULP energy -89331.030685 kJ/mol
# GULP energy per Si atom -5583.189418 kJ/mol
# Density = 2.138637 g / cm^3
# Si number density = 21.435159 Si / 1000 Ang^3
#
#
#
# Elastic Constant Matrix: (Units=GPa)
#
#
# Indices 1 2 3 4 5 6 
#
# 1 64.7691 37.8314 25.3394 -6.2327 3.6318 -20.2288
# 2 37.8314 120.8690 37.7291 -18.0978 5.5638 -35.4059
# 3 25.3394 37.7291 133.1001 -10.3786 2.3697 -28.1355
# 4 -6.2327 -18.0978 -10.3786 34.4371 -0.2015 1.3402
# 5 3.6318 5.5638 2.3697 -0.2015 23.7759 -2.2998
# 6 -20.2288 -35.4059 -28.1355 1.3402 -2.2998 46.7545
#
#
#
# Elastic Compliance Matrix: (Units=1/GPa)
#
#
# Indices 1 2 3 4 5 6 
#
# 1 0.020114 -0.004350 -0.001595 0.000696 -0.001468 0.004357
# 2 -0.004350 0.012873 -0.000866 0.005431 -0.001527 0.007114
# 3 -0.001595 -0.000866 0.009063 0.001829 -0.000049 0.004053
# 4 0.000696 0.005431 0.001829 0.032388 -0.000845 0.004544
# 5 -0.001468 -0.001527 -0.000049 -0.000845 0.042668 0.000301
# 6 0.004357 0.007114 0.004053 0.004544 0.000301 0.030984
#
#
# Mechanical properties :
#
#
# Convention : Reuss Voigt Hill
#
# Bulk Modulus (GPa) = 35.17790 57.83758 46.50774
# Shear Modulus (GPa) = 29.20782 35.51605 32.36193
#
# Velocity S-wave (km/s) = 3.69536 4.07493 3.88978
# Velocity P-wave (km/s) = 5.88681 7.01293 6.47440
#
# Compressibility (1/GPa) = 0.02842694
#
# Stress axis : x y z
#
# Youngs Moduli (GPa) = 49.71639 77.68381 110.34428
#
# Poissons Ratio (x) = 0.33791 0.17600
# Poissons Ratio (y) = 0.21626 0.09560
# Poissons Ratio (z) = 0.07930 0.06730
#
# Static dielectric constant tensor:
#      x y z
#    x 1.840690 -0.011070 -0.009080 
#    y -0.011070 1.437400 0.232660 
#    z -0.009080 0.232660 1.644560 
# 
# From -- ./inp_files/272848.got.cif
#   From: 2010.05.17/outbox.cif.g08.bks.cpg/sg2_137_cif.got.tgz:272848.got - 2010.06.03 11:33:40.
