data_PCOD9037206
_publ_section_title
;
Structure prediction by ZEFSAII (Michael W. Deem and Ramdas Pophale) SiO2 
 PCOD9037206
Probable space group: P -1
;
_chemical_formula_sum "Si O2"
_cell_formula_units_Z 16
_cell_length_a 8.806934
_cell_length_b 18.592059
_cell_length_c 11.559980
_cell_angle_alpha 30.647385
_cell_angle_beta 48.297735
_cell_angle_gamma 48.206901
_cell_volume 698.014703
_symmetry_space_group_name_H-M "P -1"
_symmetry_group_IT_number 2
_symmetry_cell_setting 'triclinic'
loop_
_space_group_symop_operation_xyz
x,y,z
-x,-y,-z
loop_
_atom_site_type_symbol
_atom_site_label
_atom_site_fract_x
_atom_site_fract_y
_atom_site_fract_z
Si Si1 0.726909 0.017421 0.956852
Si Si2 0.038478 0.350601 0.113617
Si Si3 0.696634 0.982446 0.757142
Si Si4 0.005949 0.218514 0.531945
Si Si5 0.132289 0.308377 0.583683
Si Si6 0.645168 0.505560 0.311629
Si Si7 0.286885 0.578042 0.215518
Si Si8 0.829489 0.216835 0.225620
O O1 0.513480 0.076439 0.056370
O O2 0.779642 0.844057 0.185984
O O3 0.686593 0.052949 0.792773
O O4 0.928598 0.077313 0.801662
O O5 0.108582 0.219753 0.351642
O O6 0.846336 0.327450 0.167847
O O7 0.215392 0.379204 0.898892
O O8 0.000000 0.500000 0.000000
O O9 0.700628 0.103943 0.490922
O O10 0.925530 0.871457 0.789559
O O11 0.791510 0.343573 0.450965
O O12 0.126518 0.272285 0.500846
O O13 0.258309 0.427905 0.382944
O O14 0.897367 0.373050 0.662707
O O15 0.500000 0.500000 0.500000
O O16 0.505838 0.553773 0.202738
O O17 0.251975 0.698320 0.966542
#
# Coordination Sequence:
#
# PCOD9037206 Si02
#       8
#     2   2   2   2   2   2   2   2
#     4  11  23  41  66  96 130 169 225 263 319 391
#     4  10  23  40  63  93 129 173 208 260 325 381
#     4  10  24  39  69  96 127 174 218 266 320 385
#     4  11  23  44  64  92 134 174 212 265 327 386
#     4  11  24  41  65  97 132 166 218 271 327 375
#     4  11  24  40  65  98 130 169 218 262 322 390
#     4  11  24  39  66  98 128 166 216 276 319 383
#     4  11  22  45  66  95 134 170 214 269 323 382
#
# _framework density 22.922150999999999
#
# number of rings (size 3 to 8) (size 9 to 14) (size 15 to 20)
#    0.000    1.250    3.750    1.875    7.000    1.000 
#    0.000    3.750    0.000    3.750    0.000    0.000 
#    0.000    0.000    0.000    0.000    0.000    0.000 
#
# Total GULP energy -89439.496884 kJ/mol
# GULP energy per Si atom -5589.968555 kJ/mol
# Density = 2.286998 g / cm^3
# Si number density = 22.922151 Si / 1000 Ang^3
#
#
#
# Elastic Constant Matrix: (Units=GPa)
#
#
# Indices 1 2 3 4 5 6 
#
# 1 49.0626 -16.3801 13.2873 -7.9701 14.7362 5.2689
# 2 -16.3801 42.4096 12.6422 0.3519 -5.7253 -3.6362
# 3 13.2873 12.6422 145.4620 6.4284 10.1146 -3.9616
# 4 -7.9701 0.3519 6.4284 33.7470 -4.0184 7.1537
# 5 14.7362 -5.7253 10.1146 -4.0184 35.8304 2.9253
# 6 5.2689 -3.6362 -3.9616 7.1537 2.9253 21.4738
#
#
#
# Elastic Compliance Matrix: (Units=1/GPa)
#
#
# Indices 1 2 3 4 5 6 
#
# 1 0.029462 0.010677 -0.003653 0.008261 -0.007818 -0.007782
# 2 0.010677 0.029042 -0.003736 0.003043 0.001615 0.000375
# 3 -0.003653 -0.003736 0.007892 -0.003203 -0.001931 0.003050
# 4 0.008261 0.003043 -0.003203 0.035588 0.003159 -0.014389
# 5 -0.007818 0.001615 -0.001931 0.003159 0.032580 -0.003655
# 6 -0.007782 0.000375 0.003050 -0.014389 -0.003655 0.054395
#
#
# Mechanical properties :
#
#
# Convention : Reuss Voigt Hill
#
# Bulk Modulus (GPa) = 13.70383 28.44812 21.07597
# Shear Modulus (GPa) = 24.18891 33.36921 28.77906
#
# Velocity S-wave (km/s) = 3.25201 3.81959 3.54717
# Velocity P-wave (km/s) = 4.48242 5.64712 5.09814
#
# Compressibility (1/GPa) = 0.07297232
#
# Stress axis : x y z
#
# Youngs Moduli (GPa) = 33.94231 34.43298 126.71293
#
# Poissons Ratio (x) = -0.36763 0.46282
# Poissons Ratio (y) = -0.36240 0.47339
# Poissons Ratio (z) = 0.12398 0.12864
#
# Static dielectric constant tensor:
#      x y z
#    x 1.850800 0.020740 -0.016930 
#    y 0.020740 2.001370 0.065070 
#    z -0.016930 0.065070 1.898750 
# 
# From -- ./inp_files/404465.got.cif
#   From: 2010.05.17/outbox.cif.g08.bks.cpg/sg2_203_cif.got.tgz:404465.got - 2010.06.03 11:33:40.
