data_PCOD9037479
_publ_section_title
;
Structure prediction by ZEFSAII (Michael W. Deem and Ramdas Pophale) SiO2 
 PCOD9037479
Probable space group: P -1
;
_chemical_formula_sum "Si O2"
_cell_formula_units_Z 13
_cell_length_a 11.502275
_cell_length_b 5.022695
_cell_length_c 15.861444
_cell_angle_alpha 91.355956
_cell_angle_beta 36.378784
_cell_angle_gamma 103.088423
_cell_volume 509.034003
_symmetry_space_group_name_H-M "P -1"
_symmetry_group_IT_number 2
_symmetry_cell_setting 'triclinic'
loop_
_space_group_symop_operation_xyz
x,y,z
-x,-y,-z
loop_
_atom_site_type_symbol
_atom_site_label
_atom_site_fract_x
_atom_site_fract_y
_atom_site_fract_z
Si Si1 0.700981 0.870893 0.265688
Si Si2 0.612884 0.807291 0.975208
Si Si3 0.000000 0.000000 0.500000
Si Si4 0.916601 0.476314 0.215371
Si Si5 0.340496 0.354133 0.421764
Si Si6 0.308028 0.389103 0.899848
Si Si7 0.956066 0.163252 0.344761
O O1 0.835014 0.725358 0.240868
O O2 0.461696 0.652365 0.398256
O O3 0.515242 0.354200 0.249603
O O4 0.771955 0.845560 0.128022
O O5 0.598623 0.754131 0.082843
O O6 0.500000 0.500000 0.000000
O O7 0.500000 0.000000 0.000000
O O8 0.011336 0.201063 0.411254
O O9 0.135836 0.276481 0.482262
O O10 0.947074 0.422701 0.295366
O O11 0.132595 0.493230 0.043494
O O12 0.750069 0.185468 0.272228
O O13 0.264614 0.096878 0.529451
O O14 0.145040 0.087326 0.191479
#
# Coordination Sequence:
#
# PCOD9037479 Si02
#       7
#     2   2   1   2   2   2   2
#     4  10  23  40  67  98 129 175 216 268 329 389
#     4  11  24  42  68  95 131 170 225 269 322 389
#     4   8  16  42  60  94 128 172 216 264 322 390
#     4  11  22  41  68  95 135 165 227 269 320 391
#     4   8  19  39  65  91 131 172 213 264 326 384
#     4   9  21  40  64  99 126 179 211 270 332 380
#     4   9  21  39  70  93 136 173 216 276 328 385
#
# _framework density 25.538565999999999
#
# number of rings (size 3 to 8) (size 9 to 14) (size 15 to 20)
#    1.846    0.615    0.000    1.846    0.000    7.385 
#    0.000    2.308    3.385    0.000    0.000    0.000 
#    0.000    0.000    0.000    0.000    0.000    0.000 
#
# Total GULP energy -72389.338658 kJ/mol
# GULP energy per Si atom -5568.410666 kJ/mol
# Density = 2.548044 g / cm^3
# Si number density = 25.538566 Si / 1000 Ang^3
#
#
#
# Elastic Constant Matrix: (Units=GPa)
#
#
# Indices 1 2 3 4 5 6 
#
# 1 138.4702 46.5598 52.9806 -14.9375 34.1546 -7.3025
# 2 46.5598 99.7466 46.1733 -7.5091 -0.5255 -15.4471
# 3 52.9806 46.1733 139.9567 -17.7069 2.8250 -17.2538
# 4 -14.9375 -7.5091 -17.7069 20.8654 -1.2838 -6.4306
# 5 34.1546 -0.5255 2.8250 -1.2838 67.5371 -11.7081
# 6 -7.3025 -15.4471 -17.2538 -6.4306 -11.7081 28.0441
#
#
#
# Elastic Compliance Matrix: (Units=1/GPa)
#
#
# Indices 1 2 3 4 5 6 
#
# 1 0.011412 -0.004320 -0.002765 0.002966 -0.006152 -0.002997
# 2 -0.004320 0.014380 -0.001776 0.003294 0.003830 0.008058
# 3 -0.002765 -0.001776 0.010921 0.009338 0.002530 0.008218
# 4 0.002966 0.003294 0.009338 0.067200 0.003803 0.025329
# 5 -0.006152 0.003830 0.002530 0.003803 0.019861 0.011228
# 6 -0.002997 0.008058 0.008218 0.025329 0.011228 0.054868
#
#
# Mechanical properties :
#
#
# Convention : Reuss Voigt Hill
#
# Bulk Modulus (GPa) = 52.65587 74.40013 63.52800
# Shear Modulus (GPa) = 24.66777 38.78665 31.72721
#
# Velocity S-wave (km/s) = 3.11127 3.90134 3.52849
# Velocity P-wave (km/s) = 5.79393 7.03489 6.44435
#
# Compressibility (1/GPa) = 0.01899124
#
# Stress axis : x y z
#
# Youngs Moduli (GPa) = 87.62998 69.54047 91.56657
#
# Poissons Ratio (x) = 0.30043 0.25314
# Poissons Ratio (y) = 0.37858 0.16262
# Poissons Ratio (z) = 0.24226 0.12350
#
# Static dielectric constant tensor:
#      x y z
#    x 1.988680 0.007850 -0.046610 
#    y 0.007850 2.031440 0.023670 
#    z -0.046610 0.023670 2.036380 
# 
# From -- ./inp_files/564349.got.cif
#   From: 2010.05.17/outbox.cif.g08.bks.cpg/sg2_283_cif.got.tgz:564349.got - 2010.06.03 11:33:40.
