data_PCOD9037795
_publ_section_title
;
Structure prediction by ZEFSAII (Michael W. Deem and Ramdas Pophale) SiO2 
 PCOD9037795
Probable space group: P -1
;
_chemical_formula_sum "Si O2"
_cell_formula_units_Z 12
_cell_length_a 8.809958
_cell_length_b 8.255734
_cell_length_c 11.545860
_cell_angle_alpha 136.727916
_cell_angle_beta 96.706052
_cell_angle_gamma 63.043536
_cell_volume 480.807842
_symmetry_space_group_name_H-M "P -1"
_symmetry_group_IT_number 2
_symmetry_cell_setting 'triclinic'
loop_
_space_group_symop_operation_xyz
x,y,z
-x,-y,-z
loop_
_atom_site_type_symbol
_atom_site_label
_atom_site_fract_x
_atom_site_fract_y
_atom_site_fract_z
Si Si1 0.768146 0.648516 0.785927
Si Si2 0.774239 0.143355 0.758597
Si Si3 0.375677 0.473953 0.853993
Si Si4 0.847131 0.541171 0.382532
Si Si5 0.831395 0.179385 0.400235
Si Si6 0.392083 0.063040 0.838880
O O1 0.786758 0.354595 0.604694
O O2 0.956193 0.604041 0.735266
O O3 0.592023 0.871404 0.811269
O O4 0.732891 0.754313 0.969290
O O5 0.582518 0.386217 0.813945
O O6 0.791141 0.853181 0.576161
O O7 0.743161 0.229662 0.936617
O O8 0.966515 0.098124 0.718851
O O9 0.291575 0.453778 0.718422
O O10 0.382779 0.253016 0.831201
O O11 0.848750 0.368759 0.402881
O O12 0.682825 0.118753 0.314412
#
# Coordination Sequence:
#
# PCOD9037795 Si02
#       6
#     2   2   2   2   2   2
#     4  10  23  41  63  89 123 163 205 247 298 363
#     4  10  23  41  63  89 123 163 205 247 298 363
#     4  11  24  41  63  93 126 159 199 252 310 361
#     4  11  23  41  66  91 119 161 209 252 296 357
#     4  11  23  41  66  91 119 161 209 252 296 357
#     4  11  24  41  63  93 126 159 199 252 310 361
#
# _framework density 24.957993999999999
#
# number of rings (size 3 to 8) (size 9 to 14) (size 15 to 20)
#    0.000    1.333    0.000    6.000    0.000   13.333 
#    0.000    3.333    0.000    0.000    0.000    0.000 
#    0.000    0.000    0.000    0.000    0.000    0.000 
#
# Total GULP energy -67299.778444 kJ/mol
# GULP energy per Si atom -5608.314870 kJ/mol
# Density = 2.490119 g / cm^3
# Si number density = 24.957994 Si / 1000 Ang^3
#
#
#
# Elastic Constant Matrix: (Units=GPa)
#
#
# Indices 1 2 3 4 5 6 
#
# 1 51.1730 -0.3046 -2.9065 -2.4925 4.7146 13.1529
# 2 -0.3046 69.5037 19.6951 -19.7110 -7.3200 -18.2786
# 3 -2.9065 19.6951 83.4164 2.9449 -9.1373 -0.4952
# 4 -2.4925 -19.7110 2.9449 41.9292 -10.8191 1.3570
# 5 4.7146 -7.3200 -9.1373 -10.8191 52.5813 -14.8884
# 6 13.1529 -18.2786 -0.4952 1.3570 -14.8884 30.7461
#
#
#
# Elastic Compliance Matrix: (Units=1/GPa)
#
#
# Indices 1 2 3 4 5 6 
#
# 1 0.025378 -0.007752 0.001697 -0.004069 -0.009523 -0.019870
# 2 -0.007752 0.029621 -0.006056 0.016869 0.014977 0.027336
# 3 0.001697 -0.006056 0.013516 -0.003716 -0.000612 -0.004241
# 4 -0.004069 0.016869 -0.003716 0.034875 0.014049 0.016974
# 5 -0.009523 0.014977 -0.000612 0.014049 0.032725 0.028195
# 6 -0.019870 0.027336 -0.004241 0.016974 0.028195 0.070112
#
#
# Mechanical properties :
#
#
# Convention : Reuss Voigt Hill
#
# Bulk Modulus (GPa) = 22.57745 26.34013 24.45879
# Shear Modulus (GPa) = 20.39046 37.55858 28.97452
#
# Velocity S-wave (km/s) = 2.86141 3.88348 3.41094
# Velocity P-wave (km/s) = 4.47020 5.53942 5.03328
#
# Compressibility (1/GPa) = 0.04429198
#
# Stress axis : x y z
#
# Youngs Moduli (GPa) = 39.40410 33.76038 73.98585
#
# Poissons Ratio (x) = 0.26172 -0.12556
# Poissons Ratio (y) = 0.30547 0.44808
# Poissons Ratio (z) = -0.06687 0.20446
#
# Static dielectric constant tensor:
#      x y z
#    x 1.947640 0.018540 -0.027380 
#    y 0.018540 1.958860 0.048300 
#    z -0.027380 0.048300 1.975220 
# 
# From -- ./inp_files/190557.got.cif
#   From: 2010.05.17/outbox.cif.g08.bks.cpg/sg2_96_cif.got.tgz:190557.got - 2010.06.03 11:33:40.
