data_PCOD9037379
_publ_section_title
;
Structure prediction by ZEFSAII (Michael W. Deem and Ramdas Pophale) SiO2 
 PCOD9037379
Probable space group: P -1
;
_chemical_formula_sum "Si O2"
_cell_formula_units_Z 15
_cell_length_a 13.673127
_cell_length_b 11.153153
_cell_length_c 8.493150
_cell_angle_alpha 40.606855
_cell_angle_beta 137.041452
_cell_angle_gamma 124.852791
_cell_volume 574.108139
_symmetry_space_group_name_H-M "P -1"
_symmetry_group_IT_number 2
_symmetry_cell_setting 'triclinic'
loop_
_space_group_symop_operation_xyz
x,y,z
-x,-y,-z
loop_
_atom_site_type_symbol
_atom_site_label
_atom_site_fract_x
_atom_site_fract_y
_atom_site_fract_z
Si Si1 0.312402 0.367656 0.486623
Si Si2 0.338341 0.463944 0.776134
Si Si3 0.000000 0.500000 0.500000
Si Si4 0.486262 0.830377 0.269067
Si Si5 0.087284 0.612557 0.851376
Si Si6 0.180938 0.955496 0.813861
Si Si7 0.875098 0.198847 0.769738
Si Si8 0.354047 0.082246 0.321437
O O1 0.336021 0.465412 0.584335
O O2 0.463000 0.321633 0.636109
O O3 0.234266 0.505463 0.142730
O O4 0.221496 0.169482 0.606454
O O5 0.213542 0.602371 0.546460
O O6 0.500000 0.500000 0.000000
O O7 0.307861 0.253012 0.994079
O O8 0.976444 0.713347 0.199154
O O9 0.029485 0.582230 0.639150
O O10 0.330083 0.855227 0.128531
O O11 0.599637 0.846131 0.525945
O O12 0.500000 0.000000 0.000000
O O13 0.110235 0.825152 0.724355
O O14 0.000000 0.500000 0.000000
O O15 0.103750 0.904509 0.938124
O O16 0.772299 0.070083 0.673067
O O17 0.500000 0.000000 0.500000
#
# Coordination Sequence:
#
# PCOD9037379 Si02
#       8
#     2   2   1   2   2   2   2   2
#     4  11  25  44  72 110 144 193 243 292 375 452
#     4  12  23  39  73 110 144 190 233 292 376 445
#     4  12  30  50  74 100 142 198 258 314 354 426
#     4  10  23  40  66 110 148 184 229 291 369 449
#     4  12  27  52  73 101 144 194 254 315 364 424
#     4  11  22  47  72 102 149 192 231 302 374 440
#     4  12  25  47  70 103 146 195 246 304 362 436
#     4  12  22  42  68 103 148 188 234 289 365 443
#
# _framework density 26.127483000000002
#
# number of rings (size 3 to 8) (size 9 to 14) (size 15 to 20)
#    0.000    0.533    6.667    0.800    5.600    1.067 
#    0.000    1.333    0.000    0.000    0.000    0.000 
#    0.000    0.000    0.000    0.000    0.000    0.000 
#
# Total GULP energy -83685.266428 kJ/mol
# GULP energy per Si atom -5579.017762 kJ/mol
# Density = 2.606802 g / cm^3
# Si number density = 26.127483 Si / 1000 Ang^3
#
#
#
# Elastic Constant Matrix: (Units=GPa)
#
#
# Indices 1 2 3 4 5 6 
#
# 1 26.3406 0.6050 12.1311 -0.9104 -6.6005 -12.5506
# 2 0.6050 153.8119 31.0989 0.1000 -19.1539 16.1588
# 3 12.1311 31.0989 115.7781 -4.4851 -7.3434 -9.4972
# 4 -0.9104 0.1000 -4.4851 57.3864 -6.8434 -8.0699
# 5 -6.6005 -19.1539 -7.3434 -6.8434 54.9951 2.7383
# 6 -12.5506 16.1588 -9.4972 -8.0699 2.7383 31.9144
#
#
#
# Elastic Compliance Matrix: (Units=1/GPa)
#
#
# Indices 1 2 3 4 5 6 
#
# 1 0.050186 -0.001140 -0.002853 0.003961 0.004739 0.020060
# 2 -0.001140 0.007861 -0.002313 -0.000691 0.002480 -0.005505
# 3 -0.002853 -0.002313 0.009884 0.001212 0.000159 0.003283
# 4 0.003961 -0.000691 0.001212 0.018830 0.002400 0.006824
# 5 0.004739 0.002480 0.000159 0.002400 0.019958 -0.000450
# 6 0.020060 -0.005505 0.003283 0.006824 -0.000450 0.044751
#
#
# Mechanical properties :
#
#
# Convention : Reuss Voigt Hill
#
# Bulk Modulus (GPa) = 18.07688 42.62229 30.34958
# Shear Modulus (GPa) = 27.39383 45.66555 36.52969
#
# Velocity S-wave (km/s) = 3.24152 4.18520 3.74322
# Velocity P-wave (km/s) = 4.57643 6.30105 5.50667
#
# Compressibility (1/GPa) = 0.05531928
#
# Stress axis : x y z
#
# Youngs Moduli (GPa) = 19.92569 127.20674 101.17569
#
# Poissons Ratio (x) = 0.14506 0.28862
# Poissons Ratio (y) = 0.02272 0.23403
# Poissons Ratio (z) = 0.05684 0.29424
#
# Static dielectric constant tensor:
#      x y z
#    x 2.275380 -0.018890 0.225250 
#    y -0.018890 2.115970 0.024750 
#    z 0.225250 0.024750 2.044110 
# 
# From -- ./inp_files/330651.got.cif
#   From: 2010.05.17/outbox.cif.g08.bks.cpg/sg2_166_cif.got.tgz:330651.got - 2010.06.03 11:33:40.
