data_PCOD9037226
_publ_section_title
;
Structure prediction by ZEFSAII (Michael W. Deem and Ramdas Pophale) SiO2 
 PCOD9037226
Probable space group: P -1
;
_chemical_formula_sum "Si O2"
_cell_formula_units_Z 14
_cell_length_a 12.477409
_cell_length_b 9.987765
_cell_length_c 13.324599
_cell_angle_alpha 142.115115
_cell_angle_beta 32.148480
_cell_angle_gamma 131.557124
_cell_volume 542.534289
_symmetry_space_group_name_H-M "P -1"
_symmetry_group_IT_number 2
_symmetry_cell_setting 'triclinic'
loop_
_space_group_symop_operation_xyz
x,y,z
-x,-y,-z
loop_
_atom_site_type_symbol
_atom_site_label
_atom_site_fract_x
_atom_site_fract_y
_atom_site_fract_z
Si Si1 0.973616 0.072405 0.422568
Si Si2 0.994608 0.452421 0.252400
Si Si3 0.152790 0.688682 0.522724
Si Si4 0.255034 0.346852 0.820916
Si Si5 0.427534 0.113644 0.360951
Si Si6 0.366608 0.800765 0.950431
Si Si7 0.405924 0.232208 0.824981
O O1 0.055833 0.295791 0.537913
O O2 0.928164 0.113491 0.364607
O O3 0.758525 0.027654 0.617308
O O4 0.863072 0.116844 0.813712
O O5 0.855723 0.305309 0.345979
O O6 0.032562 0.394476 0.071625
O O7 0.217889 0.396296 0.087508
O O8 0.380398 0.653513 0.286136
O O9 0.000000 0.500000 0.500000
O O10 0.303723 0.272672 0.627368
O O11 0.373894 0.574915 0.870728
O O12 0.346639 0.168015 0.719546
O O13 0.553711 0.228161 0.243352
O O14 0.568322 0.953190 0.221751
O O15 0.500000 0.000000 0.000000
#
# Coordination Sequence:
#
# PCOD9037226 Si02
#       7
#     2   2   2   2   2   2   2
#     4  10  23  40  63  97 123 170 217 258 319 375
#     4   9  20  37  62  94 129 158 207 262 310 371
#     4   9  18  33  61  93 127 159 205 259 311 369
#     4  10  24  43  64  98 127 175 208 258 326 378
#     4  11  23  46  67  90 135 167 213 266 314 387
#     4  12  27  44  66  93 128 171 219 265 319 377
#     4   9  21  40  65  98 125 168 208 258 323 374
#
# _framework density 25.804822000000001
#
# number of rings (size 3 to 8) (size 9 to 14) (size 15 to 20)
#    0.857    1.143    0.000    2.571    4.000    8.000 
#    2.571    1.429    0.000    0.000    0.000    0.000 
#    0.000    0.000    0.000    0.000    0.000    0.000 
#
# Total GULP energy -78206.792662 kJ/mol
# GULP energy per Si atom -5586.199476 kJ/mol
# Density = 2.574609 g / cm^3
# Si number density = 25.804822 Si / 1000 Ang^3
#
#
#
# Elastic Constant Matrix: (Units=GPa)
#
#
# Indices 1 2 3 4 5 6 
#
# 1 59.6524 15.8159 17.6402 -1.2514 -2.6635 -13.7142
# 2 15.8159 97.2032 23.6420 -17.6725 1.2040 -23.5625
# 3 17.6402 23.6420 124.8055 -11.8586 17.2670 -23.3758
# 4 -1.2514 -17.6725 -11.8586 35.4872 -2.4112 9.2438
# 5 -2.6635 1.2040 17.2670 -2.4112 37.2413 -5.1731
# 6 -13.7142 -23.5625 -23.3758 9.2438 -5.1731 39.1523
#
#
#
# Elastic Compliance Matrix: (Units=1/GPa)
#
#
# Indices 1 2 3 4 5 6 
#
# 1 0.019128 -0.001745 -0.001975 -0.002046 0.002950 0.005344
# 2 -0.001745 0.013008 -0.000825 0.004710 0.000939 0.005736
# 3 -0.001975 -0.000825 0.009869 0.001551 -0.004062 0.003801
# 4 -0.002046 0.004710 0.001551 0.032171 0.000441 -0.004493
# 5 0.002950 0.000939 -0.004062 0.000441 0.029354 0.002948
# 6 0.005344 0.005736 0.003801 -0.004493 0.002948 0.034585
#
#
# Mechanical properties :
#
#
# Convention : Reuss Voigt Hill
#
# Bulk Modulus (GPa) = 30.38206 43.98416 37.18311
# Shear Modulus (GPa) = 31.61029 37.34702 34.47865
#
# Velocity S-wave (km/s) = 3.50376 3.80845 3.65928
# Velocity P-wave (km/s) = 5.30734 6.03498 5.68282
#
# Compressibility (1/GPa) = 0.03291416
#
# Stress axis : x y z
#
# Youngs Moduli (GPa) = 52.28015 76.87807 101.32511
#
# Poissons Ratio (x) = 0.13417 0.20008
# Poissons Ratio (y) = 0.09124 0.08363
# Poissons Ratio (z) = 0.10323 0.06346
#
# Static dielectric constant tensor:
#      x y z
#    x 2.086040 0.057810 0.125760 
#    y 0.057810 2.096950 0.033520 
#    z 0.125760 0.033520 2.077240 
# 
# From -- ./inp_files/538039.got.cif
#   From: 2010.05.17/outbox.cif.g08.bks.cpg/sg2_270_cif.got.tgz:538039.got - 2010.06.03 11:33:40.
