data_PCOD9037458
_publ_section_title
;
Structure prediction by ZEFSAII (Michael W. Deem and Ramdas Pophale) SiO2 
 PCOD9037458
Probable space group: P -1
;
_chemical_formula_sum "Si O2"
_cell_formula_units_Z 14
_cell_length_a 15.461322
_cell_length_b 9.933683
_cell_length_c 5.314088
_cell_angle_alpha 116.610379
_cell_angle_beta 58.109811
_cell_angle_gamma 111.049293
_cell_volume 611.455860
_symmetry_space_group_name_H-M "P -1"
_symmetry_group_IT_number 2
_symmetry_cell_setting 'triclinic'
loop_
_space_group_symop_operation_xyz
x,y,z
-x,-y,-z
loop_
_atom_site_type_symbol
_atom_site_label
_atom_site_fract_x
_atom_site_fract_y
_atom_site_fract_z
Si Si1 0.897500 0.069260 0.134810
Si Si2 0.214196 0.070589 0.319866
Si Si3 0.940517 0.433443 0.288135
Si Si4 0.429300 0.979585 0.842029
Si Si5 0.605218 0.354667 0.298922
Si Si6 0.240599 0.394011 0.427674
Si Si7 0.413141 0.439951 0.883958
O O1 0.921537 0.250556 0.193925
O O2 0.822250 0.026994 0.456286
O O3 0.847312 0.995240 0.891210
O O4 0.000000 0.000000 0.000000
O O5 0.192650 0.244354 0.527656
O O6 0.336750 0.075469 0.092369
O O7 0.837097 0.506590 0.486211
O O8 0.000000 0.500000 0.500000
O O9 0.000000 0.500000 0.000000
O O10 0.371739 0.805078 0.784954
O O11 0.500000 0.000000 0.500000
O O12 0.500000 0.000000 0.000000
O O13 0.677552 0.493030 0.439265
O O14 0.481743 0.354788 0.522400
O O15 0.621105 0.403761 0.028891
O O16 0.310889 0.338830 0.053430
O O17 0.500000 0.500000 0.000000
#
# Coordination Sequence:
#
# PCOD9037458 Si02
#       7
#     2   2   2   2   2   2   2
#     4  12  26  49  74 102 144 174 226 293 354 408
#     4  12  27  45  71 106 138 186 227 282 355 407
#     4  12  27  47  74 104 134 178 230 280 342 413
#     4  12  28  44  67  99 147 185 233 283 343 405
#     4  10  23  40  67  94 135 180 232 275 338 396
#     4  11  25  41  72  95 137 175 235 275 338 408
#     4   9  21  38  66  95 130 174 231 279 330 390
#
# _framework density 22.896173000000001
#
# number of rings (size 3 to 8) (size 9 to 14) (size 15 to 20)
#    0.000    0.857    0.000    5.571   16.000    0.000 
#    0.000    0.000    0.000    0.000    0.000    0.000 
#    0.000    0.000    0.000    0.000    0.000    0.000 
#
# Total GULP energy -78194.512447 kJ/mol
# GULP energy per Si atom -5585.322318 kJ/mol
# Density = 2.284406 g / cm^3
# Si number density = 22.896173 Si / 1000 Ang^3
#
#
#
# Elastic Constant Matrix: (Units=GPa)
#
#
# Indices 1 2 3 4 5 6 
#
# 1 153.3434 51.5076 55.3254 1.4884 4.4824 -8.7986
# 2 51.5076 193.6816 44.1846 2.9603 7.1167 -20.1036
# 3 55.3254 44.1846 98.2863 -25.7662 3.1658 -3.2204
# 4 1.4884 2.9603 -25.7662 43.0313 -2.9410 5.1051
# 5 4.4824 7.1167 3.1658 -2.9410 48.8282 8.6354
# 6 -8.7986 -20.1036 -3.2204 5.1051 8.6354 39.0662
#
#
#
# Elastic Compliance Matrix: (Units=1/GPa)
#
#
# Indices 1 2 3 4 5 6 
#
# 1 0.009000 -0.000824 -0.005630 -0.003907 -0.000903 0.001849
# 2 -0.000824 0.006550 -0.003041 -0.002775 -0.001490 0.003626
# 3 -0.005630 -0.003041 0.017551 0.011353 0.001055 -0.003103
# 4 -0.003907 -0.002775 0.011353 0.031294 0.002995 -0.006124
# 5 -0.000903 -0.001490 0.001055 0.002995 0.021977 -0.006133
# 6 0.001849 0.003626 -0.003103 -0.006124 -0.006133 0.029780
#
#
# Mechanical properties :
#
#
# Convention : Reuss Voigt Hill
#
# Bulk Modulus (GPa) = 70.87092 83.03850 76.95471
# Shear Modulus (GPa) = 35.75366 45.80472 40.77919
#
# Velocity S-wave (km/s) = 3.95594 4.47759 4.22483
# Velocity P-wave (km/s) = 7.20322 7.94216 7.58170
#
# Compressibility (1/GPa) = 0.01411016
#
# Stress axis : x y z
#
# Youngs Moduli (GPa) = 111.11303 152.68030 56.97578
#
# Poissons Ratio (x) = 0.12584 0.32077
# Poissons Ratio (y) = 0.09158 0.17327
# Poissons Ratio (z) = 0.62556 0.46432
#
# Static dielectric constant tensor:
#      x y z
#    x 3.893610 -0.211910 0.102240 
#    y -0.211910 1.958810 -0.070120 
#    z 0.102240 -0.070120 2.030470 
# 
# From -- ./inp_files/90873.got.cif
#   From: 2010.05.17/outbox.cif.g08.bks.cpg/sg2_46_cif.got.tgz:90873.got - 2010.06.03 11:33:40.
