data_PCOD9037411
_publ_section_title
;
Structure prediction by ZEFSAII (Michael W. Deem and Ramdas Pophale) SiO2 
 PCOD9037411
Probable space group: P -1
;
_chemical_formula_sum "Si O2"
_cell_formula_units_Z 14
_cell_length_a 15.052174
_cell_length_b 11.998273
_cell_length_c 4.988406
_cell_angle_alpha 49.644203
_cell_angle_beta 114.887999
_cell_angle_gamma 132.442488
_cell_volume 506.415995
_symmetry_space_group_name_H-M "P -1"
_symmetry_group_IT_number 2
_symmetry_cell_setting 'triclinic'
loop_
_space_group_symop_operation_xyz
x,y,z
-x,-y,-z
loop_
_atom_site_type_symbol
_atom_site_label
_atom_site_fract_x
_atom_site_fract_y
_atom_site_fract_z
Si Si1 0.691704 0.079360 0.495039
Si Si2 0.141807 0.763333 0.034010
Si Si3 0.861758 0.844178 0.016723
Si Si4 0.301685 0.272548 0.532926
Si Si5 0.916697 0.596952 0.299620
Si Si6 0.511332 0.684054 0.654569
Si Si7 0.670367 0.377284 0.083196
O O1 0.746067 0.133297 0.779226
O O2 0.631024 0.188244 0.203498
O O3 0.598249 0.870770 0.637358
O O4 0.805194 0.160046 0.308861
O O5 0.077932 0.548968 0.305080
O O6 0.033926 0.759515 0.041315
O O7 0.772027 0.831839 0.137744
O O8 0.866708 0.674318 0.314224
O O9 0.797426 0.816086 0.693711
O O10 0.000000 0.000000 0.000000
O O11 0.412930 0.267298 0.599744
O O12 0.348000 0.480720 0.299415
O O13 0.812993 0.483090 0.127993
O O14 0.385724 0.644175 0.657201
O O15 0.500000 0.500000 0.000000
#
# Coordination Sequence:
#
# PCOD9037411 Si02
#       7
#     2   2   2   2   2   2   2
#     4  11  23  41  69  95 129 165 223 261 328 374
#     4  10  23  40  66  97 129 168 209 275 315 390
#     4  11  23  38  63  90 129 166 210 257 316 384
#     4  10  23  41  61  92 126 166 211 260 320 369
#     4   9  21  40  64  95 133 167 215 260 330 370
#     4  10  23  44  69  94 134 170 219 268 324 381
#     4   9  20  44  66  95 128 175 215 265 315 387
#
# _framework density 27.645257000000001
#
# number of rings (size 3 to 8) (size 9 to 14) (size 15 to 20)
#    0.000    2.000    0.000    1.714    4.000    7.429 
#    0.000   30.000    0.000    0.000    0.000    0.000 
#    0.000    0.000    0.000    0.000    0.000    0.000 
#
# Total GULP energy -78322.770274 kJ/mol
# GULP energy per Si atom -5594.483591 kJ/mol
# Density = 2.758234 g / cm^3
# Si number density = 27.645257 Si / 1000 Ang^3
#
#
#
# Elastic Constant Matrix: (Units=GPa)
#
#
# Indices 1 2 3 4 5 6 
#
# 1 147.8738 46.6202 31.5714 -13.9145 -19.9298 -6.7196
# 2 46.6202 156.2652 49.6786 -30.1817 0.6749 -2.1169
# 3 31.5714 49.6786 99.9796 1.8780 -26.9911 -5.9586
# 4 -13.9145 -30.1817 1.8780 45.0480 -7.0539 5.4725
# 5 -19.9298 0.6749 -26.9911 -7.0539 42.3820 -7.1695
# 6 -6.7196 -2.1169 -5.9586 5.4725 -7.1695 54.3472
#
#
#
# Elastic Compliance Matrix: (Units=1/GPa)
#
#
# Indices 1 2 3 4 5 6 
#
# 1 0.008264 -0.001981 -0.000470 0.001737 0.004121 0.001262
# 2 -0.001981 0.009868 -0.005537 0.005808 -0.003914 -0.001569
# 3 -0.000470 -0.005537 0.015826 -0.003339 0.009916 0.003106
# 4 0.001737 0.005808 -0.003339 0.027483 0.002778 -0.002326
# 5 0.004121 -0.003914 0.009916 0.002778 0.033313 0.005559
# 6 0.001262 -0.001569 0.003106 -0.002326 0.005559 0.019803
#
#
# Mechanical properties :
#
#
# Convention : Reuss Voigt Hill
#
# Bulk Modulus (GPa) = 55.61138 73.31767 64.46453
# Shear Modulus (GPa) = 36.62260 46.77199 41.69730
#
# Velocity S-wave (km/s) = 3.64364 4.11769 3.88789
# Velocity P-wave (km/s) = 6.15315 7.01325 6.59723
#
# Compressibility (1/GPa) = 0.01798193
#
# Stress axis : x y z
#
# Youngs Moduli (GPa) = 121.01268 101.33577 63.18528
#
# Poissons Ratio (x) = 0.20077 0.02970
# Poissons Ratio (y) = 0.23975 0.34985
# Poissons Ratio (z) = 0.05688 0.56109
#
# Static dielectric constant tensor:
#      x y z
#    x 2.165600 -0.019720 0.029490 
#    y -0.019720 2.214140 0.004340 
#    z 0.029490 0.004340 2.245720 
# 
# From -- ./inp_files/93221.got.cif
#   From: 2010.05.17/outbox.cif.g08.bks.cpg/sg2_47_cif.got.tgz:93221.got - 2010.06.03 11:33:40.
