data_PCOD9037583
_publ_section_title
;
Structure prediction by ZEFSAII (Michael W. Deem and Ramdas Pophale) SiO2 
 PCOD9037583
Probable space group: P -1
;
_chemical_formula_sum "Si O2"
_cell_formula_units_Z 16
_cell_length_a 14.007137
_cell_length_b 12.219568
_cell_length_c 8.901929
_cell_angle_alpha 48.015128
_cell_angle_beta 105.557546
_cell_angle_gamma 68.329463
_cell_volume 701.100987
_symmetry_space_group_name_H-M "P -1"
_symmetry_group_IT_number 2
_symmetry_cell_setting 'triclinic'
loop_
_space_group_symop_operation_xyz
x,y,z
-x,-y,-z
loop_
_atom_site_type_symbol
_atom_site_label
_atom_site_fract_x
_atom_site_fract_y
_atom_site_fract_z
Si Si1 0.053492 0.447035 0.396849
Si Si2 0.664604 0.239952 0.277251
Si Si3 0.149023 0.652226 0.314099
Si Si4 0.479854 0.015554 0.728925
Si Si5 0.277013 0.151915 0.248791
Si Si6 0.066604 0.882921 0.361421
Si Si7 0.526259 0.720959 0.282735
Si Si8 0.766821 0.049633 0.162837
O O1 0.149041 0.488975 0.398677
O O2 0.157133 0.194885 0.618063
O O3 0.000000 0.500000 0.500000
O O4 0.902871 0.627010 0.064115
O O5 0.797143 0.208004 0.398578
O O6 0.682900 0.067790 0.537110
O O7 0.690816 0.160724 0.190276
O O8 0.500000 0.500000 0.000000
O O9 0.132440 0.686796 0.453944
O O10 0.309147 0.541436 0.433122
O O11 0.998916 0.904376 0.955869
O O12 0.335891 0.144784 0.440819
O O13 0.466399 0.184172 0.656150
O O14 0.626485 0.868499 0.816289
O O15 0.505032 0.857908 0.006062
O O16 0.913199 0.991149 0.270133
O O17 0.378482 0.784161 0.164025
#
# Coordination Sequence:
#
# PCOD9037583 Si02
#       8
#     2   2   2   2   2   2   2   2
#     4  12  23  44  75 107 143 183 239 314 364 424
#     4  12  27  49  71 100 148 198 243 297 359 441
#     4  11  24  42  71  99 143 190 238 308 351 433
#     4  10  23  40  69 107 141 176 238 303 360 439
#     4  11  24  43  70 106 142 189 241 295 375 424
#     4  11  26  45  66 106 144 191 249 284 365 438
#     4  11  22  43  68 106 142 184 241 296 367 419
#     4  12  26  44  73 104 144 194 241 299 367 426
#
# _framework density 22.821249000000002
#
# number of rings (size 3 to 8) (size 9 to 14) (size 15 to 20)
#    0.000    0.750    3.750    4.125    0.000    4.000 
#    0.000    0.000    0.000    0.000    0.000    0.000 
#    0.000    0.000    0.000    0.000    0.000    0.000 
#
# Total GULP energy -89515.551350 kJ/mol
# GULP energy per Si atom -5594.721959 kJ/mol
# Density = 2.276931 g / cm^3
# Si number density = 22.821249 Si / 1000 Ang^3
#
#
#
# Elastic Constant Matrix: (Units=GPa)
#
#
# Indices 1 2 3 4 5 6 
#
# 1 123.0297 44.3692 34.0584 5.6687 32.4486 24.0593
# 2 44.3692 138.4049 51.9781 6.1854 20.2571 -0.1179
# 3 34.0584 51.9781 98.2872 -4.6137 44.0977 13.1955
# 4 5.6687 6.1854 -4.6137 26.4720 1.7431 10.0072
# 5 32.4486 20.2571 44.0977 1.7431 46.1732 4.0546
# 6 24.0593 -0.1179 13.1955 10.0072 4.0546 20.2998
#
#
#
# Elastic Compliance Matrix: (Units=1/GPa)
#
#
# Indices 1 2 3 4 5 6 
#
# 1 0.017823 -0.007573 0.009815 0.012191 -0.016377 -0.030287
# 2 -0.007573 0.013388 -0.012237 -0.012259 0.009745 0.021105
# 3 0.009815 -0.012237 0.033396 0.023242 -0.030903 -0.038698
# 4 0.012191 -0.012259 0.023242 0.065213 -0.022823 -0.057218
# 5 -0.016377 0.009745 -0.030903 -0.022823 0.055784 0.039664
# 6 -0.030287 0.021105 -0.038698 -0.057218 0.039664 0.130719
#
#
# Mechanical properties :
#
#
# Convention : Reuss Voigt Hill
#
# Bulk Modulus (GPa) = 22.41307 68.94813 45.68060
# Shear Modulus (GPa) = 14.23751 33.87673 24.05712
#
# Velocity S-wave (km/s) = 2.50045 3.85702 3.25030
# Velocity P-wave (km/s) = 4.26366 7.07908 5.84346
#
# Compressibility (1/GPa) = 0.04461681
#
# Stress axis : x y z
#
# Youngs Moduli (GPa) = 56.10857 74.69277 29.94388
#
# Poissons Ratio (x) = 0.56567 -0.29391
# Poissons Ratio (y) = 0.42493 0.36642
# Poissons Ratio (z) = -0.55073 0.91402
#
# Static dielectric constant tensor:
#      x y z
#    x 1.901670 -0.006900 -0.031710 
#    y -0.006900 1.816670 0.018130 
#    z -0.031710 0.018130 1.839440 
# 
# From -- ./inp_files/306529.got.cif
#   From: 2010.05.17/outbox.cif.g08.bks.cpg/sg2_154_cif.got.tgz:306529.got - 2010.06.03 11:33:40.
