data_PCOD9037602
_publ_section_title
;
Structure prediction by ZEFSAII (Michael W. Deem and Ramdas Pophale) SiO2 
 PCOD9037602
Probable space group: P -1
;
_chemical_formula_sum "Si O2"
_cell_formula_units_Z 14
_cell_length_a 5.337552
_cell_length_b 18.031047
_cell_length_c 11.837362
_cell_angle_alpha 149.025767
_cell_angle_beta 77.974636
_cell_angle_gamma 96.633704
_cell_volume 568.924567
_symmetry_space_group_name_H-M "P -1"
_symmetry_group_IT_number 2
_symmetry_cell_setting 'triclinic'
loop_
_space_group_symop_operation_xyz
x,y,z
-x,-y,-z
loop_
_atom_site_type_symbol
_atom_site_label
_atom_site_fract_x
_atom_site_fract_y
_atom_site_fract_z
Si Si1 0.803781 0.585891 0.541987
Si Si2 0.464357 0.953876 0.246368
Si Si3 0.953085 0.658926 0.264676
Si Si4 0.431978 0.579028 0.230733
Si Si5 0.748737 0.920725 0.941952
Si Si6 0.914629 0.073356 0.487052
Si Si7 0.440945 0.626370 0.843402
O O1 0.824358 0.744978 0.696492
O O2 0.566315 0.621613 0.699720
O O3 0.787957 0.469090 0.290317
O O4 0.000000 0.500000 0.500000
O O5 0.175011 0.018420 0.317994
O O6 0.654254 0.938268 0.102593
O O7 0.424496 0.795779 0.094010
O O8 0.635680 0.040266 0.428413
O O9 0.155357 0.669801 0.359346
O O10 0.656483 0.681164 0.357478
O O11 0.052983 0.758845 0.289867
O O12 0.000000 0.500000 0.000000
O O13 0.426158 0.466145 0.185891
O O14 0.500000 0.500000 0.000000
O O15 0.500000 0.000000 0.000000
O O16 0.000000 0.000000 0.000000
O O17 0.000000 0.000000 0.500000
#
# Coordination Sequence:
#
# PCOD9037602 Si02
#       7
#     2   2   2   2   2   2   2
#     4  10  25  46  74 108 140 192 249 290 364 439
#     4  11  27  45  73 106 142 188 243 286 364 431
#     4  10  24  43  65  97 137 179 238 287 347 412
#     4  10  23  40  69  99 138 177 234 285 353 409
#     4  11  26  48  76 105 152 185 235 312 372 425
#     4  12  27  45  72  99 146 191 238 289 355 430
#     4  10  25  43  73 103 144 187 236 298 353 427
#
# _framework density 24.607835000000001
#
# number of rings (size 3 to 8) (size 9 to 14) (size 15 to 20)
#    0.000    1.429    0.000    2.143   20.000    3.429 
#    0.000    0.000    0.000    0.000    0.000    0.000 
#    0.000    0.000    0.000    0.000    0.000    0.000 
#
# Total GULP energy -78055.758505 kJ/mol
# GULP energy per Si atom -5575.411322 kJ/mol
# Density = 2.455183 g / cm^3
# Si number density = 24.607835 Si / 1000 Ang^3
#
#
#
# Elastic Constant Matrix: (Units=GPa)
#
#
# Indices 1 2 3 4 5 6 
#
# 1 172.6585 37.2990 28.5986 24.0238 21.7489 6.3952
# 2 37.2990 157.2013 44.8432 36.8552 17.4768 6.3134
# 3 28.5986 44.8432 85.7916 35.8865 21.5166 9.0677
# 4 24.0238 36.8552 35.8865 60.0040 9.5586 -4.4588
# 5 21.7489 17.4768 21.5166 9.5586 24.2579 -3.3643
# 6 6.3952 6.3134 9.0677 -4.4588 -3.3643 45.9289
#
#
#
# Elastic Compliance Matrix: (Units=1/GPa)
#
#
# Indices 1 2 3 4 5 6 
#
# 1 0.006873 -0.000631 0.000331 -0.001798 -0.005502 -0.001513
# 2 -0.000631 0.008154 -0.001939 -0.003291 -0.002452 -0.001149
# 3 0.000331 -0.001939 0.020759 -0.009501 -0.014381 -0.005854
# 4 -0.001798 -0.003291 -0.009501 0.024952 0.003305 0.005243
# 5 -0.005502 -0.002452 -0.014381 0.003305 0.060583 0.008701
# 6 -0.001513 -0.001149 -0.005854 0.005243 0.008701 0.024443
#
#
# Mechanical properties :
#
#
# Convention : Reuss Voigt Hill
#
# Bulk Modulus (GPa) = 31.94123 70.79255 51.36689
# Shear Modulus (GPa) = 31.11797 46.36555 38.74176
#
# Velocity S-wave (km/s) = 3.55992 4.34542 3.97213
# Velocity P-wave (km/s) = 5.46860 7.34899 6.47739
#
# Compressibility (1/GPa) = 0.03130750
#
# Stress axis : x y z
#
# Youngs Moduli (GPa) = 145.50648 122.63283 48.17176
#
# Poissons Ratio (x) = 0.07739 -0.01593
# Poissons Ratio (y) = 0.09183 0.09340
# Poissons Ratio (z) = -0.04811 0.23776
#
# Static dielectric constant tensor:
#      x y z
#    x 2.100090 0.142810 0.000170 
#    y 0.142810 2.202450 -0.011370 
#    z 0.000170 -0.011370 1.896060 
# 
# From -- ./inp_files/97354.got.cif
#   From: 2010.05.17/outbox.cif.g08.bks.cpg/sg2_49_cif.got.tgz:97354.got - 2010.06.03 11:33:40.
