data_PCOD9037045
_publ_section_title
;
Structure prediction by ZEFSAII (Michael W. Deem and Ramdas Pophale) SiO2 
 PCOD9037045
Probable space group: P -1
;
_chemical_formula_sum "Si O2"
_cell_formula_units_Z 12
_cell_length_a 11.832789
_cell_length_b 9.998704
_cell_length_c 4.891222
_cell_angle_alpha 113.366721
_cell_angle_beta 111.625758
_cell_angle_gamma 69.795404
_cell_volume 480.195360
_symmetry_space_group_name_H-M "P -1"
_symmetry_group_IT_number 2
_symmetry_cell_setting 'triclinic'
loop_
_space_group_symop_operation_xyz
x,y,z
-x,-y,-z
loop_
_atom_site_type_symbol
_atom_site_label
_atom_site_fract_x
_atom_site_fract_y
_atom_site_fract_z
Si Si1 0.638267 0.673812 0.733174
Si Si2 0.629912 0.411055 0.174932
Si Si3 0.382704 0.851079 0.371368
Si Si4 0.731212 0.807285 0.441009
Si Si5 0.157233 0.730262 0.093140
Si Si6 0.000192 0.158206 0.483873
O O1 0.640531 0.500342 0.532810
O O2 0.506478 0.771714 0.579097
O O3 0.739948 0.721285 0.664967
O O4 0.663896 0.721615 0.095168
O O5 0.500000 0.500000 0.000000
O O6 0.620169 0.239042 0.990436
O O7 0.753850 0.407531 0.100927
O O8 0.258478 0.816988 0.370097
O O9 0.356600 0.027228 0.461993
O O10 0.862909 0.823617 0.455111
O O11 0.068559 0.717560 0.255780
O O12 0.076801 0.823211 0.852030
O O13 0.000000 0.000000 0.500000
#
# Coordination Sequence:
#
# PCOD9037045 Si02
#       6
#     2   2   2   2   2   2
#     4  11  24  43  62 100 132 163 207 272 331 375
#     4   8  19  45  66  95 126 174 211 260 316 393
#     4   9  21  43  68  95 125 170 216 264 315 385
#     4  12  25  39  65  95 133 167 209 268 328 365
#     4  10  23  39  70  92 120 165 230 254 304 373
#     4  12  23  42  63  94 130 171 217 261 308 388
#
# _framework density 24.989826999999998
#
# number of rings (size 3 to 8) (size 9 to 14) (size 15 to 20)
#    1.000    0.667    1.667    2.500    2.333    2.667 
#    0.000    8.333    0.000    0.000    0.000    0.000 
#    0.000    0.000    0.000    0.000    0.000    0.000 
#
# Total GULP energy -67104.770816 kJ/mol
# GULP energy per Si atom -5592.064235 kJ/mol
# Density = 2.493295 g / cm^3
# Si number density = 24.989827 Si / 1000 Ang^3
#
#
#
# Elastic Constant Matrix: (Units=GPa)
#
#
# Indices 1 2 3 4 5 6 
#
# 1 167.3623 33.2182 18.5108 -3.5517 -12.4748 -20.2899
# 2 33.2182 98.1730 69.9803 20.7335 0.4554 -9.2526
# 3 18.5108 69.9803 125.1326 11.8191 -2.1688 -0.6180
# 4 -3.5517 20.7335 11.8191 52.0253 -4.1011 0.3575
# 5 -12.4748 0.4554 -2.1688 -4.1011 39.2778 -4.3826
# 6 -20.2899 -9.2526 -0.6180 0.3575 -4.3826 32.5484
#
#
#
# Elastic Compliance Matrix: (Units=1/GPa)
#
#
# Indices 1 2 3 4 5 6 
#
# 1 0.007226 -0.002662 0.000333 0.001685 0.002982 0.004137
# 2 -0.002662 0.020008 -0.010243 -0.006000 -0.001862 0.003649
# 3 0.000333 -0.010243 0.013569 0.001104 0.000827 -0.002348
# 4 0.001685 -0.006000 0.001104 0.021707 0.002878 -0.000485
# 5 0.002982 -0.001862 0.000827 0.002878 0.027332 0.004994
# 6 0.004137 0.003649 -0.002348 -0.000485 0.004994 0.034973
#
#
# Mechanical properties :
#
#
# Convention : Reuss Voigt Hill
#
# Bulk Modulus (GPa) = 63.86294 70.45408 67.15851
# Shear Modulus (GPa) = 32.22041 42.70086 37.46063
#
# Velocity S-wave (km/s) = 3.59463 4.13816 3.87594
# Velocity P-wave (km/s) = 6.54520 7.14751 6.85297
#
# Compressibility (1/GPa) = 0.01565853
#
# Stress axis : x y z
#
# Youngs Moduli (GPa) = 138.38466 49.97892 73.69514
#
# Poissons Ratio (x) = 0.13305 -0.02452
# Poissons Ratio (y) = 0.36840 0.75489
# Poissons Ratio (z) = -0.04605 0.51195
#
# Static dielectric constant tensor:
#      x y z
#    x 2.020080 -0.006480 -0.030750 
#    y -0.006480 1.986760 0.035140 
#    z -0.030750 0.035140 1.929100 
# 
# From -- ./inp_files/72417.got.cif
#   From: 2010.05.17/outbox.cif.g08.bks.cpg/sg2_37_cif.got.tgz:72417.got - 2010.06.03 11:33:40.
