data_PCOD9037326
_publ_section_title
;
Structure prediction by ZEFSAII (Michael W. Deem and Ramdas Pophale) SiO2 
 PCOD9037326
Probable space group: P -1
;
_chemical_formula_sum "Si O2"
_cell_formula_units_Z 14
_cell_length_a 9.619890
_cell_length_b 8.798339
_cell_length_c 11.335942
_cell_angle_alpha 82.272504
_cell_angle_beta 73.877470
_cell_angle_gamma 44.242545
_cell_volume 640.104623
_symmetry_space_group_name_H-M "P -1"
_symmetry_group_IT_number 2
_symmetry_cell_setting 'triclinic'
loop_
_space_group_symop_operation_xyz
x,y,z
-x,-y,-z
loop_
_atom_site_type_symbol
_atom_site_label
_atom_site_fract_x
_atom_site_fract_y
_atom_site_fract_z
Si Si1 0.046774 0.109103 0.061863
Si Si2 0.547455 0.350641 0.899162
Si Si3 0.360615 0.732184 0.445854
Si Si4 0.235541 0.591377 0.327540
Si Si5 0.737277 0.537641 0.212700
Si Si6 0.449102 0.887084 0.598204
Si Si7 0.100263 0.261020 0.803246
O O1 0.881077 0.279821 0.183638
O O2 0.255299 0.902169 0.098109
O O3 0.065330 0.228904 0.947724
O O4 0.000000 0.000000 0.000000
O O5 0.588300 0.446318 0.778746
O O6 0.364495 0.376434 0.902296
O O7 0.500000 0.500000 0.000000
O O8 0.500000 0.500000 0.500000
O O9 0.187110 0.762363 0.416939
O O10 0.533734 0.684984 0.327695
O O11 0.307816 0.890673 0.544329
O O12 0.345407 0.363283 0.387840
O O13 0.069956 0.666171 0.260236
O O14 0.875737 0.574051 0.216318
O O15 0.500000 0.000000 0.500000
O O16 0.316858 0.029102 0.729202
#
# Coordination Sequence:
#
# PCOD9037326 Si02
#       7
#     2   2   2   2   2   2   2
#     4  12  24  40  68  97 127 171 216 259 321 386
#     4  11  21  40  66  94 126 170 213 258 317 381
#     4   9  21  42  65  91 126 172 211 263 310 379
#     4  10  23  40  65  94 128 167 214 264 316 378
#     4  11  24  42  63  95 136 163 213 269 320 375
#     4  11  23  44  67  94 131 168 214 263 329 373
#     4  12  25  42  65  98 132 167 211 274 318 377
#
# _framework density 21.871424999999999
#
# number of rings (size 3 to 8) (size 9 to 14) (size 15 to 20)
#    0.000    1.143    4.286    1.286    4.000    2.857 
#    0.000    0.000    0.000    0.000    0.000    0.000 
#    0.000    0.000    0.000    0.000    0.000    0.000 
#
# Total GULP energy -77998.884333 kJ/mol
# GULP energy per Si atom -5571.348881 kJ/mol
# Density = 2.182164 g / cm^3
# Si number density = 21.871425 Si / 1000 Ang^3
#
#
#
# Elastic Constant Matrix: (Units=GPa)
#
#
# Indices 1 2 3 4 5 6 
#
# 1 112.7608 21.7593 1.7315 -5.8165 20.9571 8.7358
# 2 21.7593 88.1503 14.0999 1.7413 2.0029 -5.7909
# 3 1.7315 14.0999 48.6006 -0.0370 4.8251 6.2296
# 4 -5.8165 1.7413 -0.0370 41.4088 10.3691 0.0922
# 5 20.9571 2.0029 4.8251 10.3691 30.0821 5.5001
# 6 8.7358 -5.7909 6.2296 0.0922 5.5001 30.0703
#
#
#
# Elastic Compliance Matrix: (Units=1/GPa)
#
#
# Indices 1 2 3 4 5 6 
#
# 1 0.011545 -0.003182 0.001755 0.004018 -0.009005 -0.002696
# 2 -0.003182 0.013082 -0.004379 -0.001465 0.001818 0.004023
# 3 0.001755 -0.004379 0.022881 0.001500 -0.004141 -0.005340
# 4 0.004018 -0.001465 0.001500 0.027946 -0.012661 0.000470
# 5 -0.009005 0.001818 -0.004141 -0.012661 0.045229 -0.004410
# 6 -0.002696 0.004023 -0.005340 0.000470 -0.004410 0.036725
#
#
# Mechanical properties :
#
#
# Convention : Reuss Voigt Hill
#
# Bulk Modulus (GPa) = 27.85992 36.07701 31.96847
# Shear Modulus (GPa) = 27.62626 34.44031 31.03328
#
# Velocity S-wave (km/s) = 3.55790 3.97252 3.77091
# Velocity P-wave (km/s) = 5.44462 6.12960 5.79724
#
# Compressibility (1/GPa) = 0.03589386
#
# Stress axis : x y z
#
# Youngs Moduli (GPa) = 86.61652 76.43970 43.70490
#
# Poissons Ratio (x) = 0.24326 -0.07668
# Poissons Ratio (y) = 0.27564 0.19140
# Poissons Ratio (z) = -0.15197 0.33475
#
# Static dielectric constant tensor:
#      x y z
#    x 1.854490 0.003580 0.039810 
#    y 0.003580 1.822180 0.033270 
#    z 0.039810 0.033270 1.907890 
# 
# From -- ./inp_files/184681.got.cif
#   From: 2010.05.17/outbox.cif.g08.bks.cpg/sg2_93_cif.got.tgz:184681.got - 2010.06.03 11:33:40.
