data_PCOD9037276
_publ_section_title
;
Structure prediction by ZEFSAII (Michael W. Deem and Ramdas Pophale) SiO2 
 PCOD9037276
Probable space group: P -1
;
_chemical_formula_sum "Si O2"
_cell_formula_units_Z 14
_cell_length_a 7.099610
_cell_length_b 10.570132
_cell_length_c 8.440551
_cell_angle_alpha 84.416891
_cell_angle_beta 77.304368
_cell_angle_gamma 101.047748
_cell_volume 600.011110
_symmetry_space_group_name_H-M "P -1"
_symmetry_group_IT_number 2
_symmetry_cell_setting 'triclinic'
loop_
_space_group_symop_operation_xyz
x,y,z
-x,-y,-z
loop_
_atom_site_type_symbol
_atom_site_label
_atom_site_fract_x
_atom_site_fract_y
_atom_site_fract_z
Si Si1 0.512254 0.748406 0.151308
Si Si2 0.112883 0.111468 0.081146
Si Si3 0.378423 0.996329 0.293204
Si Si4 0.230453 0.844190 0.636933
Si Si5 0.298573 0.480232 0.355788
Si Si6 0.582618 0.399042 0.107270
Si Si7 0.129478 0.545187 0.687554
O O1 0.460429 0.875798 0.221121
O O2 0.442540 0.621863 0.288395
O O3 0.744191 0.778335 0.062005
O O4 0.404707 0.713920 0.004432
O O5 0.952123 0.157270 0.212999
O O6 0.258256 0.053780 0.176141
O O7 0.000000 0.000000 0.000000
O O8 0.237961 0.937664 0.473228
O O9 0.564706 0.100063 0.316067
O O10 0.207429 0.696164 0.605006
O O11 0.414535 0.375051 0.279177
O O12 0.220865 0.462224 0.551467
O O13 0.105125 0.483811 0.286198
O O14 0.783506 0.458983 0.153632
O O15 0.500000 0.500000 0.000000
#
# Coordination Sequence:
#
# PCOD9037276 Si02
#       7
#     2   2   2   2   2   2   2
#     4  11  22  44  64  97 135 170 213 274 327 382
#     4  12  25  41  65  99 134 171 217 268 329 391
#     4  11  24  45  66  98 135 172 221 269 326 390
#     4  11  24  44  70  95 132 177 221 268 324 394
#     4  10  23  44  64  97 131 168 224 269 321 394
#     4  10  23  40  64  95 132 167 214 268 324 386
#     4  11  22  42  70  94 129 177 218 265 330 387
#
# _framework density 23.332903999999999
#
# number of rings (size 3 to 8) (size 9 to 14) (size 15 to 20)
#    0.000    1.143    2.857    3.000    2.000    2.286 
#    5.143    1.429    0.000    0.000    0.000    0.000 
#    0.000    0.000    0.000    0.000    0.000    0.000 
#
# Total GULP energy -78338.666387 kJ/mol
# GULP energy per Si atom -5595.619028 kJ/mol
# Density = 2.327980 g / cm^3
# Si number density = 23.332904 Si / 1000 Ang^3
#
#
#
# Elastic Constant Matrix: (Units=GPa)
#
#
# Indices 1 2 3 4 5 6 
#
# 1 110.6689 20.0160 38.6565 -9.4388 -0.6571 26.6469
# 2 20.0160 52.8608 5.4095 -3.5090 -7.2794 20.5834
# 3 38.6565 5.4095 79.2805 11.4932 -15.2625 14.5691
# 4 -9.4388 -3.5090 11.4932 44.3546 -7.1382 -2.4114
# 5 -0.6571 -7.2794 -15.2625 -7.1382 48.6252 7.6938
# 6 26.6469 20.5834 14.5691 -2.4114 7.6938 32.2744
#
#
#
# Elastic Compliance Matrix: (Units=1/GPa)
#
#
# Indices 1 2 3 4 5 6 
#
# 1 0.013327 -0.001406 -0.005634 0.003775 -0.000096 -0.007258
# 2 -0.001406 0.028516 0.004163 0.001194 0.009051 -0.020973
# 3 -0.005634 0.004163 0.018726 -0.005053 0.007030 -0.008510
# 4 0.003775 0.001194 -0.005053 0.025120 0.002377 -0.000287
# 5 -0.000096 0.009051 0.007030 0.002377 0.026862 -0.015092
# 6 -0.007258 -0.020973 -0.008510 -0.000287 -0.015092 0.057771
#
#
# Mechanical properties :
#
#
# Convention : Reuss Voigt Hill
#
# Bulk Modulus (GPa) = 18.24289 41.21934 29.73111
# Shear Modulus (GPa) = 25.72684 36.96606 31.34645
#
# Velocity S-wave (km/s) = 3.32414 3.98463 3.66928
# Velocity P-wave (km/s) = 4.75066 6.23489 5.54268
#
# Compressibility (1/GPa) = 0.05481589
#
# Stress axis : x y z
#
# Youngs Moduli (GPa) = 75.03344 35.06745 53.40068
#
# Poissons Ratio (x) = 0.04931 0.30088
# Poissons Ratio (y) = 0.10552 -0.22233
# Poissons Ratio (z) = 0.42276 -0.14600
#
# Static dielectric constant tensor:
#      x y z
#    x 1.861770 -0.008880 -0.014120 
#    y -0.008880 1.888210 0.011090 
#    z -0.014120 0.011090 1.928350 
# 
# From -- ./inp_files/26805.got.cif
#   From: 2010.05.17/outbox.cif.g08.bks.cpg/sg2_14_cif.got.tgz:26805.got - 2010.06.03 11:33:40.
