data_PCOD9037080
_publ_section_title
;
Structure prediction by ZEFSAII (Michael W. Deem and Ramdas Pophale) SiO2 
 PCOD9037080
Probable space group: P -1
;
_chemical_formula_sum "Si O2"
_cell_formula_units_Z 16
_cell_length_a 16.321580
_cell_length_b 7.456432
_cell_length_c 6.871863
_cell_angle_alpha 94.114226
_cell_angle_beta 73.177614
_cell_angle_gamma 54.554140
_cell_volume 620.614423
_symmetry_space_group_name_H-M "P -1"
_symmetry_group_IT_number 2
_symmetry_cell_setting 'triclinic'
loop_
_space_group_symop_operation_xyz
x,y,z
-x,-y,-z
loop_
_atom_site_type_symbol
_atom_site_label
_atom_site_fract_x
_atom_site_fract_y
_atom_site_fract_z
Si Si1 0.205858 0.828980 0.259226
Si Si2 0.017755 0.277982 0.546660
Si Si3 0.600701 0.248055 0.718141
Si Si4 0.423231 0.299670 0.351761
Si Si5 0.200207 0.508575 0.441616
Si Si6 0.119542 0.338624 0.807803
Si Si7 0.365955 0.501012 0.825450
Si Si8 0.656374 0.053146 0.247742
O O1 0.295375 0.872780 0.220425
O O2 0.201794 0.723423 0.457222
O O3 0.084793 0.067094 0.332170
O O4 0.259670 0.629131 0.044127
O O5 0.099546 0.196345 0.664796
O O6 0.000000 0.500000 0.500000
O O7 0.891487 0.388934 0.657039
O O8 0.581798 0.482641 0.689500
O O9 0.478853 0.340685 0.861113
O O10 0.635781 0.085210 0.496708
O O11 0.330670 0.301289 0.310404
O O12 0.383358 0.358015 0.610959
O O13 0.552531 0.084092 0.232623
O O14 0.153301 0.463172 0.656055
O O15 0.219225 0.177647 0.876754
O O16 0.000000 0.500000 0.000000
O O17 0.355811 0.720565 0.776461
#
# Coordination Sequence:
#
# PCOD9037080 Si02
#       8
#     2   2   2   2   2   2   2   2
#     4  11  19  35  61  85 118 153 186 239 291 334
#     4  10  23  41  56  80 116 156 192 230 286 344
#     4   8  15  32  55  87 118 148 188 234 284 337
#     4   8  17  35  58  87 121 145 184 243 287 333
#     4  10  23  40  58  84 119 152 189 241 295 331
#     4  11  24  41  62  82 111 155 202 238 277 351
#     4   9  18  29  59  94 115 144 193 234 278 352
#     4   9  17  35  59  86 116 152 188 235 290 330
#
# _framework density 25.780904
#
# number of rings (size 3 to 8) (size 9 to 14) (size 15 to 20)
#    0.000    2.500    1.250    2.250    3.500    1.500 
#    0.000    1.250    0.000    3.750    0.000    0.000 
#    0.000    0.000    0.000    0.000    0.000    0.000 
#
# Total GULP energy -89160.644082 kJ/mol
# GULP energy per Si atom -5572.540255 kJ/mol
# Density = 2.572223 g / cm^3
# Si number density = 25.780904 Si / 1000 Ang^3
#
#
#
# Elastic Constant Matrix: (Units=GPa)
#
#
# Indices 1 2 3 4 5 6 
#
# 1 113.5648 32.2299 43.7362 20.1863 -42.8755 -37.4749
# 2 32.2299 84.9358 21.0490 14.2272 -26.4748 -18.7242
# 3 43.7362 21.0490 107.1550 22.9392 -30.9653 -11.4341
# 4 20.1863 14.2272 22.9392 29.8533 -13.9491 -17.5877
# 5 -42.8755 -26.4748 -30.9653 -13.9491 47.9734 10.9466
# 6 -37.4749 -18.7242 -11.4341 -17.5877 10.9466 44.4113
#
#
#
# Elastic Compliance Matrix: (Units=1/GPa)
#
#
# Indices 1 2 3 4 5 6 
#
# 1 0.018438 -0.000037 -0.003312 0.003569 0.012380 0.013052
# 2 -0.000037 0.015097 -0.000249 -0.001426 0.006803 0.004028
# 3 -0.003312 -0.000249 0.013210 -0.008139 0.003903 -0.003684
# 4 0.003569 -0.001426 -0.008139 0.053280 0.008217 0.019390
# 5 0.012380 0.006803 0.003903 0.008217 0.038742 0.008025
# 6 0.013052 0.004028 -0.003684 0.019390 0.008025 0.039981
#
#
# Mechanical properties :
#
#
# Convention : Reuss Voigt Hill
#
# Bulk Modulus (GPa) = 25.28577 55.52065 40.40321
# Shear Modulus (GPa) = 25.10947 38.35695 31.73321
#
# Velocity S-wave (km/s) = 3.12421 3.86139 3.51220
# Velocity P-wave (km/s) = 4.77949 6.43916 5.67037
#
# Compressibility (1/GPa) = 0.03954793
#
# Stress axis : x y z
#
# Youngs Moduli (GPa) = 54.23484 66.23832 75.69850
#
# Poissons Ratio (x) = 0.00248 0.25073
# Poissons Ratio (y) = 0.00203 0.01886
# Poissons Ratio (z) = 0.17964 0.01650
#
# Static dielectric constant tensor:
#      x y z
#    x 2.406600 -0.029640 -0.031950 
#    y -0.029640 2.121940 -0.027920 
#    z -0.031950 -0.027920 2.156530 
# 
# From -- ./inp_files/269943.got.cif
#   From: 2010.05.17/outbox.cif.g08.bks.cpg/sg2_135_cif.got.tgz:269943.got - 2010.06.03 11:33:40.
