data_PCOD9037552
_publ_section_title
;
Structure prediction by ZEFSAII (Michael W. Deem and Ramdas Pophale) SiO2 
 PCOD9037552
Probable space group: P -1
;
_chemical_formula_sum "Si O2"
_cell_formula_units_Z 14
_cell_length_a 20.849903
_cell_length_b 9.269982
_cell_length_c 9.662378
_cell_angle_alpha 136.142260
_cell_angle_beta 31.124563
_cell_angle_gamma 137.098347
_cell_volume 633.261476
_symmetry_space_group_name_H-M "P -1"
_symmetry_group_IT_number 2
_symmetry_cell_setting 'triclinic'
loop_
_space_group_symop_operation_xyz
x,y,z
-x,-y,-z
loop_
_atom_site_type_symbol
_atom_site_label
_atom_site_fract_x
_atom_site_fract_y
_atom_site_fract_z
Si Si1 0.029657 0.928960 0.744159
Si Si2 0.440730 0.118517 0.073117
Si Si3 0.291278 0.572460 0.259748
Si Si4 0.133685 0.088536 0.224555
Si Si5 0.227021 0.675440 0.143867
Si Si6 0.245882 0.374950 0.648102
Si Si7 0.153552 0.646749 0.805047
O O1 0.130784 0.158144 0.664756
O O2 0.909242 0.870903 0.823008
O O3 0.100647 0.745187 0.468087
O O4 0.000000 0.000000 0.000000
O O5 0.562179 0.273983 0.869743
O O6 0.633359 0.717068 0.616720
O O7 0.500000 0.000000 0.000000
O O8 0.333353 0.906608 0.057277
O O9 0.277178 0.595973 0.137434
O O10 0.190166 0.669631 0.592290
O O11 0.241814 0.317754 0.221210
O O12 0.180950 0.880084 0.986247
O O13 0.000000 0.000000 0.500000
O O14 0.210069 0.492561 0.930758
O O15 0.249848 0.538678 0.628881
O O16 0.000000 0.500000 0.000000
#
# Coordination Sequence:
#
# PCOD9037552 Si02
#       7
#     2   2   2   2   2   2   2
#     4  11  22  36  60  95 130 165 214 263 321 382
#     4   9  23  46  68  94 129 166 222 273 323 379
#     4  11  24  42  65  92 129 173 215 265 323 380
#     4  12  23  38  61  90 128 172 208 252 318 386
#     4  10  23  40  68  97 126 169 221 271 321 378
#     4  11  23  42  66  94 131 170 214 275 318 380
#     4  12  24  42  62  92 136 172 208 260 323 388
#
# _framework density 22.107771
#
# number of rings (size 3 to 8) (size 9 to 14) (size 15 to 20)
#    0.000    1.143    2.857    2.571    0.000    8.571 
#    0.000    1.429    0.000    0.000    0.000    0.000 
#    0.000    0.000    0.000    0.000    0.000    0.000 
#
# Total GULP energy -78135.955963 kJ/mol
# GULP energy per Si atom -5581.139712 kJ/mol
# Density = 2.205745 g / cm^3
# Si number density = 22.107771 Si / 1000 Ang^3
#
#
#
# Elastic Constant Matrix: (Units=GPa)
#
#
# Indices 1 2 3 4 5 6 
#
# 1 59.7517 12.7694 24.8660 12.2664 2.2882 -5.0731
# 2 12.7694 172.9570 60.6401 7.5153 -12.0322 11.1175
# 3 24.8660 60.6401 102.7663 9.7437 0.3041 12.8877
# 4 12.2664 7.5153 9.7437 44.3799 -4.8809 -0.5348
# 5 2.2882 -12.0322 0.3041 -4.8809 35.5387 9.8256
# 6 -5.0731 11.1175 12.8877 -0.5348 9.8256 23.6967
#
#
#
# Elastic Compliance Matrix: (Units=1/GPa)
#
#
# Indices 1 2 3 4 5 6 
#
# 1 0.021178 -0.000313 -0.005662 -0.004965 -0.004763 0.009623
# 2 -0.000313 0.007665 -0.004102 0.000034 0.003446 -0.002860
# 3 -0.005662 -0.004102 0.014556 -0.000938 0.000813 -0.007562
# 4 -0.004965 0.000034 -0.000938 0.024546 0.004195 -0.001754
# 5 -0.004763 0.003446 0.000813 0.004195 0.035021 -0.017505
# 6 0.009623 -0.002860 -0.007562 -0.001754 -0.017505 0.056934
#
#
# Mechanical properties :
#
#
# Convention : Reuss Voigt Hill
#
# Bulk Modulus (GPa) = 43.01780 59.11401 51.06590
# Shear Modulus (GPa) = 26.62401 36.53636 31.58018
#
# Velocity S-wave (km/s) = 3.47404 4.06969 3.78360
# Velocity P-wave (km/s) = 5.96594 6.99144 6.49895
#
# Compressibility (1/GPa) = 0.02324619
#
# Stress axis : x y z
#
# Youngs Moduli (GPa) = 47.21965 130.45956 68.69913
#
# Poissons Ratio (x) = 0.04079 0.38895
# Poissons Ratio (y) = 0.01476 0.28181
# Poissons Ratio (z) = 0.26734 0.53516
#
# Static dielectric constant tensor:
#      x y z
#    x 1.852420 -0.011000 0.007900 
#    y -0.011000 1.854170 -0.008590 
#    z 0.007900 -0.008590 1.882390 
# 
# From -- ./inp_files/342905.got.cif
#   From: 2010.05.17/outbox.cif.g08.bks.cpg/sg2_172_cif.got.tgz:342905.got - 2010.06.03 11:33:40.
