data_PCOD9037357
_publ_section_title
;
Structure prediction by ZEFSAII (Michael W. Deem and Ramdas Pophale) SiO2 
 PCOD9037357
Probable space group: P -1
;
_chemical_formula_sum "Si O2"
_cell_formula_units_Z 16
_cell_length_a 5.197083
_cell_length_b 22.557100
_cell_length_c 17.079004
_cell_angle_alpha 20.442943
_cell_angle_beta 105.956301
_cell_angle_gamma 97.014395
_cell_volume 615.232163
_symmetry_space_group_name_H-M "P -1"
_symmetry_group_IT_number 2
_symmetry_cell_setting 'triclinic'
loop_
_space_group_symop_operation_xyz
x,y,z
-x,-y,-z
loop_
_atom_site_type_symbol
_atom_site_label
_atom_site_fract_x
_atom_site_fract_y
_atom_site_fract_z
Si Si1 0.735782 0.867878 0.004200
Si Si2 0.763175 0.464960 0.967725
Si Si3 0.454794 0.170485 0.724550
Si Si4 0.479970 0.913113 0.687170
Si Si5 0.282672 0.806477 0.575580
Si Si6 0.246209 0.852112 0.879423
Si Si7 0.955885 0.443067 0.830143
Si Si8 0.403592 0.695667 0.288628
O O1 0.663534 0.751041 0.211221
O O2 0.075045 0.813747 0.084863
O O3 0.562344 0.819573 0.979385
O O4 0.588297 0.074411 0.772500
O O5 0.456398 0.639806 0.738525
O O6 0.859638 0.446259 0.909058
O O7 0.732445 0.290949 0.222841
O O8 0.000000 0.500000 0.000000
O O9 0.145737 0.343607 0.469087
O O10 0.625346 0.273516 0.658888
O O11 0.500000 0.000000 0.000000
O O12 0.203726 0.906189 0.716317
O O13 0.500000 0.000000 0.500000
O O14 0.550064 0.059515 0.565777
O O15 0.707069 0.698633 0.970840
O O16 0.969386 0.955097 0.338502
O O17 0.184073 0.668066 0.100383
O O18 0.500000 0.500000 0.500000
#
# Coordination Sequence:
#
# PCOD9037357 Si02
#       8
#     2   2   2   2   2   2   2   2
#     4  11  26  45  74 105 147 192 243 312 380 445
#     4  11  23  41  68 106 145 190 242 301 377 451
#     4  10  25  49  72 107 146 193 249 313 380 445
#     4  11  23  43  68  98 146 192 240 305 369 446
#     4  10  23  40  65  98 149 182 239 297 370 443
#     4  11  25  43  68 105 140 195 247 302 374 456
#     4  11  25  44  70 104 143 191 252 302 376 450
#     4  11  24  47  76 106 143 193 242 312 379 449
#
# _framework density 26.006442
#
# number of rings (size 3 to 8) (size 9 to 14) (size 15 to 20)
#    0.000    1.250    0.000    4.500    8.750    3.000 
#    6.750    0.000    0.000    0.000    0.000    0.000 
#    0.000    0.000    0.000    0.000    0.000    0.000 
#
# Total GULP energy -89311.983879 kJ/mol
# GULP energy per Si atom -5581.998992 kJ/mol
# Density = 2.594725 g / cm^3
# Si number density = 26.006442 Si / 1000 Ang^3
#
#
#
# Elastic Constant Matrix: (Units=GPa)
#
#
# Indices 1 2 3 4 5 6 
#
# 1 41.4725 7.5165 33.8403 -4.6672 13.0048 -8.7159
# 2 7.5165 121.4362 29.5246 -16.0735 10.2308 -9.7137
# 3 33.8403 29.5246 178.4360 -33.3323 17.4394 -22.8593
# 4 -4.6672 -16.0735 -33.3323 40.0992 -10.9346 7.5914
# 5 13.0048 10.2308 17.4394 -10.9346 38.3983 -1.9251
# 6 -8.7159 -9.7137 -22.8593 7.5914 -1.9251 33.8141
#
#
#
# Elastic Compliance Matrix: (Units=1/GPa)
#
#
# Indices 1 2 3 4 5 6 
#
# 1 0.031948 -0.000058 -0.005270 -0.004195 -0.009352 0.005065
# 2 -0.000058 0.008951 -0.000715 0.002355 -0.001296 0.001470
# 3 -0.005270 -0.000715 0.008057 0.005274 -0.000047 0.002696
# 4 -0.004195 0.002355 0.005274 0.032519 0.007472 -0.003714
# 5 -0.009352 -0.001296 -0.000047 0.007472 0.031569 -0.002695
# 6 0.005065 0.001470 0.002696 -0.003714 -0.002695 0.033805
#
#
# Mechanical properties :
#
#
# Convention : Reuss Voigt Hill
#
# Bulk Modulus (GPa) = 27.12289 53.67860 40.40074
# Shear Modulus (GPa) = 29.20133 40.49322 34.84728
#
# Velocity S-wave (km/s) = 3.35453 3.95022 3.66450
# Velocity P-wave (km/s) = 5.04537 6.44135 5.78562
#
# Compressibility (1/GPa) = 0.03686922
#
# Stress axis : x y z
#
# Youngs Moduli (GPa) = 31.30095 111.72267 124.11145
#
# Poissons Ratio (x) = 0.00652 0.65406
# Poissons Ratio (y) = 0.00183 0.08874
# Poissons Ratio (z) = 0.16495 0.07988
#
# Static dielectric constant tensor:
#      x y z
#    x 2.137130 0.025430 -0.033420 
#    y 0.025430 2.200180 0.066720 
#    z -0.033420 0.066720 2.112790 
# 
# From -- ./inp_files/90914.got.cif
#   From: 2010.05.17/outbox.cif.g08.bks.cpg/sg2_46_cif.got.tgz:90914.got - 2010.06.03 11:33:40.
