data_PCOD9037393
_publ_section_title
;
Structure prediction by ZEFSAII (Michael W. Deem and Ramdas Pophale) SiO2 
 PCOD9037393
Probable space group: P -1
;
_chemical_formula_sum "Si O2"
_cell_formula_units_Z 15
_cell_length_a 9.577973
_cell_length_b 11.601018
_cell_length_c 10.029297
_cell_angle_alpha 123.280252
_cell_angle_beta 117.994249
_cell_angle_gamma 57.858197
_cell_volume 763.657470
_symmetry_space_group_name_H-M "P -1"
_symmetry_group_IT_number 2
_symmetry_cell_setting 'triclinic'
loop_
_space_group_symop_operation_xyz
x,y,z
-x,-y,-z
loop_
_atom_site_type_symbol
_atom_site_label
_atom_site_fract_x
_atom_site_fract_y
_atom_site_fract_z
Si Si1 0.046847 0.288744 0.497555
Si Si2 0.510470 0.347111 0.473664
Si Si3 0.348228 0.006720 0.336232
Si Si4 0.546463 0.042244 0.191274
Si Si5 0.748626 0.263100 0.782385
Si Si6 0.500000 0.500000 0.000000
Si Si7 0.940637 0.872987 0.331324
Si Si8 0.239444 0.495291 0.649781
O O1 0.183144 0.144652 0.396524
O O2 0.022093 0.246158 0.609345
O O3 0.121890 0.418713 0.616612
O O4 0.876095 0.351160 0.373180
O O5 0.500000 0.500000 0.500000
O O6 0.532094 0.212726 0.299127
O O7 0.659288 0.291104 0.614784
O O8 0.337811 0.385525 0.504940
O O9 0.418554 0.021000 0.231230
O O10 0.500000 0.000000 0.500000
O O11 0.309584 0.857902 0.245151
O O12 0.739840 0.941654 0.254828
O O13 0.500000 0.000000 0.000000
O O14 0.947761 0.194840 0.792683
O O15 0.673735 0.409174 0.930389
O O16 0.618856 0.496244 0.181222
O O17 0.000000 0.000000 0.500000
#
# Coordination Sequence:
#
# PCOD9037393 Si02
#       8
#     2   2   2   2   2   1   2   2
#     4  11  21  40  71  95 126 178 235 269 334 418
#     4  11  21  40  65  92 136 181 224 271 350 420
#     4  12  19  43  73  91 131 186 227 272 344 412
#     4  12  27  42  67 106 139 171 234 298 350 395
#     4  11  23  41  71  94 129 184 229 272 343 418
#     4  10  24  44  62  96 140 168 224 278 350 398
#     4  12  22  43  69  99 131 175 234 283 336 407
#     4  10  23  40  66  94 129 179 227 274 335 415
#
# _framework density 19.642313999999999
#
# number of rings (size 3 to 8) (size 9 to 14) (size 15 to 20)
#    0.000    0.800    6.667    1.600    0.000    3.200 
#    0.000    2.000    0.000    0.000    0.000    0.000 
#    0.000    0.000    0.000    0.000    0.000    0.000 
#
# Total GULP energy -83554.012697 kJ/mol
# GULP energy per Si atom -5570.267513 kJ/mol
# Density = 1.959761 g / cm^3
# Si number density = 19.642314 Si / 1000 Ang^3
#
#
#
# Elastic Constant Matrix: (Units=GPa)
#
#
# Indices 1 2 3 4 5 6 
#
# 1 96.3867 28.6039 20.3812 -0.0223 -20.6134 0.5601
# 2 28.6039 87.6851 29.0815 -8.3110 2.1731 5.4985
# 3 20.3812 29.0815 106.2447 -1.4271 -17.5230 -1.1111
# 4 -0.0223 -8.3110 -1.4271 19.7537 -12.4692 -7.8997
# 5 -20.6134 2.1731 -17.5230 -12.4692 29.8392 1.0985
# 6 0.5601 5.4985 -1.1111 -7.8997 1.0985 47.2168
#
#
#
# Elastic Compliance Matrix: (Units=1/GPa)
#
#
# Indices 1 2 3 4 5 6 
#
# 1 0.014602 -0.004801 0.000948 0.007479 0.014070 0.001332
# 2 -0.004801 0.014711 -0.004113 0.001464 -0.006141 -0.001365
# 3 0.000948 -0.004113 0.012257 0.006672 0.010881 0.001619
# 4 0.007479 0.001464 0.006672 0.084632 0.043864 0.013037
# 5 0.014070 -0.006141 0.010881 0.043864 0.068159 0.006557
# 6 0.001332 -0.001365 0.001619 0.013037 0.006557 0.023389
#
#
# Mechanical properties :
#
#
# Convention : Reuss Voigt Hill
#
# Bulk Modulus (GPa) = 39.00431 49.60553 44.30492
# Shear Modulus (GPa) = 20.64153 33.51193 27.07673
#
# Velocity S-wave (km/s) = 3.24523 4.13499 3.71683
# Velocity P-wave (km/s) = 5.82601 6.93590 6.40504
#
# Compressibility (1/GPa) = 0.02563819
#
# Stress axis : x y z
#
# Youngs Moduli (GPa) = 68.48236 67.97414 81.58274
#
# Poissons Ratio (x) = 0.32636 -0.07734
# Poissons Ratio (y) = 0.32880 0.33558
# Poissons Ratio (z) = -0.06492 0.27960
#
# Static dielectric constant tensor:
#      x y z
#    x 1.733560 0.001800 -0.003260 
#    y 0.001800 1.744950 0.023070 
#    z -0.003260 0.023070 1.643660 
# 
# From -- ./inp_files/190265.got.cif
#   From: 2010.05.17/outbox.cif.g08.bks.cpg/sg2_96_cif.got.tgz:190265.got - 2010.06.03 11:33:40.
