data_PCOD9037081
_publ_section_title
;
Structure prediction by ZEFSAII (Michael W. Deem and Ramdas Pophale) SiO2 
 PCOD9037081
Probable space group: P -1
;
_chemical_formula_sum "Si O2"
_cell_formula_units_Z 14
_cell_length_a 11.571618
_cell_length_b 6.963279
_cell_length_c 8.248909
_cell_angle_alpha 69.927125
_cell_angle_beta 72.880321
_cell_angle_gamma 110.092877
_cell_volume 518.317581
_symmetry_space_group_name_H-M "P -1"
_symmetry_group_IT_number 2
_symmetry_cell_setting 'triclinic'
loop_
_space_group_symop_operation_xyz
x,y,z
-x,-y,-z
loop_
_atom_site_type_symbol
_atom_site_label
_atom_site_fract_x
_atom_site_fract_y
_atom_site_fract_z
Si Si1 0.596363 0.633367 0.068399
Si Si2 0.815170 0.271105 0.887693
Si Si3 0.115684 0.240242 0.104255
Si Si4 0.490424 0.279846 0.464399
Si Si5 0.376058 0.734492 0.302148
Si Si6 0.815044 0.078228 0.297050
Si Si7 0.118073 0.436451 0.696450
O O1 0.756291 0.805768 0.909298
O O2 0.593607 0.421390 0.236626
O O3 0.502354 0.722604 0.168551
O O4 0.500000 0.500000 0.000000
O O5 0.693883 0.186673 0.829623
O O6 0.960544 0.322247 0.732631
O O7 0.843062 0.522097 0.878756
O O8 0.793827 0.117000 0.103616
O O9 0.114754 0.288264 0.898067
O O10 0.954575 0.059674 0.263820
O O11 0.500000 0.500000 0.500000
O O12 0.546113 0.144277 0.595513
O O13 0.331202 0.129368 0.523766
O O14 0.239949 0.501809 0.497877
O O15 0.847999 0.313108 0.311673
#
# Coordination Sequence:
#
# PCOD9037081 Si02
#       7
#     2   2   2   2   2   2   2
#     4  11  21  38  62  80 117 162 197 237 291 344
#     4   9  18  34  60  90 119 153 190 237 295 346
#     4   9  17  37  61  87 115 158 197 233 291 348
#     4  10  23  40  58  85 117 156 198 240 296 341
#     4  11  20  33  58  88 125 148 195 236 291 349
#     4   9  20  39  62  86 117 154 196 239 290 353
#     4   9  18  34  60  89 118 153 191 242 291 343
#
# _framework density 27.010469000000001
#
# number of rings (size 3 to 8) (size 9 to 14) (size 15 to 20)
#    0.000    2.286    2.857    2.143    0.000    1.143 
#    0.000    6.429    0.000    0.000    0.000    0.000 
#    0.000    0.000    0.000    0.000    0.000    0.000 
#
# Total GULP energy -78288.619147 kJ/mol
# GULP energy per Si atom -5592.044225 kJ/mol
# Density = 2.694899 g / cm^3
# Si number density = 27.010469 Si / 1000 Ang^3
#
#
#
# Elastic Constant Matrix: (Units=GPa)
#
#
# Indices 1 2 3 4 5 6 
#
# 1 225.0935 52.5922 48.1227 1.4414 -48.5784 32.3694
# 2 52.5922 85.6400 30.5055 -14.9495 -13.0021 14.3872
# 3 48.1227 30.5055 79.8268 -7.5890 -35.2027 16.1178
# 4 1.4414 -14.9495 -7.5890 35.9530 20.7047 -10.5719
# 5 -48.5784 -13.0021 -35.2027 20.7047 64.1649 -0.9181
# 6 32.3694 14.3872 16.1178 -10.5719 -0.9181 48.7287
#
#
#
# Elastic Compliance Matrix: (Units=1/GPa)
#
#
# Indices 1 2 3 4 5 6 
#
# 1 0.008007 -0.004478 0.000976 -0.008566 0.008368 -0.006020
# 2 -0.004478 0.017092 -0.006211 0.010443 -0.006674 0.002122
# 3 0.000976 -0.006211 0.020952 -0.008095 0.013483 -0.007247
# 4 -0.008566 0.010443 -0.008095 0.049514 -0.024564 0.015564
# 5 0.008368 -0.006674 0.013483 -0.024564 0.035709 -0.012704
# 6 -0.006020 0.002122 -0.007247 0.015564 -0.012704 0.029428
#
#
# Mechanical properties :
#
#
# Convention : Reuss Voigt Hill
#
# Bulk Modulus (GPa) = 37.55962 72.55570 55.05766
# Shear Modulus (GPa) = 26.45446 47.05865 36.75655
#
# Velocity S-wave (km/s) = 3.13296 4.17854 3.69294
# Velocity P-wave (km/s) = 5.19836 7.08524 6.21384
#
# Compressibility (1/GPa) = 0.02662434
#
# Stress axis : x y z
#
# Youngs Moduli (GPa) = 124.89586 58.50568 47.72805
#
# Poissons Ratio (x) = 0.26199 -0.04657
# Poissons Ratio (y) = 0.55929 0.29644
# Poissons Ratio (z) = -0.12185 0.36338
#
# Static dielectric constant tensor:
#      x y z
#    x 2.232200 -0.060240 0.140230 
#    y -0.060240 2.278900 0.121610 
#    z 0.140230 0.121610 2.293470 
# 
# From -- ./inp_files/176581.got.cif
#   From: 2010.05.17/outbox.cif.g08.bks.cpg/sg2_89_cif.got.tgz:176581.got - 2010.06.03 11:33:40.
