data_PCOD9037269
_publ_section_title
;
Structure prediction by ZEFSAII (Michael W. Deem and Ramdas Pophale) SiO2 
 PCOD9037269
Probable space group: P -1
;
_chemical_formula_sum "Si O2"
_cell_formula_units_Z 14
_cell_length_a 21.218386
_cell_length_b 9.078937
_cell_length_c 11.464876
_cell_angle_alpha 39.061484
_cell_angle_beta 29.305087
_cell_angle_gamma 39.973735
_cell_volume 652.075170
_symmetry_space_group_name_H-M "P -1"
_symmetry_group_IT_number 2
_symmetry_cell_setting 'triclinic'
loop_
_space_group_symop_operation_xyz
x,y,z
-x,-y,-z
loop_
_atom_site_type_symbol
_atom_site_label
_atom_site_fract_x
_atom_site_fract_y
_atom_site_fract_z
Si Si1 0.233449 0.174832 0.512267
Si Si2 0.696065 0.488182 0.989710
Si Si3 0.513212 0.770694 0.291249
Si Si4 0.010761 0.116116 0.285480
Si Si5 0.203256 0.356867 0.712460
Si Si6 0.016021 0.763294 0.277055
Si Si7 0.538424 0.760103 0.510242
O O1 0.252769 0.414844 0.269343
O O2 0.229168 0.226059 0.625330
O O3 0.094587 0.143294 0.703340
O O4 0.365690 0.955884 0.400356
O O5 0.823399 0.309539 0.961788
O O6 0.620524 0.726036 0.042143
O O7 0.585173 0.353134 0.223856
O O8 0.500000 0.500000 0.500000
O O9 0.569100 0.830094 0.287180
O O10 0.904826 0.382910 0.288875
O O11 0.000000 0.000000 0.500000
O O12 0.988129 0.945731 0.320425
O O13 0.149762 0.178031 0.993090
O O14 0.331366 0.409191 0.533108
O O15 0.000000 0.500000 0.500000
O O16 0.500000 0.000000 0.500000
#
# Coordination Sequence:
#
# PCOD9037269 Si02
#       7
#     2   2   2   2   2   2   2
#     4  11  23  45  65 100 136 175 233 279 339 404
#     4  10  23  42  66  98 134 180 224 278 344 405
#     4  10  23  40  64  94 135 176 224 277 336 404
#     4  11  25  47  70 103 140 177 232 281 348 412
#     4  11  26  44  70 103 136 183 228 285 343 411
#     4  10  23  42  72  98 134 177 230 287 340 399
#     4  11  22  43  65  94 137 177 226 276 341 399
#
# _framework density 21.469916999999999
#
# number of rings (size 3 to 8) (size 9 to 14) (size 15 to 20)
#    0.000    1.429    1.429    3.000    6.000    5.714 
#    2.571    0.000    0.000    0.000    0.000    0.000 
#    0.000    0.000    0.000    0.000    0.000    0.000 
#
# Total GULP energy -78179.237903 kJ/mol
# GULP energy per Si atom -5584.231279 kJ/mol
# Density = 2.142105 g / cm^3
# Si number density = 21.469917 Si / 1000 Ang^3
#
#
#
# Elastic Constant Matrix: (Units=GPa)
#
#
# Indices 1 2 3 4 5 6 
#
# 1 148.6984 51.1977 74.1722 22.6125 -22.4123 -10.3263
# 2 51.1977 106.6123 26.6897 16.4112 -3.6514 0.5389
# 3 74.1722 26.6897 110.6603 10.1877 0.4259 -1.4483
# 4 22.6125 16.4112 10.1877 38.4055 -3.9314 -3.9348
# 5 -22.4123 -3.6514 0.4259 -3.9314 35.8567 2.4437
# 6 -10.3263 0.5389 -1.4483 -3.9348 2.4437 45.8484
#
#
#
# Elastic Compliance Matrix: (Units=1/GPa)
#
#
# Indices 1 2 3 4 5 6 
#
# 1 0.013979 -0.003901 -0.008119 -0.003371 0.007915 0.002227
# 2 -0.003901 0.011648 0.000070 -0.002974 -0.001498 -0.001189
# 3 -0.008119 0.000070 0.014442 0.000284 -0.005135 -0.001075
# 4 -0.003371 -0.002974 0.000284 0.029472 0.000697 0.001777
# 5 0.007915 -0.001498 -0.005135 0.000697 0.032825 -0.000052
# 6 0.002227 -0.001189 -0.001075 0.001777 -0.000052 0.022448
#
#
# Mechanical properties :
#
#
# Convention : Reuss Voigt Hill
#
# Bulk Modulus (GPa) = 61.85794 74.45447 68.15621
# Shear Modulus (GPa) = 32.44565 38.28287 35.36426
#
# Velocity S-wave (km/s) = 3.89165 4.22725 4.06292
# Velocity P-wave (km/s) = 7.00480 7.65376 7.33646
#
# Compressibility (1/GPa) = 0.01616607
#
# Stress axis : x y z
#
# Youngs Moduli (GPa) = 71.53783 85.84856 69.24435
#
# Poissons Ratio (x) = 0.33493 0.56222
# Poissons Ratio (y) = 0.27910 -0.00482
# Poissons Ratio (z) = 0.58085 -0.00597
#
# Static dielectric constant tensor:
#      x y z
#    x 1.732790 -0.019500 -0.011850 
#    y -0.019500 1.808720 0.047220 
#    z -0.011850 0.047220 1.832760 
# 
# From -- ./inp_files/255988.got.cif
#   From: 2010.05.17/outbox.cif.g08.bks.cpg/sg2_128_cif.got.tgz:255988.got - 2010.06.03 11:33:40.
