data_PCOD9037656
_publ_section_title
;
Structure prediction by ZEFSAII (Michael W. Deem and Ramdas Pophale) SiO2 
 PCOD9037656
Probable space group: P -1
;
_chemical_formula_sum "Si O2"
_cell_formula_units_Z 14
_cell_length_a 8.538108
_cell_length_b 8.626263
_cell_length_c 10.170168
_cell_angle_alpha 92.390644
_cell_angle_beta 64.527078
_cell_angle_gamma 111.563076
_cell_volume 622.840627
_symmetry_space_group_name_H-M "P -1"
_symmetry_group_IT_number 2
_symmetry_cell_setting 'triclinic'
loop_
_space_group_symop_operation_xyz
x,y,z
-x,-y,-z
loop_
_atom_site_type_symbol
_atom_site_label
_atom_site_fract_x
_atom_site_fract_y
_atom_site_fract_z
Si Si1 0.054164 0.653695 0.883950
Si Si2 0.239959 0.589849 0.548793
Si Si3 0.793340 0.975104 0.123835
Si Si4 0.786294 0.902108 0.682952
Si Si5 0.610669 0.874135 0.458787
Si Si6 0.342775 0.313681 0.031469
Si Si7 0.969963 0.246019 0.551937
O O1 0.857575 0.668934 0.916507
O O2 0.149130 0.617535 0.717997
O O3 0.199381 0.835953 0.890839
O O4 0.000000 0.500000 0.000000
O O5 0.461332 0.687120 0.477681
O O6 0.153292 0.392554 0.546932
O O7 0.164560 0.673318 0.460731
O O8 0.759587 0.932617 0.288819
O O9 0.648907 0.813305 0.091836
O O10 0.000000 0.000000 0.000000
O O11 0.684437 0.880931 0.579238
O O12 0.664483 0.788452 0.836754
O O13 0.957962 0.843431 0.591661
O O14 0.866377 0.101002 0.688504
O O15 0.500000 0.000000 0.500000
O O16 0.500000 0.500000 0.000000
#
# Coordination Sequence:
#
# PCOD9037656 Si02
#       7
#     2   2   2   2   2   2   2
#     4  11  24  44  68  96 138 184 228 283 354 418
#     4  11  23  43  69 105 137 170 240 289 346 402
#     4  10  25  47  71  98 141 186 228 280 359 421
#     4  11  24  44  69  99 138 187 236 277 353 412
#     4  12  24  44  73 105 135 176 236 293 334 412
#     4  11  27  46  66 100 141 182 233 289 343 418
#     4  10  23  40  71  97 136 180 223 292 343 410
#
# _framework density 22.47766
#
# number of rings (size 3 to 8) (size 9 to 14) (size 15 to 20)
#    0.000    1.143    4.286    0.000   12.000    1.714 
#    0.000    1.429    0.000    0.000    0.000    0.000 
#    0.000    0.000    0.000    0.000    0.000    0.000 
#
# Total GULP energy -78268.591063 kJ/mol
# GULP energy per Si atom -5590.613647 kJ/mol
# Density = 2.242650 g / cm^3
# Si number density = 22.477660 Si / 1000 Ang^3
#
#
#
# Elastic Constant Matrix: (Units=GPa)
#
#
# Indices 1 2 3 4 5 6 
#
# 1 70.9647 33.2326 28.8175 -9.6591 16.5720 12.8167
# 2 33.2326 211.1724 63.0967 -26.2334 19.6061 30.4661
# 3 28.8175 63.0967 129.8920 -20.6569 14.6490 -0.0171
# 4 -9.6591 -26.2334 -20.6569 42.2038 -2.2928 0.3263
# 5 16.5720 19.6061 14.6490 -2.2928 27.4160 -1.5614
# 6 12.8167 30.4661 -0.0171 0.3263 -1.5614 39.2216
#
#
#
# Elastic Compliance Matrix: (Units=1/GPa)
#
#
# Indices 1 2 3 4 5 6 
#
# 1 0.019143 0.000041 -0.002693 0.002580 -0.010329 -0.006721
# 2 0.000041 0.007015 -0.002519 0.002975 -0.003767 -0.005638
# 3 -0.002693 -0.002519 0.010125 0.002665 -0.001601 0.002755
# 4 0.002580 0.002975 0.002665 0.027301 -0.003027 -0.003501
# 5 -0.010329 -0.003767 -0.001601 -0.003027 0.046481 0.008176
# 6 -0.006721 -0.005638 0.002755 -0.003501 0.008176 0.032428
#
#
# Mechanical properties :
#
#
# Convention : Reuss Voigt Hill
#
# Bulk Modulus (GPa) = 38.55014 73.59141 56.07077
# Shear Modulus (GPa) = 30.96364 40.89376 35.92870
#
# Velocity S-wave (km/s) = 3.71553 4.26996 4.00236
# Velocity P-wave (km/s) = 5.96612 7.55784 6.80865
#
# Compressibility (1/GPa) = 0.02594025
#
# Stress axis : x y z
#
# Youngs Moduli (GPa) = 52.23914 142.56170 98.76976
#
# Poissons Ratio (x) = -0.00586 0.26596
# Poissons Ratio (y) = -0.00215 0.24882
# Poissons Ratio (z) = 0.14067 0.35914
#
# Static dielectric constant tensor:
#      x y z
#    x 1.868410 0.017980 -0.007690 
#    y 0.017980 1.888840 0.012210 
#    z -0.007690 0.012210 1.798240 
# 
# From -- ./inp_files/157398.got.cif
#   From: 2010.05.17/outbox.cif.g08.bks.cpg/sg2_79_cif.got.tgz:157398.got - 2010.06.03 11:33:40.
