data_PCOD9037346
_publ_section_title
;
Structure prediction by ZEFSAII (Michael W. Deem and Ramdas Pophale) SiO2 
 PCOD9037346
Probable space group: P -1
;
_chemical_formula_sum "Si O2"
_cell_formula_units_Z 16
_cell_length_a 12.459620
_cell_length_b 13.455387
_cell_length_c 7.790872
_cell_angle_alpha 46.178227
_cell_angle_beta 50.281529
_cell_angle_gamma 53.834292
_cell_volume 698.738160
_symmetry_space_group_name_H-M "P -1"
_symmetry_group_IT_number 2
_symmetry_cell_setting 'triclinic'
loop_
_space_group_symop_operation_xyz
x,y,z
-x,-y,-z
loop_
_atom_site_type_symbol
_atom_site_label
_atom_site_fract_x
_atom_site_fract_y
_atom_site_fract_z
Si Si1 0.798301 0.106419 0.511798
Si Si2 0.592176 0.305620 0.265657
Si Si3 0.128831 0.126900 0.560322
Si Si4 0.126706 0.431773 0.581465
Si Si5 0.475553 0.592843 0.243064
Si Si6 0.634870 0.753880 0.672878
Si Si7 0.086918 0.193609 0.161517
Si Si8 0.188091 0.707673 0.242752
O O1 0.649012 0.217846 0.485993
O O2 0.923847 0.177913 0.350949
O O3 0.845635 0.024487 0.378579
O O4 0.811158 0.967694 0.784649
O O5 0.504529 0.465624 0.220537
O O6 0.504709 0.217383 0.344442
O O7 0.731653 0.310274 0.002311
O O8 0.265993 0.138652 0.518201
O O9 0.125003 0.227976 0.275182
O O10 0.966997 0.176340 0.743156
O O11 0.258893 0.368381 0.398433
O O12 0.152491 0.561036 0.508080
O O13 0.000000 0.500000 0.500000
O O14 0.101468 0.307120 0.873307
O O15 0.500000 0.500000 0.500000
O O16 0.318416 0.706147 0.242949
O O17 0.587118 0.685890 0.974473
#
# Coordination Sequence:
#
# PCOD9037346 Si02
#       8
#     2   2   2   2   2   2   2   2
#     4   9  22  44  64  86 132 175 215 252 315 375
#     4  11  22  44  65  88 138 171 204 256 325 385
#     4  10  23  40  65  97 124 165 221 262 309 373
#     4  12  21  37  65  96 125 166 201 267 333 359
#     4  11  25  38  65  94 130 167 210 262 326 387
#     4  11  23  40  61 100 130 160 210 270 323 376
#     4   9  23  42  62  92 130 164 217 264 312 371
#     4  11  22  39  63  97 126 164 209 266 323 374
#
# _framework density 22.898420999999999
#
# number of rings (size 3 to 8) (size 9 to 14) (size 15 to 20)
#    0.750    0.750    3.750    1.500    3.500    1.500 
#    0.000    0.625    0.000    0.000    0.000    0.000 
#    0.000    0.000    0.000    0.000    0.000    0.000 
#
# Total GULP energy -89167.379341 kJ/mol
# GULP energy per Si atom -5572.961209 kJ/mol
# Density = 2.284630 g / cm^3
# Si number density = 22.898421 Si / 1000 Ang^3
#
#
#
# Elastic Constant Matrix: (Units=GPa)
#
#
# Indices 1 2 3 4 5 6 
#
# 1 96.1354 5.8410 25.0169 -5.4993 -8.3222 0.4579
# 2 5.8410 55.0668 13.1841 -4.4390 -14.1154 -11.6089
# 3 25.0169 13.1841 84.0435 -0.4114 14.0417 -16.9619
# 4 -5.4993 -4.4390 -0.4114 20.4844 -7.5040 6.6185
# 5 -8.3222 -14.1154 14.0417 -7.5040 34.2990 -5.5542
# 6 0.4579 -11.6089 -16.9619 6.6185 -5.5542 32.8626
#
#
#
# Elastic Compliance Matrix: (Units=1/GPa)
#
#
# Indices 1 2 3 4 5 6 
#
# 1 0.012925 0.002019 -0.005952 0.007459 0.007589 -0.002759
# 2 0.002019 0.026023 -0.006090 0.010070 0.017008 0.006868
# 3 -0.005952 -0.006090 0.018048 -0.009317 -0.012235 0.007056
# 4 0.007459 0.010070 -0.009317 0.064339 0.022133 -0.010573
# 5 0.007589 0.017008 -0.012235 0.022133 0.048383 0.003307
# 6 -0.002759 0.006868 0.007056 -0.010573 0.003307 0.039224
#
#
# Mechanical properties :
#
#
# Convention : Reuss Voigt Hill
#
# Bulk Modulus (GPa) = 27.06296 35.92551 31.49424
# Shear Modulus (GPa) = 20.72069 30.27612 25.49841
#
# Velocity S-wave (km/s) = 3.01141 3.64014 3.34060
# Velocity P-wave (km/s) = 4.89243 5.77846 5.35381
#
# Compressibility (1/GPa) = 0.03695087
#
# Stress axis : x y z
#
# Youngs Moduli (GPa) = 77.36884 38.42790 55.40698
#
# Poissons Ratio (x) = -0.07759 0.32980
# Poissons Ratio (y) = -0.15623 0.33740
# Poissons Ratio (z) = 0.46053 0.23401
#
# Static dielectric constant tensor:
#      x y z
#    x 2.053720 0.004630 0.040990 
#    y 0.004630 1.882140 0.014030 
#    z 0.040990 0.014030 1.866060 
# 
# From -- ./inp_files/269520.got.cif
#   From: 2010.05.17/outbox.cif.g08.bks.cpg/sg2_135_cif.got.tgz:269520.got - 2010.06.03 11:33:40.
