data_PCOD9037960
_publ_section_title
;
Structure prediction by ZEFSAII (Michael W. Deem and Ramdas Pophale) SiO2 
 PCOD9037960
Probable space group: P -1
;
_chemical_formula_sum "Si O2"
_cell_formula_units_Z 14
_cell_length_a 12.051720
_cell_length_b 21.358793
_cell_length_c 6.325218
_cell_angle_alpha 121.787221
_cell_angle_beta 63.492048
_cell_angle_gamma 149.972739
_cell_volume 692.371315
_symmetry_space_group_name_H-M "P -1"
_symmetry_group_IT_number 2
_symmetry_cell_setting 'triclinic'
loop_
_space_group_symop_operation_xyz
x,y,z
-x,-y,-z
loop_
_atom_site_type_symbol
_atom_site_label
_atom_site_fract_x
_atom_site_fract_y
_atom_site_fract_z
Si Si1 0.097000 0.371275 0.083348
Si Si2 0.073123 0.090802 0.412106
Si Si3 0.468121 0.560145 0.759114
Si Si4 0.774549 0.294433 0.932275
Si Si5 0.263258 0.056625 0.943202
Si Si6 0.910826 0.792363 0.034994
Si Si7 0.851628 0.497052 0.349022
O O1 0.141048 0.462294 0.357879
O O2 0.312066 0.466666 0.925357
O O3 0.060469 0.280386 0.089364
O O4 0.890397 0.288218 0.960489
O O5 0.139448 0.196249 0.672160
O O6 0.248231 0.130256 0.195919
O O7 0.000000 0.000000 0.500000
O O8 0.870743 0.006117 0.274181
O O9 0.500000 0.500000 0.500000
O O10 0.336323 0.554201 0.719939
O O11 0.703343 0.704255 0.900587
O O12 0.514546 0.156229 0.875546
O O13 0.915564 0.372480 0.736317
O O14 0.809494 0.389587 0.190907
O O15 0.125425 0.935089 0.999823
#
# Coordination Sequence:
#
# PCOD9037960 Si02
#       7
#     2   2   2   2   2   2   2
#     4  11  24  42  64  93 128 169 214 261 315 385
#     4   9  22  40  61  97 125 163 209 257 319 376
#     4  11  24  39  66  98 126 164 208 270 324 372
#     4  10  24  42  63  91 128 172 213 259 312 379
#     4  10  23  41  65  92 131 168 206 267 313 378
#     4  11  24  39  65  98 128 163 211 264 322 379
#     4  10  23  42  64  93 126 167 218 262 317 374
#
# _framework density 20.220365000000001
#
# number of rings (size 3 to 8) (size 9 to 14) (size 15 to 20)
#    0.000    1.714    1.429    0.857   10.000    2.857 
#    0.000    1.429    0.000    0.000    0.000    0.000 
#    0.000    0.000    0.000    0.000    0.000    0.000 
#
# Total GULP energy -78262.571191 kJ/mol
# GULP energy per Si atom -5590.183656 kJ/mol
# Density = 2.017434 g / cm^3
# Si number density = 20.220365 Si / 1000 Ang^3
#
#
#
# Elastic Constant Matrix: (Units=GPa)
#
#
# Indices 1 2 3 4 5 6 
#
# 1 62.9518 37.4860 -7.2030 -16.2664 -3.1605 7.5766
# 2 37.4860 101.7524 15.1425 -14.7236 -3.0112 24.7485
# 3 -7.2030 15.1425 111.2704 -3.3412 -7.0696 10.6393
# 4 -16.2664 -14.7236 -3.3412 13.6716 -0.1385 -2.6608
# 5 -3.1605 -3.0112 -7.0696 -0.1385 28.3998 -0.5979
# 6 7.5766 24.7485 10.6393 -2.6608 -0.5979 37.3831
#
#
#
# Elastic Compliance Matrix: (Units=1/GPa)
#
#
# Indices 1 2 3 4 5 6 
#
# 1 0.027200 -0.006628 0.003686 0.026109 0.003364 -0.000262
# 2 -0.006628 0.015427 -0.001541 0.006810 0.000381 -0.007940
# 3 0.003686 -0.001541 0.009958 0.004763 0.002703 -0.002179
# 4 0.026109 0.006810 0.004763 0.112159 0.005295 -0.003088
# 5 0.003364 0.000381 0.002703 0.005295 0.036309 -0.000745
# 6 -0.000262 -0.007940 -0.002179 -0.003088 -0.000745 0.032448
#
#
# Mechanical properties :
#
#
# Convention : Reuss Voigt Hill
#
# Bulk Modulus (GPa) = 22.92563 40.75838 31.84201
# Shear Modulus (GPa) = 19.45465 31.26083 25.35774
#
# Velocity S-wave (km/s) = 3.10519 3.93620 3.54513
# Velocity P-wave (km/s) = 4.92126 6.39211 5.70429
#
# Compressibility (1/GPa) = 0.04361930
#
# Stress axis : x y z
#
# Youngs Moduli (GPa) = 36.76423 64.82241 100.41705
#
# Poissons Ratio (x) = 0.42965 -0.37009
# Poissons Ratio (y) = 0.24368 0.15470
# Poissons Ratio (z) = -0.13549 0.09986
#
# Static dielectric constant tensor:
#      x y z
#    x 1.698480 -0.012270 -0.009660 
#    y -0.012270 1.697280 0.006220 
#    z -0.009660 0.006220 1.728180 
# 
# From -- ./inp_files/65154.got.cif
#   From: 2010.05.17/outbox.cif.g08.bks.cpg/sg2_33_cif.got.tgz:65154.got - 2010.06.03 11:33:40.
