data_PCOD9037841
_publ_section_title
;
Structure prediction by ZEFSAII (Michael W. Deem and Ramdas Pophale) SiO2 
 PCOD9037841
Probable space group: P -1
;
_chemical_formula_sum "Si O2"
_cell_formula_units_Z 16
_cell_length_a 13.521864
_cell_length_b 11.878598
_cell_length_c 9.430634
_cell_angle_alpha 131.283082
_cell_angle_beta 36.965400
_cell_angle_gamma 114.363460
_cell_volume 662.089345
_symmetry_space_group_name_H-M "P -1"
_symmetry_group_IT_number 2
_symmetry_cell_setting 'triclinic'
loop_
_space_group_symop_operation_xyz
x,y,z
-x,-y,-z
loop_
_atom_site_type_symbol
_atom_site_label
_atom_site_fract_x
_atom_site_fract_y
_atom_site_fract_z
Si Si1 0.786718 0.414894 0.672528
Si Si2 0.328740 0.735506 0.830508
Si Si3 0.218351 0.316657 0.461626
Si Si4 0.457536 0.547540 0.780655
Si Si5 0.826650 0.749346 0.857471
Si Si6 0.830138 0.980938 0.595150
Si Si7 0.910861 0.353982 0.181043
Si Si8 0.859931 0.940300 0.202986
O O1 0.790710 0.593014 0.830561
O O2 0.777883 0.388114 0.493237
O O3 0.964352 0.302793 0.430528
O O4 0.625203 0.401021 0.932070
O O5 0.323678 0.625995 0.879871
O O6 0.483106 0.634743 0.475863
O O7 0.166738 0.737819 0.921786
O O8 0.319767 0.900145 0.046842
O O9 0.382141 0.379240 0.362000
O O10 0.234675 0.236168 0.222069
O O11 0.186350 0.192575 0.504970
O O12 0.073633 0.478726 0.746011
O O13 0.748094 0.901895 0.168510
O O14 0.818611 0.020728 0.471683
O O15 0.000000 0.000000 0.500000
O O16 0.067938 0.236218 0.972649
O O17 0.000000 0.000000 0.000000
#
# Coordination Sequence:
#
# PCOD9037841 Si02
#       8
#     2   2   2   2   2   2   2   2
#     4   9  19  38  69  95 129 173 219 276 325 373
#     4  10  23  41  63  97 128 180 221 260 333 405
#     4  10  23  42  65 100 133 171 226 269 329 405
#     4  10  23  43  68  95 136 181 216 275 327 406
#     4   9  20  37  63 103 130 165 227 272 315 396
#     4  12  25  42  68  97 134 178 214 286 341 381
#     4   9  20  40  64 101 130 169 221 273 316 408
#     4  11  23  38  64 101 136 166 215 278 344 386
#
# _framework density 24.165921999999998
#
# number of rings (size 3 to 8) (size 9 to 14) (size 15 to 20)
#    0.000    2.000    1.250    1.500    5.250    8.500 
#    0.000    0.000    0.000    4.500    0.000    0.000 
#    0.000    0.000    0.000    0.000    0.000    0.000 
#
# Total GULP energy -89204.533025 kJ/mol
# GULP energy per Si atom -5575.283314 kJ/mol
# Density = 2.411092 g / cm^3
# Si number density = 24.165922 Si / 1000 Ang^3
#
#
#
# Elastic Constant Matrix: (Units=GPa)
#
#
# Indices 1 2 3 4 5 6 
#
# 1 76.6619 9.0256 27.0051 -11.6191 45.2874 -2.8832
# 2 9.0256 101.0172 41.7405 -2.0140 10.7893 2.5614
# 3 27.0051 41.7405 96.5284 -2.0926 39.0174 1.4316
# 4 -11.6191 -2.0140 -2.0926 26.3331 2.2173 3.8431
# 5 45.2874 10.7893 39.0174 2.2173 48.5759 2.2042
# 6 -2.8832 2.5614 1.4316 3.8431 2.2042 21.9062
#
#
#
# Elastic Compliance Matrix: (Units=1/GPa)
#
#
# Indices 1 2 3 4 5 6 
#
# 1 0.040468 -0.001859 0.008056 0.021297 -0.045022 0.005811
# 2 -0.001859 0.012344 -0.006570 -0.000531 0.004365 -0.001605
# 3 0.008056 -0.006570 0.020216 0.006321 -0.022654 0.001678
# 4 0.021297 -0.000531 0.006321 0.050647 -0.026957 -0.003721
# 5 -0.045022 0.004365 -0.022654 -0.026957 0.081400 -0.008417
# 6 0.005811 -0.001605 0.001678 -0.003721 -0.008417 0.047992
#
#
# Mechanical properties :
#
#
# Convention : Reuss Voigt Hill
#
# Bulk Modulus (GPa) = 13.83453 47.75000 30.79227
# Shear Modulus (GPa) = 17.99176 32.45878 25.22527
#
# Velocity S-wave (km/s) = 2.73153 3.66890 3.23435
# Velocity P-wave (km/s) = 3.96050 6.14409 5.16892
#
# Compressibility (1/GPa) = 0.07228290
#
# Stress axis : x y z
#
# Youngs Moduli (GPa) = 24.71075 81.01150 49.46628
#
# Poissons Ratio (x) = 0.15056 -0.39850
# Poissons Ratio (y) = 0.04593 0.32499
# Poissons Ratio (z) = -0.19907 0.53224
#
# Static dielectric constant tensor:
#      x y z
#    x 1.998310 0.008980 -0.005640 
#    y 0.008980 1.931210 0.013190 
#    z -0.005640 0.013190 2.064500 
# 
# From -- ./inp_files/308433.got.cif
#   From: 2010.05.17/outbox.cif.g08.bks.cpg/sg2_155_cif.got.tgz:308433.got - 2010.06.03 11:33:40.
