data_PCOD9037537
_publ_section_title
;
Structure prediction by ZEFSAII (Michael W. Deem and Ramdas Pophale) SiO2 
 PCOD9037537
Probable space group: P -1
;
_chemical_formula_sum "Si O2"
_cell_formula_units_Z 16
_cell_length_a 15.115191
_cell_length_b 9.165715
_cell_length_c 11.770477
_cell_angle_alpha 120.148803
_cell_angle_beta 115.314873
_cell_angle_gamma 116.236126
_cell_volume 691.095089
_symmetry_space_group_name_H-M "P -1"
_symmetry_group_IT_number 2
_symmetry_cell_setting 'triclinic'
loop_
_space_group_symop_operation_xyz
x,y,z
-x,-y,-z
loop_
_atom_site_type_symbol
_atom_site_label
_atom_site_fract_x
_atom_site_fract_y
_atom_site_fract_z
Si Si1 0.775320 0.773940 0.473597
Si Si2 0.865327 0.821572 0.167706
Si Si3 0.641821 0.703396 0.841600
Si Si4 0.169388 0.614831 0.111215
Si Si5 0.573884 0.326778 0.001683
Si Si6 0.795449 0.725242 0.729412
Si Si7 0.666525 0.949182 0.442443
Si Si8 0.566147 0.945908 0.784633
O O1 0.791302 0.792682 0.625762
O O2 0.818790 0.025397 0.553155
O O3 0.599714 0.458070 0.185275
O O4 0.931060 0.872088 0.560669
O O5 0.810935 0.898715 0.089364
O O6 0.849559 0.615690 0.011902
O O7 0.731888 0.620678 0.120667
O O8 0.691848 0.698497 0.746019
O O9 0.482147 0.363656 0.681736
O O10 0.602980 0.838485 0.841518
O O11 0.281981 0.812091 0.365439
O O12 0.293484 0.852796 0.165559
O O13 0.000000 0.500000 0.000000
O O14 0.400988 0.117978 0.747553
O O15 0.592154 0.153838 0.950723
O O16 0.644129 0.359507 0.490720
O O17 0.000000 0.000000 0.000000
#
# Coordination Sequence:
#
# PCOD9037537 Si02
#       8
#     2   2   2   2   2   2   2   2
#     4  12  22  43  66  93 129 176 225 260 319 397
#     4  10  23  40  68  95 129 170 219 273 324 381
#     4  11  22  41  66  97 128 170 211 270 336 384
#     4  11  22  39  67 103 133 164 214 279 335 372
#     4  10  26  42  64  91 133 179 218 264 319 386
#     4  12  24  39  70  99 126 167 216 274 330 386
#     4  11  22  41  68  96 128 169 218 271 326 387
#     4  11  24  44  63  97 138 170 212 273 328 381
#
# _framework density 23.151662999999999
#
# number of rings (size 3 to 8) (size 9 to 14) (size 15 to 20)
#    0.000    1.000    5.000    1.875    1.750    2.000 
#    0.000    0.625    0.000    0.000    0.000    0.000 
#    0.000    0.000    0.000    0.000    0.000    0.000 
#
# Total GULP energy -89218.600165 kJ/mol
# GULP energy per Si atom -5576.162510 kJ/mol
# Density = 2.309897 g / cm^3
# Si number density = 23.151663 Si / 1000 Ang^3
#
#
#
# Elastic Constant Matrix: (Units=GPa)
#
#
# Indices 1 2 3 4 5 6 
#
# 1 58.2527 25.1240 28.2521 -13.5658 -10.6775 -2.7400
# 2 25.1240 100.1512 43.9029 -23.3870 -2.0065 -16.3229
# 3 28.2521 43.9029 104.2878 -30.7754 -14.6136 -6.3103
# 4 -13.5658 -23.3870 -30.7754 34.8570 1.8702 11.3111
# 5 -10.6775 -2.0065 -14.6136 1.8702 41.9751 -3.5799
# 6 -2.7400 -16.3229 -6.3103 11.3111 -3.5799 34.2119
#
#
#
# Elastic Compliance Matrix: (Units=1/GPa)
#
#
# Indices 1 2 3 4 5 6 
#
# 1 0.021571 -0.003422 -0.002775 0.003839 0.004079 -0.001259
# 2 -0.003422 0.014028 -0.003946 0.003211 -0.001334 0.004490
# 3 -0.002775 -0.003946 0.015498 0.010502 0.003836 -0.002317
# 4 0.003839 0.003211 0.010502 0.045056 0.001847 -0.010927
# 5 0.004079 -0.001334 0.003836 0.001847 0.026267 0.002536
# 6 -0.001259 0.004490 -0.002317 -0.010927 0.002536 0.034721
#
#
# Mechanical properties :
#
#
# Convention : Reuss Voigt Hill
#
# Bulk Modulus (GPa) = 32.45584 50.80552 41.63068
# Shear Modulus (GPa) = 26.63863 33.23630 29.93746
#
# Velocity S-wave (km/s) = 3.39575 3.79303 3.59987
# Velocity P-wave (km/s) = 5.42439 6.41678 5.94134
#
# Compressibility (1/GPa) = 0.03081110
#
# Stress axis : x y z
#
# Youngs Moduli (GPa) = 46.35927 71.28581 64.52332
#
# Poissons Ratio (x) = 0.24393 0.17904
# Poissons Ratio (y) = 0.15864 0.25463
# Poissons Ratio (z) = 0.12864 0.28131
#
# Static dielectric constant tensor:
#      x y z
#    x 1.941860 0.022450 0.074660 
#    y 0.022450 1.873200 0.014040 
#    z 0.074660 0.014040 2.018820 
# 
# From -- ./inp_files/448080.got.cif
#   From: 2010.05.17/outbox.cif.g08.bks.cpg/sg2_225_cif.got.tgz:448080.got - 2010.06.03 11:33:40.
