data_PCOD9037299
_publ_section_title
;
Structure prediction by ZEFSAII (Michael W. Deem and Ramdas Pophale) SiO2 
 PCOD9037299
Probable space group: P -1
;
_chemical_formula_sum "Si O2"
_cell_formula_units_Z 16
_cell_length_a 10.610857
_cell_length_b 13.212759
_cell_length_c 9.328829
_cell_angle_alpha 114.390070
_cell_angle_beta 69.533453
_cell_angle_gamma 144.508203
_cell_volume 691.352141
_symmetry_space_group_name_H-M "P -1"
_symmetry_group_IT_number 2
_symmetry_cell_setting 'triclinic'
loop_
_space_group_symop_operation_xyz
x,y,z
-x,-y,-z
loop_
_atom_site_type_symbol
_atom_site_label
_atom_site_fract_x
_atom_site_fract_y
_atom_site_fract_z
Si Si1 0.330961 0.474978 0.490811
Si Si2 0.904345 0.050151 0.131111
Si Si3 0.083452 0.948900 0.533830
Si Si4 0.783548 0.379351 0.222237
Si Si5 0.283532 0.712424 0.312115
Si Si6 0.474266 0.722876 0.998294
Si Si7 0.368430 0.419198 0.151306
Si Si8 0.499219 0.913467 0.638427
O O1 0.500000 0.500000 0.500000
O O2 0.327323 0.589918 0.633057
O O3 0.408045 0.530364 0.327833
O O4 0.102204 0.265732 0.494739
O O5 0.858489 0.996354 0.287044
O O6 0.108055 0.262126 0.149520
O O7 0.692622 0.936765 0.055447
O O8 0.000000 0.000000 0.000000
O O9 0.290024 0.029109 0.420203
O O10 0.000000 0.000000 0.500000
O O11 0.718579 0.357256 0.070856
O O12 0.647888 0.187480 0.221623
O O13 0.031463 0.544614 0.270757
O O14 0.337898 0.766527 0.488995
O O15 0.403626 0.900857 0.314117
O O16 0.383521 0.670488 0.166147
O O17 0.561089 0.660174 0.870126
O O18 0.500000 0.500000 0.000000
#
# Coordination Sequence:
#
# PCOD9037299 Si02
#       8
#     2   2   2   2   2   2   2   2
#     4  11  22  41  65  99 140 164 220 288 326 407
#     4   9  21  40  62  93 132 174 213 274 330 399
#     4  11  22  40  70 100 131 176 222 279 347 393
#     4  12  25  44  68 101 132 177 230 276 340 396
#     4  11  25  49  68  95 137 176 235 274 329 409
#     4  11  23  45  65  92 141 177 219 281 330 403
#     4  10  23  40  65 101 132 178 220 269 351 398
#     4  11  25  44  72  98 129 180 225 281 341 392
#
# _framework density 23.143055
#
# number of rings (size 3 to 8) (size 9 to 14) (size 15 to 20)
#    0.000    1.250    3.750    1.500    5.250    2.500 
#    4.500    0.000    0.000    0.000    0.000    0.000 
#    0.000    0.000    0.000    0.000    0.000    0.000 
#
# Total GULP energy -89189.675103 kJ/mol
# GULP energy per Si atom -5574.354694 kJ/mol
# Density = 2.309038 g / cm^3
# Si number density = 23.143055 Si / 1000 Ang^3
#
#
#
# Elastic Constant Matrix: (Units=GPa)
#
#
# Indices 1 2 3 4 5 6 
#
# 1 60.5887 27.9813 7.9951 9.8681 5.1596 16.7030
# 2 27.9813 81.0646 22.5577 -12.2779 26.1677 15.8805
# 3 7.9951 22.5577 84.5946 -6.5680 2.0260 -1.4981
# 4 9.8681 -12.2779 -6.5680 22.5139 0.0878 4.9774
# 5 5.1596 26.1677 2.0260 0.0878 41.6814 0.6369
# 6 16.7030 15.8805 -1.4981 4.9774 0.6369 45.7343
#
#
#
# Elastic Compliance Matrix: (Units=1/GPa)
#
#
# Indices 1 2 3 4 5 6 
#
# 1 0.025481 -0.011997 -0.000711 -0.017195 0.004500 -0.003355
# 2 -0.011997 0.027084 -0.004264 0.020430 -0.015245 -0.007174
# 3 -0.000711 -0.004264 0.013116 0.001364 0.002094 0.001992
# 4 -0.017195 0.020430 0.001364 0.065242 -0.010783 -0.007720
# 5 0.004500 -0.015245 0.002094 -0.010783 0.032858 0.004435
# 6 -0.003355 -0.007174 0.001992 -0.007720 0.004435 0.026425
#
#
# Mechanical properties :
#
#
# Convention : Reuss Voigt Hill
#
# Bulk Modulus (GPa) = 31.50898 38.14625 34.82761
# Shear Modulus (GPa) = 21.30101 33.16685 27.23393
#
# Velocity S-wave (km/s) = 3.03711 3.78977 3.43412
# Velocity P-wave (km/s) = 5.09344 5.97230 5.55029
#
# Compressibility (1/GPa) = 0.03173699
#
# Stress axis : x y z
#
# Youngs Moduli (GPa) = 39.24444 36.92218 76.24046
#
# Poissons Ratio (x) = 0.44295 0.05423
# Poissons Ratio (y) = 0.47081 0.32509
# Poissons Ratio (z) = 0.02792 0.15744
#
# Static dielectric constant tensor:
#      x y z
#    x 1.921670 0.044600 0.056800 
#    y 0.044600 2.034540 0.081910 
#    z 0.056800 0.081910 1.881720 
# 
# From -- ./inp_files/273690.got.cif
#   From: 2010.05.17/outbox.cif.g08.bks.cpg/sg2_137_cif.got.tgz:273690.got - 2010.06.03 11:33:40.
