data_PCOD9037310
_publ_section_title
;
Structure prediction by ZEFSAII (Michael W. Deem and Ramdas Pophale) SiO2 
 PCOD9037310
Probable space group: P -1
;
_chemical_formula_sum "Si O2"
_cell_formula_units_Z 16
_cell_length_a 12.681855
_cell_length_b 22.590923
_cell_length_c 5.614878
_cell_angle_alpha 66.736617
_cell_angle_beta 64.245290
_cell_angle_gamma 25.277235
_cell_volume 618.642157
_symmetry_space_group_name_H-M "P -1"
_symmetry_group_IT_number 2
_symmetry_cell_setting 'triclinic'
loop_
_space_group_symop_operation_xyz
x,y,z
-x,-y,-z
loop_
_atom_site_type_symbol
_atom_site_label
_atom_site_fract_x
_atom_site_fract_y
_atom_site_fract_z
Si Si1 0.349480 0.455109 0.013293
Si Si2 0.092772 0.256574 0.505295
Si Si3 0.654342 0.580841 0.413560
Si Si4 0.787796 0.085542 0.883911
Si Si5 0.142561 0.387077 0.731945
Si Si6 0.472068 0.866691 0.586706
Si Si7 0.089393 0.707894 0.876810
Si Si8 0.033182 0.879279 0.595966
O O1 0.485713 0.373582 0.762699
O O2 0.323618 0.544318 0.918189
O O3 0.446039 0.374326 0.286043
O O4 0.066433 0.563917 0.074878
O O5 0.366424 0.155329 0.421126
O O6 0.050199 0.243270 0.312982
O O7 0.885601 0.415736 0.473813
O O8 0.051934 0.235646 0.822110
O O9 0.755260 0.603765 0.226335
O O10 0.792498 0.144272 0.608507
O O11 0.885104 0.976680 0.817200
O O12 0.553791 0.177395 0.124956
O O13 0.000000 0.000000 0.000000
O O14 0.372511 0.236755 0.625747
O O15 0.000000 0.500000 0.500000
O O16 0.191501 0.020725 0.534880
O O17 0.150525 0.752809 0.727360
#
# Coordination Sequence:
#
# PCOD9037310 Si02
#       8
#     2   2   2   2   2   2   2   2
#     4   9  17  31  47  78 111 149 188 220 269 347
#     4  10  21  35  53  92 124 154 192 225 294 361
#     4   9  17  31  49  74 119 155 187 221 268 346
#     4   9  22  43  60  78 108 151 208 254 287 332
#     4  10  17  33  51  82 117 159 186 226 292 346
#     4  11  21  36  57  86 123 151 195 247 280 356
#     4  10  21  36  57  83 121 159 186 234 291 361
#     4  10  23  40  60  81 112 158 203 244 292 336
#
# _framework density 25.863095999999999
#
# number of rings (size 3 to 8) (size 9 to 14) (size 15 to 20)
#    0.000    2.250    3.750    0.375    5.250    1.000 
#    4.500    0.000    0.000    0.000    0.000   11.375 
#    0.000    0.000    0.000    0.000    0.000    0.000 
#
# Total GULP energy -89460.519592 kJ/mol
# GULP energy per Si atom -5591.282474 kJ/mol
# Density = 2.580423 g / cm^3
# Si number density = 25.863096 Si / 1000 Ang^3
#
#
#
# Elastic Constant Matrix: (Units=GPa)
#
#
# Indices 1 2 3 4 5 6 
#
# 1 144.2733 21.9590 66.5043 -6.8752 9.4424 14.7584
# 2 21.9590 56.7365 29.9777 -10.5202 -6.2875 19.5975
# 3 66.5043 29.9777 177.2647 -6.7540 15.4426 7.4833
# 4 -6.8752 -10.5202 -6.7540 33.1356 -6.4121 -9.9445
# 5 9.4424 -6.2875 15.4426 -6.4121 45.8212 -5.2917
# 6 14.7584 19.5975 7.4833 -9.9445 -5.2917 37.7856
#
#
#
# Elastic Compliance Matrix: (Units=1/GPa)
#
#
# Indices 1 2 3 4 5 6 
#
# 1 0.008769 -0.001197 -0.002875 -0.000135 -0.001304 -0.002453
# 2 -0.001197 0.024690 -0.003511 0.004785 0.004359 -0.009773
# 3 -0.002875 -0.003511 0.007460 -0.000324 -0.002327 0.001056
# 4 -0.000135 0.004785 -0.000324 0.035239 0.006630 0.007838
# 5 -0.001304 0.004359 -0.002327 0.006630 0.024857 0.003936
# 6 -0.002453 -0.009773 0.001056 0.007838 0.003936 0.034897
#
#
# Mechanical properties :
#
#
# Convention : Reuss Voigt Hill
#
# Bulk Modulus (GPa) = 38.83314 68.35072 53.59193
# Shear Modulus (GPa) = 31.31614 40.67073 35.99344
#
# Velocity S-wave (km/s) = 3.48349 3.96983 3.73458
# Velocity P-wave (km/s) = 5.58812 6.89188 6.27396
#
# Compressibility (1/GPa) = 0.02575120
#
# Stress axis : x y z
#
# Youngs Moduli (GPa) = 114.04168 40.50276 134.05603
#
# Poissons Ratio (x) = 0.04848 0.38545
# Poissons Ratio (y) = 0.13650 0.47069
# Poissons Ratio (z) = 0.32790 0.14221
#
# Static dielectric constant tensor:
#      x y z
#    x 2.077820 -0.046160 -0.008600 
#    y -0.046160 2.117000 -0.010970 
#    z -0.008600 -0.010970 2.065800 
# 
# From -- ./inp_files/83133.got.cif
#   From: 2010.05.17/outbox.cif.g08.bks.cpg/sg2_42_cif.got.tgz:83133.got - 2010.06.03 11:33:40.
