data_PCOD9037313
_publ_section_title
;
Structure prediction by ZEFSAII (Michael W. Deem and Ramdas Pophale) SiO2 
 PCOD9037313
Probable space group: P -1
;
_chemical_formula_sum "Si O2"
_cell_formula_units_Z 16
_cell_length_a 7.742687
_cell_length_b 16.902040
_cell_length_c 26.837232
_cell_angle_alpha 18.036772
_cell_angle_beta 46.831331
_cell_angle_gamma 47.024757
_cell_volume 785.537388
_symmetry_space_group_name_H-M "P -1"
_symmetry_group_IT_number 2
_symmetry_cell_setting 'triclinic'
loop_
_space_group_symop_operation_xyz
x,y,z
-x,-y,-z
loop_
_atom_site_type_symbol
_atom_site_label
_atom_site_fract_x
_atom_site_fract_y
_atom_site_fract_z
Si Si1 0.425424 0.706136 0.246957
Si Si2 0.784039 0.280305 0.932120
Si Si3 0.353584 0.083190 0.194823
Si Si4 0.162753 0.209550 0.323323
Si Si5 0.233680 0.864667 0.088898
Si Si6 0.482348 0.171227 0.580086
Si Si7 0.211723 0.510405 0.039122
Si Si8 0.028994 0.910291 0.281721
O O1 0.333575 0.682755 0.222986
O O2 0.580285 0.441875 0.392083
O O3 0.208486 0.787474 0.278116
O O4 0.578426 0.940137 0.076823
O O5 0.802228 0.564196 0.780248
O O6 0.797310 0.280370 0.869584
O O7 0.549434 0.179064 0.062061
O O8 0.999846 0.055743 0.038373
O O9 0.204223 0.338559 0.094697
O O10 0.181591 0.921927 0.294811
O O11 0.471706 0.934049 0.309742
O O12 0.083666 0.375274 0.189935
O O13 0.400064 0.035979 0.359117
O O14 0.000000 0.000000 0.500000
O O15 0.203320 0.230891 0.586763
O O16 0.500000 0.500000 0.000000
O O17 0.084305 0.798065 0.885023
#
# Coordination Sequence:
#
# PCOD9037313 Si02
#       8
#     2   2   2   2   2   2   2   2
#     4  11  23  42  61  93 130 174 218 257 333 386
#     4  11  20  42  65  94 127 169 225 269 315 390
#     4  11  22  40  68  98 123 170 224 263 327 383
#     4  11  22  40  68  95 129 175 208 265 346 376
#     4  10  23  40  65  89 128 175 217 268 317 390
#     4  11  24  43  62  96 139 164 208 282 324 383
#     4  11  20  41  68  91 131 168 214 271 321 390
#     4  12  22  40  68  96 123 175 220 264 326 389
#
# _framework density 20.368220999999998
#
# number of rings (size 3 to 8) (size 9 to 14) (size 15 to 20)
#    0.000    1.000    5.000    3.000    0.000    1.500 
#    9.000    0.625    0.000    0.000    0.000    0.000 
#    0.000    0.000    0.000    0.000    0.000    0.000 
#
# Total GULP energy -89326.613564 kJ/mol
# GULP energy per Si atom -5582.913348 kJ/mol
# Density = 2.032186 g / cm^3
# Si number density = 20.368221 Si / 1000 Ang^3
#
#
#
# Elastic Constant Matrix: (Units=GPa)
#
#
# Indices 1 2 3 4 5 6 
#
# 1 86.7479 33.3020 24.0574 3.4179 -4.7840 8.9478
# 2 33.3020 92.3769 22.9136 -14.9827 1.5507 19.9579
# 3 24.0574 22.9136 87.2622 -8.1545 5.9728 10.4568
# 4 3.4179 -14.9827 -8.1545 23.1265 -5.2098 -1.1319
# 5 -4.7840 1.5507 5.9728 -5.2098 11.7406 2.8160
# 6 8.9478 19.9579 10.4568 -1.1319 2.8160 19.9321
#
#
#
# Elastic Compliance Matrix: (Units=1/GPa)
#
#
# Indices 1 2 3 4 5 6 
#
# 1 0.015305 -0.005491 -0.003670 -0.005690 0.006468 -0.000684
# 2 -0.005491 0.018306 -0.000576 0.012849 0.005069 -0.015549
# 3 -0.003670 -0.000576 0.013837 0.003514 -0.005941 -0.003996
# 4 -0.005690 0.012849 0.003514 0.058218 0.022930 -0.012088
# 5 0.006468 0.005069 -0.005941 0.022930 0.104741 -0.018358
# 6 -0.000684 -0.015549 -0.003996 -0.012088 -0.018358 0.070050
#
#
# Mechanical properties :
#
#
# Convention : Reuss Voigt Hill
#
# Bulk Modulus (GPa) = 35.74798 47.43700 41.59249
# Shear Modulus (GPa) = 16.16796 23.36745 19.76770
#
# Velocity S-wave (km/s) = 2.82047 3.39078 3.11869
# Velocity P-wave (km/s) = 5.30996 6.21853 5.78212
#
# Compressibility (1/GPa) = 0.02797361
#
# Stress axis : x y z
#
# Youngs Moduli (GPa) = 65.33942 54.62811 72.27203
#
# Poissons Ratio (x) = 0.29994 0.26524
# Poissons Ratio (y) = 0.35875 0.04163
# Poissons Ratio (z) = 0.23980 0.03147
#
# Static dielectric constant tensor:
#      x y z
#    x 1.770570 -0.014470 -0.024530 
#    y -0.014470 1.711160 0.010770 
#    z -0.024530 0.010770 1.749470 
# 
# From -- ./inp_files/617388.got.cif
#   From: 2010.05.17/outbox.cif.g08.bks.cpg/sg2_309_cif.got.tgz:617388.got - 2010.06.03 11:33:40.
