data_PCOD9037087
_publ_section_title
;
Structure prediction by ZEFSAII (Michael W. Deem and Ramdas Pophale) SiO2 
 PCOD9037087
Probable space group: P -1
;
_chemical_formula_sum "Si O2"
_cell_formula_units_Z 16
_cell_length_a 20.748140
_cell_length_b 23.238759
_cell_length_c 9.993406
_cell_angle_alpha 129.534961
_cell_angle_beta 40.944875
_cell_angle_gamma 163.078425
_cell_volume 820.147169
_symmetry_space_group_name_H-M "P -1"
_symmetry_group_IT_number 2
_symmetry_cell_setting 'triclinic'
loop_
_space_group_symop_operation_xyz
x,y,z
-x,-y,-z
loop_
_atom_site_type_symbol
_atom_site_label
_atom_site_fract_x
_atom_site_fract_y
_atom_site_fract_z
Si Si1 0.121731 0.576502 0.772328
Si Si2 0.186614 0.939226 0.589985
Si Si3 0.335040 0.328095 0.406268
Si Si4 0.769185 0.891780 0.042219
Si Si5 0.728239 0.693852 0.820937
Si Si6 0.289091 0.125040 0.191033
Si Si7 0.935659 0.605258 0.591562
Si Si8 0.082092 0.489044 0.259016
O O1 0.997326 0.414980 0.647177
O O2 0.063705 0.601166 0.790546
O O3 0.467528 0.814941 0.603415
O O4 0.000000 0.500000 0.000000
O O5 0.993746 0.824759 0.595827
O O6 0.080933 0.785029 0.583179
O O7 0.121450 0.961790 0.824729
O O8 0.500000 0.500000 0.500000
O O9 0.428741 0.409435 0.228024
O O10 0.390942 0.282393 0.293038
O O11 0.984176 0.089777 0.606466
O O12 0.415400 0.639578 0.227455
O O13 0.847444 0.862775 0.911250
O O14 0.850091 0.967374 0.875078
O O15 0.500000 0.500000 0.000000
O O16 0.571359 0.273933 0.961348
O O17 0.006498 0.639777 0.688435
O O18 0.000000 0.500000 0.500000
#
# Coordination Sequence:
#
# PCOD9037087 Si02
#       8
#     2   2   2   2   2   2   2   2
#     4  10  23  40  59  86 122 160 200 250 303 356
#     4  11  22  37  63  88 121 160 200 250 305 349
#     4  10  23  41  58  91 123 160 198 243 305 367
#     4   9  19  37  61  89 118 157 196 246 297 359
#     4  11  22  38  61  92 124 157 199 247 299 366
#     4   9  20  39  64  85 123 157 199 250 300 359
#     4   9  19  39  60  86 119 149 208 250 288 361
#     4   9  19  40  64  88 115 159 207 254 295 352
#
# _framework density 19.508693999999998
#
# number of rings (size 3 to 8) (size 9 to 14) (size 15 to 20)
#    0.000    2.250    1.250    1.125    3.500    1.000 
#    4.500    2.500    0.000    0.000    0.000    0.000 
#    0.000    0.000    0.000    0.000    0.000    0.000 
#
# Total GULP energy -89136.484854 kJ/mol
# GULP energy per Si atom -5571.030303 kJ/mol
# Density = 1.946429 g / cm^3
# Si number density = 19.508694 Si / 1000 Ang^3
#
#
#
# Elastic Constant Matrix: (Units=GPa)
#
#
# Indices 1 2 3 4 5 6 
#
# 1 117.0930 38.2537 43.0656 1.3500 3.4922 -2.7152
# 2 38.2537 71.8496 22.7408 11.6228 5.9345 -5.2183
# 3 43.0656 22.7408 91.1264 -2.8713 4.7517 0.3254
# 4 1.3500 11.6228 -2.8713 27.3513 7.3335 -3.0890
# 5 3.4922 5.9345 4.7517 7.3335 36.9090 -2.0480
# 6 -2.7152 -5.2183 0.3254 -3.0890 -2.0480 24.0806
#
#
#
# Elastic Compliance Matrix: (Units=1/GPa)
#
#
# Indices 1 2 3 4 5 6 
#
# 1 0.011759 -0.005074 -0.004258 0.001166 0.000044 0.000437
# 2 -0.005074 0.018881 -0.002532 -0.007598 -0.000580 0.002530
# 3 -0.004258 -0.002532 0.013803 0.003064 -0.001629 -0.000961
# 4 0.001166 -0.007598 0.003064 0.042441 -0.007536 0.003247
# 5 0.000044 -0.000580 -0.001629 -0.007536 0.028967 0.001398
# 6 0.000437 0.002530 -0.000961 0.003247 0.001398 0.042673
#
#
# Mechanical properties :
#
#
# Convention : Reuss Voigt Hill
#
# Bulk Modulus (GPa) = 48.27359 54.24324 51.25841
# Shear Modulus (GPa) = 26.43281 29.40210 27.91746
#
# Velocity S-wave (km/s) = 3.68492 3.88639 3.78700
# Velocity P-wave (km/s) = 6.55006 6.92847 6.74192
#
# Compressibility (1/GPa) = 0.02071526
#
# Stress axis : x y z
#
# Youngs Moduli (GPa) = 85.03928 52.96230 72.44760
#
# Poissons Ratio (x) = 0.26870 0.30851
# Poissons Ratio (y) = 0.43145 0.18346
# Poissons Ratio (z) = 0.36213 0.13412
#
# Static dielectric constant tensor:
#      x y z
#    x 1.758750 0.025980 0.008230 
#    y 0.025980 1.676140 0.019890 
#    z 0.008230 0.019890 1.713160 
# 
# From -- ./inp_files/94948.got.cif
#   From: 2010.05.17/outbox.cif.g08.bks.cpg/sg2_48_cif.got.tgz:94948.got - 2010.06.03 11:33:40.
