data_PCOD9037055
_publ_section_title
;
Structure prediction by ZEFSAII (Michael W. Deem and Ramdas Pophale) SiO2 
 PCOD9037055
Probable space group: P -1
;
_chemical_formula_sum "Si O2"
_cell_formula_units_Z 14
_cell_length_a 15.720789
_cell_length_b 9.525916
_cell_length_c 15.524229
_cell_angle_alpha 37.436464
_cell_angle_beta 144.003717
_cell_angle_gamma 152.419110
_cell_volume 606.836653
_symmetry_space_group_name_H-M "P -1"
_symmetry_group_IT_number 2
_symmetry_cell_setting 'triclinic'
loop_
_space_group_symop_operation_xyz
x,y,z
-x,-y,-z
loop_
_atom_site_type_symbol
_atom_site_label
_atom_site_fract_x
_atom_site_fract_y
_atom_site_fract_z
Si Si1 0.809717 0.969717 0.712331
Si Si2 0.777803 0.230961 0.043612
Si Si3 0.844055 0.640364 0.766639
Si Si4 0.931017 0.075277 0.488543
Si Si5 0.829455 0.459337 0.164577
Si Si6 0.539139 0.506493 0.865094
Si Si7 0.345956 0.740895 0.574614
O O1 0.912321 0.894183 0.772907
O O2 0.635109 0.671215 0.770975
O O3 0.731152 0.100649 0.527813
O O4 0.957404 0.229419 0.778677
O O5 0.807201 0.403290 0.071229
O O6 0.986009 0.341221 0.137928
O O7 0.633638 0.860887 0.116730
O O8 0.704819 0.316399 0.864378
O O9 0.799577 0.761339 0.592681
O O10 0.810477 0.177791 0.320559
O O11 0.143237 0.391953 0.547853
O O12 0.000000 0.000000 0.500000
O O13 0.686755 0.519019 0.039136
O O14 0.462634 0.670622 0.756535
O O15 0.500000 0.000000 0.500000
#
# Coordination Sequence:
#
# PCOD9037055 Si02
#       7
#     2   2   2   2   2   2   2
#     4  10  23  39  71  93 128 166 216 260 312 380
#     4  11  23  40  69  93 130 171 209 260 317 379
#     4  11  23  41  66  95 131 164 215 258 325 368
#     4  11  21  41  66  91 125 174 210 254 315 390
#     4  11  22  38  69  98 121 169 216 255 315 382
#     4  11  20  41  66  96 125 173 211 255 316 386
#     4   9  20  38  63  93 123 165 210 253 314 376
#
# _framework density 23.070459
#
# number of rings (size 3 to 8) (size 9 to 14) (size 15 to 20)
#    0.000    1.429    4.286    0.857    0.000    2.286 
#    0.000    1.429    3.143    0.000    0.000    0.000 
#    0.000    0.000    0.000    0.000    0.000    0.000 
#
# Total GULP energy -78030.173914 kJ/mol
# GULP energy per Si atom -5573.583851 kJ/mol
# Density = 2.301795 g / cm^3
# Si number density = 23.070459 Si / 1000 Ang^3
#
#
#
# Elastic Constant Matrix: (Units=GPa)
#
#
# Indices 1 2 3 4 5 6 
#
# 1 ********************-9751.5830 9569.6993-7985.3075 1656.5445
# 2 **********-8633.8435-3626.1371 3551.5192-2979.8365 617.5608
# 3 -9751.5830-3626.1371-1333.4359 1469.5237-1226.9805 264.3905
# 4 9569.6993 3551.5192 1469.5237-1447.4792 1230.6628 -238.3779
# 5 -7985.3075-2979.8365-1226.9805 1230.6628 -981.0583 211.4586
# 6 1656.5445 617.5608 264.3905 -238.3779 211.4586 -41.9221
#
#
#
# Elastic Compliance Matrix: (Units=1/GPa)
#
#
# Indices 1 2 3 4 5 6 
#
# 1 0.004848 -0.011607 0.000633 0.001443 -0.003916 -0.003373
# 2 -0.011607 0.032617 -0.003526 -0.002308 0.003872 0.032258
# 3 0.000633 -0.003526 0.004949 -0.003035 -0.002333 0.009762
# 4 0.001443 -0.002308 -0.003035 -0.007294 0.003593 0.063461
# 5 -0.003916 0.003872 -0.002333 0.003593 0.024245 -0.010543
# 6 -0.003373 0.032258 0.009762 0.063461 -0.010543 -0.034415
#
#
# Mechanical properties :
#
#
# Convention : Reuss Voigt Hill
#
# Bulk Modulus (GPa) = 74.54734 -16162.94502 -8044.19884
# Shear Modulus (GPa) = 85.58418 -2870.15532 -1392.28557
#
# Velocity S-wave (km/s) = 6.09733 -35.30982 -24.59274
# Velocity P-wave (km/s) = 9.05279 93.18526 65.58025
#
# Compressibility (1/GPa) = 0.01341430
#
# Stress axis : x y z
#
# Youngs Moduli (GPa) = 206.26420 30.65893 202.05146
#
# Poissons Ratio (x) = 0.35585 -0.12781
# Poissons Ratio (y) = 2.39409 0.71237
# Poissons Ratio (z) = -0.13048 0.10809
#
# Static dielectric constant tensor:
#      x y z
#    x 1.867930 0.050370 0.015470 
#    y 0.050370 1.835490 -0.001520 
#    z 0.015470 -0.001520 1.946360 
# 
# From -- ./inp_files/529315.got.cif
#   From: 2010.05.17/outbox.cif.g08.bks.cpg/sg2_265_cif.got.tgz:529315.got - 2010.06.03 11:33:40.
