data_PCOD9037138
_publ_section_title
;
Structure prediction by ZEFSAII (Michael W. Deem and Ramdas Pophale) SiO2 
 PCOD9037138
Probable space group: P -1
;
_chemical_formula_sum "Si O2"
_cell_formula_units_Z 16
_cell_length_a 24.700252
_cell_length_b 5.094363
_cell_length_c 14.446188
_cell_angle_alpha 81.863527
_cell_angle_beta 24.598444
_cell_angle_gamma 77.280657
_cell_volume 730.355443
_symmetry_space_group_name_H-M "P -1"
_symmetry_group_IT_number 2
_symmetry_cell_setting 'triclinic'
loop_
_space_group_symop_operation_xyz
x,y,z
-x,-y,-z
loop_
_atom_site_type_symbol
_atom_site_label
_atom_site_fract_x
_atom_site_fract_y
_atom_site_fract_z
Si Si1 0.951186 0.153043 0.920167
Si Si2 0.255994 0.941275 0.907825
Si Si3 0.022061 0.420881 0.271870
Si Si4 0.341438 0.941932 0.964795
Si Si5 0.074268 0.068233 0.473474
Si Si6 0.113800 0.662916 0.789195
Si Si7 0.617240 0.631072 0.557816
Si Si8 0.564668 0.181012 0.524573
O O1 0.010120 0.404723 0.780600
O O2 0.845049 0.138440 0.005849
O O3 0.879324 0.195999 0.128407
O O4 0.063964 0.886008 0.777836
O O5 0.416848 0.150565 0.784422
O O6 0.176672 0.254341 0.033662
O O7 0.275332 0.818096 0.986681
O O8 0.989312 0.643990 0.393894
O O9 0.940905 0.185753 0.426011
O O10 0.225488 0.061624 0.209614
O O11 0.396735 0.840589 0.641776
O O12 0.467244 0.734492 0.824799
O O13 0.000000 0.000000 0.500000
O O14 0.263377 0.490394 0.553025
O O15 0.000000 0.500000 0.000000
O O16 0.598647 0.431274 0.513333
O O17 0.651317 0.897313 0.445184
#
# Coordination Sequence:
#
# PCOD9037138 Si02
#       8
#     2   2   2   2   2   2   2   2
#     4  11  23  39  67 102 134 178 219 279 344 397
#     4  12  22  43  62 105 139 174 221 275 347 409
#     4  12  25  41  67  95 137 173 231 283 329 394
#     4  10  26  40  68  95 137 187 223 270 337 402
#     4  12  25  44  66  94 134 186 237 280 324 388
#     4  11  23  41  70  98 141 173 224 278 342 415
#     4  10  23  42  62  96 133 177 218 268 333 406
#     4  10  23  40  61  97 136 176 213 268 338 411
#
# _framework density 21.907139000000001
#
# number of rings (size 3 to 8) (size 9 to 14) (size 15 to 20)
#    0.750    0.250    3.750    3.000    3.500    1.500 
#    0.000    0.000    0.000    1.500    0.000    0.000 
#    0.000    0.000    0.000    0.000    0.000    0.000 
#
# Total GULP energy -89191.184254 kJ/mol
# GULP energy per Si atom -5574.449016 kJ/mol
# Density = 2.185728 g / cm^3
# Si number density = 21.907139 Si / 1000 Ang^3
#
#
#
# Elastic Constant Matrix: (Units=GPa)
#
#
# Indices 1 2 3 4 5 6 
#
# 1 59.5431 20.6041 30.2261 -2.4379 -10.2566 2.0265
# 2 20.6041 99.9066 39.9990 4.3821 1.3050 6.2937
# 3 30.2261 39.9990 138.5861 7.6070 -0.9926 5.7578
# 4 -2.4379 4.3821 7.6070 27.2311 -6.1091 7.3486
# 5 -10.2566 1.3050 -0.9926 -6.1091 38.0492 9.3874
# 6 2.0265 6.2937 5.7578 7.3486 9.3874 43.5960
#
#
#
# Elastic Compliance Matrix: (Units=1/GPa)
#
#
# Indices 1 2 3 4 5 6 
#
# 1 0.021455 -0.003026 -0.003967 0.005875 0.007372 -0.002614
# 2 -0.003026 0.011822 -0.002649 -0.001566 -0.001380 -0.000655
# 3 -0.003967 -0.002649 0.008983 -0.002737 -0.001209 0.000102
# 4 0.005875 -0.001566 -0.002737 0.043194 0.010793 -0.009290
# 5 0.007372 -0.001380 -0.001209 0.010793 0.032172 -0.008731
# 6 -0.002614 -0.000655 0.000102 -0.009290 -0.008731 0.026586
#
#
# Mechanical properties :
#
#
# Convention : Reuss Voigt Hill
#
# Bulk Modulus (GPa) = 43.52350 53.29936 48.41143
# Shear Modulus (GPa) = 29.21355 35.58905 32.40130
#
# Velocity S-wave (km/s) = 3.65570 4.03493 3.84999
# Velocity P-wave (km/s) = 6.14241 6.78897 6.47377
#
# Compressibility (1/GPa) = 0.02297609
#
# Stress axis : x y z
#
# Youngs Moduli (GPa) = 46.60962 84.58933 111.32355
#
# Poissons Ratio (x) = 0.25594 0.44164
# Poissons Ratio (y) = 0.14103 0.29488
# Poissons Ratio (z) = 0.18491 0.22406
#
# Static dielectric constant tensor:
#      x y z
#    x 1.869100 0.040010 -0.009060 
#    y 0.040010 1.894490 -0.008710 
#    z -0.009060 -0.008710 1.892300 
# 
# From -- ./inp_files/541970.got.cif
#   From: 2010.05.17/outbox.cif.g08.bks.cpg/sg2_271_cif.got.tgz:541970.got - 2010.06.03 11:33:40.
