data_PCOD9037861
_publ_section_title
;
Structure prediction by ZEFSAII (Michael W. Deem and Ramdas Pophale) SiO2 
 PCOD9037861
Probable space group: P -1
;
_chemical_formula_sum "Si O2"
_cell_formula_units_Z 16
_cell_length_a 8.999036
_cell_length_b 9.201387
_cell_length_c 11.552292
_cell_angle_alpha 53.074465
_cell_angle_beta 111.989906
_cell_angle_gamma 114.168437
_cell_volume 686.761339
_symmetry_space_group_name_H-M "P -1"
_symmetry_group_IT_number 2
_symmetry_cell_setting 'triclinic'
loop_
_space_group_symop_operation_xyz
x,y,z
-x,-y,-z
loop_
_atom_site_type_symbol
_atom_site_label
_atom_site_fract_x
_atom_site_fract_y
_atom_site_fract_z
Si Si1 0.104707 0.681745 0.377990
Si Si2 0.417583 0.564733 0.108265
Si Si3 0.833748 0.518578 0.722138
Si Si4 0.471601 0.885725 0.429510
Si Si5 0.019518 0.050880 0.114168
Si Si6 0.821729 0.888553 0.449775
Si Si7 0.393072 0.216239 0.120567
Si Si8 0.138509 0.746274 0.858139
O O1 0.120795 0.641928 0.264840
O O2 0.294768 0.735723 0.453420
O O3 0.022660 0.860712 0.278118
O O4 0.000000 0.500000 0.500000
O O5 0.337031 0.541840 0.223667
O O6 0.464788 0.382982 0.153910
O O7 0.573825 0.726972 0.031528
O O8 0.273385 0.626786 0.962773
O O9 0.836596 0.675928 0.547854
O O10 0.976842 0.622970 0.803975
O O11 0.646111 0.837147 0.489858
O O12 0.500000 0.000000 0.500000
O O13 0.448949 0.029404 0.253856
O O14 0.203857 0.175231 0.119768
O O15 0.907199 0.181644 0.065773
O O16 0.000000 0.000000 0.000000
O O17 0.797505 0.050596 0.279516
O O18 0.000000 0.000000 0.500000
#
# Coordination Sequence:
#
# PCOD9037861 Si02
#       8
#     2   2   2   2   2   2   2   2
#     4  11  27  45  69 104 143 176 230 293 345 405
#     4  11  21  40  68  98 133 170 230 282 330 403
#     4  11  23  41  67 100 132 174 229 284 338 408
#     4  11  24  45  69  98 139 183 227 277 349 412
#     4  11  24  45  65  98 137 182 224 277 343 413
#     4  10  23  41  69  98 129 179 229 279 342 408
#     4  10  23  41  64 102 135 176 223 282 341 401
#     4  11  22  40  72  94 131 180 230 274 344 407
#
# _framework density 23.297758999999999
#
# number of rings (size 3 to 8) (size 9 to 14) (size 15 to 20)
#    0.000    1.250    2.500    2.625   10.500    0.500 
#    6.750    1.875    0.000    0.000    0.000    0.000 
#    0.000    0.000    0.000    0.000    0.000    0.000 
#
# Total GULP energy -89124.747300 kJ/mol
# GULP energy per Si atom -5570.296706 kJ/mol
# Density = 2.324473 g / cm^3
# Si number density = 23.297759 Si / 1000 Ang^3
#
#
#
# Elastic Constant Matrix: (Units=GPa)
#
#
# Indices 1 2 3 4 5 6 
#
# 1 99.8691 31.6981 23.7793 -12.2364 1.6795 -9.2059
# 2 31.6981 82.1208 23.2481 -6.4006 -12.6467 -0.6910
# 3 23.7793 23.2481 74.1035 -20.5305 -25.5320 16.1743
# 4 -12.2364 -6.4006 -20.5305 38.5606 2.1573 -10.4386
# 5 1.6795 -12.6467 -25.5320 2.1573 37.0893 -6.3807
# 6 -9.2059 -0.6910 16.1743 -10.4386 -6.3807 31.8910
#
#
#
# Elastic Compliance Matrix: (Units=1/GPa)
#
#
# Indices 1 2 3 4 5 6 
#
# 1 0.013653 -0.004217 -0.005349 0.002820 -0.004779 0.006529
# 2 -0.004217 0.015057 -0.002217 0.000040 0.003976 0.001042
# 3 -0.005349 -0.002217 0.025185 0.008151 0.014848 -0.008727
# 4 0.002820 0.000040 0.008151 0.033210 0.005038 0.008559
# 5 -0.004779 0.003976 0.014848 0.005038 0.038555 0.000539
# 6 0.006529 0.001042 -0.008727 0.008559 0.000539 0.040599
#
#
# Mechanical properties :
#
#
# Convention : Reuss Voigt Hill
#
# Bulk Modulus (GPa) = 32.97056 45.94936 39.45996
# Shear Modulus (GPa) = 25.00829 33.33272 29.17050
#
# Velocity S-wave (km/s) = 3.27986 3.78660 3.54230
# Velocity P-wave (km/s) = 5.34096 6.23564 5.80556
#
# Compressibility (1/GPa) = 0.03033009
#
# Stress axis : x y z
#
# Youngs Moduli (GPa) = 73.24524 66.41568 39.70563
#
# Poissons Ratio (x) = 0.28007 0.21237
# Poissons Ratio (y) = 0.30887 0.08802
# Poissons Ratio (z) = 0.39176 0.14723
#
# Static dielectric constant tensor:
#      x y z
#    x 1.840000 -0.085410 -0.002860 
#    y -0.085410 1.841570 -0.143470 
#    z -0.002860 -0.143470 2.089030 
# 
# From -- ./inp_files/381422.got.cif
#   From: 2010.05.17/outbox.cif.g08.bks.cpg/sg2_191_cif.got.tgz:381422.got - 2010.06.03 11:33:40.
