data_PCOD9037193
_publ_section_title
;
Structure prediction by ZEFSAII (Michael W. Deem and Ramdas Pophale) SiO2 
 PCOD9037193
Probable space group: P -1
;
_chemical_formula_sum "Si O2"
_cell_formula_units_Z 16
_cell_length_a 13.921734
_cell_length_b 15.287934
_cell_length_c 14.998852
_cell_angle_alpha 149.844143
_cell_angle_beta 33.813819
_cell_angle_gamma 152.974447
_cell_volume 702.526299
_symmetry_space_group_name_H-M "P -1"
_symmetry_group_IT_number 2
_symmetry_cell_setting 'triclinic'
loop_
_space_group_symop_operation_xyz
x,y,z
-x,-y,-z
loop_
_atom_site_type_symbol
_atom_site_label
_atom_site_fract_x
_atom_site_fract_y
_atom_site_fract_z
Si Si1 0.764774 0.335158 0.832491
Si Si2 0.252216 0.485083 0.633662
Si Si3 0.961334 0.982876 0.621739
Si Si4 0.440804 0.161390 0.420070
Si Si5 0.191669 0.558112 0.477230
Si Si6 0.435430 0.664119 0.196000
Si Si7 0.098415 0.876539 0.776600
Si Si8 0.867243 0.577782 0.133249
O O1 0.705198 0.374065 0.816657
O O2 0.020526 0.434410 0.737296
O O3 0.607887 0.072757 0.739732
O O4 0.726408 0.446375 0.040122
O O5 0.460333 0.720824 0.647266
O O6 0.264234 0.459395 0.708194
O O7 0.212041 0.265592 0.433387
O O8 0.205779 0.094528 0.566526
O O9 0.939525 0.170156 0.823138
O O10 0.000000 0.000000 0.500000
O O11 0.627309 0.348717 0.505844
O O12 0.312218 0.627543 0.350131
O O13 0.104378 0.704629 0.682536
O O14 0.026292 0.289933 0.359098
O O15 0.653557 0.916037 0.250349
O O16 0.500000 0.500000 0.000000
O O17 0.000000 0.000000 0.000000
O O18 0.000000 0.500000 0.000000
#
# Coordination Sequence:
#
# PCOD9037193 Si02
#       8
#     2   2   2   2   2   2   2   2
#     4  10  23  40  63  91 129 167 221 270 325 404
#     4   9  21  40  65  93 124 168 212 267 334 390
#     4   9  20  39  64  92 127 159 215 264 321 393
#     4  11  23  40  66  94 128 169 221 266 331 402
#     4  11  26  43  67  95 139 181 222 284 336 395
#     4  12  25  43  69  96 136 185 226 278 346 398
#     4  11  24  44  66  97 133 174 233 281 330 402
#     4   9  19  40  63  90 127 163 204 267 326 386
#
# _framework density 22.774947000000001
#
# number of rings (size 3 to 8) (size 9 to 14) (size 15 to 20)
#    0.000    1.750    2.500    1.125    5.250    3.500 
#    0.000    2.500    0.000    0.000    0.000    0.000 
#    0.000    0.000    0.000    0.000    0.000    0.000 
#
# Total GULP energy -89166.311858 kJ/mol
# GULP energy per Si atom -5572.894491 kJ/mol
# Density = 2.272311 g / cm^3
# Si number density = 22.774947 Si / 1000 Ang^3
#
#
#
# Elastic Constant Matrix: (Units=GPa)
#
#
# Indices 1 2 3 4 5 6 
#
# 1 75.7136 13.9833 30.7321 3.6361 11.8984 2.7965
# 2 13.9833 118.3868 32.3872 16.9079 0.4304 -5.7634
# 3 30.7321 32.3872 112.9236 31.0744 -7.5150 -8.9039
# 4 3.6361 16.9079 31.0744 32.6673 -2.9559 1.5482
# 5 11.8984 0.4304 -7.5150 -2.9559 35.1026 4.6691
# 6 2.7965 -5.7634 -8.9039 1.5482 4.6691 39.4127
#
#
#
# Elastic Compliance Matrix: (Units=1/GPa)
#
#
# Indices 1 2 3 4 5 6 
#
# 1 0.016655 -0.000976 -0.005869 0.003761 -0.006300 -0.002052
# 2 -0.000976 0.009529 -0.001408 -0.003600 -0.000571 0.001354
# 3 -0.005869 -0.001408 0.014848 -0.012584 0.003643 0.003628
# 4 0.003761 -0.003600 -0.012584 0.044333 0.000532 -0.005441
# 5 -0.006300 -0.000571 0.003643 0.000532 0.031801 -0.002602
# 6 -0.002052 0.001354 0.003628 -0.005441 -0.002602 0.027057
#
#
# Mechanical properties :
#
#
# Convention : Reuss Voigt Hill
#
# Bulk Modulus (GPa) = 40.77123 51.24770 46.00946
# Shear Modulus (GPa) = 29.60223 36.76462 33.18343
#
# Velocity S-wave (km/s) = 3.60915 4.02214 3.82123
# Velocity P-wave (km/s) = 5.94210 6.64235 6.30196
#
# Compressibility (1/GPa) = 0.02452710
#
# Stress axis : x y z
#
# Youngs Moduli (GPa) = 60.04080 104.93736 67.34875
#
# Poissons Ratio (x) = 0.10240 0.39527
# Poissons Ratio (y) = 0.05859 0.09484
# Poissons Ratio (z) = 0.35238 0.14777
#
# Static dielectric constant tensor:
#      x y z
#    x 1.917860 0.001420 -0.016050 
#    y 0.001420 1.918840 -0.060840 
#    z -0.016050 -0.060840 1.916880 
# 
# From -- ./inp_files/533916.got.cif
#   From: 2010.05.17/outbox.cif.g08.bks.cpg/sg2_267_cif.got.tgz:533916.got - 2010.06.03 11:33:40.
