data_PCOD9037244
_publ_section_title
;
Structure prediction by ZEFSAII (Michael W. Deem and Ramdas Pophale) SiO2 
 PCOD9037244
Probable space group: P -1
;
_chemical_formula_sum "Si O2"
_cell_formula_units_Z 14
_cell_length_a 12.212883
_cell_length_b 6.975735
_cell_length_c 11.725244
_cell_angle_alpha 121.464480
_cell_angle_beta 88.012308
_cell_angle_gamma 60.157879
_cell_volume 678.021403
_symmetry_space_group_name_H-M "P -1"
_symmetry_group_IT_number 2
_symmetry_cell_setting 'triclinic'
loop_
_space_group_symop_operation_xyz
x,y,z
-x,-y,-z
loop_
_atom_site_type_symbol
_atom_site_label
_atom_site_fract_x
_atom_site_fract_y
_atom_site_fract_z
Si Si1 0.538340 0.933784 0.802475
Si Si2 0.835267 0.320596 0.350413
Si Si3 0.629529 0.352355 0.532153
Si Si4 0.840505 0.129282 0.052175
Si Si5 0.274128 0.211805 0.039788
Si Si6 0.160852 0.827480 0.192463
Si Si7 0.689518 0.963045 0.608780
O O1 0.600178 0.607122 0.689284
O O2 0.566280 0.024656 0.711437
O O3 0.381556 0.107411 0.900130
O O4 0.627828 0.940154 0.900465
O O5 0.762351 0.241029 0.416234
O O6 0.783641 0.330277 0.226855
O O7 0.790101 0.626617 0.482296
O O8 0.998872 0.084852 0.276223
O O9 0.500000 0.500000 0.500000
O O10 0.643486 0.119661 0.538664
O O11 0.818863 0.891911 0.002294
O O12 0.785715 0.242570 0.962235
O O13 0.000000 0.000000 0.000000
O O14 0.188098 0.547407 0.155775
O O15 0.236617 0.926571 0.291821
#
# Coordination Sequence:
#
# PCOD9037244 Si02
#       7
#     2   2   2   2   2   2   2
#     4  10  23  40  64 101 129 177 222 274 332 390
#     4  10  25  41  65 100 134 177 221 270 338 399
#     4  11  24  43  66  95 136 176 226 271 336 397
#     4  10  23  42  64  96 134 173 221 271 330 393
#     4  11  22  40  68  96 137 169 225 279 327 393
#     4  11  23  42  70 100 132 177 223 277 332 400
#     4  11  23  44  67  98 136 176 221 276 336 396
#
# _framework density 20.648313000000002
#
# number of rings (size 3 to 8) (size 9 to 14) (size 15 to 20)
#    0.000    1.429    2.857    1.286    0.000   12.571 
#    0.000    0.000    0.000    0.000    0.000    0.000 
#    0.000    0.000    0.000    0.000    0.000    0.000 
#
# Total GULP energy -78225.872868 kJ/mol
# GULP energy per Si atom -5587.562348 kJ/mol
# Density = 2.060132 g / cm^3
# Si number density = 20.648313 Si / 1000 Ang^3
#
#
#
# Elastic Constant Matrix: (Units=GPa)
#
#
# Indices 1 2 3 4 5 6 
#
# 1 102.8835 49.8392 37.5514 6.2465 2.4781 22.1107
# 2 49.8392 118.2398 28.8190 -16.8598 -13.2424 16.1261
# 3 37.5514 28.8190 90.0419 -7.6060 -3.4544 9.5981
# 4 6.2465 -16.8598 -7.6060 19.2386 3.7142 6.2985
# 5 2.4781 -13.2424 -3.4544 3.7142 36.8212 0.0116
# 6 22.1107 16.1261 9.5981 6.2985 0.0116 25.4178
#
#
#
# Elastic Compliance Matrix: (Units=1/GPa)
#
#
# Indices 1 2 3 4 5 6 
#
# 1 0.017074 -0.007139 -0.005348 -0.011543 -0.003052 -0.005442
# 2 -0.007139 0.015512 0.000589 0.018041 0.004297 -0.008327
# 3 -0.005348 0.000589 0.014279 0.008776 0.001027 -0.003289
# 4 -0.011543 0.018041 0.008776 0.083376 -0.000314 -0.025379
# 5 -0.003052 0.004297 0.001027 -0.000314 0.029037 -0.000395
# 6 -0.005442 -0.008327 -0.003289 -0.025379 -0.000395 0.056890
#
#
# Mechanical properties :
#
#
# Convention : Reuss Voigt Hill
#
# Bulk Modulus (GPa) = 43.34729 60.39825 51.87277
# Shear Modulus (GPa) = 20.18944 29.29258 24.74101
#
# Velocity S-wave (km/s) = 3.13033 3.77057 3.46527
# Velocity P-wave (km/s) = 5.83987 6.94771 6.41774
#
# Compressibility (1/GPa) = 0.02306949
#
# Stress axis : x y z
#
# Youngs Moduli (GPa) = 58.56974 64.46452 70.03294
#
# Poissons Ratio (x) = 0.46020 0.37451
# Poissons Ratio (y) = 0.41812 -0.04123
# Poissons Ratio (z) = 0.31321 -0.03795
#
# Static dielectric constant tensor:
#      x y z
#    x 1.727770 -0.016280 0.021840 
#    y -0.016280 1.723850 -0.040890 
#    z 0.021840 -0.040890 1.773690 
# 
# From -- ./inp_files/64049.got.cif
#   From: 2010.05.17/outbox.cif.g08.bks.cpg/sg2_33_cif.got.tgz:64049.got - 2010.06.03 11:33:40.
