data_PCOD9037770
_publ_section_title
;
Structure prediction by ZEFSAII (Michael W. Deem and Ramdas Pophale) SiO2 
 PCOD9037770
Probable space group: P -1
;
_chemical_formula_sum "Si O2"
_cell_formula_units_Z 14
_cell_length_a 15.101317
_cell_length_b 8.142663
_cell_length_c 8.914427
_cell_angle_alpha 70.258812
_cell_angle_beta 36.084556
_cell_angle_gamma 82.491601
_cell_volume 587.311232
_symmetry_space_group_name_H-M "P -1"
_symmetry_group_IT_number 2
_symmetry_cell_setting 'triclinic'
loop_
_space_group_symop_operation_xyz
x,y,z
-x,-y,-z
loop_
_atom_site_type_symbol
_atom_site_label
_atom_site_fract_x
_atom_site_fract_y
_atom_site_fract_z
Si Si1 0.512862 0.207153 0.388730
Si Si2 0.888404 0.704919 0.035473
Si Si3 0.394786 0.643885 0.456864
Si Si4 0.174797 0.108086 0.197806
Si Si5 0.239639 0.228367 0.525571
Si Si6 0.224326 0.887537 0.445797
Si Si7 0.321000 0.457597 0.062323
O O1 0.524460 0.294690 0.513061
O O2 0.378260 0.214940 0.451575
O O3 0.500000 0.000000 0.500000
O O4 0.667003 0.336166 0.058456
O O5 0.763793 0.512430 0.250808
O O6 0.897900 0.750610 0.184134
O O7 0.814670 0.849908 0.004605
O O8 0.059577 0.735251 0.721906
O O9 0.349557 0.803188 0.378775
O O10 0.515927 0.574432 0.210525
O O11 0.202288 0.304283 0.176827
O O12 0.269200 0.985567 0.193248
O O13 0.000000 0.000000 0.500000
O O14 0.292014 0.399941 0.291273
O O15 0.199557 0.052119 0.531308
#
# Coordination Sequence:
#
# PCOD9037770 Si02
#       7
#     2   2   2   2   2   2   2
#     4  12  23  41  63  94 129 162 214 267 316 379
#     4  11  21  41  67  88 128 174 214 257 317 377
#     4  12  23  40  64  94 128 167 214 263 320 378
#     4   9  20  39  64  92 126 165 213 257 312 379
#     4  11  23  41  63  93 129 167 210 262 319 378
#     4  10  23  41  62  96 126 168 216 263 313 377
#     4  11  23  42  65  94 130 169 211 260 325 377
#
# _framework density 23.837447999999998
#
# number of rings (size 3 to 8) (size 9 to 14) (size 15 to 20)
#    0.000    1.143    4.286    2.571    0.000    2.286 
#    2.571    0.000    0.000    0.857    0.000    0.000 
#    0.000    0.000    0.000    0.000    0.000    0.000 
#
# Total GULP energy -78228.778222 kJ/mol
# GULP energy per Si atom -5587.769873 kJ/mol
# Density = 2.378319 g / cm^3
# Si number density = 23.837448 Si / 1000 Ang^3
#
#
#
# Elastic Constant Matrix: (Units=GPa)
#
#
# Indices 1 2 3 4 5 6 
#
# 1 93.3194 9.8911 45.1615 -8.9411 23.1695 -8.5964
# 2 9.8911 66.5159 32.6444 -30.9568 10.4573 1.4341
# 3 45.1615 32.6444 114.4175 -36.9532 24.3287 -6.8903
# 4 -8.9411 -30.9568 -36.9532 36.3367 3.0761 6.4110
# 5 23.1695 10.4573 24.3287 3.0761 65.7130 -16.0998
# 6 -8.5964 1.4341 -6.8903 6.4110 -16.0998 38.4000
#
#
#
# Elastic Compliance Matrix: (Units=1/GPa)
#
#
# Indices 1 2 3 4 5 6 
#
# 1 0.013966 -0.000162 -0.005738 -0.002627 -0.002261 0.001594
# 2 -0.000162 0.029646 0.003017 0.030825 -0.009617 -0.009780
# 3 -0.005738 0.003017 0.018277 0.021209 -0.007381 -0.004753
# 4 -0.002627 0.030825 0.021209 0.079936 -0.020436 -0.019847
# 5 -0.002261 -0.009617 -0.007381 -0.020436 0.024195 0.012085
# 6 0.001594 -0.009780 -0.004753 -0.019847 0.012085 0.034291
#
#
# Mechanical properties :
#
#
# Convention : Reuss Voigt Hill
#
# Bulk Modulus (GPa) = 17.81798 49.96076 33.88937
# Shear Modulus (GPa) = 22.24341 40.52700 31.38521
#
# Velocity S-wave (km/s) = 3.05803 4.12775 3.63248
# Velocity P-wave (km/s) = 4.46763 6.61228 5.64278
#
# Compressibility (1/GPa) = 0.05612308
#
# Stress axis : x y z
#
# Youngs Moduli (GPa) = 71.60032 33.73098 54.71369
#
# Poissons Ratio (x) = 0.00547 0.31395
# Poissons Ratio (y) = 0.01161 -0.16507
# Poissons Ratio (z) = 0.41085 -0.10176
#
# Static dielectric constant tensor:
#      x y z
#    x 1.952670 -0.004130 0.009830 
#    y -0.004130 1.946180 -0.013220 
#    z 0.009830 -0.013220 1.953970 
# 
# From -- ./inp_files/171174.got.cif
#   From: 2010.05.17/outbox.cif.g08.bks.cpg/sg2_86_cif.got.tgz:171174.got - 2010.06.03 11:33:40.
