data_PCOD9037637
_publ_section_title
;
Structure prediction by ZEFSAII (Michael W. Deem and Ramdas Pophale) SiO2 
 PCOD9037637
Probable space group: P -1
;
_chemical_formula_sum "Si O2"
_cell_formula_units_Z 14
_cell_length_a 9.233934
_cell_length_b 8.507408
_cell_length_c 8.887230
_cell_angle_alpha 108.451564
_cell_angle_beta 87.625996
_cell_angle_gamma 112.734842
_cell_volume 608.189537
_symmetry_space_group_name_H-M "P -1"
_symmetry_group_IT_number 2
_symmetry_cell_setting 'triclinic'
loop_
_space_group_symop_operation_xyz
x,y,z
-x,-y,-z
loop_
_atom_site_type_symbol
_atom_site_label
_atom_site_fract_x
_atom_site_fract_y
_atom_site_fract_z
Si Si1 0.562131 0.765344 0.724094
Si Si2 0.103844 0.021365 0.150249
Si Si3 0.789816 0.437909 0.351734
Si Si4 0.422671 0.138278 0.588322
Si Si5 0.107455 0.399649 0.284082
Si Si6 0.601382 0.478191 0.850698
Si Si7 0.111103 0.157675 0.650805
O O1 0.707782 0.929733 0.846289
O O2 0.376413 0.721024 0.731314
O O3 0.594680 0.781249 0.549536
O O4 0.569545 0.589216 0.747600
O O5 0.099991 0.205451 0.275844
O O6 0.004799 0.856605 0.210126
O O7 0.000000 0.000000 0.000000
O O8 0.808986 0.462434 0.540479
O O9 0.815024 0.635747 0.346594
O O10 0.934998 0.395384 0.274270
O O11 0.539063 0.274110 0.742094
O O12 0.253256 0.093031 0.658186
O O13 0.500000 0.000000 0.500000
O O14 0.209872 0.447282 0.140897
O O15 0.500000 0.500000 0.000000
O O16 0.000000 0.000000 0.500000
#
# Coordination Sequence:
#
# PCOD9037637 Si02
#       7
#     2   2   2   2   2   2   2
#     4  11  23  46  70 101 136 192 235 284 349 430
#     4  11  26  44  65  98 143 181 223 286 363 416
#     4  11  22  42  74 104 131 177 242 294 329 417
#     4  12  26  41  72 104 140 179 249 293 343 419
#     4  10  23  40  71 100 139 177 237 281 350 415
#     4  11  24  44  69 103 145 192 229 288 361 431
#     4  12  23  41  68 101 132 178 228 291 352 405
#
# _framework density 23.019141000000001
#
# number of rings (size 3 to 8) (size 9 to 14) (size 15 to 20)
#    0.000    0.857    5.714    1.286    8.000    0.000 
#    0.000    5.714    0.000    0.000    0.000    0.000 
#    0.000    0.000    0.000    0.000    0.000    0.000 
#
# Total GULP energy -78082.117067 kJ/mol
# GULP energy per Si atom -5577.294076 kJ/mol
# Density = 2.296675 g / cm^3
# Si number density = 23.019141 Si / 1000 Ang^3
#
#
#
# Elastic Constant Matrix: (Units=GPa)
#
#
# Indices 1 2 3 4 5 6 
#
# 1 195.4648 46.7904 33.5587 4.0289 -6.9222 38.1648
# 2 46.7904 64.1313 29.1998 -1.7942 -8.8379 24.3484
# 3 33.5587 29.1998 75.2026 1.9379 -0.1058 18.5184
# 4 4.0289 -1.7942 1.9379 22.2828 1.0282 -3.3972
# 5 -6.9222 -8.8379 -0.1058 1.0282 38.2758 8.0070
# 6 38.1648 24.3484 18.5184 -3.3972 8.0070 44.9938
#
#
#
# Elastic Compliance Matrix: (Units=1/GPa)
#
#
# Indices 1 2 3 4 5 6 
#
# 1 0.006898 -0.002813 -0.000838 -0.002149 0.001580 -0.004427
# 2 -0.002813 0.025274 -0.006119 0.001212 0.007368 -0.009993
# 3 -0.000838 -0.006119 0.016821 -0.002210 -0.000848 -0.002917
# 4 -0.002149 0.001212 -0.002210 0.046602 -0.002635 0.006063
# 5 0.001580 0.007368 -0.000848 -0.002635 0.030396 -0.010586
# 6 -0.004427 -0.009993 -0.002917 0.006063 -0.010586 0.034930
#
#
# Mechanical properties :
#
#
# Convention : Reuss Voigt Hill
#
# Bulk Modulus (GPa) = 33.95070 61.54404 47.74737
# Shear Modulus (GPa) = 26.27723 36.12714 31.20219
#
# Velocity S-wave (km/s) = 3.38233 3.96591 3.68569
# Velocity P-wave (km/s) = 5.48037 6.91125 6.23698
#
# Compressibility (1/GPa) = 0.02945447
#
# Stress axis : x y z
#
# Youngs Moduli (GPa) = 144.97266 39.56597 59.44852
#
# Poissons Ratio (x) = 0.11128 0.04983
# Poissons Ratio (y) = 0.40775 0.36374
# Poissons Ratio (z) = 0.12153 0.24209
#
# Static dielectric constant tensor:
#      x y z
#    x 1.907910 -0.048330 0.055830 
#    y -0.048330 1.627870 0.042260 
#    z 0.055830 0.042260 1.890840 
# 
# From -- ./inp_files/157470.got.cif
#   From: 2010.05.17/outbox.cif.g08.bks.cpg/sg2_79_cif.got.tgz:157470.got - 2010.06.03 11:33:40.
