data_PCOD9037204
_publ_section_title
;
Structure prediction by ZEFSAII (Michael W. Deem and Ramdas Pophale) SiO2 
 PCOD9037204
Probable space group: P -1
;
_chemical_formula_sum "Si O2"
_cell_formula_units_Z 16
_cell_length_a 21.265468
_cell_length_b 8.416642
_cell_length_c 15.266913
_cell_angle_alpha 70.325613
_cell_angle_beta 159.387226
_cell_angle_gamma 117.981016
_cell_volume 802.066529
_symmetry_space_group_name_H-M "P -1"
_symmetry_group_IT_number 2
_symmetry_cell_setting 'triclinic'
loop_
_space_group_symop_operation_xyz
x,y,z
-x,-y,-z
loop_
_atom_site_type_symbol
_atom_site_label
_atom_site_fract_x
_atom_site_fract_y
_atom_site_fract_z
Si Si1 0.825715 0.357517 0.736886
Si Si2 0.570236 0.632935 0.807945
Si Si3 0.785566 0.943337 0.772503
Si Si4 0.568347 0.267275 0.786149
Si Si5 0.620961 0.572342 0.230470
Si Si6 0.387396 0.061704 0.765487
Si Si7 0.022204 0.650515 0.791504
Si Si8 0.938205 0.960221 0.157249
O O1 0.619568 0.365006 0.487741
O O2 0.771375 0.139408 0.718514
O O3 0.925392 0.452500 0.755937
O O4 0.000000 0.500000 0.000000
O O5 0.605218 0.466205 0.840873
O O6 0.483940 0.582475 0.802322
O O7 0.774358 0.828024 0.038006
O O8 0.610580 0.800540 0.506694
O O9 0.815838 0.883994 0.920648
O O10 0.000000 0.000000 0.000000
O O11 0.503118 0.120893 0.811328
O O12 0.765302 0.292167 0.986249
O O13 0.611118 0.754081 0.222877
O O14 0.850443 0.620665 0.503627
O O15 0.500000 0.500000 0.000000
O O16 0.147042 0.947214 0.445353
O O17 0.500000 0.000000 0.000000
O O18 0.024829 0.821593 0.823907
#
# Coordination Sequence:
#
# PCOD9037204 Si02
#       8
#     2   2   2   2   2   2   2   2
#     4  11  22  40  61  87 125 168 202 246 306 355
#     4  10  24  41  62  92 129 160 207 255 303 371
#     4  12  24  39  65  90 131 165 209 250 301 374
#     4  11  24  41  61  98 126 161 210 253 308 366
#     4   9  21  43  65  87 122 162 206 258 311 363
#     4  10  23  43  65  87 124 159 205 264 309 363
#     4  10  23  40  63  93 126 161 209 252 304 373
#     4  11  23  43  61  92 127 167 204 253 311 362
#
# _framework density 19.948471999999999
#
# number of rings (size 3 to 8) (size 9 to 14) (size 15 to 20)
#    0.000    1.500    2.500    2.250    3.500    6.500 
#    0.000    5.000    0.000    0.000    0.000    0.000 
#    0.000    0.000    0.000    0.000    0.000    0.000 
#
# Total GULP energy -89163.781220 kJ/mol
# GULP energy per Si atom -5572.736326 kJ/mol
# Density = 1.990307 g / cm^3
# Si number density = 19.948472 Si / 1000 Ang^3
#
#
#
# Elastic Constant Matrix: (Units=GPa)
#
#
# Indices 1 2 3 4 5 6 
#
# 1 61.2690 -3.7950 51.9911 -13.7493 2.4159 4.1558
# 2 -3.7950 36.6060 7.1252 -5.9449 4.6645 18.9212
# 3 51.9911 7.1252 133.2651 -10.6435 2.8768 21.1438
# 4 -13.7493 -5.9449 -10.6435 30.0655 -4.3398 -2.1305
# 5 2.4159 4.6645 2.8768 -4.3398 49.1553 3.9652
# 6 4.1558 18.9212 21.1438 -2.1305 3.9652 17.2304
#
#
#
# Elastic Compliance Matrix: (Units=1/GPa)
#
#
# Indices 1 2 3 4 5 6 
#
# 1 0.027899 0.006448 -0.010463 0.010288 -0.000496 0.000416
# 2 0.006448 0.080767 0.010478 0.015582 0.000961 -0.101400
# 3 -0.010463 0.010478 0.015549 0.000935 0.000965 -0.028169
# 4 0.010288 0.015582 0.000935 0.040631 0.002869 -0.016375
# 5 -0.000496 0.000961 0.000965 0.002869 0.021006 -0.006599
# 6 0.000416 -0.101400 -0.028169 -0.016375 -0.006599 0.203347
#
#
# Mechanical properties :
#
#
# Convention : Reuss Voigt Hill
#
# Bulk Modulus (GPa) = 7.29173 37.97584 22.63378
# Shear Modulus (GPa) = 11.84870 31.01149 21.43009
#
# Velocity S-wave (km/s) = 2.43978 3.94709 3.28117
# Velocity P-wave (km/s) = 3.40587 6.31277 5.07203
#
# Compressibility (1/GPa) = 0.13714173
#
# Stress axis : x y z
#
# Youngs Moduli (GPa) = 35.84324 12.38122 64.31445
#
# Poissons Ratio (x) = -0.07983 0.67291
# Poissons Ratio (y) = -0.23112 -0.67388
# Poissons Ratio (z) = 0.37502 -0.12973
#
# Static dielectric constant tensor:
#      x y z
#    x 1.652570 0.077840 -0.019620 
#    y 0.077840 1.699480 -0.021880 
#    z -0.019620 -0.021880 1.701840 
# 
# From -- ./inp_files/178707.got.cif
#   From: 2010.05.17/outbox.cif.g08.bks.cpg/sg2_90_cif.got.tgz:178707.got - 2010.06.03 11:33:40.
