data_PCOD9037484
_publ_section_title
;
Structure prediction by ZEFSAII (Michael W. Deem and Ramdas Pophale) SiO2 
 PCOD9037484
Probable space group: P -1
;
_chemical_formula_sum "Si O2"
_cell_formula_units_Z 12
_cell_length_a 9.055777
_cell_length_b 8.855902
_cell_length_c 15.277814
_cell_angle_alpha 31.320277
_cell_angle_beta 71.106515
_cell_angle_gamma 70.379693
_cell_volume 598.213091
_symmetry_space_group_name_H-M "P -1"
_symmetry_group_IT_number 2
_symmetry_cell_setting 'triclinic'
loop_
_space_group_symop_operation_xyz
x,y,z
-x,-y,-z
loop_
_atom_site_type_symbol
_atom_site_label
_atom_site_fract_x
_atom_site_fract_y
_atom_site_fract_z
Si Si1 0.585318 0.171447 0.137842
Si Si2 0.535513 0.353506 0.660478
Si Si3 0.113699 0.631001 0.344395
Si Si4 0.558939 0.068200 0.549692
Si Si5 0.948324 0.162725 0.020215
Si Si6 0.102239 0.265917 0.345727
O O1 0.765592 0.156247 0.081920
O O2 0.503229 0.975285 0.180070
O O3 0.565266 0.017730 0.311725
O O4 0.500000 0.500000 0.000000
O O5 0.500000 0.500000 0.500000
O O6 0.711311 0.373610 0.649261
O O7 0.424782 0.585455 0.624737
O O8 0.109036 0.439547 0.350842
O O9 0.000000 0.500000 0.500000
O O10 0.049247 0.967630 0.168652
O O11 0.500000 0.000000 0.500000
O O12 0.720785 0.875338 0.637999
O O13 0.963825 0.500347 0.830787
O O14 0.000000 0.000000 0.000000
O O15 0.000000 0.000000 0.500000
#
# Coordination Sequence:
#
# PCOD9037484 Si02
#       6
#     2   2   2   2   2   2
#     4  11  23  44  71  96 137 178 229 287 340 405
#     4  10  23  40  67  98 132 179 222 278 340 404
#     4  11  23  43  69 100 138 180 227 278 347 411
#     4  11  22  43  67 100 134 177 234 276 342 411
#     4  10  24  45  66  99 137 179 228 284 343 405
#     4  11  25  43  67  98 139 182 227 287 342 407
#
# _framework density 20.059743000000001
#
# number of rings (size 3 to 8) (size 9 to 14) (size 15 to 20)
#    0.000    1.333    3.333    2.000    9.333    0.000 
#    3.000    5.833    0.000    0.000    0.000    0.000 
#    0.000    0.000    0.000    0.000    0.000    0.000 
#
# Total GULP energy -66949.844593 kJ/mol
# GULP energy per Si atom -5579.153716 kJ/mol
# Density = 2.001409 g / cm^3
# Si number density = 20.059743 Si / 1000 Ang^3
#
#
#
# Elastic Constant Matrix: (Units=GPa)
#
#
# Indices 1 2 3 4 5 6 
#
# 1 92.4485 33.7343 61.7232 -13.4931 14.2431 -5.9947
# 2 33.7343 104.7588 45.9205 -20.8706 -4.8309 -6.1294
# 3 61.7232 45.9205 150.2071 -25.3617 8.0379 -4.3603
# 4 -13.4931 -20.8706 -25.3617 46.7595 -6.9255 -3.9777
# 5 14.2431 -4.8309 8.0379 -6.9255 35.4721 -4.2921
# 6 -5.9947 -6.1294 -4.3603 -3.9777 -4.2921 41.9623
#
#
#
# Elastic Compliance Matrix: (Units=1/GPa)
#
#
# Indices 1 2 3 4 5 6 
#
# 1 0.016595 -0.003224 -0.005583 -0.000488 -0.005851 0.000675
# 2 -0.003224 0.012685 -0.001976 0.004519 0.004605 0.002086
# 3 -0.005583 -0.001976 0.010059 0.003034 0.000319 0.000279
# 4 -0.000488 0.004519 0.003034 0.026089 0.005697 0.003961
# 5 -0.005851 0.004605 0.000319 0.005697 0.032661 0.003751
# 6 0.000675 0.002086 0.000279 0.003961 0.003751 0.025020
#
#
# Mechanical properties :
#
#
# Convention : Reuss Voigt Hill
#
# Bulk Modulus (GPa) = 56.26668 70.01894 63.14281
# Shear Modulus (GPa) = 33.20068 38.57454 35.88761
#
# Velocity S-wave (km/s) = 4.07269 4.38994 4.23429
# Velocity P-wave (km/s) = 7.08705 7.78951 7.44656
#
# Compressibility (1/GPa) = 0.01777251
#
# Stress axis : x y z
#
# Youngs Moduli (GPa) = 60.25945 78.83456 99.41258
#
# Poissons Ratio (x) = 0.25416 0.55504
# Poissons Ratio (y) = 0.19427 0.19643
# Poissons Ratio (z) = 0.33644 0.15577
#
# Static dielectric constant tensor:
#      x y z
#    x 1.642610 -0.034220 0.019800 
#    y -0.034220 1.746570 -0.019360 
#    z 0.019800 -0.019360 1.736080 
# 
# From -- ./inp_files/144563.got.cif
#   From: 2010.05.17/outbox.cif.g08.bks.cpg/sg2_73_cif.got.tgz:144563.got - 2010.06.03 11:33:40.
