data_PCOD9037673
_publ_section_title
;
Structure prediction by ZEFSAII (Michael W. Deem and Ramdas Pophale) SiO2 
 PCOD9037673
Probable space group: P -1
;
_chemical_formula_sum "Si O2"
_cell_formula_units_Z 16
_cell_length_a 19.047192
_cell_length_b 9.290811
_cell_length_c 9.633722
_cell_angle_alpha 83.441724
_cell_angle_beta 28.142821
_cell_angle_gamma 83.488689
_cell_volume 798.559599
_symmetry_space_group_name_H-M "P -1"
_symmetry_group_IT_number 2
_symmetry_cell_setting 'triclinic'
loop_
_space_group_symop_operation_xyz
x,y,z
-x,-y,-z
loop_
_atom_site_type_symbol
_atom_site_label
_atom_site_fract_x
_atom_site_fract_y
_atom_site_fract_z
Si Si1 0.926692 0.110647 0.723933
Si Si2 0.207653 0.273851 0.305922
Si Si3 0.802391 0.408240 0.242425
Si Si4 0.531892 0.529279 0.278858
Si Si5 0.916779 0.457234 0.346067
Si Si6 0.717940 0.257221 0.872462
Si Si7 0.666808 0.023566 0.745855
Si Si8 0.871295 0.079467 0.128241
O O1 0.771812 0.171933 0.924426
O O2 0.052452 0.232307 0.508582
O O3 0.891196 0.031243 0.939976
O O4 0.000000 0.000000 0.500000
O O5 0.161284 0.391780 0.489126
O O6 0.263316 0.122938 0.293315
O O7 0.340709 0.350061 0.979873
O O8 0.627616 0.425185 0.515373
O O9 0.845883 0.418131 0.326535
O O10 0.867058 0.252572 0.099264
O O11 0.906353 0.525784 0.974929
O O12 0.500000 0.500000 0.500000
O O13 0.595768 0.381499 0.110633
O O14 0.864527 0.339428 0.558042
O O15 0.679120 0.150328 0.825623
O O16 0.736863 0.055917 0.470144
O O17 0.500000 0.000000 0.000000
O O18 0.000000 0.000000 0.000000
#
# Coordination Sequence:
#
# PCOD9037673 Si02
#       8
#     2   2   2   2   2   2   2   2
#     4  12  24  45  71 102 140 176 235 286 335 409
#     4  11  24  44  69  97 133 182 223 285 345 401
#     4  11  22  42  67 102 134 171 229 285 330 412
#     4  11  27  45  67 100 143 181 225 277 356 408
#     4  10  23  40  72  97 129 173 232 277 341 392
#     4  11  25  45  70 100 136 182 226 284 343 403
#     4  12  25  45  69 103 139 180 227 283 348 407
#     4  12  22  44  72  99 135 179 233 281 337 403
#
# _framework density 20.036076000000001
#
# number of rings (size 3 to 8) (size 9 to 14) (size 15 to 20)
#    0.000    0.750    5.000    1.500    3.500    2.000 
#    2.250    1.250    0.000    0.000    0.000    0.000 
#    0.000    0.000    0.000    0.000    0.000    0.000 
#
# Total GULP energy -89264.334752 kJ/mol
# GULP energy per Si atom -5579.020922 kJ/mol
# Density = 1.999047 g / cm^3
# Si number density = 20.036076 Si / 1000 Ang^3
#
#
#
# Elastic Constant Matrix: (Units=GPa)
#
#
# Indices 1 2 3 4 5 6 
#
# 1 92.7826 29.6506 60.8027 2.4701 4.3679 -3.9143
# 2 29.6506 74.1452 19.1173 10.6852 6.1266 3.8800
# 3 60.8027 19.1173 128.4970 -17.7174 8.0835 4.6664
# 4 2.4701 10.6852 -17.7174 33.3885 -0.8521 6.1335
# 5 4.3679 6.1266 8.0835 -0.8521 46.7662 2.3858
# 6 -3.9143 3.8800 4.6664 6.1335 2.3858 26.5022
#
#
#
# Elastic Compliance Matrix: (Units=1/GPa)
#
#
# Indices 1 2 3 4 5 6 
#
# 1 0.018733 -0.004579 -0.009247 -0.006013 0.000010 0.006456
# 2 -0.004579 0.016488 -0.000834 -0.005125 -0.001599 -0.001613
# 3 -0.009247 -0.000834 0.013837 0.009326 -0.000955 -0.005752
# 4 -0.006013 -0.005125 0.009326 0.039006 0.000887 -0.010887
# 5 0.000010 -0.001599 -0.000955 0.000887 0.021863 -0.001770
# 6 0.006456 -0.001613 -0.005752 -0.010887 -0.001770 0.042614
#
#
# Mechanical properties :
#
#
# Convention : Reuss Voigt Hill
#
# Bulk Modulus (GPa) = 50.66312 57.17401 53.91856
# Shear Modulus (GPa) = 26.53348 33.72169 30.12758
#
# Velocity S-wave (km/s) = 3.64302 4.10695 3.88192
# Velocity P-wave (km/s) = 6.56021 7.14751 6.86014
#
# Compressibility (1/GPa) = 0.01973823
#
# Stress axis : x y z
#
# Youngs Moduli (GPa) = 53.38145 60.64895 72.27161
#
# Poissons Ratio (x) = 0.27772 0.66830
# Poissons Ratio (y) = 0.24444 0.06025
# Poissons Ratio (z) = 0.49362 0.05056
#
# Static dielectric constant tensor:
#      x y z
#    x 1.702940 -0.022820 -0.007920 
#    y -0.022820 1.679750 -0.078510 
#    z -0.007920 -0.078510 1.661640 
# 
# From -- ./inp_files/184342.got.cif
#   From: 2010.05.17/outbox.cif.g08.bks.cpg/sg2_93_cif.got.tgz:184342.got - 2010.06.03 11:33:40.
