data_PCOD9037247
_publ_section_title
;
Structure prediction by ZEFSAII (Michael W. Deem and Ramdas Pophale) SiO2 
 PCOD9037247
Probable space group: P -1
;
_chemical_formula_sum "Si O2"
_cell_formula_units_Z 12
_cell_length_a 9.081651
_cell_length_b 7.573070
_cell_length_c 18.108708
_cell_angle_alpha 101.578954
_cell_angle_beta 42.450915
_cell_angle_gamma 129.410572
_cell_volume 557.352410
_symmetry_space_group_name_H-M "P -1"
_symmetry_group_IT_number 2
_symmetry_cell_setting 'triclinic'
loop_
_space_group_symop_operation_xyz
x,y,z
-x,-y,-z
loop_
_atom_site_type_symbol
_atom_site_label
_atom_site_fract_x
_atom_site_fract_y
_atom_site_fract_z
Si Si1 0.189946 0.034971 0.001210
Si Si2 0.125168 0.233301 0.631404
Si Si3 0.116207 0.734386 0.123913
Si Si4 0.034582 0.762478 0.826665
Si Si5 0.877648 0.184304 0.374537
Si Si6 0.680489 0.227395 0.716168
O O1 0.506991 0.154842 0.854030
O O2 0.202025 0.216661 0.063792
O O3 0.005902 0.769132 0.092905
O O4 0.000000 0.000000 0.000000
O O5 0.500000 0.500000 0.500000
O O6 0.903573 0.534876 0.641931
O O7 0.911380 0.199442 0.644801
O O8 0.067593 0.985024 0.633225
O O9 0.966155 0.737265 0.252143
O O10 0.052128 0.483132 0.127210
O O11 0.500000 0.000000 0.000000
O O12 0.034057 0.747858 0.738324
O O13 0.394580 0.026303 0.746409
O O14 0.500000 0.000000 0.500000
#
# Coordination Sequence:
#
# PCOD9037247 Si02
#       6
#     2   2   2   2   2   2
#     4  10  23  40  64 102 135 170 224 273 336 395
#     4  12  24  45  68  98 137 177 227 281 336 404
#     4  12  23  42  70 100 136 182 221 276 344 393
#     4  11  25  43  68 100 139 173 226 280 333 403
#     4  12  24  45  69  92 135 178 228 278 333 405
#     4  11  25  43  66 102 132 178 226 274 343 395
#
# _framework density 21.530363000000001
#
# number of rings (size 3 to 8) (size 9 to 14) (size 15 to 20)
#    0.000    0.667    6.667    0.000    2.333    7.333 
#    0.000    1.667    0.000    0.000    0.000    0.000 
#    0.000    0.000    0.000    0.000    0.000    0.000 
#
# Total GULP energy -67079.632714 kJ/mol
# GULP energy per Si atom -5589.969393 kJ/mol
# Density = 2.148136 g / cm^3
# Si number density = 21.530363 Si / 1000 Ang^3
#
#
#
# Elastic Constant Matrix: (Units=GPa)
#
#
# Indices 1 2 3 4 5 6 
#
# 1 78.1343 33.8552 -4.9175 -13.0460 -13.3357 -19.5693
# 2 33.8552 156.4618 8.3961 -28.3470 -14.2047 -33.5448
# 3 -4.9175 8.3961 67.6069 -5.2241 -10.8894 -2.8164
# 4 -13.0460 -28.3470 -5.2241 35.3630 -2.9779 -5.8220
# 5 -13.3357 -14.2047 -10.8894 -2.9779 34.9654 -1.8129
# 6 -19.5693 -33.5448 -2.8164 -5.8220 -1.8129 52.3092
#
#
#
# Elastic Compliance Matrix: (Units=1/GPa)
#
#
# Indices 1 2 3 4 5 6 
#
# 1 0.018407 0.000368 0.003992 0.009939 0.009715 0.008780
# 2 0.000368 0.010502 0.000850 0.010552 0.006001 0.008301
# 3 0.003992 0.000850 0.016857 0.005942 0.007825 0.003879
# 4 0.009939 0.010552 0.005942 0.045203 0.014625 0.016343
# 5 0.009715 0.006001 0.007825 0.014625 0.038989 0.010883
# 6 0.008780 0.008301 0.003879 0.016343 0.010883 0.030130
#
#
# Mechanical properties :
#
#
# Convention : Reuss Voigt Hill
#
# Bulk Modulus (GPa) = 17.79819 41.87450 29.83635
# Shear Modulus (GPa) = 29.69172 42.18547 35.93859
#
# Velocity S-wave (km/s) = 3.71760 4.43125 4.09002
# Velocity P-wave (km/s) = 5.16836 6.75815 6.01600
#
# Compressibility (1/GPa) = 0.05618548
#
# Stress axis : x y z
#
# Youngs Moduli (GPa) = 54.32790 95.21772 59.32191
#
# Poissons Ratio (x) = -0.03503 -0.23679
# Poissons Ratio (y) = -0.01999 -0.05043
# Poissons Ratio (z) = -0.21685 -0.08095
#
# Static dielectric constant tensor:
#      x y z
#    x 1.838570 -0.022310 -0.051010 
#    y -0.022310 1.722610 -0.072330 
#    z -0.051010 -0.072330 1.673460 
# 
# From -- ./inp_files/48842.got.cif
#   From: 2010.05.17/outbox.cif.g08.bks.cpg/sg2_25_cif.got.tgz:48842.got - 2010.06.03 11:33:40.
