data_PCOD9037720
_publ_section_title
;
Structure prediction by ZEFSAII (Michael W. Deem and Ramdas Pophale) SiO2 
 PCOD9037720
Probable space group: P -1
;
_chemical_formula_sum "Si O2"
_cell_formula_units_Z 13
_cell_length_a 6.822048
_cell_length_b 17.309615
_cell_length_c 9.983830
_cell_angle_alpha 44.575725
_cell_angle_beta 44.884841
_cell_angle_gamma 53.020043
_cell_volume 572.652762
_symmetry_space_group_name_H-M "P -1"
_symmetry_group_IT_number 2
_symmetry_cell_setting 'triclinic'
loop_
_space_group_symop_operation_xyz
x,y,z
-x,-y,-z
loop_
_atom_site_type_symbol
_atom_site_label
_atom_site_fract_x
_atom_site_fract_y
_atom_site_fract_z
Si Si1 0.060680 0.974028 0.197286
Si Si2 0.224134 0.384701 0.556801
Si Si3 0.064924 0.735023 0.371350
Si Si4 0.714501 0.732695 0.043442
Si Si5 0.116446 0.612032 0.775345
Si Si6 0.500000 0.000000 0.500000
Si Si7 0.601191 0.993100 0.768798
O O1 0.981294 0.858164 0.326510
O O2 0.221293 0.942876 0.298585
O O3 0.277864 0.018554 0.942803
O O4 0.761126 0.056306 0.247589
O O5 0.206701 0.342006 0.770027
O O6 0.545881 0.399476 0.355315
O O7 0.000000 0.500000 0.500000
O O8 0.137747 0.293770 0.609945
O O9 0.390360 0.721892 0.180851
O O10 0.059331 0.650450 0.602339
O O11 0.703185 0.862642 0.919486
O O12 0.932707 0.699234 0.858787
O O13 0.000000 0.500000 0.000000
O O14 0.377189 0.993305 0.414937
#
# Coordination Sequence:
#
# PCOD9037720 Si02
#       7
#     2   2   2   2   2   1   2
#     4  10  23  41  61  90 128 165 205 254 306 363
#     4  11  24  41  64  92 123 161 206 257 311 369
#     4  10  23  42  62  90 125 163 206 254 309 368
#     4  10  23  42  62  89 126 163 203 254 307 365
#     4  11  23  40  64  92 123 159 204 258 313 370
#     4  12  22  36  64  92 120 162 212 252 298 362
#     4  10  23  42  62  90 128 167 204 253 308 362
#
# _framework density 22.701367999999999
#
# number of rings (size 3 to 8) (size 9 to 14) (size 15 to 20)
#    0.000    1.538    0.000    3.692    0.000   14.769 
#    0.000    0.000    0.000    0.000    0.000    0.000 
#    0.000    0.000    0.000    0.000    0.000    0.000 
#
# Total GULP energy -72481.631295 kJ/mol
# GULP energy per Si atom -5575.510100 kJ/mol
# Density = 2.264970 g / cm^3
# Si number density = 22.701368 Si / 1000 Ang^3
#
#
#
# Elastic Constant Matrix: (Units=GPa)
#
#
# Indices 1 2 3 4 5 6 
#
# 1 93.9898 -8.1454 38.6150 -15.6609 12.9273 15.5147
# 2 -8.1454 16.9555 44.2330 -49.5856 17.0058 0.4705
# 3 38.6150 44.2330 79.3753 58.9384 -13.8838 -10.1020
# 4 -15.6609 -49.5856 58.9384 -45.2698 32.6682 -4.9904
# 5 12.9273 17.0058 -13.8838 32.6682 26.5840 2.6421
# 6 15.5147 0.4705 -10.1020 -4.9904 2.6421 35.7603
#
#
#
# Elastic Compliance Matrix: (Units=1/GPa)
#
#
# Indices 1 2 3 4 5 6 
#
# 1 0.011716 -0.001544 -0.002286 -0.004474 0.000226 -0.006349
# 2 -0.001544 0.016077 0.001155 -0.011551 0.005385 -0.001225
# 3 -0.002286 0.001155 0.008031 0.006606 -0.003995 0.004462
# 4 -0.004474 -0.011551 0.006606 0.004952 0.006515 0.004169
# 5 0.000226 0.005385 -0.003995 0.006515 0.024186 -0.002175
# 6 -0.006349 -0.001225 0.004462 0.004169 -0.002175 0.032738
#
#
# Mechanical properties :
#
#
# Convention : Reuss Voigt Hill
#
# Bulk Modulus (GPa) = 32.81525 37.74731 35.28128
# Shear Modulus (GPa) = 44.16684 11.12276 27.64480
#
# Velocity S-wave (km/s) = 4.41563 2.21591 3.49343
# Velocity P-wave (km/s) = 6.36268 4.81776 5.64334
#
# Compressibility (1/GPa) = 0.03047364
#
# Stress axis : x y z
#
# Youngs Moduli (GPa) = 85.35256 62.20101 124.52501
#
# Poissons Ratio (x) = 0.09605 0.28460
# Poissons Ratio (y) = 0.13181 -0.14380
# Poissons Ratio (z) = 0.19508 -0.07183
#
# Static dielectric constant tensor:
#      x y z
#    x 1.862720 -0.040050 -0.022640 
#    y -0.040050 1.952750 0.028970 
#    z -0.022640 0.028970 1.790160 
# 
# From -- ./inp_files/34886.got.cif
#   From: 2010.05.17/outbox.cif.g08.bks.cpg/sg2_18_cif.got.tgz:34886.got - 2010.06.03 11:33:40.
