data_PCOD9037208
_publ_section_title
;
Structure prediction by ZEFSAII (Michael W. Deem and Ramdas Pophale) SiO2 
 PCOD9037208
Probable space group: P -1
;
_chemical_formula_sum "Si O2"
_cell_formula_units_Z 14
_cell_length_a 23.457993
_cell_length_b 14.389451
_cell_length_c 14.581529
_cell_angle_alpha 34.445043
_cell_angle_beta 22.548457
_cell_angle_gamma 21.526182
_cell_volume 671.434474
_symmetry_space_group_name_H-M "P -1"
_symmetry_group_IT_number 2
_symmetry_cell_setting 'triclinic'
loop_
_space_group_symop_operation_xyz
x,y,z
-x,-y,-z
loop_
_atom_site_type_symbol
_atom_site_label
_atom_site_fract_x
_atom_site_fract_y
_atom_site_fract_z
Si Si1 0.093486 0.686740 0.060331
Si Si2 0.296486 0.185863 0.545635
Si Si3 0.041225 0.117061 0.411329
Si Si4 0.972591 0.916970 0.249580
Si Si5 0.692150 0.439574 0.815242
Si Si6 0.207522 0.360097 0.734031
Si Si7 0.404212 0.902224 0.192927
O O1 0.942216 0.660890 0.274062
O O2 0.973790 0.845831 0.203261
O O3 0.366255 0.410274 0.893182
O O4 0.068344 0.853794 0.887538
O O5 0.347337 0.332930 0.327114
O O6 0.238700 0.216718 0.714942
O O7 0.526154 0.880193 0.426584
O O8 0.920449 0.174682 0.638872
O O9 0.878995 0.396074 0.379706
O O10 0.281833 0.989055 0.201766
O O11 0.000000 0.000000 0.500000
O O12 0.236502 0.656502 0.108967
O O13 0.776623 0.997618 0.538774
O O14 0.500000 0.500000 0.000000
O O15 0.000000 0.500000 0.000000
O O16 0.500000 0.000000 0.000000
#
# Coordination Sequence:
#
# PCOD9037208 Si02
#       7
#     2   2   2   2   2   2   2
#     4  11  24  42  70  94 135 171 219 275 325 396
#     4  10  24  42  63  99 127 171 226 266 324 395
#     4  10  24  40  62  98 126 167 223 266 325 389
#     4  10  25  42  64 101 125 174 220 268 332 386
#     4  10  23  41  65  90 132 169 211 273 327 385
#     4  10  23  40  63  93 133 172 215 268 329 383
#     4  11  24  45  66  93 135 175 222 269 326 402
#
# _framework density 20.850878999999999
#
# number of rings (size 3 to 8) (size 9 to 14) (size 15 to 20)
#    0.000    1.714    0.000    3.000   10.000    6.857 
#    0.000    0.000    0.000    0.000    0.000    0.000 
#    0.000    0.000    0.000    0.000    0.000    0.000 
#
# Total GULP energy -77940.140286 kJ/mol
# GULP energy per Si atom -5567.152878 kJ/mol
# Density = 2.080342 g / cm^3
# Si number density = 20.850879 Si / 1000 Ang^3
#
#
#
# Elastic Constant Matrix: (Units=GPa)
#
#
# Indices 1 2 3 4 5 6 
#
# 1 73.7941 36.2332 46.2839 -3.7427 -16.5685 -8.5269
# 2 36.2332 107.0978 40.4909 3.0015 -7.8675 -12.8738
# 3 46.2839 40.4909 100.0202 -0.3515 -16.2064 1.8885
# 4 -3.7427 3.0015 -0.3515 36.2746 3.2086 0.8986
# 5 -16.5685 -7.8675 -16.2064 3.2086 39.6632 10.2240
# 6 -8.5269 -12.8738 1.8885 0.8986 10.2240 26.5548
#
#
#
# Elastic Compliance Matrix: (Units=1/GPa)
#
#
# Indices 1 2 3 4 5 6 
#
# 1 0.021866 -0.003583 -0.008122 0.002028 0.003827 0.004320
# 2 -0.003583 0.012652 -0.003915 -0.001425 -0.002043 0.006096
# 3 -0.008122 -0.003915 0.016187 -0.000563 0.004378 -0.007324
# 4 0.002028 -0.001425 -0.000563 0.028061 -0.001877 -0.000226
# 5 0.003827 -0.002043 0.004378 -0.001877 0.031472 -0.012127
# 6 0.004320 0.006096 -0.007324 -0.000226 -0.012127 0.047198
#
#
# Mechanical properties :
#
#
# Convention : Reuss Voigt Hill
#
# Bulk Modulus (GPa) = 51.37547 58.54757 54.96152
# Shear Modulus (GPa) = 25.61920 31.02547 28.32233
#
# Velocity S-wave (km/s) = 3.50907 3.86161 3.68955
# Velocity P-wave (km/s) = 6.41179 6.92985 6.67585
#
# Compressibility (1/GPa) = 0.01946454
#
# Stress axis : x y z
#
# Youngs Moduli (GPa) = 45.73268 79.03612 61.77797
#
# Poissons Ratio (x) = 0.28322 0.50177
# Poissons Ratio (y) = 0.16388 0.24186
# Poissons Ratio (z) = 0.37145 0.30942
#
# Static dielectric constant tensor:
#      x y z
#    x 1.913550 -0.045950 0.008260 
#    y -0.045950 1.799900 0.053990 
#    z 0.008260 0.053990 1.887840 
# 
# From -- ./inp_files/257303.got.cif
#   From: 2010.05.17/outbox.cif.g08.bks.cpg/sg2_129_cif.got.tgz:257303.got - 2010.06.03 11:33:40.
