data_PCOD9037943
_publ_section_title
;
Structure prediction by ZEFSAII (Michael W. Deem and Ramdas Pophale) SiO2 
 PCOD9037943
Probable space group: P -1
;
_chemical_formula_sum "Si O2"
_cell_formula_units_Z 14
_cell_length_a 7.338749
_cell_length_b 10.808907
_cell_length_c 13.040874
_cell_angle_alpha 40.694239
_cell_angle_beta 118.551625
_cell_angle_gamma 96.628374
_cell_volume 534.553996
_symmetry_space_group_name_H-M "P -1"
_symmetry_group_IT_number 2
_symmetry_cell_setting 'triclinic'
loop_
_space_group_symop_operation_xyz
x,y,z
-x,-y,-z
loop_
_atom_site_type_symbol
_atom_site_label
_atom_site_fract_x
_atom_site_fract_y
_atom_site_fract_z
Si Si1 0.312918 0.253814 0.892009
Si Si2 0.172036 0.686536 0.875744
Si Si3 0.458782 0.522881 0.626625
Si Si4 0.696091 0.788491 0.307770
Si Si5 0.483032 0.785250 0.741114
Si Si6 0.776843 0.036214 0.649278
Si Si7 0.083603 0.416965 0.305093
O O1 0.430291 0.406189 0.795355
O O2 0.500645 0.977418 0.888055
O O3 0.197025 0.241521 0.759145
O O4 0.132000 0.366367 0.860216
O O5 0.030029 0.848849 0.823801
O O6 0.983120 0.690131 0.739230
O O7 0.346708 0.755174 0.819767
O O8 0.302353 0.461695 0.316763
O O9 0.578087 0.626176 0.374050
O O10 0.687209 0.559752 0.908528
O O11 0.266034 0.762082 0.421150
O O12 0.864381 0.724418 0.489044
O O13 0.598381 0.942661 0.692179
O O14 0.309874 0.868735 0.546986
#
# Coordination Sequence:
#
# PCOD9037943 Si02
#       7
#     2   2   2   2   2   2   2
#     4   9  22  44  65  93 132 170 211 268 321 376
#     4  11  25  42  67  97 130 174 217 263 326 380
#     4  10  23  41  65 101 130 166 216 265 319 388
#     4   9  22  47  65  95 135 165 216 270 318 390
#     4  10  23  44  63  93 131 169 222 268 307 386
#     4  11  22  43  68  93 133 171 213 266 326 379
#     4  12  22  40  70  97 126 172 216 265 326 384
#
# _framework density 26.190058000000001
#
# number of rings (size 3 to 8) (size 9 to 14) (size 15 to 20)
#    0.857    0.857    0.000    4.286    0.000    4.000 
#    0.000   11.429    0.000    0.000    0.000    0.000 
#    0.000    0.000    0.000    0.000    0.000    0.000 
#
# Total GULP energy -78554.865985 kJ/mol
# GULP energy per Si atom -5611.061856 kJ/mol
# Density = 2.613045 g / cm^3
# Si number density = 26.190058 Si / 1000 Ang^3
#
#
#
# Elastic Constant Matrix: (Units=GPa)
#
#
# Indices 1 2 3 4 5 6 
#
# 1 123.2372 61.0772 24.1021 -22.9425 -4.3138 -0.9523
# 2 61.0772 149.0379 46.6317 -38.4217 7.7796 -5.1637
# 3 24.1021 46.6317 83.4343 -13.7212 6.2903 11.3064
# 4 -22.9425 -38.4217 -13.7212 56.0794 -2.0569 2.3676
# 5 -4.3138 7.7796 6.2903 -2.0569 36.6236 -0.5064
# 6 -0.9523 -5.1637 11.3064 2.3676 -0.5064 37.6384
#
#
#
# Elastic Compliance Matrix: (Units=1/GPa)
#
#
# Indices 1 2 3 4 5 6 
#
# 1 0.010517 -0.003753 -0.000837 0.001613 0.002270 -0.000068
# 2 -0.003753 0.011068 -0.004520 0.004775 -0.001715 0.002458
# 3 -0.000837 -0.004520 0.015724 0.000568 -0.001882 -0.005426
# 4 0.001613 0.004775 0.000568 0.021949 0.000299 -0.000851
# 5 0.002270 -0.001715 -0.001882 0.000299 0.028287 0.000749
# 6 -0.000068 0.002458 -0.005426 -0.000851 0.000749 0.028598
#
#
# Mechanical properties :
#
#
# Convention : Reuss Voigt Hill
#
# Bulk Modulus (GPa) = 52.38843 68.81460 60.60151
# Shear Modulus (GPa) = 35.52993 40.99484 38.26238
#
# Velocity S-wave (km/s) = 3.68723 3.96066 3.82639
# Velocity P-wave (km/s) = 6.17852 6.87371 6.53536
#
# Compressibility (1/GPa) = 0.01908819
#
# Stress axis : x y z
#
# Youngs Moduli (GPa) = 95.08004 90.35310 63.59619
#
# Poissons Ratio (x) = 0.33913 0.05324
# Poissons Ratio (y) = 0.35687 0.28746
# Poissons Ratio (z) = 0.07959 0.40841
#
# Static dielectric constant tensor:
#      x y z
#    x 2.028070 0.003660 -0.000450 
#    y 0.003660 2.078790 0.060620 
#    z -0.000450 0.060620 2.071680 
# 
# From -- ./inp_files/386694.got.cif
#   From: 2010.05.17/outbox.cif.g08.bks.cpg/sg2_194_cif.got.tgz:386694.got - 2010.06.03 11:33:40.
