data_PCOD9037752
_publ_section_title
;
Structure prediction by ZEFSAII (Michael W. Deem and Ramdas Pophale) SiO2 
 PCOD9037752
Probable space group: P -1
;
_chemical_formula_sum "Si O2"
_cell_formula_units_Z 16
_cell_length_a 5.274068
_cell_length_b 18.003367
_cell_length_c 24.158903
_cell_angle_alpha 21.976477
_cell_angle_beta 103.395904
_cell_angle_gamma 92.379063
_cell_volume 734.351380
_symmetry_space_group_name_H-M "P -1"
_symmetry_group_IT_number 2
_symmetry_cell_setting 'triclinic'
loop_
_space_group_symop_operation_xyz
x,y,z
-x,-y,-z
loop_
_atom_site_type_symbol
_atom_site_label
_atom_site_fract_x
_atom_site_fract_y
_atom_site_fract_z
Si Si1 0.348723 0.173716 0.793466
Si Si2 0.059371 0.946677 0.332817
Si Si3 0.948535 0.785379 0.954827
Si Si4 0.782711 0.068437 0.525652
Si Si5 0.450995 0.502848 0.375451
Si Si6 0.910581 0.714891 0.679339
Si Si7 0.943422 0.117219 0.990151
Si Si8 0.687355 0.778816 0.365056
O O1 0.333854 0.392356 0.670970
O O2 0.203910 0.228850 0.686793
O O3 0.206560 0.044926 0.908966
O O4 0.704720 0.017426 0.910274
O O5 0.068062 0.006908 0.354885
O O6 0.381505 0.738244 0.479423
O O7 0.859416 0.833144 0.383923
O O8 0.964160 0.152248 0.142763
O O9 0.130281 0.785157 0.018501
O O10 0.632906 0.000275 0.802053
O O11 0.952035 0.547910 0.118578
O O12 0.425536 0.190489 0.425271
O O13 0.892605 0.234383 0.389346
O O14 0.884119 0.858730 0.633701
O O15 0.339492 0.442398 0.468118
O O16 0.204366 0.680593 0.200245
#
# Coordination Sequence:
#
# PCOD9037752 Si02
#       8
#     2   2   2   2   2   2   2   2
#     4  11  24  44  62  88 129 165 216 265 316 369
#     4  11  24  40  63  93 130 166 213 254 315 376
#     4  10  23  41  62  92 128 169 206 259 315 373
#     4  10  24  43  69  99 129 160 208 260 306 381
#     4  11  25  39  64  91 121 174 212 267 314 368
#     4  10  23  45  70  98 126 165 206 255 317 367
#     4  11  24  41  63  93 122 163 216 269 312 369
#     4  10  24  41  59  93 127 171 212 259 311 377
#
# _framework density 21.787936999999999
#
# number of rings (size 3 to 8) (size 9 to 14) (size 15 to 20)
#    0.000    1.500    1.250    1.875   10.500    2.000 
#    0.000    0.625    0.000    0.000    0.000    0.000 
#    0.000    0.000    0.000    0.000    0.000    0.000 
#
# Total GULP energy -89458.235467 kJ/mol
# GULP energy per Si atom -5591.139717 kJ/mol
# Density = 2.173835 g / cm^3
# Si number density = 21.787937 Si / 1000 Ang^3
#
#
#
# Elastic Constant Matrix: (Units=GPa)
#
#
# Indices 1 2 3 4 5 6 
#
# 1 84.1332 15.0821 32.5045 3.9605 -16.5276 16.0410
# 2 15.0821 114.5333 43.0066 24.9403 -10.2484 10.8778
# 3 32.5045 43.0066 142.6610 0.2564 -31.2599 8.4770
# 4 3.9605 24.9403 0.2564 27.6840 9.1729 -3.1246
# 5 -16.5276 -10.2484 -31.2599 9.1729 28.5046 1.1958
# 6 16.0410 10.8778 8.4770 -3.1246 1.1958 21.2938
#
#
#
# Elastic Compliance Matrix: (Units=1/GPa)
#
#
# Indices 1 2 3 4 5 6 
#
# 1 0.019229 0.004337 -0.000658 -0.014670 0.017529 -0.019576
# 2 0.004337 0.016151 -0.001958 -0.021328 0.013652 -0.014635
# 3 -0.000658 -0.001958 0.010445 -0.002392 0.011292 -0.003647
# 4 -0.014670 -0.021328 -0.002392 0.076486 -0.044948 0.036646
# 5 0.017529 0.013652 0.011292 -0.044948 0.078499 -0.035678
# 6 -0.019576 -0.014635 -0.003647 0.036646 -0.035678 0.078018
#
#
# Mechanical properties :
#
#
# Convention : Reuss Voigt Hill
#
# Bulk Modulus (GPa) = 20.29721 58.05710 39.17716
# Shear Modulus (GPa) = 17.13453 32.21210 24.67332
#
# Velocity S-wave (km/s) = 2.80737 3.84922 3.36881
# Velocity P-wave (km/s) = 4.45471 6.81613 5.75778
#
# Compressibility (1/GPa) = 0.04926786
#
# Stress axis : x y z
#
# Youngs Moduli (GPa) = 52.00414 61.91660 95.73866
#
# Poissons Ratio (x) = -0.26854 0.06301
# Poissons Ratio (y) = -0.22555 0.18742
# Poissons Ratio (z) = 0.03423 0.12121
#
# Static dielectric constant tensor:
#      x y z
#    x 1.852140 -0.012380 0.026760 
#    y -0.012380 1.787210 0.011580 
#    z 0.026760 0.011580 1.784020 
# 
# From -- ./inp_files/44520.got.cif
#   From: 2010.05.17/outbox.cif.g08.bks.cpg/sg2_23_cif.got.tgz:44520.got - 2010.06.03 11:33:40.
