data_PCOD9037709
_publ_section_title
;
Structure prediction by ZEFSAII (Michael W. Deem and Ramdas Pophale) SiO2 
 PCOD9037709
Probable space group: P -1
;
_chemical_formula_sum "Si O2"
_cell_formula_units_Z 14
_cell_length_a 8.847878
_cell_length_b 6.351295
_cell_length_c 13.374630
_cell_angle_alpha 89.476125
_cell_angle_beta 73.213538
_cell_angle_gamma 88.558977
_cell_volume 719.337746
_symmetry_space_group_name_H-M "P -1"
_symmetry_group_IT_number 2
_symmetry_cell_setting 'triclinic'
loop_
_space_group_symop_operation_xyz
x,y,z
-x,-y,-z
loop_
_atom_site_type_symbol
_atom_site_label
_atom_site_fract_x
_atom_site_fract_y
_atom_site_fract_z
Si Si1 0.533663 0.448030 0.689252
Si Si2 0.474477 0.693004 0.082378
Si Si3 0.751885 0.284062 0.308749
Si Si4 0.757108 0.000394 0.982829
Si Si5 0.821721 0.528419 0.497700
Si Si6 0.644472 0.881726 0.414554
Si Si7 0.954373 0.306378 0.082518
O O1 0.540063 0.397952 0.804275
O O2 0.426775 0.656219 0.689624
O O3 0.704460 0.464560 0.608480
O O4 0.438635 0.276968 0.644617
O O5 0.621031 0.850565 0.050209
O O6 0.500000 0.500000 0.000000
O O7 0.323669 0.838845 0.080733
O O8 0.791743 0.384393 0.407171
O O9 0.866203 0.370049 0.201066
O O10 0.751096 0.036166 0.328671
O O11 0.835891 0.151218 0.048715
O O12 0.892371 0.837829 0.920222
O O13 0.757732 0.756481 0.470928
O O14 0.000000 0.500000 0.500000
O O15 0.500000 0.000000 0.500000
O O16 0.000000 0.500000 0.000000
#
# Coordination Sequence:
#
# PCOD9037709 Si02
#       7
#     2   2   2   2   2   2   2
#     4  11  22  40  65  90 123 164 214 255 307 386
#     4  11  23  41  64  92 130 168 209 264 319 372
#     4  11  22  41  66  89 120 171 209 251 318 376
#     4  10  23  41  60  95 126 162 219 256 314 391
#     4  11  25  40  59  96 129 156 207 264 316 375
#     4  11  20  43  67  87 120 166 215 254 307 378
#     4  11  23  41  65  91 128 168 211 265 318 373
#
# _framework density 19.462347000000001
#
# number of rings (size 3 to 8) (size 9 to 14) (size 15 to 20)
#    0.000    1.143    2.857    4.286    0.000    8.571 
#    2.571    0.000    0.000    0.000    0.000    0.000 
#    0.000    0.000    0.000    0.000    0.000    0.000 
#
# Total GULP energy -78188.395068 kJ/mol
# GULP energy per Si atom -5584.885362 kJ/mol
# Density = 1.941805 g / cm^3
# Si number density = 19.462347 Si / 1000 Ang^3
#
#
#
# Elastic Constant Matrix: (Units=GPa)
#
#
# Indices 1 2 3 4 5 6 
#
# 1 152.3399 41.1933 60.7918 -15.7993 8.7847 -23.4421
# 2 41.1933 98.1244 41.2263 -19.8784 4.3642 -6.2143
# 3 60.7918 41.2263 141.8893 -21.0367 2.2765 -4.7547
# 4 -15.7993 -19.8784 -21.0367 26.4565 -5.0026 -4.9905
# 5 8.7847 4.3642 2.2765 -5.0026 19.5629 -6.2372
# 6 -23.4421 -6.2143 -4.7547 -4.9905 -6.2372 27.5602
#
#
#
# Elastic Compliance Matrix: (Units=1/GPa)
#
#
# Indices 1 2 3 4 5 6 
#
# 1 0.009816 -0.001598 -0.002890 0.003881 -0.000119 0.008166
# 2 -0.001598 0.013534 -0.001898 0.008509 0.001101 0.003155
# 3 -0.002890 -0.001898 0.009517 0.004771 0.001846 0.000037
# 4 0.003881 0.008509 0.004771 0.057321 0.016919 0.020251
# 5 -0.000119 0.001101 0.001846 0.016919 0.060530 0.017228
# 6 0.008166 0.003155 0.000037 0.020251 0.017228 0.051513
#
#
# Mechanical properties :
#
#
# Convention : Reuss Voigt Hill
#
# Bulk Modulus (GPa) = 49.76682 75.41959 62.59320
# Shear Modulus (GPa) = 22.55295 31.32539 26.93917
#
# Velocity S-wave (km/s) = 3.40781 4.01626 3.72448
# Velocity P-wave (km/s) = 6.41175 7.76806 7.12226
#
# Compressibility (1/GPa) = 0.02009371
#
# Stress axis : x y z
#
# Youngs Moduli (GPa) = 101.87890 73.88820 105.08000
#
# Poissons Ratio (x) = 0.11805 0.30371
# Poissons Ratio (y) = 0.16277 0.19947
# Poissons Ratio (z) = 0.29446 0.14026
#
# Static dielectric constant tensor:
#      x y z
#    x 1.678730 -0.025020 -0.014110 
#    y -0.025020 1.813070 0.037140 
#    z -0.014110 0.037140 1.676160 
# 
# From -- ./inp_files/37720.got.cif
#   From: 2010.05.17/outbox.cif.g08.bks.cpg/sg2_19_cif.got.tgz:37720.got - 2010.06.03 11:33:40.
