data_PCOD9037877
_publ_section_title
;
Structure prediction by ZEFSAII (Michael W. Deem and Ramdas Pophale) SiO2 
 PCOD9037877
Probable space group: P -1
;
_chemical_formula_sum "Si O2"
_cell_formula_units_Z 16
_cell_length_a 8.863663
_cell_length_b 11.953811
_cell_length_c 8.225238
_cell_angle_alpha 62.239114
_cell_angle_beta 98.538809
_cell_angle_gamma 116.659308
_cell_volume 687.185311
_symmetry_space_group_name_H-M "P -1"
_symmetry_group_IT_number 2
_symmetry_cell_setting 'triclinic'
loop_
_space_group_symop_operation_xyz
x,y,z
-x,-y,-z
loop_
_atom_site_type_symbol
_atom_site_label
_atom_site_fract_x
_atom_site_fract_y
_atom_site_fract_z
Si Si1 0.819539 0.703627 0.490573
Si Si2 0.518888 0.724789 0.597408
Si Si3 0.399002 0.023380 0.753074
Si Si4 0.709850 0.720070 0.944365
Si Si5 0.107335 0.507898 0.171789
Si Si6 0.180761 0.472312 0.704711
Si Si7 0.036981 0.990779 0.820608
Si Si8 0.543039 0.218271 0.946138
O O1 0.632168 0.687535 0.511165
O O2 0.879586 0.636065 0.692573
O O3 0.818434 0.613837 0.395142
O O4 0.935660 0.865953 0.361388
O O5 0.574880 0.889229 0.466789
O O6 0.574498 0.686075 0.803526
O O7 0.321659 0.630873 0.604983
O O8 0.209023 0.974884 0.824628
O O9 0.441209 0.891314 0.849243
O O10 0.520319 0.139149 0.824192
O O11 0.622526 0.759359 0.056583
O O12 0.761581 0.600095 0.090815
O O13 0.875794 0.855759 0.825214
O O14 0.000457 0.535897 0.278588
O O15 0.293317 0.635068 0.114808
O O16 0.000000 0.500000 0.000000
O O17 0.000000 0.000000 0.000000
#
# Coordination Sequence:
#
# PCOD9037877 Si02
#       8
#     2   2   2   2   2   2   2   2
#     4  11  24  41  67  91 123 168 209 259 307 375
#     4  11  24  41  62  95 127 159 213 255 318 366
#     4  10  23  41  64  92 123 165 205 265 302 373
#     4  12  23  39  67  92 125 170 200 263 311 370
#     4  12  26  42  62  95 130 163 207 262 313 366
#     4  12  23  42  66  89 128 167 213 252 309 374
#     4  11  21  42  66  93 124 160 216 251 309 372
#     4  11  23  41  65  88 127 165 211 249 317 365
#
# _framework density 23.283384000000002
#
# number of rings (size 3 to 8) (size 9 to 14) (size 15 to 20)
#    0.000    0.750    2.500    5.625    0.000    4.500 
#    0.000    0.000    0.000    0.000    0.000    0.000 
#    0.000    0.000    0.000    0.000    0.000    0.000 
#
# Total GULP energy -89644.754664 kJ/mol
# GULP energy per Si atom -5602.797167 kJ/mol
# Density = 2.323039 g / cm^3
# Si number density = 23.283384 Si / 1000 Ang^3
#
#
#
# Elastic Constant Matrix: (Units=GPa)
#
#
# Indices 1 2 3 4 5 6 
#
# 1 84.2852 25.4914 24.6344 -29.0374 8.3826 7.9380
# 2 25.4914 66.5141 13.7570 -17.2203 -9.9958 21.0291
# 3 24.6344 13.7570 110.4206 -23.8721 12.4324 1.7038
# 4 -29.0374 -17.2203 -23.8721 41.1294 -5.2906 -3.9400
# 5 8.3826 -9.9958 12.4324 -5.2906 36.0829 -7.3110
# 6 7.9380 21.0291 1.7038 -3.9400 -7.3110 42.1781
#
#
#
# Elastic Compliance Matrix: (Units=1/GPa)
#
#
# Indices 1 2 3 4 5 6 
#
# 1 0.017004 -0.004253 -0.000855 0.009179 -0.003654 -0.000821
# 2 -0.004253 0.022021 -0.001207 0.005555 0.006603 -0.008467
# 3 -0.000855 -0.001207 0.010774 0.004768 -0.003101 0.000235
# 4 0.009179 0.005555 0.004768 0.036184 0.002906 -0.000806
# 5 -0.003654 0.006603 -0.003101 0.002906 0.032584 0.003440
# 6 -0.000821 -0.008467 0.000235 -0.000806 0.003440 0.028596
#
#
# Mechanical properties :
#
#
# Convention : Reuss Voigt Hill
#
# Bulk Modulus (GPa) = 26.90361 43.22059 35.06210
# Shear Modulus (GPa) = 29.03909 37.03387 33.03648
#
# Velocity S-wave (km/s) = 3.53541 3.99252 3.77090
# Velocity P-wave (km/s) = 5.31464 6.31322 5.83533
#
# Compressibility (1/GPa) = 0.03716973
#
# Stress axis : x y z
#
# Youngs Moduli (GPa) = 58.81058 45.41046 92.81882
#
# Poissons Ratio (x) = 0.19313 0.07936
# Poissons Ratio (y) = 0.25012 0.11199
# Poissons Ratio (z) = 0.05029 0.05479
#
# Static dielectric constant tensor:
#      x y z
#    x 1.817980 -0.025430 0.002010 
#    y -0.025430 1.842440 0.049030 
#    z 0.002010 0.049030 1.935870 
# 
# From -- ./inp_files/185149.got.cif
#   From: 2010.05.17/outbox.cif.g08.bks.cpg/sg2_93_cif.got.tgz:185149.got - 2010.06.03 11:33:40.
