data_PCOD9037517
_publ_section_title
;
Structure prediction by ZEFSAII (Michael W. Deem and Ramdas Pophale) SiO2 
 PCOD9037517
Probable space group: P -1
;
_chemical_formula_sum "Si O2"
_cell_formula_units_Z 14
_cell_length_a 11.186269
_cell_length_b 9.590542
_cell_length_c 9.833003
_cell_angle_alpha 125.538863
_cell_angle_beta 128.075122
_cell_angle_gamma 53.421918
_cell_volume 627.589803
_symmetry_space_group_name_H-M "P -1"
_symmetry_group_IT_number 2
_symmetry_cell_setting 'triclinic'
loop_
_space_group_symop_operation_xyz
x,y,z
-x,-y,-z
loop_
_atom_site_type_symbol
_atom_site_label
_atom_site_fract_x
_atom_site_fract_y
_atom_site_fract_z
Si Si1 0.774572 0.224652 0.558888
Si Si2 0.457039 0.265985 0.728864
Si Si3 0.917491 0.101383 0.315810
Si Si4 0.774431 0.343344 0.094456
Si Si5 0.150835 0.519747 0.038350
Si Si6 0.529296 0.855948 0.637423
Si Si7 0.317486 0.126902 0.984567
O O1 0.855883 0.236612 0.478612
O O2 0.763638 0.388351 0.744175
O O3 0.600870 0.208544 0.413352
O O4 0.897560 0.035644 0.607890
O O5 0.320987 0.454395 0.793549
O O6 0.439034 0.244243 0.542261
O O7 0.455820 0.075916 0.683120
O O8 0.632293 0.277674 0.898222
O O9 0.877577 0.208023 0.207129
O O10 0.808926 0.973941 0.177824
O O11 0.882659 0.361748 0.054554
O O12 0.266610 0.312299 0.967553
O O13 0.000000 0.500000 0.000000
O O14 0.678776 0.819962 0.824292
O O15 0.500000 0.000000 0.000000
#
# Coordination Sequence:
#
# PCOD9037517 Si02
#       7
#     2   2   2   2   2   2   2
#     4  11  25  45  69 101 144 184 231 286 347 420
#     4  10  23  40  68 106 138 173 228 301 341 399
#     4  11  25  45  70 100 142 187 230 284 355 414
#     4  11  24  44  70 101 139 180 232 287 350 408
#     4  12  27  48  71 102 143 184 236 289 346 421
#     4  11  22  42  68 103 139 180 233 283 343 418
#     4  12  24  42  74 102 139 186 232 283 348 414
#
# _framework density 22.307565
#
# number of rings (size 3 to 8) (size 9 to 14) (size 15 to 20)
#    0.000    0.857    5.714    0.857    4.000    1.143 
#    5.143    1.429    0.000    0.000    0.000    0.000 
#    0.000    0.000    0.000    0.000    0.000    0.000 
#
# Total GULP energy -78350.451497 kJ/mol
# GULP energy per Si atom -5596.460821 kJ/mol
# Density = 2.225679 g / cm^3
# Si number density = 22.307565 Si / 1000 Ang^3
#
#
#
# Elastic Constant Matrix: (Units=GPa)
#
#
# Indices 1 2 3 4 5 6 
#
# 1 57.0428 17.5715 18.1500 7.9756 -4.1842 6.2854
# 2 17.5715 66.4636 23.0114 2.3956 -12.6593 18.1134
# 3 18.1500 23.0114 99.0605 -3.0330 -21.7709 9.5216
# 4 7.9756 2.3956 -3.0330 39.2317 4.2712 -4.6001
# 5 -4.1842 -12.6593 -21.7709 4.2712 30.0098 -6.8100
# 6 6.2854 18.1134 9.5216 -4.6001 -6.8100 26.7686
#
#
#
# Elastic Compliance Matrix: (Units=1/GPa)
#
#
# Indices 1 2 3 4 5 6 
#
# 1 0.020419 -0.003788 -0.002958 -0.004313 -0.000762 -0.002114
# 2 -0.003788 0.020949 -0.002138 -0.002545 0.004434 -0.011835
# 3 -0.002958 -0.002138 0.012918 0.000838 0.007868 -0.000308
# 4 -0.004313 -0.002545 0.000838 0.027714 -0.003585 0.006287
# 5 -0.000762 0.004434 0.007868 -0.003585 0.042334 0.004534
# 6 -0.002114 -0.011835 -0.000308 0.006287 0.004534 0.048205
#
#
# Mechanical properties :
#
#
# Convention : Reuss Voigt Hill
#
# Bulk Modulus (GPa) = 27.38332 37.78143 32.58237
# Shear Modulus (GPa) = 24.69393 30.12430 27.40911
#
# Velocity S-wave (km/s) = 3.33073 3.67878 3.50907
# Velocity P-wave (km/s) = 5.20516 5.91759 5.57277
#
# Compressibility (1/GPa) = 0.03651859
#
# Stress axis : x y z
#
# Youngs Moduli (GPa) = 48.97476 47.73439 77.41221
#
# Poissons Ratio (x) = 0.18081 0.22896
# Poissons Ratio (y) = 0.18550 0.16552
# Poissons Ratio (z) = 0.14485 0.10207
#
# Static dielectric constant tensor:
#      x y z
#    x 1.815000 -0.026470 -0.056690 
#    y -0.026470 1.841020 0.036600 
#    z -0.056690 0.036600 1.839780 
# 
# From -- ./inp_files/158545.got.cif
#   From: 2010.05.17/outbox.cif.g08.bks.cpg/sg2_80_cif.got.tgz:158545.got - 2010.06.03 11:33:40.
