data_PCOD9037824
_publ_section_title
;
Structure prediction by ZEFSAII (Michael W. Deem and Ramdas Pophale) SiO2 
 PCOD9037824
Probable space group: P -1
;
_chemical_formula_sum "Si O2"
_cell_formula_units_Z 16
_cell_length_a 12.403476
_cell_length_b 8.738994
_cell_length_c 20.706564
_cell_angle_alpha 73.886216
_cell_angle_beta 20.227306
_cell_angle_gamma 75.768983
_cell_volume 744.805680
_symmetry_space_group_name_H-M "P -1"
_symmetry_group_IT_number 2
_symmetry_cell_setting 'triclinic'
loop_
_space_group_symop_operation_xyz
x,y,z
-x,-y,-z
loop_
_atom_site_type_symbol
_atom_site_label
_atom_site_fract_x
_atom_site_fract_y
_atom_site_fract_z
Si Si1 0.665459 0.434121 0.769642
Si Si2 0.396963 0.503911 0.347242
Si Si3 0.350820 0.192972 0.745859
Si Si4 0.275935 0.837150 0.816577
Si Si5 0.335071 0.163587 0.072976
Si Si6 0.683796 0.664552 0.391419
Si Si7 0.270818 0.860021 0.670914
Si Si8 0.578403 0.354174 0.019122
O O1 0.577706 0.413783 0.747161
O O2 0.504302 0.590646 0.869625
O O3 0.033720 0.459285 0.568091
O O4 0.540908 0.286923 0.899485
O O5 0.498642 0.646864 0.322893
O O6 0.563620 0.333704 0.263365
O O7 0.363296 0.230137 0.658349
O O8 0.457715 0.007335 0.713950
O O9 0.002354 0.184967 0.972954
O O10 0.153146 0.872912 0.808397
O O11 0.353233 0.217730 0.131048
O O12 0.003956 0.159138 0.224477
O O13 0.500000 0.000000 0.000000
O O14 0.500000 0.500000 0.500000
O O15 0.505646 0.717641 0.549219
O O16 0.054796 0.668377 0.191606
O O17 0.500000 0.000000 0.500000
O O18 0.500000 0.500000 0.000000
#
# Coordination Sequence:
#
# PCOD9037824 Si02
#       8
#     2   2   2   2   2   2   2   2
#     4  10  24  45  65  97 138 181 235 278 361 424
#     4  11  24  45  71  97 139 185 233 298 341 428
#     4  11  25  43  72 101 139 184 238 292 359 417
#     4  11  25  45  71 101 143 179 241 295 359 414
#     4  11  25  42  69  98 141 184 225 291 362 415
#     4  12  24  40  69 103 135 183 236 296 349 417
#     4  12  25  42  67 102 140 173 237 298 348 422
#     4  10  23  41  63  94 138 176 228 276 354 418
#
# _framework density 21.482112999999998
#
# number of rings (size 3 to 8) (size 9 to 14) (size 15 to 20)
#    0.000    1.000    1.250    4.875   10.500    0.000 
#    2.250    1.250    0.000    0.000    0.000    0.000 
#    0.000    0.000    0.000    0.000    0.000    0.000 
#
# Total GULP energy -89183.766479 kJ/mol
# GULP energy per Si atom -5573.985405 kJ/mol
# Density = 2.143322 g / cm^3
# Si number density = 21.482113 Si / 1000 Ang^3
#
#
#
# Elastic Constant Matrix: (Units=GPa)
#
#
# Indices 1 2 3 4 5 6 
#
# 1 89.7105 28.0642 40.8462 -8.3327 3.9023 13.8713
# 2 28.0642 128.2223 16.7430 -0.2892 -5.3684 11.8552
# 3 40.8462 16.7430 64.9621 10.6543 10.4869 2.5175
# 4 -8.3327 -0.2892 10.6543 31.2810 -4.8347 8.2974
# 5 3.9023 -5.3684 10.4869 -4.8347 35.2342 -0.8320
# 6 13.8713 11.8552 2.5175 8.2974 -0.8320 31.8323
#
#
#
# Elastic Compliance Matrix: (Units=1/GPa)
#
#
# Indices 1 2 3 4 5 6 
#
# 1 0.021897 -0.001436 -0.016033 0.014943 0.003906 -0.011532
# 2 -0.001436 0.008698 -0.001804 0.001380 0.002145 -0.002775
# 3 -0.016033 -0.001804 0.030213 -0.018721 -0.009827 0.009892
# 4 0.014943 0.001380 -0.018721 0.048710 0.010387 -0.017970
# 5 0.003906 0.002145 -0.009827 0.010387 0.032541 -0.003581
# 6 -0.011532 -0.002775 0.009892 -0.017970 -0.003581 0.041282
#
#
# Mechanical properties :
#
#
# Convention : Reuss Voigt Hill
#
# Bulk Modulus (GPa) = 44.91753 50.46686 47.69220
# Shear Modulus (GPa) = 21.80477 32.81891 27.31184
#
# Velocity S-wave (km/s) = 3.18939 3.91286 3.56950
# Velocity P-wave (km/s) = 5.87517 6.63004 6.26399
#
# Compressibility (1/GPa) = 0.02226302
#
# Stress axis : x y z
#
# Youngs Moduli (GPa) = 45.66792 114.96551 33.09848
#
# Poissons Ratio (x) = 0.16505 0.53066
# Poissons Ratio (y) = 0.06556 0.05972
# Poissons Ratio (z) = 0.73218 0.20743
#
# Static dielectric constant tensor:
#      x y z
#    x 1.775280 -0.009380 -0.004530 
#    y -0.009380 1.562840 -0.015250 
#    z -0.004530 -0.015250 1.729560 
# 
# From -- ./inp_files/594104.got.cif
#   From: 2010.05.17/outbox.cif.g08.bks.cpg/sg2_298_cif.got.tgz:594104.got - 2010.06.03 11:33:40.
