data_PCOD9037890
_publ_section_title
;
Structure prediction by ZEFSAII (Michael W. Deem and Ramdas Pophale) SiO2 
 PCOD9037890
Probable space group: P -1
;
_chemical_formula_sum "Si O2"
_cell_formula_units_Z 16
_cell_length_a 9.682920
_cell_length_b 8.039401
_cell_length_c 12.169331
_cell_angle_alpha 86.589501
_cell_angle_beta 50.422464
_cell_angle_gamma 97.923011
_cell_volume 709.597298
_symmetry_space_group_name_H-M "P -1"
_symmetry_group_IT_number 2
_symmetry_cell_setting 'triclinic'
loop_
_space_group_symop_operation_xyz
x,y,z
-x,-y,-z
loop_
_atom_site_type_symbol
_atom_site_label
_atom_site_fract_x
_atom_site_fract_y
_atom_site_fract_z
Si Si1 0.042837 0.671770 0.617364
Si Si2 0.474056 0.368515 0.414242
Si Si3 0.534941 0.056728 0.147961
Si Si4 0.192940 0.731963 0.856756
Si Si5 0.811199 0.964751 0.521609
Si Si6 0.145043 0.430440 0.072126
Si Si7 0.716476 0.484553 0.669347
Si Si8 0.477585 0.267483 0.971582
O O1 0.979948 0.553210 0.759129
O O2 0.855682 0.650803 0.640776
O O3 0.175961 0.597997 0.473168
O O4 0.133390 0.867753 0.591072
O O5 0.500000 0.500000 0.500000
O O6 0.661316 0.304775 0.306099
O O7 0.293149 0.205619 0.491176
O O8 0.454659 0.477073 0.310360
O O9 0.700698 0.097235 0.147093
O O10 0.347402 0.009367 0.314187
O O11 0.577979 0.915185 0.051431
O O12 0.517980 0.221037 0.076646
O O13 0.990973 0.724911 0.916025
O O14 0.172586 0.586216 0.967763
O O15 0.000000 0.000000 0.500000
O O16 0.323972 0.374955 0.028697
O O17 0.651834 0.362137 0.809019
#
# Coordination Sequence:
#
# PCOD9037890 Si02
#       8
#     2   2   2   2   2   2   2   2
#     4  11  23  39  63  98 129 168 219 269 325 383
#     4  11  23  42  66  94 131 176 218 264 336 393
#     4  10  23  41  64  94 130 170 217 273 327 382
#     4  10  23  43  63  91 133 170 217 271 326 392
#     4  11  21  41  64  96 133 167 218 275 323 385
#     4  11  23  41  64  93 128 170 219 266 327 390
#     4  11  22  40  65  94 131 168 220 271 317 393
#     4  11  22  40  67  95 125 169 221 270 322 384
#
# _framework density 22.548000999999999
#
# number of rings (size 3 to 8) (size 9 to 14) (size 15 to 20)
#    0.000    1.250    3.750    2.250    1.750    1.500 
#    2.250    6.875    0.000    0.000    0.000    0.000 
#    0.000    0.000    0.000    0.000    0.000    0.000 
#
# Total GULP energy -89174.569896 kJ/mol
# GULP energy per Si atom -5573.410619 kJ/mol
# Density = 2.249668 g / cm^3
# Si number density = 22.548001 Si / 1000 Ang^3
#
#
#
# Elastic Constant Matrix: (Units=GPa)
#
#
# Indices 1 2 3 4 5 6 
#
# 1 64.9762 5.3093 -0.7310 1.5930 -1.9554 25.8483
# 2 5.3093 73.0941 15.9162 1.5230 14.1034 24.9851
# 3 -0.7310 15.9162 92.2849 -1.3463 8.9662 6.8820
# 4 1.5930 1.5230 -1.3463 28.3362 2.6703 5.4701
# 5 -1.9554 14.1034 8.9662 2.6703 22.8613 -2.7488
# 6 25.8483 24.9851 6.8820 5.4701 -2.7488 38.4704
#
#
#
# Elastic Compliance Matrix: (Units=1/GPa)
#
#
# Indices 1 2 3 4 5 6 
#
# 1 0.022639 0.005774 0.001175 0.002769 -0.004804 -0.019908
# 2 0.005774 0.023756 -0.000797 0.003988 -0.016832 -0.020935
# 3 0.001175 -0.000797 0.011658 0.001514 -0.004505 -0.002895
# 4 0.002769 0.003988 0.001514 0.037865 -0.008528 -0.010715
# 5 -0.004804 -0.016832 -0.004505 -0.008528 0.058930 0.020389
# 6 -0.019908 -0.020935 -0.002895 -0.010715 0.020389 0.056465
#
#
# Mechanical properties :
#
#
# Convention : Reuss Voigt Hill
#
# Bulk Modulus (GPa) = 14.21300 30.14936 22.18118
# Shear Modulus (GPa) = 22.47592 31.92431 27.20011
#
# Velocity S-wave (km/s) = 3.16064 3.76684 3.47698
# Velocity P-wave (km/s) = 4.43133 5.68498 5.09685
#
# Compressibility (1/GPa) = 0.07035812
#
# Stress axis : x y z
#
# Youngs Moduli (GPa) = 44.17165 42.09499 85.77495
#
# Poissons Ratio (x) = -0.24305 -0.10080
# Poissons Ratio (y) = -0.25504 0.06833
# Poissons Ratio (z) = -0.05191 0.03353
#
# Static dielectric constant tensor:
#      x y z
#    x 1.892760 0.016220 0.005550 
#    y 0.016220 1.896120 -0.026110 
#    z 0.005550 -0.026110 1.827340 
# 
# From -- ./inp_files/382221.got.cif
#   From: 2010.05.17/outbox.cif.g08.bks.cpg/sg2_192_cif.got.tgz:382221.got - 2010.06.03 11:33:40.
