data_PCOD9037780
_publ_section_title
;
Structure prediction by ZEFSAII (Michael W. Deem and Ramdas Pophale) SiO2 
 PCOD9037780
Probable space group: P -1
;
_chemical_formula_sum "Si O2"
_cell_formula_units_Z 12
_cell_length_a 5.015129
_cell_length_b 6.522110
_cell_length_c 17.795930
_cell_angle_alpha 83.605530
_cell_angle_beta 119.361025
_cell_angle_gamma 105.324333
_cell_volume 489.167588
_symmetry_space_group_name_H-M "P -1"
_symmetry_group_IT_number 2
_symmetry_cell_setting 'triclinic'
loop_
_space_group_symop_operation_xyz
x,y,z
-x,-y,-z
loop_
_atom_site_type_symbol
_atom_site_label
_atom_site_fract_x
_atom_site_fract_y
_atom_site_fract_z
Si Si1 0.200443 0.234717 0.492819
Si Si2 0.817766 0.576110 0.369309
Si Si3 0.318812 0.651599 0.009543
Si Si4 0.637208 0.969361 0.921611
Si Si5 0.196551 0.038304 0.353272
Si Si6 0.423962 0.796142 0.743206
O O1 0.354918 0.349972 0.585305
O O2 0.001972 0.400913 0.430408
O O3 0.366875 0.172795 0.443620
O O4 0.000000 0.000000 0.500000
O O5 0.610508 0.445489 0.279302
O O6 0.046485 0.794471 0.363596
O O7 0.366320 0.826407 0.942621
O O8 0.500000 0.500000 0.000000
O O9 0.000000 0.500000 0.000000
O O10 0.436067 0.798936 0.092294
O O11 0.616822 0.863307 0.842362
O O12 0.000000 0.000000 0.000000
O O13 0.418229 0.063854 0.311363
O O14 0.911263 0.148561 0.291228
#
# Coordination Sequence:
#
# PCOD9037780 Si02
#       6
#     2   2   2   2   2   2
#     4   8  16  37  67  95 133 173 223 268 325 396
#     4   9  19  40  64  95 132 178 218 271 333 393
#     4  11  24  44  70  99 128 172 226 281 348 415
#     4  11  26  45  71 101 138 179 234 291 346 417
#     4  10  23  41  62  98 131 176 220 275 328 397
#     4  11  26  41  65  94 136 170 223 277 336 394
#
# _framework density 24.531466999999999
#
# number of rings (size 3 to 8) (size 9 to 14) (size 15 to 20)
#    0.000    2.000    1.667    0.000    4.667    6.000 
#    0.000   28.333    0.000    0.000    0.000    0.000 
#    0.000    0.000    0.000    0.000    0.000    0.000 
#
# Total GULP energy -66988.544249 kJ/mol
# GULP energy per Si atom -5582.378687 kJ/mol
# Density = 2.447563 g / cm^3
# Si number density = 24.531467 Si / 1000 Ang^3
#
#
#
# Elastic Constant Matrix: (Units=GPa)
#
#
# Indices 1 2 3 4 5 6 
#
# 1 119.5990 29.0012 49.6286 9.3542 -18.1945 8.9679
# 2 29.0012 183.9064 64.3058 38.3221 -14.6272 18.2167
# 3 49.6286 64.3058 148.5036 57.7011 -30.5314 -14.8713
# 4 9.3542 38.3221 57.7011 47.6029 -10.3169 -11.7591
# 5 -18.1945 -14.6272 -30.5314 -10.3169 36.2207 -9.0869
# 6 8.9679 18.2167 -14.8713 -11.7591 -9.0869 40.1973
#
#
#
# Elastic Compliance Matrix: (Units=1/GPa)
#
#
# Indices 1 2 3 4 5 6 
#
# 1 0.010552 -0.000422 -0.004697 0.003702 0.001610 -0.002453
# 2 -0.000422 0.007917 -0.002114 -0.005758 -0.002049 -0.006423
# 3 -0.004697 -0.002114 0.017550 -0.015271 0.008738 0.006007
# 4 0.003702 -0.005758 -0.015271 0.046512 0.002495 0.010304
# 5 0.001610 -0.002049 0.008738 0.002495 0.039016 0.013352
# 6 -0.002453 -0.006423 0.006007 0.010304 0.013352 0.036590
#
#
# Mechanical properties :
#
#
# Convention : Reuss Voigt Hill
#
# Bulk Modulus (GPa) = 46.39678 81.98669 64.19173
# Shear Modulus (GPa) = 27.81062 45.40908 36.60985
#
# Velocity S-wave (km/s) = 3.37066 4.30706 3.86730
# Velocity P-wave (km/s) = 5.83975 7.63072 6.79450
#
# Compressibility (1/GPa) = 0.02155322
#
# Stress axis : x y z
#
# Youngs Moduli (GPa) = 94.76937 126.31802 56.97849
#
# Poissons Ratio (x) = 0.05332 0.26762
# Poissons Ratio (y) = 0.04000 0.12045
# Poissons Ratio (z) = 0.44511 0.26703
#
# Static dielectric constant tensor:
#      x y z
#    x 1.982670 -0.027960 0.047320 
#    y -0.027960 2.190440 0.099700 
#    z 0.047320 0.099700 2.056040 
# 
# From -- ./inp_files/102340.got.cif
#   From: 2010.05.17/outbox.cif.g08.bks.cpg/sg2_52_cif.got.tgz:102340.got - 2010.06.03 11:33:40.
