data_PCOD9037686
_publ_section_title
;
Structure prediction by ZEFSAII (Michael W. Deem and Ramdas Pophale) SiO2 
 PCOD9037686
Probable space group: P -1
;
_chemical_formula_sum "Si O2"
_cell_formula_units_Z 13
_cell_length_a 9.534060
_cell_length_b 8.899925
_cell_length_c 7.720412
_cell_angle_alpha 77.819405
_cell_angle_beta 99.728812
_cell_angle_gamma 120.785070
_cell_volume 548.665405
_symmetry_space_group_name_H-M "P -1"
_symmetry_group_IT_number 2
_symmetry_cell_setting 'triclinic'
loop_
_space_group_symop_operation_xyz
x,y,z
-x,-y,-z
loop_
_atom_site_type_symbol
_atom_site_label
_atom_site_fract_x
_atom_site_fract_y
_atom_site_fract_z
Si Si1 0.000000 0.500000 0.500000
Si Si2 0.209718 0.673902 0.166422
Si Si3 0.104013 0.073582 0.264170
Si Si4 0.173578 0.894359 0.600439
Si Si5 0.503082 0.965285 0.713576
Si Si6 0.611202 0.411350 0.080230
Si Si7 0.085625 0.277800 0.912357
O O1 0.125073 0.549105 0.344228
O O2 0.111860 0.706749 0.542233
O O3 0.055885 0.687379 0.052678
O O4 0.345685 0.869315 0.207858
O O5 0.300478 0.608775 0.068892
O O6 0.976556 0.110348 0.330553
O O7 0.219431 0.048355 0.428443
O O8 0.166985 0.214743 0.089949
O O9 0.001345 0.882097 0.199668
O O10 0.328520 0.944267 0.741526
O O11 0.486885 0.778801 0.805786
O O12 0.500000 0.000000 0.500000
O O13 0.772556 0.547901 0.192194
O O14 0.500000 0.500000 0.000000
#
# Coordination Sequence:
#
# PCOD9037686 Si02
#       7
#     1   2   2   2   2   2   2
#     4  12  22  44  72 106 136 192 240 298 348 438
#     4  12  26  49  76 104 149 196 247 293 378 438
#     4  10  23  40  75 101 141 187 244 299 355 432
#     4  11  23  43  69 106 143 188 241 294 367 429
#     4  12  26  47  74 104 151 195 238 300 376 439
#     4  12  30  47  74 112 150 190 248 310 362 432
#     4  11  23  45  74 103 140 190 249 297 357 433
#
# _framework density 23.693857000000001
#
# number of rings (size 3 to 8) (size 9 to 14) (size 15 to 20)
#    0.000    0.615    3.077    3.692    8.615    0.000 
#    0.000    0.769    0.000    0.000    0.000    0.000 
#    0.000    0.000    0.000    0.000    0.000    0.000 
#
# Total GULP energy -72502.208918 kJ/mol
# GULP energy per Si atom -5577.092994 kJ/mol
# Density = 2.363993 g / cm^3
# Si number density = 23.693857 Si / 1000 Ang^3
#
#
#
# Elastic Constant Matrix: (Units=GPa)
#
#
# Indices 1 2 3 4 5 6 
#
# 1 147.7857 62.6451 39.3026 -7.8226 13.0325 -8.4366
# 2 62.6451 139.3315 32.9746 -17.4721 2.7176 7.8493
# 3 39.3026 32.9746 84.6239 -30.6869 -5.1347 -9.5404
# 4 -7.8226 -17.4721 -30.6869 36.4607 -9.9537 -6.4332
# 5 13.0325 2.7176 -5.1347 -9.9537 49.4887 -0.7367
# 6 -8.4366 7.8493 -9.5404 -6.4332 -0.7367 45.2183
#
#
#
# Elastic Compliance Matrix: (Units=1/GPa)
#
#
# Indices 1 2 3 4 5 6 
#
# 1 0.009835 -0.003811 -0.005003 -0.004862 -0.003868 0.000686
# 2 -0.003811 0.009621 -0.001256 0.002561 0.000826 -0.002268
# 3 -0.005003 -0.001256 0.024081 0.022260 0.008476 0.007670
# 4 -0.004862 0.002561 0.022260 0.052134 0.014099 0.010992
# 5 -0.003868 0.000826 0.008476 0.014099 0.024945 0.003336
# 6 0.000686 -0.002268 0.007670 0.010992 0.003336 0.025873
#
#
# Mechanical properties :
#
#
# Convention : Reuss Voigt Hill
#
# Bulk Modulus (GPa) = 42.73988 71.28731 57.01360
# Shear Modulus (GPa) = 28.66517 42.02144 35.34330
#
# Velocity S-wave (km/s) = 3.48201 4.21588 3.86640
# Velocity P-wave (km/s) = 5.85179 7.33828 6.63678
#
# Compressibility (1/GPa) = 0.02339735
#
# Stress axis : x y z
#
# Youngs Moduli (GPa) = 101.67270 103.94404 41.52646
#
# Poissons Ratio (x) = 0.39612 0.20777
# Poissons Ratio (y) = 0.38747 0.05214
# Poissons Ratio (z) = 0.50870 0.13051
#
# Static dielectric constant tensor:
#      x y z
#    x 1.943070 -0.011650 0.036970 
#    y -0.011650 1.874920 -0.042790 
#    z 0.036970 -0.042790 1.984470 
# 
# From -- ./inp_files/150400.got.cif
#   From: 2010.05.17/outbox.cif.g08.bks.cpg/sg2_76_cif.got.tgz:150400.got - 2010.06.03 11:33:40.
