data_PCOD9037448
_publ_section_title
;
Structure prediction by ZEFSAII (Michael W. Deem and Ramdas Pophale) SiO2 
 PCOD9037448
Probable space group: P -1
;
_chemical_formula_sum "Si O2"
_cell_formula_units_Z 14
_cell_length_a 19.463726
_cell_length_b 9.195168
_cell_length_c 7.345419
_cell_angle_alpha 71.588571
_cell_angle_beta 55.917029
_cell_angle_gamma 33.543183
_cell_volume 567.839149
_symmetry_space_group_name_H-M "P -1"
_symmetry_group_IT_number 2
_symmetry_cell_setting 'triclinic'
loop_
_space_group_symop_operation_xyz
x,y,z
-x,-y,-z
loop_
_atom_site_type_symbol
_atom_site_label
_atom_site_fract_x
_atom_site_fract_y
_atom_site_fract_z
Si Si1 0.354467 0.671390 0.263530
Si Si2 0.127005 0.922357 0.187911
Si Si3 0.488765 0.696189 0.491829
Si Si4 0.828360 0.459083 0.621325
Si Si5 0.163124 0.180230 0.921423
Si Si6 0.253706 0.144871 0.196835
Si Si7 0.499901 0.000385 0.722180
O O1 0.410861 0.464421 0.409867
O O2 0.232311 0.788871 0.262127
O O3 0.300486 0.918980 0.324360
O O4 0.500000 0.500000 0.000000
O O5 0.956210 0.224801 0.377023
O O6 0.147804 0.712949 0.198707
O O7 0.169793 0.986649 0.956691
O O8 0.500000 0.500000 0.500000
O O9 0.314404 0.007245 0.671635
O O10 0.540531 0.758395 0.266672
O O11 0.851647 0.585992 0.632068
O O12 0.664204 0.713823 0.674344
O O13 0.185643 0.180929 0.100479
O O14 0.000000 0.500000 0.000000
O O15 0.385525 0.056363 0.963174
O O16 0.500000 0.000000 0.500000
#
# Coordination Sequence:
#
# PCOD9037448 Si02
#       7
#     2   2   2   2   2   2   2
#     4  11  20  43  65  91 124 171 216 260 318 387
#     4  10  23  40  67  87 131 167 215 263 325 386
#     4  12  25  39  66  99 129 168 217 268 328 380
#     4  11  24  41  64  99 125 171 217 267 322 389
#     4  11  24  44  64  93 133 174 211 273 331 389
#     4  11  24  41  70  93 127 171 222 265 321 383
#     4  12  23  41  65  98 133 165 210 272 319 383
#
# _framework density 24.654869000000001
#
# number of rings (size 3 to 8) (size 9 to 14) (size 15 to 20)
#    0.000    0.857    4.286    3.857    2.000    3.429 
#    0.000    0.714    0.000    0.000    0.000    0.000 
#    0.000    0.000    0.000    0.000    0.000    0.000 
#
# Total GULP energy -78315.889553 kJ/mol
# GULP energy per Si atom -5593.992111 kJ/mol
# Density = 2.459875 g / cm^3
# Si number density = 24.654869 Si / 1000 Ang^3
#
#
#
# Elastic Constant Matrix: (Units=GPa)
#
#
# Indices 1 2 3 4 5 6 
#
# 1 46.9161 27.7609 -13.0584 -2.4581 -1.3939 9.3028
# 2 27.7609 162.0619 28.9514 -16.4038 -12.6599 16.0018
# 3 -13.0584 28.9514 65.0343 -4.6092 -15.3163 -7.3641
# 4 -2.4581 -16.4038 -4.6092 44.8417 8.6920 -9.2685
# 5 -1.3939 -12.6599 -15.3163 8.6920 37.5140 -3.7510
# 6 9.3028 16.0018 -7.3641 -9.2685 -3.7510 56.5768
#
#
#
# Elastic Compliance Matrix: (Units=1/GPa)
#
#
# Indices 1 2 3 4 5 6 
#
# 1 0.027589 -0.005955 0.008541 -0.000615 0.002477 -0.001677
# 2 -0.005955 0.008452 -0.005032 0.001892 -0.000038 -0.001759
# 3 0.008541 -0.005032 0.021534 0.000031 0.007738 0.003340
# 4 -0.000615 0.001892 0.000031 0.024558 -0.004734 0.003279
# 5 0.002477 -0.000038 0.007738 -0.004734 0.031182 0.001902
# 6 -0.001677 -0.001759 0.003340 0.003279 0.001902 0.019546
#
#
# Mechanical properties :
#
#
# Convention : Reuss Voigt Hill
#
# Bulk Modulus (GPa) = 18.98159 40.14666 29.56413
# Shear Modulus (GPa) = 32.19258 43.14374 37.66816
#
# Velocity S-wave (km/s) = 3.61741 4.18773 3.91297
# Velocity P-wave (km/s) = 5.01629 6.30092 5.69494
#
# Compressibility (1/GPa) = 0.05268262
#
# Stress axis : x y z
#
# Youngs Moduli (GPa) = 36.24593 118.31928 46.43743
#
# Poissons Ratio (x) = 0.70457 -0.39660
# Poissons Ratio (y) = 0.21584 0.23368
# Poissons Ratio (z) = -0.30956 0.59540
#
# Static dielectric constant tensor:
#      x y z
#    x 2.043200 0.050860 0.026980 
#    y 0.050860 1.992370 -0.029520 
#    z 0.026980 -0.029520 2.004020 
# 
# From -- ./inp_files/157131.got.cif
#   From: 2010.05.17/outbox.cif.g08.bks.cpg/sg2_79_cif.got.tgz:157131.got - 2010.06.03 11:33:40.
