data_PCOD9037562
_publ_section_title
;
Structure prediction by ZEFSAII (Michael W. Deem and Ramdas Pophale) SiO2 
 PCOD9037562
Probable space group: P -1
;
_chemical_formula_sum "Si O2"
_cell_formula_units_Z 16
_cell_length_a 11.685934
_cell_length_b 12.333410
_cell_length_c 5.401440
_cell_angle_alpha 89.641502
_cell_angle_beta 101.087028
_cell_angle_gamma 113.163935
_cell_volume 700.297159
_symmetry_space_group_name_H-M "P -1"
_symmetry_group_IT_number 2
_symmetry_cell_setting 'triclinic'
loop_
_space_group_symop_operation_xyz
x,y,z
-x,-y,-z
loop_
_atom_site_type_symbol
_atom_site_label
_atom_site_fract_x
_atom_site_fract_y
_atom_site_fract_z
Si Si1 0.376869 0.528968 0.464637
Si Si2 0.952250 0.893905 0.286728
Si Si3 0.651157 0.047744 0.747553
Si Si4 0.812885 0.920063 0.833494
Si Si5 0.348011 0.650999 0.945083
Si Si6 0.876714 0.709166 0.623787
Si Si7 0.048343 0.577081 0.773525
Si Si8 0.626089 0.113573 0.235122
O O1 0.500000 0.500000 0.500000
O O2 0.380569 0.582658 0.736945
O O3 0.248446 0.409914 0.405418
O O4 0.372905 0.610959 0.228187
O O5 0.923281 0.764212 0.371249
O O6 0.821199 0.891165 0.123208
O O7 0.000000 0.000000 0.500000
O O8 0.071921 0.949405 0.152004
O O9 0.691245 0.138968 0.533662
O O10 0.690668 0.939816 0.697181
O O11 0.501153 0.000075 0.745883
O O12 0.706008 0.091732 0.044148
O O13 0.842994 0.814358 0.725707
O O14 0.199881 0.626307 0.848692
O O15 0.416674 0.787875 0.897012
O O16 0.990861 0.676609 0.764902
O O17 0.000000 0.500000 0.500000
O O18 0.000000 0.500000 0.000000
#
# Coordination Sequence:
#
# PCOD9037562 Si02
#       8
#     2   2   2   2   2   2   2   2
#     4  12  28  47  71 105 140 181 244 287 343 416
#     4   9  22  41  60 100 130 167 224 273 336 414
#     4  10  23  43  67  98 135 174 224 276 337 413
#     4  10  23  40  68  98 136 174 227 278 349 408
#     4  12  25  48  71 103 139 184 233 285 351 406
#     4  11  25  42  70  99 136 185 223 286 353 396
#     4  12  25  46  69  99 141 178 235 283 333 421
#     4  10  24  43  67 100 133 177 225 275 339 402
#
# _framework density 22.847442999999998
#
# number of rings (size 3 to 8) (size 9 to 14) (size 15 to 20)
#    0.000    1.250    2.500    1.125   10.500    3.000 
#    0.000    0.000    0.000    0.000    0.000    0.000 
#    0.000    0.000    0.000    0.000    0.000    0.000 
#
# Total GULP energy -89171.079066 kJ/mol
# GULP energy per Si atom -5573.192442 kJ/mol
# Density = 2.279544 g / cm^3
# Si number density = 22.847443 Si / 1000 Ang^3
#
#
#
# Elastic Constant Matrix: (Units=GPa)
#
#
# Indices 1 2 3 4 5 6 
#
# 1 96.2745 12.0744 12.5598 -6.7394 1.0015 -22.1632
# 2 12.0744 81.7403 28.2524 -27.4249 -12.2763 -9.2203
# 3 12.5598 28.2524 111.8128 -36.8155 -16.8351 -0.0567
# 4 -6.7394 -27.4249 -36.8155 47.6469 -5.7926 -0.2206
# 5 1.0015 -12.2763 -16.8351 -5.7926 37.1637 -4.4193
# 6 -22.1632 -9.2203 -0.0567 -0.2206 -4.4193 34.1024
#
#
#
# Elastic Compliance Matrix: (Units=1/GPa)
#
#
# Indices 1 2 3 4 5 6 
#
# 1 0.012468 -0.000243 -0.000997 0.000919 0.000235 0.008072
# 2 -0.000243 0.018065 0.000789 0.012085 0.008924 0.005962
# 3 -0.000997 0.000789 0.014262 0.012404 0.008777 0.000807
# 4 0.000919 0.012085 0.012404 0.039696 0.016521 0.006283
# 5 0.000235 0.008924 0.008777 0.016521 0.037295 0.007520
# 6 0.008072 0.005962 0.000807 0.006283 0.007520 0.037198
#
#
# Mechanical properties :
#
#
# Convention : Reuss Voigt Hill
#
# Bulk Modulus (GPa) = 22.78284 43.95565 33.36924
# Shear Modulus (GPa) = 28.65063 39.57864 34.11464
#
# Velocity S-wave (km/s) = 3.54502 4.16661 3.86832
# Velocity P-wave (km/s) = 5.17200 6.51368 5.88123
#
# Compressibility (1/GPa) = 0.04389268
#
# Stress axis : x y z
#
# Youngs Moduli (GPa) = 80.20793 55.35650 70.11473
#
# Poissons Ratio (x) = 0.01344 0.06989
# Poissons Ratio (y) = 0.01947 -0.05529
# Poissons Ratio (z) = 0.07995 -0.04365
#
# Static dielectric constant tensor:
#      x y z
#    x 2.007280 0.051660 -0.009690 
#    y 0.051660 1.931700 0.069430 
#    z -0.009690 0.069430 2.095830 
# 
# From -- ./inp_files/70041.got.cif
#   From: 2010.05.17/outbox.cif.g08.bks.cpg/sg2_36_cif.got.tgz:70041.got - 2010.06.03 11:33:40.
