data_PCOD9037420
_publ_section_title
;
Structure prediction by ZEFSAII (Michael W. Deem and Ramdas Pophale) SiO2 
 PCOD9037420
Probable space group: P -1
;
_chemical_formula_sum "Si O2"
_cell_formula_units_Z 16
_cell_length_a 11.322156
_cell_length_b 19.433587
_cell_length_c 8.764240
_cell_angle_alpha 56.305331
_cell_angle_beta 131.238916
_cell_angle_gamma 150.839900
_cell_volume 705.410341
_symmetry_space_group_name_H-M "P -1"
_symmetry_group_IT_number 2
_symmetry_cell_setting 'triclinic'
loop_
_space_group_symop_operation_xyz
x,y,z
-x,-y,-z
loop_
_atom_site_type_symbol
_atom_site_label
_atom_site_fract_x
_atom_site_fract_y
_atom_site_fract_z
Si Si1 0.666392 0.710095 0.091972
Si Si2 0.513434 0.228264 0.661731
Si Si3 0.252854 0.095114 0.921931
Si Si4 0.800730 0.787200 0.784160
Si Si5 0.179540 0.362770 0.448389
Si Si6 0.733534 0.055690 0.226662
Si Si7 0.651013 0.128235 0.359754
Si Si8 0.064828 0.452734 0.996644
O O1 0.727898 0.708722 0.973161
O O2 0.794188 0.853736 0.060130
O O3 0.780924 0.701186 0.331495
O O4 0.349530 0.586484 0.994826
O O5 0.406481 0.199624 0.777586
O O6 0.442959 0.274391 0.436525
O O7 0.358388 0.078321 0.664105
O O8 0.825933 0.345137 0.803983
O O9 0.438597 0.102445 0.142764
O O10 0.993712 0.943374 0.813614
O O11 0.988193 0.821298 0.779670
O O12 0.500000 0.500000 0.500000
O O13 0.079758 0.375533 0.202663
O O14 0.931420 0.292920 0.438003
O O15 0.760359 0.115208 0.333453
O O16 0.500000 0.000000 0.000000
O O17 0.500000 0.000000 0.500000
O O18 0.000000 0.500000 0.000000
#
# Coordination Sequence:
#
# PCOD9037420 Si02
#       8
#     2   2   2   2   2   2   2   2
#     4  11  24  40  70  97 135 175 232 280 318 414
#     4  11  23  41  65  96 132 180 220 266 353 400
#     4  11  21  43  62 101 130 177 224 274 339 401
#     4  11  25  40  63 101 140 172 220 272 355 392
#     4  10  23  40  66  99 130 174 227 276 339 393
#     4  11  22  42  62  90 139 174 212 274 345 404
#     4  12  24  39  70 100 132 174 232 284 334 397
#     4  11  21  45  71  94 132 181 229 277 333 407
#
# _framework density 22.681832
#
# number of rings (size 3 to 8) (size 9 to 14) (size 15 to 20)
#    0.000    1.000    5.000    2.625    5.250    0.500 
#    0.000    0.000    2.750    3.000    0.000    0.000 
#    0.000    0.000    0.000    0.000    0.000    0.000 
#
# Total GULP energy -89106.605284 kJ/mol
# GULP energy per Si atom -5569.162830 kJ/mol
# Density = 2.263021 g / cm^3
# Si number density = 22.681832 Si / 1000 Ang^3
#
#
#
# Elastic Constant Matrix: (Units=GPa)
#
#
# Indices 1 2 3 4 5 6 
#
# 1 93.4767 14.2039 50.9080 -14.4545 -5.6492 -0.4159
# 2 14.2039 71.0311 44.1072 -3.9843 -2.2651 23.6151
# 3 50.9080 44.1072 186.6231 3.4601 23.1618 14.3557
# 4 -14.4545 -3.9843 3.4601 33.4203 15.8210 6.5044
# 5 -5.6492 -2.2651 23.1618 15.8210 22.7546 0.6199
# 6 -0.4159 23.6151 14.3557 6.5044 0.6199 27.5817
#
#
#
# Elastic Compliance Matrix: (Units=1/GPa)
#
#
# Indices 1 2 3 4 5 6 
#
# 1 0.014233 -0.000090 -0.004807 0.003463 0.005960 0.001843
# 2 -0.000090 0.023861 -0.004749 0.005058 0.004195 -0.019246
# 3 -0.004807 -0.004749 0.009498 0.002954 -0.013351 -0.001347
# 4 0.003463 0.005058 0.002954 0.053178 -0.038141 -0.017499
# 5 0.005960 0.004195 -0.013351 -0.038141 0.085667 0.010517
# 6 0.001843 -0.019246 -0.001347 -0.017499 0.010517 0.057354
#
#
# Mechanical properties :
#
#
# Convention : Reuss Voigt Hill
#
# Bulk Modulus (GPa) = 35.33393 63.28545 49.30969
# Shear Modulus (GPa) = 18.34755 32.87877 25.61316
#
# Velocity S-wave (km/s) = 2.84722 3.81144 3.36406
# Velocity P-wave (km/s) = 5.14011 6.87978 6.07257
#
# Compressibility (1/GPa) = 0.02830141
#
# Stress axis : x y z
#
# Youngs Moduli (GPa) = 70.25762 41.90890 105.28642
#
# Poissons Ratio (x) = 0.00375 0.50613
# Poissons Ratio (y) = 0.00629 0.50000
# Poissons Ratio (z) = 0.33774 0.19902
#
# Static dielectric constant tensor:
#      x y z
#    x 1.858890 0.047010 -0.003220 
#    y 0.047010 1.774710 -0.009170 
#    z -0.003220 -0.009170 1.822350 
# 
# From -- ./inp_files/282960.got.cif
#   From: 2010.05.17/outbox.cif.g08.bks.cpg/sg2_142_cif.got.tgz:282960.got - 2010.06.03 11:33:40.
