data_PCOD9037981
_publ_section_title
;
Structure prediction by ZEFSAII (Michael W. Deem and Ramdas Pophale) SiO2 
 PCOD9037981
Probable space group: P -1
;
_chemical_formula_sum "Si O2"
_cell_formula_units_Z 10
_cell_length_a 10.218724
_cell_length_b 17.532630
_cell_length_c 17.534674
_cell_angle_alpha 16.170607
_cell_angle_beta 147.062232
_cell_angle_gamma 147.173104
_cell_volume 463.382448
_symmetry_space_group_name_H-M "P -1"
_symmetry_group_IT_number 2
_symmetry_cell_setting 'triclinic'
loop_
_space_group_symop_operation_xyz
x,y,z
-x,-y,-z
loop_
_atom_site_type_symbol
_atom_site_label
_atom_site_fract_x
_atom_site_fract_y
_atom_site_fract_z
Si Si1 0.281381 0.224047 0.139918
Si Si2 0.621884 0.898399 0.536439
Si Si3 0.495396 0.239039 0.861237
Si Si4 0.717883 0.372685 0.006390
Si Si5 0.782220 0.371994 0.726371
O O1 0.209649 0.082218 0.323956
O O2 0.385355 0.003043 0.352250
O O3 0.500000 0.500000 0.000000
O O4 0.054097 0.324001 0.896758
O O5 0.599874 0.588800 0.790137
O O6 0.719702 0.106344 0.315880
O O7 0.566850 0.304398 0.920171
O O8 0.717360 0.379094 0.777728
O O9 0.271434 0.367256 0.596666
O O10 0.415291 0.904744 0.132907
O O11 0.000000 0.500000 0.000000
#
# Coordination Sequence:
#
# PCOD9037981 Si02
#       5
#     2   2   2   2   2
#     4  11  24  44  70  94 131 173 222 267 309 388
#     4  11  25  40  66  99 125 168 226 255 330 373
#     4  10  23  41  65  95 127 167 213 266 326 375
#     4  12  24  43  66  97 134 168 213 273 323 384
#     4  10  23  42  66  93 127 169 217 263 317 380
#
# _framework density 21.580446999999999
#
# number of rings (size 3 to 8) (size 9 to 14) (size 15 to 20)
#    0.000    1.200    2.000    3.000    5.600    3.200 
#    0.000    6.000    0.000    0.000    0.000    0.000 
#    0.000    0.000    0.000    0.000    0.000    0.000 
#
# Total GULP energy -55926.924978 kJ/mol
# GULP energy per Si atom -5592.692498 kJ/mol
# Density = 2.153133 g / cm^3
# Si number density = 21.580447 Si / 1000 Ang^3
#
#
#
# Elastic Constant Matrix: (Units=GPa)
#
#
# Indices 1 2 3 4 5 6 
#
# 1 70.0258 36.3541 13.1383 12.5312 2.3724 -27.7205
# 2 36.3541 37.8520 1.1768 4.9889 2.0799 -8.7420
# 3 13.1383 1.1768 94.6116 2.8819 -0.2312 -3.6993
# 4 12.5312 4.9889 2.8819 30.4569 -1.1230 6.5749
# 5 2.3724 2.0799 -0.2312 -1.1230 53.5593 7.1360
# 6 -27.7205 -8.7420 -3.6993 6.5749 7.1360 33.7862
#
#
#
# Elastic Compliance Matrix: (Units=1/GPa)
#
#
# Indices 1 2 3 4 5 6 
#
# 1 0.061432 -0.044311 -0.005386 -0.027575 -0.007641 0.045328
# 2 -0.044311 0.061670 0.004101 0.012829 0.002928 -0.023065
# 3 -0.005386 0.004101 0.011141 0.001034 0.000474 -0.002440
# 4 -0.027575 0.012829 0.001034 0.048638 0.005727 -0.029867
# 5 -0.007641 0.002928 0.000474 0.005727 0.020470 -0.010898
# 6 0.045328 -0.023065 -0.002440 -0.029867 -0.010898 0.068667
#
#
# Mechanical properties :
#
#
# Convention : Reuss Voigt Hill
#
# Bulk Modulus (GPa) = 23.22846 33.75866 28.49356
# Shear Modulus (GPa) = 13.24290 33.68183 23.46236
#
# Velocity S-wave (km/s) = 2.47989 3.95493 3.30086
# Velocity P-wave (km/s) = 4.35739 6.04420 5.26874
#
# Compressibility (1/GPa) = 0.04305065
#
# Stress axis : x y z
#
# Youngs Moduli (GPa) = 16.27807 16.21534 89.76080
#
# Poissons Ratio (x) = 0.71852 0.48346
# Poissons Ratio (y) = 0.72130 -0.36809
# Poissons Ratio (z) = 0.08768 -0.06649
#
# Static dielectric constant tensor:
#      x y z
#    x 1.872530 -0.005290 -0.071140 
#    y -0.005290 1.768110 0.004710 
#    z -0.071140 0.004710 1.837110 
# 
# From -- ./inp_files/22719.got.cif
#   From: 2010.05.17/outbox.cif.g08.bks.cpg/sg2_12_cif.got.tgz:22719.got - 2010.06.03 11:33:40.
