data_PCOD9037608
_publ_section_title
;
Structure prediction by ZEFSAII (Michael W. Deem and Ramdas Pophale) SiO2 
 PCOD9037608
Probable space group: P -1
;
_chemical_formula_sum "Si O2"
_cell_formula_units_Z 16
_cell_length_a 14.177085
_cell_length_b 12.090386
_cell_length_c 17.679619
_cell_angle_alpha 90.292475
_cell_angle_beta 22.815768
_cell_angle_gamma 104.153024
_cell_volume 923.420110
_symmetry_space_group_name_H-M "P -1"
_symmetry_group_IT_number 2
_symmetry_cell_setting 'triclinic'
loop_
_space_group_symop_operation_xyz
x,y,z
-x,-y,-z
loop_
_atom_site_type_symbol
_atom_site_label
_atom_site_fract_x
_atom_site_fract_y
_atom_site_fract_z
Si Si1 0.408491 0.027437 0.831015
Si Si2 0.864351 0.404093 0.994435
Si Si3 0.786330 0.607391 0.123038
Si Si4 0.160338 0.360944 0.643813
Si Si5 0.336333 0.206586 0.604596
Si Si6 0.653322 0.884191 0.560757
Si Si7 0.707694 0.044178 0.919833
Si Si8 0.283360 0.162835 0.809364
O O1 0.468516 0.155804 0.740042
O O2 0.539911 0.963140 0.684732
O O3 0.491904 0.041455 0.857874
O O4 0.035409 0.910235 0.112120
O O5 0.055968 0.388553 0.915507
O O6 0.979183 0.396429 0.829129
O O7 0.898907 0.544567 0.981905
O O8 0.517609 0.264750 0.269758
O O9 0.416135 0.488977 0.403282
O O10 0.843104 0.753043 0.071842
O O11 0.358754 0.334850 0.552659
O O12 0.908076 0.211375 0.790031
O O13 0.435779 0.153181 0.462801
O O14 0.457037 0.226520 0.600368
O O15 0.021489 0.970520 0.292282
O O16 0.500000 0.000000 0.000000
O O17 0.000000 0.000000 0.000000
#
# Coordination Sequence:
#
# PCOD9037608 Si02
#       8
#     2   2   2   2   2   2   2   2
#     4   9  18  34  50  72 108 135 167 213 254 318
#     4  11  18  30  51  79 110 140 175 209 254 306
#     4  11  21  29  51  78 111 146 174 204 253 307
#     4  10  18  34  49  77 112 131 174 223 256 299
#     4   9  17  29  49  71 107 140 169 204 247 298
#     4  10  17  33  52  78 104 135 170 220 256 310
#     4  10  21  36  58  80 101 130 171 234 281 300
#     4  10  19  33  48  71 110 152 174 198 251 313
#
# _framework density 17.326891
#
# number of rings (size 3 to 8) (size 9 to 14) (size 15 to 20)
#    0.000    2.250    6.250    1.125    0.000    1.000 
#    0.000    5.000    0.000    0.750    0.000    1.750 
#    0.000    0.000    0.000    0.000    0.000    0.000 
#
# Total GULP energy -89115.404970 kJ/mol
# GULP energy per Si atom -5569.712811 kJ/mol
# Density = 1.728745 g / cm^3
# Si number density = 17.326891 Si / 1000 Ang^3
#
#
#
# Elastic Constant Matrix: (Units=GPa)
#
#
# Indices 1 2 3 4 5 6 
#
# 1 96.4073 43.4009 27.7112 13.7817 8.6616 2.2277
# 2 43.4009 123.8738 34.5396 21.4551 8.4073 -4.4899
# 3 27.7112 34.5396 63.7235 22.0738 10.4530 10.0047
# 4 13.7817 21.4551 22.0738 29.4967 9.8384 6.8377
# 5 8.6616 8.4073 10.4530 9.8384 12.4936 1.5852
# 6 2.2277 -4.4899 10.0047 6.8377 1.5852 15.1765
#
#
#
# Elastic Compliance Matrix: (Units=1/GPa)
#
#
# Indices 1 2 3 4 5 6 
#
# 1 0.013227 -0.003546 -0.003137 0.000342 -0.004349 -0.000622
# 2 -0.003546 0.011933 -0.004524 -0.006642 0.002201 0.009796
# 3 -0.003137 -0.004524 0.025974 -0.009073 -0.007704 -0.013108
# 4 0.000342 -0.006642 -0.009073 0.061347 -0.033932 -0.020130
# 5 -0.004349 0.002201 -0.007704 -0.033932 0.113498 0.009801
# 6 -0.000622 0.009796 -0.013108 -0.020130 0.009801 0.085567
#
#
# Mechanical properties :
#
#
# Convention : Reuss Voigt Hill
#
# Bulk Modulus (GPa) = 34.82016 55.03420 44.92718
# Shear Modulus (GPa) = 14.55464 23.32356 18.93910
#
# Velocity S-wave (km/s) = 2.90142 3.67289 3.30971
# Velocity P-wave (km/s) = 5.60036 7.05819 6.37111
#
# Compressibility (1/GPa) = 0.02871899
#
# Stress axis : x y z
#
# Youngs Moduli (GPa) = 75.60248 83.80391 38.50058
#
# Poissons Ratio (x) = 0.29718 0.12078
# Poissons Ratio (y) = 0.26810 0.17417
# Poissons Ratio (z) = 0.23718 0.37911
#
# Static dielectric constant tensor:
#      x y z
#    x 1.623960 -0.004190 0.024000 
#    y -0.004190 1.622840 -0.014650 
#    z 0.024000 -0.014650 1.656370 
# 
# From -- ./inp_files/573220.got.cif
#   From: 2010.05.17/outbox.cif.g08.bks.cpg/sg2_287_cif.got.tgz:573220.got - 2010.06.03 11:33:40.
