data_PCOD9037997
_publ_section_title
;
Structure prediction by ZEFSAII (Michael W. Deem and Ramdas Pophale) SiO2 
 PCOD9037997
Probable space group: P -1
;
_chemical_formula_sum "Si O2"
_cell_formula_units_Z 14
_cell_length_a 20.283838
_cell_length_b 19.010524
_cell_length_c 5.244258
_cell_angle_alpha 108.670855
_cell_angle_beta 94.253486
_cell_angle_gamma 22.878580
_cell_volume 596.182458
_symmetry_space_group_name_H-M "P -1"
_symmetry_group_IT_number 2
_symmetry_cell_setting 'triclinic'
loop_
_space_group_symop_operation_xyz
x,y,z
-x,-y,-z
loop_
_atom_site_type_symbol
_atom_site_label
_atom_site_fract_x
_atom_site_fract_y
_atom_site_fract_z
Si Si1 0.999861 0.947404 0.695395
Si Si2 0.245670 0.959330 0.883309
Si Si3 0.942397 0.647340 0.131925
Si Si4 0.367741 0.448592 0.095739
Si Si5 0.512417 0.172002 0.506482
Si Si6 0.113729 0.547983 0.562963
Si Si7 0.384644 0.700277 0.247862
O O1 0.188651 0.686312 0.459396
O O2 0.000000 0.000000 0.500000
O O3 0.794813 0.114541 0.802069
O O4 0.000000 0.000000 0.000000
O O5 0.419645 0.780675 0.944674
O O6 0.335847 0.924015 0.664972
O O7 0.256797 0.866702 0.648082
O O8 0.017035 0.234829 0.212040
O O9 0.047644 0.578843 0.318576
O O10 0.686209 0.931633 0.394675
O O11 0.000000 0.500000 0.000000
O O12 0.031947 0.584787 0.818922
O O13 0.347827 0.388081 0.904335
O O14 0.425645 0.443682 0.880388
O O15 0.362097 0.298149 0.393196
O O16 0.500000 0.500000 0.000000
#
# Coordination Sequence:
#
# PCOD9037997 Si02
#       7
#     2   2   2   2   2   2   2
#     4  12  27  42  61  92 124 165 222 277 339 400
#     4  10  23  41  65  96 130 175 230 282 329 405
#     4  11  25  45  70 108 142 174 224 277 330 404
#     4  11  23  42  67  89 131 176 223 285 331 404
#     4  10  24  43  68 100 136 180 229 273 335 403
#     4  11  24  44  72  99 140 183 223 273 337 399
#     4  11  23  41  62  89 127 171 219 281 346 386
#
# _framework density 23.482745000000001
#
# number of rings (size 3 to 8) (size 9 to 14) (size 15 to 20)
#    0.000    1.143    2.857    2.143    6.000    3.429 
#    0.000    0.000    0.000    0.000    0.000    0.000 
#    0.000    0.000    0.000    0.000    0.000    0.000 
#
# Total GULP energy -78166.219138 kJ/mol
# GULP energy per Si atom -5583.301367 kJ/mol
# Density = 2.342930 g / cm^3
# Si number density = 23.482745 Si / 1000 Ang^3
#
#
#
# Elastic Constant Matrix: (Units=GPa)
#
#
# Indices 1 2 3 4 5 6 
#
# 1 63.7968 17.4091 38.0670 10.6098 10.0173 14.9012
# 2 17.4091 152.7568 58.7743 2.5125 23.9857 -8.2471
# 3 38.0670 58.7743 120.9871 -3.8321 29.5219 6.1773
# 4 10.6098 2.5125 -3.8321 50.2704 11.9740 4.3377
# 5 10.0173 23.9857 29.5219 11.9740 33.0393 -0.2282
# 6 14.9012 -8.2471 6.1773 4.3377 -0.2282 36.4774
#
#
#
# Elastic Compliance Matrix: (Units=1/GPa)
#
#
# Indices 1 2 3 4 5 6 
#
# 1 0.022243 -0.000420 -0.006935 -0.004917 0.001488 -0.007413
# 2 -0.000420 0.008522 -0.003436 -0.000134 -0.002922 0.002678
# 3 -0.006935 -0.003436 0.014977 0.005445 -0.010767 -0.001195
# 4 -0.004917 -0.000134 0.005445 0.024409 -0.012136 -0.001922
# 5 0.001488 -0.002922 -0.010767 -0.012136 0.045973 0.002286
# 6 -0.007413 0.002678 -0.001195 -0.001922 0.002286 0.031493
#
#
# Mechanical properties :
#
#
# Convention : Reuss Voigt Hill
#
# Bulk Modulus (GPa) = 41.38868 62.89347 52.14108
# Shear Modulus (GPa) = 28.20876 38.84345 33.52610
#
# Velocity S-wave (km/s) = 3.46967 4.07151 3.78258
# Velocity P-wave (km/s) = 5.80645 6.99599 6.42879
#
# Compressibility (1/GPa) = 0.02416120
#
# Stress axis : x y z
#
# Youngs Moduli (GPa) = 44.95843 117.34791 66.76845
#
# Poissons Ratio (x) = 0.04925 0.46304
# Poissons Ratio (y) = 0.01887 0.22939
# Poissons Ratio (z) = 0.31178 0.40316
#
# Static dielectric constant tensor:
#      x y z
#    x 2.016600 0.032690 -0.177060 
#    y 0.032690 1.863410 -0.031000 
#    z -0.177060 -0.031000 1.901940 
# 
# From -- ./inp_files/8069.got.cif
#   From: 2010.05.17/outbox.cif.g08.bks.cpg/sg2_5_cif.got.tgz:8069.got - 2010.06.03 11:33:40.
