data_PCOD9037788
_publ_section_title
;
Structure prediction by ZEFSAII (Michael W. Deem and Ramdas Pophale) SiO2 
 PCOD9037788
Probable space group: P -1
;
_chemical_formula_sum "Si O2"
_cell_formula_units_Z 13
_cell_length_a 13.833740
_cell_length_b 14.104744
_cell_length_c 6.527604
_cell_angle_alpha 104.433663
_cell_angle_beta 88.108682
_cell_angle_gamma 150.411768
_cell_volume 562.281470
_symmetry_space_group_name_H-M "P -1"
_symmetry_group_IT_number 2
_symmetry_cell_setting 'triclinic'
loop_
_space_group_symop_operation_xyz
x,y,z
-x,-y,-z
loop_
_atom_site_type_symbol
_atom_site_label
_atom_site_fract_x
_atom_site_fract_y
_atom_site_fract_z
Si Si1 0.782319 0.097987 0.275173
Si Si2 0.069363 0.222361 0.609207
Si Si3 0.653885 0.264035 0.379136
Si Si4 0.487190 0.686523 0.819246
Si Si5 0.847000 0.880650 0.753490
Si Si6 0.000571 0.463716 0.207928
Si Si7 0.500000 0.000000 0.500000
O O1 0.645611 0.045054 0.398791
O O2 0.913738 0.282168 0.200992
O O3 0.630962 0.886261 0.053738
O O4 0.936191 0.175994 0.454385
O O5 0.271165 0.458552 0.817849
O O6 0.151674 0.212247 0.442801
O O7 0.934905 0.048935 0.700182
O O8 0.587625 0.313611 0.367171
O O9 0.850505 0.407510 0.304191
O O10 0.746483 0.312102 0.623240
O O11 0.457310 0.014952 0.270596
O O12 0.621518 0.713665 0.760227
O O13 0.000000 0.000000 0.000000
O O14 0.000000 0.500000 0.000000
#
# Coordination Sequence:
#
# PCOD9037788 Si02
#       7
#     2   2   2   2   2   2   1
#     4  11  24  47  71 107 148 193 251 295 369 429
#     4  11  25  51  74 105 152 185 238 313 364 442
#     4  10  23  41  63 100 137 187 242 290 359 417
#     4  12  25  45  75 109 140 198 244 294 375 435
#     4  11  25  50  77 109 145 186 242 308 371 443
#     4  10  23  42  66  96 144 191 237 299 348 418
#     4  10  24  42  66  98 148 188 242 302 342 436
#
# _framework density 23.120093000000001
#
# number of rings (size 3 to 8) (size 9 to 14) (size 15 to 20)
#    0.000    1.231    3.077    1.385    4.308    3.077 
#    5.538    0.769    0.000    0.000    0.000    0.000 
#    0.000    0.000    0.000    0.000    0.000    0.000 
#
# Total GULP energy -72537.327902 kJ/mol
# GULP energy per Si atom -5579.794454 kJ/mol
# Density = 2.306747 g / cm^3
# Si number density = 23.120093 Si / 1000 Ang^3
#
#
#
# Elastic Constant Matrix: (Units=GPa)
#
#
# Indices 1 2 3 4 5 6 
#
# 1 96.8316 32.6065 18.1591 -18.0243 25.6718 3.9543
# 2 32.6065 130.1702 46.1072 2.8433 8.1684 -0.4451
# 3 18.1591 46.1072 84.2121 -3.0954 26.1856 3.8968
# 4 -18.0243 2.8433 -3.0954 32.9127 -8.9504 -2.7390
# 5 25.6718 8.1684 26.1856 -8.9504 37.8117 -0.9811
# 6 3.9543 -0.4451 3.8968 -2.7390 -0.9811 30.7131
#
#
#
# Elastic Compliance Matrix: (Units=1/GPa)
#
#
# Indices 1 2 3 4 5 6 
#
# 1 0.015012 -0.004113 0.002290 0.006034 -0.009514 -0.002049
# 2 -0.004113 0.010824 -0.006586 -0.002472 0.004468 0.001444
# 3 0.002290 -0.006586 0.019400 -0.000365 -0.013739 -0.003323
# 4 0.006034 -0.002472 -0.000365 0.035482 0.005156 0.002563
# 5 -0.009514 0.004468 -0.013739 0.005156 0.042803 0.004860
# 6 -0.002049 0.001444 -0.003323 0.002563 0.004860 0.033650
#
#
# Mechanical properties :
#
#
# Convention : Reuss Voigt Hill
#
# Bulk Modulus (GPa) = 35.19055 56.10662 45.64859
# Shear Modulus (GPa) = 27.25355 34.57689 30.91522
#
# Velocity S-wave (km/s) = 3.43706 3.87141 3.66068
# Velocity P-wave (km/s) = 5.56822 6.65612 6.13632
#
# Compressibility (1/GPa) = 0.02841672
#
# Stress axis : x y z
#
# Youngs Moduli (GPa) = 66.61269 92.38659 51.54721
#
# Poissons Ratio (x) = 0.38002 -0.11805
# Poissons Ratio (y) = 0.27400 0.33951
# Poissons Ratio (z) = -0.15255 0.60849
#
# Static dielectric constant tensor:
#      x y z
#    x 1.826380 -0.081830 0.005390 
#    y -0.081830 2.395020 0.129840 
#    z 0.005390 0.129840 1.954130 
# 
# From -- ./inp_files/98318.got.cif
#   From: 2010.05.17/outbox.cif.g08.bks.cpg/sg2_50_cif.got.tgz:98318.got - 2010.06.03 11:33:40.
