data_PCOD9037345
_publ_section_title
;
Structure prediction by ZEFSAII (Michael W. Deem and Ramdas Pophale) SiO2 
 PCOD9037345
Probable space group: P -1
;
_chemical_formula_sum "Si O2"
_cell_formula_units_Z 14
_cell_length_a 9.937511
_cell_length_b 9.107310
_cell_length_c 10.261833
_cell_angle_alpha 139.194003
_cell_angle_beta 79.214857
_cell_angle_gamma 113.566494
_cell_volume 545.869076
_symmetry_space_group_name_H-M "P -1"
_symmetry_group_IT_number 2
_symmetry_cell_setting 'triclinic'
loop_
_space_group_symop_operation_xyz
x,y,z
-x,-y,-z
loop_
_atom_site_type_symbol
_atom_site_label
_atom_site_fract_x
_atom_site_fract_y
_atom_site_fract_z
Si Si1 0.741844 0.740901 0.283997
Si Si2 0.009149 0.927172 0.157013
Si Si3 0.811876 0.275900 0.668606
Si Si4 0.806091 0.660295 0.762368
Si Si5 0.616086 0.962090 0.053236
Si Si6 0.843927 0.385194 0.159051
Si Si7 0.518912 0.194204 0.746340
O O1 0.886609 0.847125 0.235809
O O2 0.742569 0.521676 0.222916
O O3 0.585220 0.672538 0.194190
O O4 0.767357 0.993925 0.521690
O O5 0.914487 0.798891 0.957895
O O6 0.101225 0.211926 0.297480
O O7 0.128893 0.806201 0.072901
O O8 0.776668 0.378441 0.604677
O O9 0.697671 0.345593 0.824637
O O10 0.989657 0.405351 0.726715
O O11 0.667552 0.742325 0.855971
O O12 0.768056 0.210770 0.177538
O O13 0.548061 0.923418 0.183050
O O14 0.500000 0.000000 0.000000
O O15 0.500000 0.000000 0.500000
#
# Coordination Sequence:
#
# PCOD9037345 Si02
#       7
#     2   2   2   2   2   2   2
#     4  11  21  39  68  96 134 180 221 274 340 400
#     4   9  18  36  62  92 131 165 224 274 330 387
#     4  10  23  40  65  96 138 176 227 266 340 403
#     4   9  19  37  59  95 129 166 222 279 323 389
#     4  11  24  43  71  99 133 177 230 280 335 396
#     4  10  23  42  65 101 132 172 227 284 330 394
#     4  10  24  45  65  96 140 177 221 273 339 405
#
# _framework density 25.647176000000002
#
# number of rings (size 3 to 8) (size 9 to 14) (size 15 to 20)
#    0.000    2.000    1.429    1.714    2.000    5.714 
#    2.571    2.857    0.000    0.000    0.000    0.000 
#    0.000    0.000    0.000    0.000    0.000    0.000 
#
# Total GULP energy -78205.823966 kJ/mol
# GULP energy per Si atom -5586.130283 kJ/mol
# Density = 2.558880 g / cm^3
# Si number density = 25.647176 Si / 1000 Ang^3
#
#
#
# Elastic Constant Matrix: (Units=GPa)
#
#
# Indices 1 2 3 4 5 6 
#
# 1 159.1438 56.6484 28.4474 0.6593 -22.8465 -12.5375
# 2 56.6484 147.1479 28.2728 -7.5656 -8.5639 19.8917
# 3 28.4474 28.2728 51.8510 -2.5490 -8.7100 -3.1689
# 4 0.6593 -7.5656 -2.5490 32.7791 5.7963 -12.7816
# 5 -22.8465 -8.5639 -8.7100 5.7963 36.6376 11.0174
# 6 -12.5375 19.8917 -3.1689 -12.7816 11.0174 55.9085
#
#
#
# Elastic Compliance Matrix: (Units=1/GPa)
#
#
# Indices 1 2 3 4 5 6 
#
# 1 0.008392 -0.002863 -0.002372 -0.000929 0.003592 0.001846
# 2 -0.002863 0.009210 -0.003575 0.000111 0.000778 -0.004250
# 3 -0.002372 -0.003575 0.023121 0.001328 0.002406 0.001880
# 4 -0.000929 0.000111 0.001328 0.036059 -0.008897 0.009824
# 5 0.003592 0.000778 0.002406 -0.008897 0.034130 -0.008095
# 6 0.001846 -0.004250 0.001880 0.009824 -0.008095 0.023760
#
#
# Mechanical properties :
#
#
# Convention : Reuss Voigt Hill
#
# Bulk Modulus (GPa) = 43.28515 64.98665 54.13590
# Shear Modulus (GPa) = 31.25123 41.38333 36.31728
#
# Velocity S-wave (km/s) = 3.49450 4.02128 3.76711
# Velocity P-wave (km/s) = 5.76158 6.85234 6.33050
#
# Compressibility (1/GPa) = 0.02310261
#
# Stress axis : x y z
#
# Youngs Moduli (GPa) = 119.16545 108.57253 43.25006
#
# Poissons Ratio (x) = 0.31085 0.10261
# Poissons Ratio (y) = 0.34117 0.15462
# Poissons Ratio (z) = 0.28271 0.38815
#
# Static dielectric constant tensor:
#      x y z
#    x 2.071780 0.014210 0.040870 
#    y 0.014210 2.012480 0.060110 
#    z 0.040870 0.060110 2.163250 
# 
# From -- ./inp_files/383483.got.cif
#   From: 2010.05.17/outbox.cif.g08.bks.cpg/sg2_192_cif.got.tgz:383483.got - 2010.06.03 11:33:40.
