data_PCOD9037618
_publ_section_title
;
Structure prediction by ZEFSAII (Michael W. Deem and Ramdas Pophale) SiO2 
 PCOD9037618
Probable space group: P -1
;
_chemical_formula_sum "Si O2"
_cell_formula_units_Z 15
_cell_length_a 11.995483
_cell_length_b 9.750803
_cell_length_c 10.749420
_cell_angle_alpha 146.739785
_cell_angle_beta 125.440505
_cell_angle_gamma 66.259788
_cell_volume 552.192630
_symmetry_space_group_name_H-M "P -1"
_symmetry_group_IT_number 2
_symmetry_cell_setting 'triclinic'
loop_
_space_group_symop_operation_xyz
x,y,z
-x,-y,-z
loop_
_atom_site_type_symbol
_atom_site_label
_atom_site_fract_x
_atom_site_fract_y
_atom_site_fract_z
Si Si1 0.763106 0.836805 0.508095
Si Si2 0.081251 0.846220 0.693273
Si Si3 0.444964 0.294447 0.937351
Si Si4 0.692589 0.366068 0.773045
Si Si5 0.687143 0.978377 0.838480
Si Si6 0.316622 0.796024 0.629812
Si Si7 0.937833 0.745498 0.187178
Si Si8 0.500000 0.500000 0.500000
O O1 0.752359 0.117923 0.658161
O O2 0.732687 0.864548 0.653918
O O3 0.915561 0.761161 0.534593
O O4 0.642643 0.682622 0.228135
O O5 0.169524 0.735061 0.557340
O O6 0.000000 0.000000 0.500000
O O7 0.095883 0.135304 0.873958
O O8 0.576928 0.166827 0.892793
O O9 0.358458 0.072618 0.806327
O O10 0.445895 0.568305 0.209372
O O11 0.669908 0.377738 0.617527
O O12 0.808466 0.598713 0.067239
O O13 0.610440 0.755860 0.710004
O O14 0.825686 0.140634 0.114475
O O15 0.433470 0.693325 0.703144
O O16 0.000000 0.500000 0.000000
#
# Coordination Sequence:
#
# PCOD9037618 Si02
#       8
#     2   2   2   2   2   2   2   1
#     4  11  25  48  71 105 152 197 249 313 387 468
#     4  12  24  43  75 110 153 193 247 322 393 459
#     4  10  23  44  74 104 143 198 252 307 374 465
#     4  11  22  41  71 105 142 193 251 311 374 450
#     4  11  26  48  72 105 151 195 253 318 385 469
#     4  10  23  40  70 108 141 190 249 313 380 460
#     4  12  23  40  71 109 152 200 258 314 389 468
#     4  10  24  46  70  98 146 196 246 312 392 448
#
# _framework density 27.164432000000001
#
# number of rings (size 3 to 8) (size 9 to 14) (size 15 to 20)
#    0.000    1.067    2.667    3.200    1.867    1.600 
#    4.800    0.667    0.000    0.000    0.000    0.000 
#    0.000    0.000    0.000    0.000    0.000    0.000 
#
# Total GULP energy -83608.397439 kJ/mol
# GULP energy per Si atom -5573.893163 kJ/mol
# Density = 2.710260 g / cm^3
# Si number density = 27.164432 Si / 1000 Ang^3
#
#
#
# Elastic Constant Matrix: (Units=GPa)
#
#
# Indices 1 2 3 4 5 6 
#
# 1 226.9090 57.2069 66.6842 -29.8845 -35.5064 -27.4225
# 2 57.2069 87.4874 32.7421 -2.0419 -2.4512 -5.3077
# 3 66.6842 32.7421 128.4349 -15.1210 -10.8356 -9.4036
# 4 -29.8845 -2.0419 -15.1210 60.6960 -4.9652 -2.6271
# 5 -35.5064 -2.4512 -10.8356 -4.9652 60.4715 6.6044
# 6 -27.4225 -5.3077 -9.4036 -2.6271 6.6044 37.8679
#
#
#
# Elastic Compliance Matrix: (Units=1/GPa)
#
#
# Indices 1 2 3 4 5 6 
#
# 1 0.007432 -0.003725 -0.001886 0.003542 0.003731 0.003987
# 2 -0.003725 0.014548 -0.002273 -0.002124 -0.002069 -0.001010
# 3 -0.001886 -0.002273 0.009617 0.001468 0.000567 0.000707
# 4 0.003542 -0.002124 0.001468 0.018941 0.003447 0.003345
# 5 0.003731 -0.002069 0.000567 0.003447 0.019087 -0.000537
# 6 0.003987 -0.001010 0.000707 0.003345 -0.000537 0.029655
#
#
# Mechanical properties :
#
#
# Convention : Reuss Voigt Hill
#
# Bulk Modulus (GPa) = 63.17299 84.01083 73.59191
# Shear Modulus (GPa) = 41.55453 50.88697 46.22075
#
# Velocity S-wave (km/s) = 3.91543 4.33285 4.12942
# Velocity P-wave (km/s) = 6.61416 7.48501 7.06302
#
# Compressibility (1/GPa) = 0.01582955
#
# Stress axis : x y z
#
# Youngs Moduli (GPa) = 134.54430 68.73788 103.98236
#
# Poissons Ratio (x) = 0.25606 0.19607
# Poissons Ratio (y) = 0.50121 0.23636
# Poissons Ratio (z) = 0.25370 0.15625
#
# Static dielectric constant tensor:
#      x y z
#    x 2.259590 0.204910 -0.011130 
#    y 0.204910 1.757890 0.052350 
#    z -0.011130 0.052350 2.169860 
# 
# From -- ./inp_files/299882.got.cif
#   From: 2010.05.17/outbox.cif.g08.bks.cpg/sg2_150_cif.got.tgz:299882.got - 2010.06.03 11:33:40.
