data_PCOD9037530
_publ_section_title
;
Structure prediction by ZEFSAII (Michael W. Deem and Ramdas Pophale) SiO2 
 PCOD9037530
Probable space group: P -1
;
_chemical_formula_sum "Si O2"
_cell_formula_units_Z 14
_cell_length_a 15.538299
_cell_length_b 9.957095
_cell_length_c 17.486761
_cell_angle_alpha 140.405975
_cell_angle_beta 156.401069
_cell_angle_gamma 37.079580
_cell_volume 644.218452
_symmetry_space_group_name_H-M "P -1"
_symmetry_group_IT_number 2
_symmetry_cell_setting 'triclinic'
loop_
_space_group_symop_operation_xyz
x,y,z
-x,-y,-z
loop_
_atom_site_type_symbol
_atom_site_label
_atom_site_fract_x
_atom_site_fract_y
_atom_site_fract_z
Si Si1 0.484201 0.119569 0.417033
Si Si2 0.975408 0.761915 0.460166
Si Si3 0.870101 0.563942 0.003778
Si Si4 0.172453 0.258712 0.361612
Si Si5 0.915335 0.105920 0.690442
Si Si6 0.916023 0.936083 0.022667
Si Si7 0.388570 0.904419 0.798425
O O1 0.647825 0.902240 0.501968
O O2 0.655360 0.220667 0.559485
O O3 0.315787 0.278709 0.412753
O O4 0.330754 0.046760 0.200254
O O5 0.028363 0.497527 0.384848
O O6 0.204307 0.799584 0.632283
O O7 0.929547 0.887152 0.558913
O O8 0.757410 0.895294 0.288458
O O9 0.917695 0.321709 0.973881
O O10 0.603051 0.713814 0.848751
O O11 0.998580 0.724070 0.213697
O O12 0.000000 0.500000 0.000000
O O13 0.012849 0.117125 0.146468
O O14 0.072060 0.037522 0.864184
O O15 0.500000 0.000000 0.000000
#
# Coordination Sequence:
#
# PCOD9037530 Si02
#       7
#     2   2   2   2   2   2   2
#     4  10  23  40  68  92 134 170 222 267 319 379
#     4  11  26  43  68  93 139 171 213 267 328 391
#     4  10  23  42  68  96 132 161 220 274 316 388
#     4  10  24  44  63 100 126 175 222 265 319 387
#     4  10  23  43  61 103 125 171 217 264 330 382
#     4  10  23  42  67  98 126 173 220 267 323 374
#     4  11  25  44  63 100 130 175 215 260 331 389
#
# _framework density 21.731757999999999
#
# number of rings (size 3 to 8) (size 9 to 14) (size 15 to 20)
#    0.000    1.714    1.429    0.429   14.000    4.000 
#    0.000    1.429    0.000    0.000    0.000    0.000 
#    0.000    0.000    0.000    0.000    0.000    0.000 
#
# Total GULP energy -78239.028851 kJ/mol
# GULP energy per Si atom -5588.502061 kJ/mol
# Density = 2.168230 g / cm^3
# Si number density = 21.731758 Si / 1000 Ang^3
#
#
#
# Elastic Constant Matrix: (Units=GPa)
#
#
# Indices 1 2 3 4 5 6 
#
# 1 54.9386 21.4433 24.5818 -1.7953 -4.9906 -16.0176
# 2 21.4433 98.0031 36.4983 18.7108 -1.9130 -7.3759
# 3 24.5818 36.4983 135.0052 -8.0281 -18.0854 0.1097
# 4 -1.7953 18.7108 -8.0281 37.0699 3.3932 -0.6103
# 5 -4.9906 -1.9130 -18.0854 3.3932 41.3487 -1.2016
# 6 -16.0176 -7.3759 0.1097 -0.6103 -1.2016 21.1050
#
#
#
# Elastic Compliance Matrix: (Units=1/GPa)
#
#
# Indices 1 2 3 4 5 6 
#
# 1 0.027162 -0.003570 -0.003593 0.002487 0.001906 0.019566
# 2 -0.003570 0.014017 -0.003707 -0.007955 -0.000695 0.001939
# 3 -0.003593 -0.003707 0.009706 0.003439 0.003248 -0.003789
# 4 0.002487 -0.007955 0.003439 0.031964 -0.001188 -0.000054
# 5 0.001906 -0.000695 0.003248 -0.001188 0.025977 0.002632
# 6 0.019566 0.001939 -0.003789 -0.000054 0.002632 0.063078
#
#
# Mechanical properties :
#
#
# Convention : Reuss Voigt Hill
#
# Bulk Modulus (GPa) = 34.31156 50.33264 42.32210
# Shear Modulus (GPa) = 24.58698 33.59961 29.09329
#
# Velocity S-wave (km/s) = 3.36726 3.93632 3.66286
# Velocity P-wave (km/s) = 5.56245 6.62349 6.11602
#
# Compressibility (1/GPa) = 0.02914469
#
# Stress axis : x y z
#
# Youngs Moduli (GPa) = 36.81562 71.34423 103.02638
#
# Poissons Ratio (x) = 0.25470 0.37020
# Poissons Ratio (y) = 0.13143 0.38192
# Poissons Ratio (z) = 0.13229 0.26447
#
# Static dielectric constant tensor:
#      x y z
#    x 1.862460 0.010450 0.010130 
#    y 0.010450 1.787420 0.034590 
#    z 0.010130 0.034590 1.809330 
# 
# From -- ./inp_files/436956.got.cif
#   From: 2010.05.17/outbox.cif.g08.bks.cpg/sg2_219_cif.got.tgz:436956.got - 2010.06.03 11:33:40.
