data_PCOD9037358
_publ_section_title
;
Structure prediction by ZEFSAII (Michael W. Deem and Ramdas Pophale) SiO2 
 PCOD9037358
Probable space group: P -1
;
_chemical_formula_sum "Si O2"
_cell_formula_units_Z 16
_cell_length_a 14.899471
_cell_length_b 5.432481
_cell_length_c 15.237970
_cell_angle_alpha 120.599035
_cell_angle_beta 59.985926
_cell_angle_gamma 128.469428
_cell_volume 799.770257
_symmetry_space_group_name_H-M "P -1"
_symmetry_group_IT_number 2
_symmetry_cell_setting 'triclinic'
loop_
_space_group_symop_operation_xyz
x,y,z
-x,-y,-z
loop_
_atom_site_type_symbol
_atom_site_label
_atom_site_fract_x
_atom_site_fract_y
_atom_site_fract_z
Si Si1 0.558610 0.332727 0.740017
Si Si2 0.254263 0.372900 0.147481
Si Si3 0.450943 0.625212 0.432665
Si Si4 0.029975 0.290831 0.161283
Si Si5 0.116095 0.434528 0.812059
Si Si6 0.593626 0.358323 0.052309
Si Si7 0.186908 0.664782 0.002345
Si Si8 0.628015 0.427763 0.349413
O O1 0.659597 0.418234 0.778363
O O2 0.617910 0.483514 0.644416
O O3 0.478166 0.481312 0.841896
O O4 0.467952 0.951841 0.693898
O O5 0.145989 0.443943 0.196155
O O6 0.204346 0.980011 0.106570
O O7 0.333331 0.456588 0.036113
O O8 0.570733 0.606152 0.354997
O O9 0.379813 0.460088 0.526370
O O10 0.500000 0.000000 0.500000
O O11 0.095833 0.345319 0.044316
O O12 0.952531 0.469645 0.210085
O O13 0.951685 0.929475 0.176597
O O14 0.241197 0.495670 0.724070
O O15 0.141473 0.665924 0.927331
O O16 0.688775 0.334899 0.064723
O O17 0.500000 0.000000 0.000000
#
# Coordination Sequence:
#
# PCOD9037358 Si02
#       8
#     2   2   2   2   2   2   2   2
#     4  11  22  38  63  93 130 168 206 261 328 388
#     4  11  24  39  58  88 134 174 216 255 311 382
#     4   9  21  41  64  95 125 153 208 262 339 390
#     4  11  26  42  59  90 125 180 222 262 307 373
#     4  12  25  39  67  89 129 168 221 268 316 369
#     4  11  23  34  56  93 138 171 210 252 311 386
#     4  11  23  39  58  90 130 175 220 260 310 376
#     4  10  23  40  65  99 122 161 206 273 330 383
#
# _framework density 20.005747
#
# number of rings (size 3 to 8) (size 9 to 14) (size 15 to 20)
#    0.000    1.250    2.500    2.625   12.250    0.000 
#    0.000    0.000    0.000    1.500    0.000    0.000 
#    0.000    0.000    0.000    0.000    0.000    0.000 
#
# Total GULP energy -89227.016447 kJ/mol
# GULP energy per Si atom -5576.688528 kJ/mol
# Density = 1.996021 g / cm^3
# Si number density = 20.005747 Si / 1000 Ang^3
#
#
#
# Elastic Constant Matrix: (Units=GPa)
#
#
# Indices 1 2 3 4 5 6 
#
# 1 179.3679 48.2895 70.7088 -0.9515 -4.1018 1.6031
# 2 48.2895 91.1911 21.2971 0.4168 -4.0519 1.0909
# 3 70.7088 21.2971 82.9042 2.3445 9.4262 12.7996
# 4 -0.9515 0.4168 2.3445 20.4706 -5.9414 -8.0458
# 5 -4.1018 -4.0519 9.4262 -5.9414 36.2211 -2.6035
# 6 1.6031 1.0909 12.7996 -8.0458 -2.6035 27.1817
#
#
#
# Elastic Compliance Matrix: (Units=1/GPa)
#
#
# Indices 1 2 3 4 5 6 
#
# 1 0.010258 -0.003090 -0.009566 0.005354 0.004619 0.006051
# 2 -0.003090 0.012862 -0.000871 0.000195 0.001367 0.000265
# 3 -0.009566 -0.000871 0.024426 -0.012471 -0.010706 -0.015620
# 4 0.005354 0.000195 -0.012471 0.065795 0.016579 0.026612
# 5 0.004619 0.001367 -0.010706 0.016579 0.034720 0.012947
# 6 0.006051 0.000265 -0.015620 0.026612 0.012947 0.052894
#
#
# Mechanical properties :
#
#
# Convention : Reuss Voigt Hill
#
# Bulk Modulus (GPa) = 48.79634 70.45046 59.62340
# Shear Modulus (GPa) = 21.29113 30.98585 26.13849
#
# Velocity S-wave (km/s) = 3.26582 3.93981 3.61854
# Velocity P-wave (km/s) = 6.21811 7.48249 6.87941
#
# Compressibility (1/GPa) = 0.02049334
#
# Stress axis : x y z
#
# Youngs Moduli (GPa) = 97.48649 77.74811 40.94004
#
# Poissons Ratio (x) = 0.24020 0.39163
# Poissons Ratio (y) = 0.30119 0.03565
# Poissons Ratio (z) = 0.93255 0.06770
#
# Static dielectric constant tensor:
#      x y z
#    x 1.768780 -0.045630 0.027480 
#    y -0.045630 1.857840 -0.022480 
#    z 0.027480 -0.022480 1.689730 
# 
# From -- ./inp_files/127489.got.cif
#   From: 2010.05.17/outbox.cif.g08.bks.cpg/sg2_64_cif.got.tgz:127489.got - 2010.06.03 11:33:40.
