data_PCOD9037048
_publ_section_title
;
Structure prediction by ZEFSAII (Michael W. Deem and Ramdas Pophale) SiO2 
 PCOD9037048
Probable space group: P -1
;
_chemical_formula_sum "Si O2"
_cell_formula_units_Z 16
_cell_length_a 8.934413
_cell_length_b 15.856286
_cell_length_c 15.026279
_cell_angle_alpha 36.505488
_cell_angle_beta 130.152772
_cell_angle_gamma 102.001154
_cell_volume 707.345185
_symmetry_space_group_name_H-M "P -1"
_symmetry_group_IT_number 2
_symmetry_cell_setting 'triclinic'
loop_
_space_group_symop_operation_xyz
x,y,z
-x,-y,-z
loop_
_atom_site_type_symbol
_atom_site_label
_atom_site_fract_x
_atom_site_fract_y
_atom_site_fract_z
Si Si1 0.819823 0.809668 0.279074
Si Si2 0.292727 0.740323 0.605025
Si Si3 0.618308 0.668603 0.419556
Si Si4 0.660653 0.313080 0.046056
Si Si5 0.703283 0.978853 0.713924
Si Si6 0.179171 0.053535 0.016763
Si Si7 0.281087 0.664732 0.150698
Si Si8 0.720423 0.046167 0.415067
O O1 0.843160 0.641619 0.472950
O O2 0.906820 0.797382 0.221040
O O3 0.001290 0.825745 0.392935
O O4 0.500000 0.000000 0.000000
O O5 0.280050 0.826964 0.620385
O O6 0.384513 0.814831 0.505623
O O7 0.496705 0.509145 0.872919
O O8 0.408477 0.712357 0.228877
O O9 0.688072 0.503228 0.649419
O O10 0.471272 0.853829 0.269558
O O11 0.605715 0.179730 0.169498
O O12 0.595395 0.374863 0.865431
O O13 0.982693 0.161057 0.311590
O O14 0.473486 0.981750 0.604272
O O15 0.811500 0.891804 0.927664
O O16 0.964126 0.842081 0.868449
O O17 0.000000 0.000000 0.000000
#
# Coordination Sequence:
#
# PCOD9037048 Si02
#       8
#     2   2   2   2   2   2   2   2
#     4  10  23  39  71 102 137 186 225 284 351 420
#     4  12  24  48  73  99 143 184 234 288 351 412
#     4  10  23  40  65 102 140 181 222 284 350 425
#     4  11  27  46  73 100 138 185 236 296 346 406
#     4  12  24  43  72  98 140 188 227 287 348 416
#     4  11  20  40  64 101 135 181 224 278 355 410
#     4  11  23  43  66 100 145 174 228 290 348 416
#     4  11  28  49  70 103 139 185 240 298 340 404
#
# _framework density 22.619789999999998
#
# number of rings (size 3 to 8) (size 9 to 14) (size 15 to 20)
#    0.000    1.000    3.750    2.250    3.500    3.500 
#    2.250    1.250    0.000    0.000    0.000    0.000 
#    0.000    0.000    0.000    0.000    0.000    0.000 
#
# Total GULP energy -89425.403814 kJ/mol
# GULP energy per Si atom -5589.087738 kJ/mol
# Density = 2.256831 g / cm^3
# Si number density = 22.619790 Si / 1000 Ang^3
#
#
#
# Elastic Constant Matrix: (Units=GPa)
#
#
# Indices 1 2 3 4 5 6 
#
# 1 148.5396 30.7059 33.1598 11.0717 -28.0198 15.3738
# 2 30.7059 62.4197 27.3757 9.9325 11.3777 6.6477
# 3 33.1598 27.3757 94.0175 -6.7263 -7.5567 8.1286
# 4 11.0717 9.9325 -6.7263 25.0033 -5.0261 0.8037
# 5 -28.0198 11.3777 -7.5567 -5.0261 37.7533 2.2332
# 6 15.3738 6.6477 8.1286 0.8037 2.2332 43.4887
#
#
#
# Elastic Compliance Matrix: (Units=1/GPa)
#
#
# Indices 1 2 3 4 5 6 
#
# 1 0.010284 -0.005980 -0.000902 -0.000439 0.009375 -0.003026
# 2 -0.005980 0.027756 -0.008329 -0.013923 -0.016355 0.000525
# 3 -0.000902 -0.008329 0.014644 0.008917 0.006054 -0.001621
# 4 -0.000439 -0.013923 0.008917 0.050653 0.012455 -0.000959
# 5 0.009375 -0.016355 0.006054 0.012455 0.041499 -0.004307
# 6 -0.003026 0.000525 -0.001621 -0.000959 -0.004307 0.024526
#
#
# Mechanical properties :
#
#
# Convention : Reuss Voigt Hill
#
# Bulk Modulus (GPa) = 44.91883 54.16219 49.54051
# Shear Modulus (GPa) = 24.13072 35.49810 29.81441
#
# Velocity S-wave (km/s) = 3.26973 3.96579 3.63446
# Velocity P-wave (km/s) = 5.84433 6.70571 6.28978
#
# Compressibility (1/GPa) = 0.02226238
#
# Stress axis : x y z
#
# Youngs Moduli (GPa) = 97.23681 36.02877 68.28572
#
# Poissons Ratio (x) = 0.21545 0.06161
# Poissons Ratio (y) = 0.58147 0.56873
# Poissons Ratio (z) = 0.08774 0.30007
#
# Static dielectric constant tensor:
#      x y z
#    x 1.896650 -0.028180 -0.041130 
#    y -0.028180 1.801360 0.007970 
#    z -0.041130 0.007970 1.906550 
# 
# From -- ./inp_files/505306.got.cif
#   From: 2010.05.17/outbox.cif.g08.bks.cpg/sg2_253_cif.got.tgz:505306.got - 2010.06.03 11:33:40.
