data_PCOD9037879
_publ_section_title
;
Structure prediction by ZEFSAII (Michael W. Deem and Ramdas Pophale) SiO2 
 PCOD9037879
Probable space group: P -1
;
_chemical_formula_sum "Si O2"
_cell_formula_units_Z 12
_cell_length_a 13.428830
_cell_length_b 6.791535
_cell_length_c 7.149971
_cell_angle_alpha 107.226982
_cell_angle_beta 47.605690
_cell_angle_gamma 104.084711
_cell_volume 459.099084
_symmetry_space_group_name_H-M "P -1"
_symmetry_group_IT_number 2
_symmetry_cell_setting 'triclinic'
loop_
_space_group_symop_operation_xyz
x,y,z
-x,-y,-z
loop_
_atom_site_type_symbol
_atom_site_label
_atom_site_fract_x
_atom_site_fract_y
_atom_site_fract_z
Si Si1 0.758307 0.862257 0.608975
Si Si2 0.186136 0.693096 0.293122
Si Si3 0.132211 0.865359 0.793168
Si Si4 0.517110 0.378071 0.156135
Si Si5 0.419956 0.783010 0.557570
Si Si6 0.976152 0.526710 0.221244
O O1 0.605914 0.771651 0.807016
O O2 0.860508 0.684133 0.460237
O O3 0.803744 0.069764 0.723424
O O4 0.775050 0.957303 0.407552
O O5 0.109692 0.685952 0.592469
O O6 0.102556 0.556017 0.211158
O O7 0.335997 0.629134 0.123096
O O8 0.263388 0.812085 0.735448
O O9 0.038694 0.655598 0.976948
O O10 0.000000 0.000000 0.000000
O O11 0.469463 0.608372 0.304997
O O12 0.549426 0.301208 0.300751
O O13 0.500000 0.000000 0.500000
#
# Coordination Sequence:
#
# PCOD9037879 Si02
#       6
#     2   2   2   2   2   2
#     4  10  23  42  67  92 134 164 214 266 316 381
#     4  10  24  42  66  96 130 171 212 259 326 380
#     4  10  23  41  64  92 129 166 220 256 317 381
#     4  11  22  41  67  95 132 167 212 266 318 381
#     4  11  21  38  64  96 131 165 211 262 318 371
#     4  12  24  44  67  90 130 175 215 264 319 376
#
# _framework density 26.138147
#
# number of rings (size 3 to 8) (size 9 to 14) (size 15 to 20)
#    1.000    0.333    3.333    2.500    2.333    1.333 
#    3.000    0.000    0.000    0.000    0.000    0.000 
#    0.000    0.000    0.000    0.000    0.000    0.000 
#
# Total GULP energy -67100.475713 kJ/mol
# GULP energy per Si atom -5591.706309 kJ/mol
# Density = 2.607866 g / cm^3
# Si number density = 26.138147 Si / 1000 Ang^3
#
#
#
# Elastic Constant Matrix: (Units=GPa)
#
#
# Indices 1 2 3 4 5 6 
#
# 1 165.1564 78.9516 76.5762 -10.5408 -33.6790 2.3247
# 2 78.9516 222.6904 70.3965 -20.2189 -36.7780 -3.7676
# 3 76.5762 70.3965 197.2617 -12.9127 -28.6233 14.1415
# 4 -10.5408 -20.2189 -12.9127 41.4257 1.0919 -4.5809
# 5 -33.6790 -36.7780 -28.6233 1.0919 62.1145 -15.0553
# 6 2.3247 -3.7676 14.1415 -4.5809 -15.0553 47.8846
#
#
#
# Elastic Compliance Matrix: (Units=1/GPa)
#
#
# Indices 1 2 3 4 5 6 
#
# 1 0.008571 -0.001769 -0.002328 0.000637 0.002774 0.001065
# 2 -0.001769 0.006144 -0.001115 0.002347 0.002594 0.001939
# 3 -0.002328 -0.001115 0.006642 0.000734 0.000729 -0.001637
# 4 0.000637 0.002347 0.000734 0.025964 0.002385 0.003171
# 5 0.002774 0.002594 0.000729 0.002385 0.021058 0.006703
# 6 0.001065 0.001939 -0.001637 0.003171 0.006703 0.023879
#
#
# Mechanical properties :
#
#
# Convention : Reuss Voigt Hill
#
# Bulk Modulus (GPa) = 91.46020 115.21746 103.33883
# Shear Modulus (GPa) = 47.02467 54.23058 50.62762
#
# Velocity S-wave (km/s) = 4.24616 4.55990 4.40583
# Velocity P-wave (km/s) = 7.68810 8.47936 8.09340
#
# Compressibility (1/GPa) = 0.01093372
#
# Stress axis : x y z
#
# Youngs Moduli (GPa) = 116.66802 162.74856 150.55138
#
# Poissons Ratio (x) = 0.28787 0.35052
# Poissons Ratio (y) = 0.20637 0.16787
# Poissons Ratio (z) = 0.27163 0.18147
#
# Static dielectric constant tensor:
#      x y z
#    x 1.939440 0.027620 0.111350 
#    y 0.027620 2.141780 -0.148600 
#    z 0.111350 -0.148600 2.210110 
# 
# From -- ./inp_files/72155.got.cif
#   From: 2010.05.17/outbox.cif.g08.bks.cpg/sg2_37_cif.got.tgz:72155.got - 2010.06.03 11:33:40.
