data_PCOD9037303
_publ_section_title
;
Structure prediction by ZEFSAII (Michael W. Deem and Ramdas Pophale) SiO2 
 PCOD9037303
Probable space group: P -1
;
_chemical_formula_sum "Si O2"
_cell_formula_units_Z 16
_cell_length_a 11.004819
_cell_length_b 16.446039
_cell_length_c 22.433708
_cell_angle_alpha 22.421960
_cell_angle_beta 145.374108
_cell_angle_gamma 133.084633
_cell_volume 821.642629
_symmetry_space_group_name_H-M "P -1"
_symmetry_group_IT_number 2
_symmetry_cell_setting 'triclinic'
loop_
_space_group_symop_operation_xyz
x,y,z
-x,-y,-z
loop_
_atom_site_type_symbol
_atom_site_label
_atom_site_fract_x
_atom_site_fract_y
_atom_site_fract_z
Si Si1 0.615289 0.229034 0.725120
Si Si2 0.069808 0.610393 0.396594
Si Si3 0.441701 0.611448 0.232195
Si Si4 0.568261 0.783333 0.041634
Si Si5 0.631573 0.806326 0.464496
Si Si6 0.434181 0.691430 0.920860
Si Si7 0.861043 0.488946 0.154169
Si Si8 0.975475 0.113762 0.041420
O O1 0.500000 0.500000 0.500000
O O2 0.573148 0.167723 0.682393
O O3 0.866728 0.176854 0.888699
O O4 0.522421 0.054183 0.841676
O O5 0.325027 0.446361 0.595667
O O6 0.000000 0.500000 0.500000
O O7 0.847360 0.671621 0.223349
O O8 0.087176 0.845093 0.268484
O O9 0.489060 0.693274 0.130906
O O10 0.382694 0.378394 0.367592
O O11 0.235468 0.798826 0.056564
O O12 0.451777 0.729740 0.972117
O O13 0.876759 0.677687 0.618063
O O14 0.616967 0.061633 0.298965
O O15 0.677495 0.516458 0.113690
O O16 0.239742 0.597932 0.884645
O O17 0.870550 0.740079 0.980573
#
# Coordination Sequence:
#
# PCOD9037303 Si02
#       8
#     2   2   2   2   2   2   2   2
#     4  10  17  33  51  81 112 137 172 219 263 313
#     4   9  19  33  51  78 110 143 170 210 265 322
#     4  10  19  35  55  79 109 146 169 219 271 318
#     4   9  21  34  53  80 113 141 177 219 266 322
#     4  10  20  35  57  80 107 139 180 222 266 318
#     4  10  21  37  55  79 104 139 185 223 266 310
#     4  10  20  35  58  76 103 142 179 229 264 309
#     4  10  20  34  55  82 108 137 185 216 268 319
#
# _framework density 19.473185999999998
#
# number of rings (size 3 to 8) (size 9 to 14) (size 15 to 20)
#    0.000    2.250    2.500    1.125    0.000    6.500 
#    0.000   10.000    0.000   12.000    0.000    0.000 
#    0.000    0.000    0.000    0.000    0.000    0.000 
#
# Total GULP energy -89138.807439 kJ/mol
# GULP energy per Si atom -5571.175465 kJ/mol
# Density = 1.942886 g / cm^3
# Si number density = 19.473186 Si / 1000 Ang^3
#
#
#
# Elastic Constant Matrix: (Units=GPa)
#
#
# Indices 1 2 3 4 5 6 
#
# 1 73.6497 30.6512 35.1092 7.7607 -4.6041 10.5304
# 2 30.6512 142.5037 29.5246 -12.2956 -17.3327 -7.9453
# 3 35.1092 29.5246 83.2462 -12.9722 -6.8927 3.6680
# 4 7.7607 -12.2956 -12.9722 19.4419 7.6729 -1.3549
# 5 -4.6041 -17.3327 -6.8927 7.6729 33.8982 0.2979
# 6 10.5304 -7.9453 3.6680 -1.3549 0.2979 21.6859
#
#
#
# Elastic Compliance Matrix: (Units=1/GPa)
#
#
# Indices 1 2 3 4 5 6 
#
# 1 0.026738 -0.005715 -0.012170 -0.025017 0.004026 -0.014637
# 2 -0.005715 0.009555 0.000161 0.008002 0.002271 0.006717
# 3 -0.012170 0.000161 0.019745 0.019163 -0.001927 0.003853
# 4 -0.025017 0.008002 0.019163 0.086457 -0.015132 0.017448
# 5 0.004026 0.002271 -0.001927 -0.015132 0.034261 -0.002213
# 6 -0.014637 0.006717 0.003853 0.017448 -0.002213 0.056151
#
#
# Mechanical properties :
#
#
# Convention : Reuss Voigt Hill
#
# Bulk Modulus (GPa) = 48.56782 54.44106 51.50444
# Shear Modulus (GPa) = 18.16742 28.61283 23.39013
#
# Velocity S-wave (km/s) = 3.05773 3.83736 3.46951
# Velocity P-wave (km/s) = 6.12056 6.90300 6.52352
#
# Compressibility (1/GPa) = 0.02058976
#
# Stress axis : x y z
#
# Youngs Moduli (GPa) = 37.39956 104.66267 50.64507
#
# Poissons Ratio (x) = 0.59810 0.61636
# Poissons Ratio (y) = 0.21372 -0.00813
# Poissons Ratio (z) = 0.45516 -0.01681
#
# Static dielectric constant tensor:
#      x y z
#    x 1.716440 0.028380 0.023570 
#    y 0.028380 1.685910 0.007600 
#    z 0.023570 0.007600 1.717660 
# 
# From -- ./inp_files/401211.got.cif
#   From: 2010.05.17/outbox.cif.g08.bks.cpg/sg2_201_cif.got.tgz:401211.got - 2010.06.03 11:33:40.
