data_PCOD9037023
_publ_section_title
;
Structure prediction by ZEFSAII (Michael W. Deem and Ramdas Pophale) SiO2 
 PCOD9037023
Probable space group: P -1
;
_chemical_formula_sum "Si O2"
_cell_formula_units_Z 16
_cell_length_a 14.195381
_cell_length_b 8.282102
_cell_length_c 12.477252
_cell_angle_alpha 63.883354
_cell_angle_beta 54.897257
_cell_angle_gamma 108.591412
_cell_volume 676.210649
_symmetry_space_group_name_H-M "P -1"
_symmetry_group_IT_number 2
_symmetry_cell_setting 'triclinic'
loop_
_space_group_symop_operation_xyz
x,y,z
-x,-y,-z
loop_
_atom_site_type_symbol
_atom_site_label
_atom_site_fract_x
_atom_site_fract_y
_atom_site_fract_z
Si Si1 0.268061 0.662598 0.515638
Si Si2 0.748234 0.627087 0.774717
Si Si3 0.405835 0.191891 0.669416
Si Si4 0.790399 0.276430 0.226482
Si Si5 0.785849 0.715363 0.485561
Si Si6 0.339941 0.195008 0.931581
Si Si7 0.151682 0.339911 0.074566
Si Si8 0.688342 0.956609 0.780998
O O1 0.462854 0.805225 0.372662
O O2 0.219822 0.687409 0.653792
O O3 0.167236 0.370005 0.613129
O O4 0.260305 0.809682 0.390273
O O5 0.817476 0.673225 0.596380
O O6 0.827339 0.609849 0.826461
O O7 0.774728 0.873619 0.707468
O O8 0.530449 0.331873 0.006266
O O9 0.500000 0.500000 0.500000
O O10 0.272919 0.060261 0.896469
O O11 0.326819 0.027188 0.657625
O O12 0.748132 0.395254 0.143118
O O13 0.000000 0.500000 0.000000
O O14 0.565288 0.485781 0.695994
O O15 0.934468 0.053906 0.277853
O O16 0.252954 0.276791 0.999336
O O17 0.286909 0.996649 0.120674
#
# Coordination Sequence:
#
# PCOD9037023 Si02
#       8
#     2   2   2   2   2   2   2   2
#     4  11  25  43  68  97 133 177 231 278 339 402
#     4   9  19  38  67 100 132 172 220 275 344 402
#     4  11  25  45  72  98 132 182 231 280 337 410
#     4  12  30  44  66 100 136 178 230 288 339 402
#     4  10  23  39  69 104 132 181 220 275 340 410
#     4   9  22  43  70 100 135 177 224 278 340 405
#     4  11  23  44  67  97 140 180 224 278 340 400
#     4   9  19  38  68  99 132 171 220 282 336 405
#
# _framework density 23.661263000000002
#
# number of rings (size 3 to 8) (size 9 to 14) (size 15 to 20)
#    0.000    1.750    0.000    3.000    7.000    9.000 
#    0.000    2.500    0.000    0.000    0.000    0.000 
#    0.000    0.000    0.000    0.000    0.000    0.000 
#
# Total GULP energy -89395.548616 kJ/mol
# GULP energy per Si atom -5587.221789 kJ/mol
# Density = 2.360741 g / cm^3
# Si number density = 23.661263 Si / 1000 Ang^3
#
#
#
# Elastic Constant Matrix: (Units=GPa)
#
#
# Indices 1 2 3 4 5 6 
#
# 1 85.2679 21.1998 24.5427 9.6645 28.5286 3.7987
# 2 21.1998 116.1680 38.8476 25.7353 14.9487 30.2860
# 3 24.5427 38.8476 68.6194 18.5507 19.6079 9.6463
# 4 9.6645 25.7353 18.5507 39.4704 1.7422 8.4959
# 5 28.5286 14.9487 19.6079 1.7422 44.7325 5.8859
# 6 3.7987 30.2860 9.6463 8.4959 5.8859 24.2984
#
#
#
# Elastic Compliance Matrix: (Units=1/GPa)
#
#
# Indices 1 2 3 4 5 6 
#
# 1 0.015804 -0.001267 -0.002164 -0.002262 -0.009006 0.002940
# 2 -0.001267 0.015520 -0.005042 -0.004054 0.000061 -0.015742
# 3 -0.002164 -0.005042 0.021483 -0.006402 -0.006349 0.001870
# 4 -0.002262 -0.004054 -0.006402 0.032301 0.004943 -0.004544
# 5 -0.009006 0.000061 -0.006349 0.004943 0.031390 -0.005480
# 6 0.002940 -0.015742 0.001870 -0.004544 -0.005480 0.062490
#
#
# Mechanical properties :
#
#
# Convention : Reuss Voigt Hill
#
# Bulk Modulus (GPa) = 27.88405 48.80395 38.34400
# Shear Modulus (GPa) = 24.05154 34.06459 29.05806
#
# Velocity S-wave (km/s) = 3.19171 3.79842 3.50821
# Velocity P-wave (km/s) = 5.03914 6.31730 5.71407
#
# Compressibility (1/GPa) = 0.03586280
#
# Stress axis : x y z
#
# Youngs Moduli (GPa) = 63.27440 64.43465 46.54780
#
# Poissons Ratio (x) = 0.08164 0.10071
# Poissons Ratio (y) = 0.08017 0.23467
# Poissons Ratio (z) = 0.13689 0.32485
#
# Static dielectric constant tensor:
#      x y z
#    x 2.754940 1.305510 0.959770 
#    y 1.305510 3.998960 1.552230 
#    z 0.959770 1.552230 3.063130 
# 
# From -- ./inp_files/446944.got.cif
#   From: 2010.05.17/outbox.cif.g08.bks.cpg/sg2_224_cif.got.tgz:446944.got - 2010.06.03 11:33:40.
