data_PCOD9037194
_publ_section_title
;
Structure prediction by ZEFSAII (Michael W. Deem and Ramdas Pophale) SiO2 
 PCOD9037194
Probable space group: P -1
;
_chemical_formula_sum "Si O2"
_cell_formula_units_Z 16
_cell_length_a 8.224006
_cell_length_b 9.346750
_cell_length_c 13.028026
_cell_angle_alpha 80.903626
_cell_angle_beta 102.260899
_cell_angle_gamma 56.912342
_cell_volume 772.611930
_symmetry_space_group_name_H-M "P -1"
_symmetry_group_IT_number 2
_symmetry_cell_setting 'triclinic'
loop_
_space_group_symop_operation_xyz
x,y,z
-x,-y,-z
loop_
_atom_site_type_symbol
_atom_site_label
_atom_site_fract_x
_atom_site_fract_y
_atom_site_fract_z
Si Si1 0.245064 0.843670 0.063847
Si Si2 0.679594 0.901938 0.451056
Si Si3 0.621945 0.018273 0.763416
Si Si4 0.138849 0.406941 0.878393
Si Si5 0.016871 0.269000 0.315200
Si Si6 0.270009 0.857853 0.711343
Si Si7 0.345115 0.002537 0.879954
Si Si8 0.290352 0.476866 0.098811
O O1 0.313495 0.872238 0.179520
O O2 0.286902 0.652953 0.075681
O O3 0.354716 0.883447 0.986811
O O4 0.000000 0.000000 0.000000
O O5 0.583028 0.860776 0.348980
O O6 0.877391 0.748730 0.559934
O O7 0.500000 0.000000 0.500000
O O8 0.709297 0.048219 0.393876
O O9 0.552410 0.939356 0.851058
O O10 0.806887 0.860376 0.733972
O O11 0.252155 0.200096 0.886330
O O12 0.241957 0.438532 0.983738
O O13 0.121517 0.528907 0.769544
O O14 0.904802 0.480869 0.867704
O O15 0.881976 0.195379 0.318403
O O16 0.492502 0.683688 0.802345
O O17 0.197004 0.002643 0.776738
#
# Coordination Sequence:
#
# PCOD9037194 Si02
#       8
#     2   2   2   2   2   2   2   2
#     4  12  23  40  62  95 133 168 205 264 318 380
#     4   9  20  42  71  90 121 169 216 263 312 375
#     4  10  23  40  63  92 123 171 215 257 315 377
#     4  11  24  40  62  95 129 171 210 260 317 389
#     4  11  23  43  68  91 127 166 222 263 311 374
#     4  11  24  41  66 100 125 166 212 264 319 379
#     4  11  24  38  63  92 132 171 205 255 325 378
#     4  11  25  40  64  93 134 166 212 259 323 384
#
# _framework density 20.708973
#
# number of rings (size 3 to 8) (size 9 to 14) (size 15 to 20)
#    0.000    1.250    1.250    5.250    8.750    1.000 
#    0.000    2.500    2.750    2.250    0.000    0.000 
#    0.000    0.000    0.000    0.000    0.000    0.000 
#
# Total GULP energy -89428.644331 kJ/mol
# GULP energy per Si atom -5589.290271 kJ/mol
# Density = 2.066184 g / cm^3
# Si number density = 20.708973 Si / 1000 Ang^3
#
#
#
# Elastic Constant Matrix: (Units=GPa)
#
#
# Indices 1 2 3 4 5 6 
#
# 1 97.4535 18.3675 36.0117 10.5798 3.4858 9.9657
# 2 18.3675 90.6201 23.0971 8.4838 -6.5878 27.5742
# 3 36.0117 23.0971 111.1953 1.5716 -3.5141 16.9273
# 4 10.5798 8.4838 1.5716 25.4755 11.0432 2.3095
# 5 3.4858 -6.5878 -3.5141 11.0432 32.8365 1.2761
# 6 9.9657 27.5742 16.9273 2.3095 1.2761 35.4751
#
#
#
# Elastic Compliance Matrix: (Units=1/GPa)
#
#
# Indices 1 2 3 4 5 6 
#
# 1 0.012348 -0.001000 -0.003644 -0.004329 -0.000420 -0.000656
# 2 -0.001000 0.015991 -0.000979 -0.006314 0.005779 -0.011479
# 3 -0.003644 -0.000979 0.010939 0.000978 0.001170 -0.003541
# 4 -0.004329 -0.006314 0.000978 0.050545 -0.017818 0.003008
# 5 -0.000420 0.005779 0.001170 -0.017818 0.037975 -0.005138
# 6 -0.000656 -0.011479 -0.003541 0.003008 -0.005138 0.038974
#
#
# Mechanical properties :
#
#
# Convention : Reuss Voigt Hill
#
# Bulk Modulus (GPa) = 35.67060 50.46906 43.06983
# Shear Modulus (GPa) = 26.68647 33.54359 30.11503
#
# Velocity S-wave (km/s) = 3.59366 4.02899 3.81754
# Velocity P-wave (km/s) = 5.87208 6.78728 6.34620
#
# Compressibility (1/GPa) = 0.02803429
#
# Stress axis : x y z
#
# Youngs Moduli (GPa) = 80.98319 62.53439 91.41879
#
# Poissons Ratio (x) = 0.06252 0.33310
# Poissons Ratio (y) = 0.08096 0.08946
# Poissons Ratio (z) = 0.29507 0.06119
#
# Static dielectric constant tensor:
#      x y z
#    x 1.779210 -0.030400 0.018960 
#    y -0.030400 1.745850 0.004590 
#    z 0.018960 0.004590 1.766940 
# 
# From -- ./inp_files/382016.got.cif
#   From: 2010.05.17/outbox.cif.g08.bks.cpg/sg2_192_cif.got.tgz:382016.got - 2010.06.03 11:33:40.
