data_PCOD9037030
_publ_section_title
;
Structure prediction by ZEFSAII (Michael W. Deem and Ramdas Pophale) SiO2 
 PCOD9037030
Probable space group: P -1
;
_chemical_formula_sum "Si O2"
_cell_formula_units_Z 16
_cell_length_a 13.483948
_cell_length_b 7.853068
_cell_length_c 11.984900
_cell_angle_alpha 129.305356
_cell_angle_beta 70.922262
_cell_angle_gamma 135.419417
_cell_volume 670.968885
_symmetry_space_group_name_H-M "P -1"
_symmetry_group_IT_number 2
_symmetry_cell_setting 'triclinic'
loop_
_space_group_symop_operation_xyz
x,y,z
-x,-y,-z
loop_
_atom_site_type_symbol
_atom_site_label
_atom_site_fract_x
_atom_site_fract_y
_atom_site_fract_z
Si Si1 0.952839 0.280381 0.146413
Si Si2 0.481820 0.063402 0.655269
Si Si3 0.457055 0.244520 0.325403
Si Si4 0.997320 0.241346 0.353807
Si Si5 0.348720 0.398467 0.047260
Si Si6 0.226940 0.641214 0.055039
Si Si7 0.826055 0.497790 0.402211
Si Si8 0.264806 0.420710 0.749348
O O1 0.024114 0.260258 0.220123
O O2 0.934777 0.498911 0.293702
O O3 0.060924 0.409287 0.058026
O O4 0.793184 0.957519 0.045306
O O5 0.599860 0.422040 0.780812
O O6 0.500000 0.000000 0.500000
O O7 0.518922 0.932450 0.678408
O O8 0.311062 0.852408 0.655354
O O9 0.500000 0.500000 0.500000
O O10 0.569246 0.409618 0.249786
O O11 0.302252 0.968792 0.212501
O O12 0.000000 0.500000 0.500000
O O13 0.108304 0.301029 0.426980
O O14 0.840959 0.910154 0.295996
O O15 0.303356 0.534483 0.037870
O O16 0.500000 0.500000 0.000000
O O17 0.247156 0.620531 0.908408
O O18 0.778911 0.607954 0.375062
#
# Coordination Sequence:
#
# PCOD9037030 Si02
#       8
#     2   2   2   2   2   2   2   2
#     4  11  23  43  70 104 136 179 239 282 350 403
#     4  10  23  41  65  98 135 176 231 286 334 406
#     4  10  25  43  66  95 135 185 232 278 345 414
#     4  10  23  39  69  98 136 177 226 286 340 409
#     4  11  22  42  69  99 138 178 228 287 342 405
#     4  11  25  43  72 101 141 181 234 291 343 418
#     4  10  23  41  65 101 140 183 227 284 351 407
#     4  11  23  45  67  99 143 181 233 284 352 415
#
# _framework density 23.846112000000002
#
# number of rings (size 3 to 8) (size 9 to 14) (size 15 to 20)
#    0.000    1.500    2.500    1.125    7.000    2.500 
#    2.250    0.000    0.000    0.000    0.000    0.000 
#    0.000    0.000    0.000    0.000    0.000    0.000 
#
# Total GULP energy -89366.740226 kJ/mol
# GULP energy per Si atom -5585.421264 kJ/mol
# Density = 2.379184 g / cm^3
# Si number density = 23.846112 Si / 1000 Ang^3
#
#
#
# Elastic Constant Matrix: (Units=GPa)
#
#
# Indices 1 2 3 4 5 6 
#
# 1 46.9286 8.0298 0.4375 3.6495 4.4541 15.4030
# 2 8.0298 83.6364 48.8052 7.7171 2.2461 25.6655
# 3 0.4375 48.8052 149.5734 13.5893 7.9092 25.4990
# 4 3.6495 7.7171 13.5893 42.9132 0.9815 -1.8402
# 5 4.4541 2.2461 7.9092 0.9815 30.4464 -2.2443
# 6 15.4030 25.6655 25.4990 -1.8402 -2.2443 29.4742
#
#
#
# Elastic Compliance Matrix: (Units=1/GPa)
#
#
# Indices 1 2 3 4 5 6 
#
# 1 0.028705 0.002160 0.003522 -0.004682 -0.006651 -0.020728
# 2 0.002160 0.018460 -0.003119 -0.003110 -0.001862 -0.014842
# 3 0.003522 -0.003119 0.009453 -0.002990 -0.003215 -0.007734
# 4 -0.004682 -0.003110 -0.002990 0.025577 0.001564 0.009458
# 5 -0.006651 -0.001862 -0.003215 0.001564 0.035527 0.010680
# 6 -0.020728 -0.014842 -0.007734 0.009458 0.010680 0.065779
#
#
# Mechanical properties :
#
#
# Convention : Reuss Voigt Hill
#
# Bulk Modulus (GPa) = 16.19554 43.85371 30.02463
# Shear Modulus (GPa) = 25.13108 35.42448 30.27778
#
# Velocity S-wave (km/s) = 3.24988 3.85846 3.56717
# Velocity P-wave (km/s) = 4.57042 6.18712 5.43917
#
# Compressibility (1/GPa) = 0.06174540
#
# Stress axis : x y z
#
# Youngs Moduli (GPa) = 34.83696 54.16996 105.78383
#
# Poissons Ratio (x) = -0.11702 -0.37255
# Poissons Ratio (y) = -0.07526 0.32991
# Poissons Ratio (z) = -0.12269 0.16894
#
# Static dielectric constant tensor:
#      x y z
#    x 2.018860 -0.018340 0.030240 
#    y -0.018340 1.840440 0.064730 
#    z 0.030240 0.064730 1.917610 
# 
# From -- ./inp_files/448198.got.cif
#   From: 2010.05.17/outbox.cif.g08.bks.cpg/sg2_225_cif.got.tgz:448198.got - 2010.06.03 11:33:40.
