data_PCOD9037639
_publ_section_title
;
Structure prediction by ZEFSAII (Michael W. Deem and Ramdas Pophale) SiO2 
 PCOD9037639
Probable space group: P -1
;
_chemical_formula_sum "Si O2"
_cell_formula_units_Z 16
_cell_length_a 8.344013
_cell_length_b 6.923351
_cell_length_c 11.716216
_cell_angle_alpha 77.071805
_cell_angle_beta 90.916843
_cell_angle_gamma 70.174897
_cell_volume 617.450900
_symmetry_space_group_name_H-M "P -1"
_symmetry_group_IT_number 2
_symmetry_cell_setting 'triclinic'
loop_
_space_group_symop_operation_xyz
x,y,z
-x,-y,-z
loop_
_atom_site_type_symbol
_atom_site_label
_atom_site_fract_x
_atom_site_fract_y
_atom_site_fract_z
Si Si1 0.670504 0.165519 0.992986
Si Si2 0.472592 0.905393 0.229876
Si Si3 0.797304 0.520127 0.192554
Si Si4 0.326580 0.648815 0.420648
Si Si5 0.765327 0.059823 0.245619
Si Si6 0.168469 0.368635 0.305377
Si Si7 0.024338 0.252291 0.518387
Si Si8 0.297232 0.400759 0.067896
O O1 0.789115 0.022714 0.112638
O O2 0.492937 0.288384 0.042709
O O3 0.626962 0.049337 0.899745
O O4 0.729109 0.357028 0.928835
O O5 0.633316 0.690887 0.225258
O O6 0.363201 0.831261 0.328066
O O7 0.580607 0.038979 0.268565
O O8 0.773286 0.292955 0.227932
O O9 0.972038 0.504176 0.255978
O O10 0.807300 0.576999 0.052506
O O11 0.500000 0.500000 0.500000
O O12 0.266895 0.504517 0.349918
O O13 0.170211 0.737150 0.496304
O O14 0.895214 0.895708 0.353785
O O15 0.249371 0.294470 0.192106
O O16 0.147269 0.198719 0.417323
O O17 0.000000 0.500000 0.500000
#
# Coordination Sequence:
#
# PCOD9037639 Si02
#       8
#     2   2   2   2   2   2   2   2
#     4   9  19  37  64 100 134 166 218 274 327 393
#     4  11  20  41  70  96 135 183 209 274 337 380
#     4  10  23  40  71 101 136 172 218 270 329 401
#     4  11  22  39  67  97 125 174 231 266 325 397
#     4  11  23  42  67  99 135 171 225 274 325 397
#     4  11  20  39  67  93 129 181 215 264 338 386
#     4  10  23  43  64  90 132 175 218 272 325 393
#     4   9  18  37  66 100 133 171 215 269 327 398
#
# _framework density 25.912991000000002
#
# number of rings (size 3 to 8) (size 9 to 14) (size 15 to 20)
#    0.000    1.750    1.250    5.250    0.000    0.500 
#    2.250    1.250    2.750    0.000    0.000    0.000 
#    0.000    0.000    0.000    0.000    0.000    0.000 
#
# Total GULP energy -89572.162073 kJ/mol
# GULP energy per Si atom -5598.260130 kJ/mol
# Density = 2.585401 g / cm^3
# Si number density = 25.912991 Si / 1000 Ang^3
#
#
#
# Elastic Constant Matrix: (Units=GPa)
#
#
# Indices 1 2 3 4 5 6 
#
# 1 101.8524 35.5427 72.7316 6.8858 16.2072 25.0795
# 2 35.5427 110.3735 45.8279 1.3761 2.8110 13.0393
# 3 72.7316 45.8279 193.3792 -14.5765 6.0312 6.3503
# 4 6.8858 1.3761 -14.5765 48.0062 0.4854 -2.3435
# 5 16.2072 2.8110 6.0312 0.4854 65.8831 -0.9160
# 6 25.0795 13.0393 6.3503 -2.3435 -0.9160 35.5579
#
#
#
# Elastic Compliance Matrix: (Units=1/GPa)
#
#
# Indices 1 2 3 4 5 6 
#
# 1 0.019232 -0.001814 -0.006672 -0.005284 -0.004173 -0.012164
# 2 -0.001814 0.010689 -0.001832 -0.000719 0.000130 -0.002357
# 3 -0.006672 -0.001832 0.008225 0.003701 0.000997 0.004178
# 4 -0.005284 -0.000719 0.003701 0.022961 0.000890 0.004866
# 5 -0.004173 0.000130 0.000997 0.000890 0.016146 0.003192
# 6 -0.012164 -0.002357 0.004178 0.004866 0.003192 0.037223
#
#
# Mechanical properties :
#
#
# Convention : Reuss Voigt Hill
#
# Bulk Modulus (GPa) = 57.10711 79.31218 68.20964
# Shear Modulus (GPa) = 35.47374 46.65631 41.06503
#
# Velocity S-wave (km/s) = 3.70395 4.24783 3.98518
# Velocity P-wave (km/s) = 6.35439 7.39813 6.89603
#
# Compressibility (1/GPa) = 0.01751095
#
# Stress axis : x y z
#
# Youngs Moduli (GPa) = 51.99695 93.55499 121.57417
#
# Poissons Ratio (x) = 0.16967 0.81117
# Poissons Ratio (y) = 0.09430 0.22270
# Poissons Ratio (z) = 0.34693 0.17138
#
# Static dielectric constant tensor:
#      x y z
#    x 2.080040 -0.107050 0.001540 
#    y -0.107050 2.150320 -0.019710 
#    z 0.001540 -0.019710 2.085810 
# 
# From -- ./inp_files/378322.got.cif
#   From: 2010.05.17/outbox.cif.g08.bks.cpg/sg2_190_cif.got.tgz:378322.got - 2010.06.03 11:33:40.
