data_PCOD9037051
_publ_section_title
;
Structure prediction by ZEFSAII (Michael W. Deem and Ramdas Pophale) SiO2 
 PCOD9037051
Probable space group: P -1
;
_chemical_formula_sum "Si O2"
_cell_formula_units_Z 12
_cell_length_a 8.470245
_cell_length_b 8.798034
_cell_length_c 8.771672
_cell_angle_alpha 48.835203
_cell_angle_beta 105.853803
_cell_angle_gamma 112.478331
_cell_volume 454.496179
_symmetry_space_group_name_H-M "P -1"
_symmetry_group_IT_number 2
_symmetry_cell_setting 'triclinic'
loop_
_space_group_symop_operation_xyz
x,y,z
-x,-y,-z
loop_
_atom_site_type_symbol
_atom_site_label
_atom_site_fract_x
_atom_site_fract_y
_atom_site_fract_z
Si Si1 0.803057 0.486890 0.910916
Si Si2 0.847855 0.828915 0.938347
Si Si3 0.011890 0.520446 0.309234
Si Si4 0.467607 0.206862 0.550846
Si Si5 0.233696 0.897525 0.481297
Si Si6 0.534897 0.700094 0.160604
O O1 0.632188 0.294482 0.985868
O O2 0.831853 0.527343 0.707689
O O3 0.762310 0.655321 0.901664
O O4 0.000000 0.500000 0.000000
O O5 0.998732 0.748196 0.103607
O O6 0.706904 0.810325 0.042846
O O7 0.898263 0.032886 0.710885
O O8 0.847159 0.337947 0.330023
O O9 0.000000 0.500000 0.500000
O O10 0.611785 0.108473 0.585291
O O11 0.517280 0.449531 0.344401
O O12 0.465534 0.210031 0.729940
O O13 0.295460 0.058960 0.527929
#
# Coordination Sequence:
#
# PCOD9037051 Si02
#       6
#     2   2   2   2   2   2
#     4  10  23  40  67 101 134 183 222 270 349 404
#     4  11  24  42  71 100 134 182 228 289 326 409
#     4  11  25  46  69  96 146 183 218 285 346 407
#     4  10  23  39  71 104 134 173 234 288 324 404
#     4  11  23  43  68 106 130 177 236 276 343 398
#     4  11  21  44  72  99 135 183 228 275 350 389
#
# _framework density 26.402863
#
# number of rings (size 3 to 8) (size 9 to 14) (size 15 to 20)
#    0.000    1.333    3.333    1.500    2.333    3.333 
#    0.000    5.000    0.000    0.000    0.000    0.000 
#    0.000    0.000    0.000    0.000    0.000    0.000 
#
# Total GULP energy -67087.257517 kJ/mol
# GULP energy per Si atom -5590.604793 kJ/mol
# Density = 2.634277 g / cm^3
# Si number density = 26.402863 Si / 1000 Ang^3
#
#
#
# Elastic Constant Matrix: (Units=GPa)
#
#
# Indices 1 2 3 4 5 6 
#
# 1 69.1639 22.4727 11.6501 14.2647 -18.0703 -9.7055
# 2 22.4727 149.6281 24.1578 22.0394 0.9792 -0.0969
# 3 11.6501 24.1578 98.1469 8.2086 12.9395 -7.4992
# 4 14.2647 22.0394 8.2086 38.2541 -7.8766 -9.9177
# 5 -18.0703 0.9792 12.9395 -7.8766 42.2177 11.0129
# 6 -9.7055 -0.0969 -7.4992 -9.9177 11.0129 33.3924
#
#
#
# Elastic Compliance Matrix: (Units=1/GPa)
#
#
# Indices 1 2 3 4 5 6 
#
# 1 0.018347 -0.001940 -0.002334 -0.003310 0.007658 0.001294
# 2 -0.001940 0.007808 -0.001363 -0.004128 -0.000901 -0.001777
# 3 -0.002334 -0.001363 0.011931 -0.001172 -0.005770 0.003552
# 4 -0.003310 -0.004128 -0.001172 0.032577 0.003189 0.007387
# 5 0.007658 -0.000901 -0.005770 0.003189 0.031576 -0.008539
# 6 0.001294 -0.001777 0.003552 0.007387 -0.008539 0.036126
#
#
# Mechanical properties :
#
#
# Convention : Reuss Voigt Hill
#
# Bulk Modulus (GPa) = 37.29839 48.16668 42.73254
# Shear Modulus (GPa) = 31.53033 40.01675 35.77354
#
# Velocity S-wave (km/s) = 3.45947 3.89732 3.68491
# Velocity P-wave (km/s) = 5.48767 6.20764 5.85872
#
# Compressibility (1/GPa) = 0.02681081
#
# Stress axis : x y z
#
# Youngs Moduli (GPa) = 54.50397 128.08124 83.81227
#
# Poissons Ratio (x) = 0.24853 0.19563
# Poissons Ratio (y) = 0.10576 0.11425
# Poissons Ratio (z) = 0.12722 0.17460
#
# Static dielectric constant tensor:
#      x y z
#    x 2.084940 0.021620 0.160880 
#    y 0.021620 2.091660 0.067890 
#    z 0.160880 0.067890 2.176450 
# 
# From -- ./inp_files/149827.got.cif
#   From: 2010.05.17/outbox.cif.g08.bks.cpg/sg2_75_cif.got.tgz:149827.got - 2010.06.03 11:33:40.
