data_PCOD9037959
_publ_section_title
;
Structure prediction by ZEFSAII (Michael W. Deem and Ramdas Pophale) SiO2 
 PCOD9037959
Probable space group: P -1
;
_chemical_formula_sum "Si O2"
_cell_formula_units_Z 16
_cell_length_a 11.165664
_cell_length_b 9.738592
_cell_length_c 9.665162
_cell_angle_alpha 98.850265
_cell_angle_beta 124.318952
_cell_angle_gamma 61.878566
_cell_volume 756.454464
_symmetry_space_group_name_H-M "P -1"
_symmetry_group_IT_number 2
_symmetry_cell_setting 'triclinic'
loop_
_space_group_symop_operation_xyz
x,y,z
-x,-y,-z
loop_
_atom_site_type_symbol
_atom_site_label
_atom_site_fract_x
_atom_site_fract_y
_atom_site_fract_z
Si Si1 0.937852 0.975175 0.100633
Si Si2 0.411887 0.453340 0.657230
Si Si3 0.024421 0.628953 0.454387
Si Si4 0.984898 0.372663 0.871272
Si Si5 0.557067 0.171277 0.927994
Si Si6 0.490801 0.881372 0.794408
Si Si7 0.617283 0.593270 0.678345
Si Si8 0.879189 0.974930 0.520855
O O1 0.067764 0.980870 0.294071
O O2 0.753711 0.105124 0.040392
O O3 0.934748 0.809529 0.066454
O O4 0.000000 0.000000 0.000000
O O5 0.219211 0.571783 0.569434
O O6 0.474375 0.328305 0.804157
O O7 0.505337 0.555133 0.704270
O O8 0.440606 0.367745 0.512291
O O9 0.967305 0.629498 0.258992
O O10 0.000000 0.500000 0.500000
O O11 0.926275 0.793734 0.494753
O O12 0.788862 0.436765 0.756117
O O13 0.000000 0.500000 0.000000
O O14 0.515117 0.035513 0.824495
O O15 0.502669 0.179172 0.053742
O O16 0.627380 0.740383 0.772840
O O17 0.311955 0.923879 0.623166
O O18 0.000000 0.000000 0.500000
#
# Coordination Sequence:
#
# PCOD9037959 Si02
#       8
#     2   2   2   2   2   2   2   2
#     4  12  27  44  69  99 134 171 224 275 329 390
#     4  10  23  41  65  92 129 164 215 264 317 384
#     4  11  24  43  68  97 130 175 221 264 327 394
#     4  11  24  44  66  96 136 173 214 271 329 389
#     4  11  24  44  64  99 131 169 216 270 324 387
#     4  11  24  42  69  94 131 172 215 267 327 388
#     4  10  23  41  66  92 125 171 211 261 323 381
#     4  12  23  45  70  96 131 177 222 273 326 387
#
# _framework density 21.151306000000002
#
# number of rings (size 3 to 8) (size 9 to 14) (size 15 to 20)
#    0.000    1.000    2.500    3.000    7.000    4.000 
#    0.000    0.000    0.000    0.000    0.000    0.000 
#    0.000    0.000    0.000    0.000    0.000    0.000 
#
# Total GULP energy -89372.295267 kJ/mol
# GULP energy per Si atom -5585.768454 kJ/mol
# Density = 2.110316 g / cm^3
# Si number density = 21.151306 Si / 1000 Ang^3
#
#
#
# Elastic Constant Matrix: (Units=GPa)
#
#
# Indices 1 2 3 4 5 6 
#
# 1 54.2053 -2.4595 9.7612 -9.3692 -6.3519 11.1433
# 2 -2.4595 107.4599 38.7938 2.4945 -17.4816 0.1261
# 3 9.7612 38.7938 104.9023 1.1867 -9.3738 14.9483
# 4 -9.3692 2.4945 1.1867 39.8650 1.6486 -0.1537
# 5 -6.3519 -17.4816 -9.3738 1.6486 30.7139 -11.6606
# 6 11.1433 0.1261 14.9483 -0.1537 -11.6606 31.4311
#
#
#
# Elastic Compliance Matrix: (Units=1/GPa)
#
#
# Indices 1 2 3 4 5 6 
#
# 1 0.021070 0.001234 -0.001430 0.004808 0.002089 -0.005997
# 2 0.001234 0.012233 -0.004597 -0.000634 0.007557 0.004501
# 3 -0.001430 -0.004597 0.012062 -0.000372 -0.001385 -0.005727
# 4 0.004808 -0.000634 -0.000372 0.026326 -0.001657 -0.002011
# 5 0.002089 0.007557 -0.001385 -0.001657 0.042964 0.015819
# 6 -0.005997 0.004501 -0.005727 -0.002011 0.015819 0.042506
#
#
# Mechanical properties :
#
#
# Convention : Reuss Voigt Hill
#
# Bulk Modulus (GPa) = 27.95019 39.86202 33.90610
# Shear Modulus (GPa) = 27.98383 35.10015 31.54199
#
# Velocity S-wave (km/s) = 3.64129 4.07809 3.86587
# Velocity P-wave (km/s) = 5.56074 6.40792 5.99930
#
# Compressibility (1/GPa) = 0.03577793
#
# Stress axis : x y z
#
# Youngs Moduli (GPa) = 47.45989 81.74906 82.90218
#
# Poissons Ratio (x) = -0.10086 0.11856
# Poissons Ratio (y) = -0.05855 0.38113
# Poissons Ratio (z) = 0.06787 0.37583
#
# Static dielectric constant tensor:
#      x y z
#    x 1.723210 0.009640 0.040900 
#    y 0.009640 1.716700 -0.007700 
#    z 0.040900 -0.007700 1.790440 
# 
# From -- ./inp_files/244721.got.cif
#   From: 2010.05.17/outbox.cif.g08.bks.cpg/sg2_123_cif.got.tgz:244721.got - 2010.06.03 11:33:40.
