data_PCOD9037305
_publ_section_title
;
Structure prediction by ZEFSAII (Michael W. Deem and Ramdas Pophale) SiO2 
 PCOD9037305
Probable space group: P -1
;
_chemical_formula_sum "Si O2"
_cell_formula_units_Z 14
_cell_length_a 5.730561
_cell_length_b 14.992229
_cell_length_c 25.000026
_cell_angle_alpha 161.129178
_cell_angle_beta 110.902506
_cell_angle_gamma 75.503912
_cell_volume 621.301750
_symmetry_space_group_name_H-M "P -1"
_symmetry_group_IT_number 2
_symmetry_cell_setting 'triclinic'
loop_
_space_group_symop_operation_xyz
x,y,z
-x,-y,-z
loop_
_atom_site_type_symbol
_atom_site_label
_atom_site_fract_x
_atom_site_fract_y
_atom_site_fract_z
Si Si1 0.241925 0.158802 0.337234
Si Si2 0.317896 0.107096 0.588469
Si Si3 0.169170 0.276327 0.889601
Si Si4 0.407007 0.248032 0.279702
Si Si5 0.914194 0.151423 0.129442
Si Si6 0.415586 0.157793 0.745494
Si Si7 0.525488 0.251924 0.074653
O O1 0.327793 0.157812 0.282563
O O2 0.328993 0.490570 0.550568
O O3 0.407103 0.997633 0.295087
O O4 0.946225 0.974278 0.219635
O O5 0.377708 0.039298 0.615703
O O6 0.410347 0.448220 0.779463
O O7 0.500000 0.000000 0.500000
O O8 0.000000 0.000000 0.500000
O O9 0.170924 0.134912 0.751291
O O10 0.450350 0.494543 0.049862
O O11 0.000000 0.500000 0.000000
O O12 0.168040 0.348670 0.291492
O O13 0.421898 0.983846 0.094774
O O14 0.705702 0.292652 0.166334
O O15 0.765627 0.896035 0.012201
O O16 0.000000 0.000000 0.000000
#
# Coordination Sequence:
#
# PCOD9037305 Si02
#       7
#     2   2   2   2   2   2   2
#     4  10  23  40  65 103 138 176 235 294 361 425
#     4  12  32  48  75 112 144 192 248 302 360 435
#     4   9  21  41  69  96 136 184 232 287 365 423
#     4  10  23  40  68 100 135 181 234 296 357 432
#     4   9  21  42  67  94 130 184 231 296 348 427
#     4  10  24  43  68 100 141 187 233 299 361 430
#     4  10  24  44  70  95 136 187 238 291 370 424
#
# _framework density 22.533335999999998
#
# number of rings (size 3 to 8) (size 9 to 14) (size 15 to 20)
#    0.000    2.000    0.000    0.000   18.000    3.429 
#    0.000    2.857    0.000    0.000    0.000    0.000 
#    0.000    0.000    0.000    0.000    0.000    0.000 
#
# Total GULP energy -78161.575149 kJ/mol
# GULP energy per Si atom -5582.969654 kJ/mol
# Density = 2.248205 g / cm^3
# Si number density = 22.533336 Si / 1000 Ang^3
#
#
#
# Elastic Constant Matrix: (Units=GPa)
#
#
# Indices 1 2 3 4 5 6 
#
# 1 70.6854 19.9886 26.3266 -6.3523 -8.2962 25.9634
# 2 19.9886 118.2474 38.4660 -12.8393 -3.7473 16.1738
# 3 26.3266 38.4660 95.3024 7.6849 -4.4889 17.7788
# 4 -6.3523 -12.8393 7.6849 38.8584 6.5488 4.0288
# 5 -8.2962 -3.7473 -4.4889 6.5488 29.9132 -0.1179
# 6 25.9634 16.1738 17.7788 4.0288 -0.1179 35.9606
#
#
#
# Elastic Compliance Matrix: (Units=1/GPa)
#
#
# Indices 1 2 3 4 5 6 
#
# 1 0.021747 0.000166 -0.003562 0.005093 0.004345 -0.014571
# 2 0.000166 0.010763 -0.004148 0.004811 -0.000295 -0.003450
# 3 -0.003562 -0.004148 0.013974 -0.004792 0.001631 -0.001929
# 4 0.005093 0.004811 -0.004792 0.030744 -0.005462 -0.006934
# 5 0.004345 -0.000295 0.001631 -0.005462 0.036026 -0.003081
# 6 -0.014571 -0.003450 -0.001929 -0.006934 -0.003081 0.041601
#
#
# Mechanical properties :
#
#
# Convention : Reuss Voigt Hill
#
# Bulk Modulus (GPa) = 31.85163 50.42194 41.13678
# Shear Modulus (GPa) = 27.71486 34.24340 30.97913
#
# Velocity S-wave (km/s) = 3.51087 3.90253 3.71187
# Velocity P-wave (km/s) = 5.53181 6.53694 6.05527
#
# Compressibility (1/GPa) = 0.03139557
#
# Stress axis : x y z
#
# Youngs Moduli (GPa) = 45.98423 92.90935 71.55938
#
# Poissons Ratio (x) = -0.01547 0.25492
# Poissons Ratio (y) = -0.00765 0.29686
# Poissons Ratio (z) = 0.16381 0.38543
#
# Static dielectric constant tensor:
#      x y z
#    x 1.934180 -0.025280 0.046460 
#    y -0.025280 1.834700 -0.013860 
#    z 0.046460 -0.013860 1.848310 
# 
# From -- ./inp_files/368151.got.cif
#   From: 2010.05.17/outbox.cif.g08.bks.cpg/sg2_185_cif.got.tgz:368151.got - 2010.06.03 11:33:40.
