data_PCOD9037297
_publ_section_title
;
Structure prediction by ZEFSAII (Michael W. Deem and Ramdas Pophale) SiO2 
 PCOD9037297
Probable space group: P -1
;
_chemical_formula_sum "Si O2"
_cell_formula_units_Z 16
_cell_length_a 18.671960
_cell_length_b 10.164246
_cell_length_c 15.551326
_cell_angle_alpha 22.531655
_cell_angle_beta 147.804006
_cell_angle_gamma 137.777568
_cell_volume 590.267907
_symmetry_space_group_name_H-M "P -1"
_symmetry_group_IT_number 2
_symmetry_cell_setting 'triclinic'
loop_
_space_group_symop_operation_xyz
x,y,z
-x,-y,-z
loop_
_atom_site_type_symbol
_atom_site_label
_atom_site_fract_x
_atom_site_fract_y
_atom_site_fract_z
Si Si1 0.185160 0.335445 0.976061
Si Si2 0.719889 0.390136 0.556071
Si Si3 0.007522 0.535844 0.140341
Si Si4 0.092963 0.759631 0.474833
Si Si5 0.307068 0.336955 0.829713
Si Si6 0.778843 0.259215 0.994484
Si Si7 0.571258 0.844837 0.360032
Si Si8 0.591024 0.329528 0.921863
O O1 0.123188 0.681947 0.651415
O O2 0.073793 0.297839 0.956987
O O3 0.325758 0.385275 0.131890
O O4 0.218067 0.023171 0.129911
O O5 0.708428 0.468599 0.395291
O O6 0.564251 0.491995 0.367449
O O7 0.833356 0.560820 0.616258
O O8 0.922878 0.254377 0.189810
O O9 0.979915 0.848897 0.855487
O O10 0.236969 0.616759 0.658379
O O11 0.000000 0.500000 0.500000
O O12 0.228513 0.017772 0.920876
O O13 0.463731 0.140961 0.123439
O O14 0.717722 0.655916 0.660677
O O15 0.673238 0.185166 0.006527
O O16 0.500000 0.500000 0.500000
O O17 0.587798 0.048635 0.164571
#
# Coordination Sequence:
#
# PCOD9037297 Si02
#       8
#     2   2   2   2   2   2   2   2
#     4  11  22  40  65  94 133 166 215 270 318 380
#     4  11  21  40  64  95 132 168 216 264 322 389
#     4  11  23  43  67  97 130 172 215 268 324 381
#     4  12  23  40  67  93 128 173 216 260 321 388
#     4  10  23  41  64  95 128 171 216 261 327 383
#     4  10  23  44  67  94 134 168 213 274 320 380
#     4   9  20  40  62  93 131 169 212 265 320 382
#     4  10  23  40  65 101 126 168 218 268 323 382
#
# _framework density 27.106337
#
# number of rings (size 3 to 8) (size 9 to 14) (size 15 to 20)
#    0.000    1.500    2.500    2.250    1.750    5.000 
#    2.250    2.500    0.000    0.000    0.000    5.250 
#    0.000    0.000    0.000    0.000    0.000    0.000 
#
# Total GULP energy -89703.387701 kJ/mol
# GULP energy per Si atom -5606.461731 kJ/mol
# Density = 2.704464 g / cm^3
# Si number density = 27.106337 Si / 1000 Ang^3
#
#
#
# Elastic Constant Matrix: (Units=GPa)
#
#
# Indices 1 2 3 4 5 6 
#
# 1 105.4697 14.5120 48.2677 -0.4005 7.0604 19.2181
# 2 14.5120 127.2997 20.7129 31.5824 22.9951 19.5421
# 3 48.2677 20.7129 160.4244 19.2802 4.4151 13.2258
# 4 -0.4005 31.5824 19.2802 45.7653 3.5199 7.3723
# 5 7.0604 22.9951 4.4151 3.5199 49.6069 -3.0760
# 6 19.2181 19.5421 13.2258 7.3723 -3.0760 32.1992
#
#
#
# Elastic Compliance Matrix: (Units=1/GPa)
#
#
# Indices 1 2 3 4 5 6 
#
# 1 0.012475 -0.000185 -0.003470 0.002944 -0.002010 -0.006774
# 2 -0.000185 0.011286 -0.000010 -0.006468 -0.005101 -0.005741
# 3 -0.003470 -0.000010 0.007692 -0.003210 0.000020 -0.000346
# 4 0.002944 -0.006468 -0.003210 0.028103 0.000692 -0.002882
# 5 -0.002010 -0.005101 0.000020 0.000692 0.023151 0.006340
# 6 -0.006774 -0.005741 -0.000346 -0.002882 0.006340 0.039992
#
#
# Mechanical properties :
#
#
# Convention : Reuss Voigt Hill
#
# Bulk Modulus (GPa) = 41.45405 62.24213 51.84809
# Shear Modulus (GPa) = 36.21336 46.16102 41.18719
#
# Velocity S-wave (km/s) = 3.65906 4.13117 3.90226
# Velocity P-wave (km/s) = 5.76003 6.76517 6.28273
#
# Compressibility (1/GPa) = 0.02412310
#
# Stress axis : x y z
#
# Youngs Moduli (GPa) = 80.16176 88.60655 129.99843
#
# Poissons Ratio (x) = 0.01640 0.45103
# Poissons Ratio (y) = 0.01484 0.00135
# Poissons Ratio (z) = 0.27812 0.00092
#
# Static dielectric constant tensor:
#      x y z
#    x 2.091990 0.047830 -0.015800 
#    y 0.047830 2.140990 -0.008730 
#    z -0.015800 -0.008730 2.122930 
# 
# From -- ./inp_files/577881.got.cif
#   From: 2010.05.17/outbox.cif.g08.bks.cpg/sg2_289_cif.got.tgz:577881.got - 2010.06.03 11:33:40.
