data_PCOD9037444
_publ_section_title
;
Structure prediction by ZEFSAII (Michael W. Deem and Ramdas Pophale) SiO2 
 PCOD9037444
Probable space group: P -1
;
_chemical_formula_sum "Si O2"
_cell_formula_units_Z 12
_cell_length_a 11.326265
_cell_length_b 6.883066
_cell_length_c 7.110949
_cell_angle_alpha 116.918149
_cell_angle_beta 82.952017
_cell_angle_gamma 110.410560
_cell_volume 462.858171
_symmetry_space_group_name_H-M "P -1"
_symmetry_group_IT_number 2
_symmetry_cell_setting 'triclinic'
loop_
_space_group_symop_operation_xyz
x,y,z
-x,-y,-z
loop_
_atom_site_type_symbol
_atom_site_label
_atom_site_fract_x
_atom_site_fract_y
_atom_site_fract_z
Si Si1 0.682558 0.459956 0.913756
Si Si2 0.547449 0.645062 0.360374
Si Si3 0.770920 0.885438 0.657487
Si Si4 0.083868 0.614168 0.249172
Si Si5 0.352973 0.936642 0.979719
Si Si6 0.166945 0.582237 0.626690
O O1 0.580589 0.365959 0.726285
O O2 0.831048 0.551736 0.878791
O O3 0.621159 0.564063 0.140103
O O4 0.692897 0.231235 0.910701
O O5 0.500000 0.500000 0.500000
O O6 0.657794 0.862320 0.518587
O O7 0.808092 0.658579 0.512800
O O8 0.885350 0.125330 0.722758
O O9 0.704132 0.864381 0.869981
O O10 0.113316 0.661060 0.486635
O O11 0.936135 0.465228 0.206472
O O12 0.293333 0.787663 0.747616
O O13 0.500000 0.000000 0.000000
#
# Coordination Sequence:
#
# PCOD9037444 Si02
#       6
#     2   2   2   2   2   2
#     4  10  23  40  67 105 137 190 232 288 360 414
#     4  11  22  41  68 105 148 183 231 298 357 416
#     4  11  24  42  71 102 134 192 232 296 358 423
#     4  10  25  45  70 102 139 197 239 285 363 421
#     4  11  25  41  70 109 136 188 239 293 364 426
#     4  11  24  50  68  99 153 183 238 307 340 425
#
# _framework density 25.925868000000001
#
# number of rings (size 3 to 8) (size 9 to 14) (size 15 to 20)
#    0.000    1.333    1.667    2.500    4.667    5.333 
#    3.000    1.667    0.000    0.000    0.000    0.000 
#    0.000    0.000    0.000    0.000    0.000    0.000 
#
# Total GULP energy -66910.978689 kJ/mol
# GULP energy per Si atom -5575.914891 kJ/mol
# Density = 2.586686 g / cm^3
# Si number density = 25.925868 Si / 1000 Ang^3
#
#
#
# Elastic Constant Matrix: (Units=GPa)
#
#
# Indices 1 2 3 4 5 6 
#
# 1 112.6717 14.3424 46.6555 8.5086 -10.8377 20.2809
# 2 14.3424 26.9829 13.9451 8.9764 4.5391 15.3347
# 3 46.6555 13.9451 128.8968 10.9093 -6.8057 8.3946
# 4 8.5086 8.9764 10.9093 38.9143 2.5914 5.1224
# 5 -10.8377 4.5391 -6.8057 2.5914 68.8451 -8.5335
# 6 20.2809 15.3347 8.3946 5.1224 -8.5335 34.4216
#
#
#
# Elastic Compliance Matrix: (Units=1/GPa)
#
#
# Indices 1 2 3 4 5 6 
#
# 1 0.011588 -0.001422 -0.003614 -0.000601 0.000966 -0.004984
# 2 -0.001422 0.057603 -0.003806 -0.008219 -0.007118 -0.024437
# 3 -0.003614 -0.003806 0.009512 -0.001313 0.000910 0.001926
# 4 -0.000601 -0.008219 -0.001313 0.028147 -0.000747 -0.000038
# 5 0.000966 -0.007118 0.000910 -0.000747 0.016067 0.006474
# 6 -0.004984 -0.024437 0.001926 -0.000038 0.006474 0.044016
#
#
# Mechanical properties :
#
#
# Convention : Reuss Voigt Hill
#
# Bulk Modulus (GPa) = 16.38839 46.49303 31.44071
# Shear Modulus (GPa) = 24.39538 41.34343 32.86940
#
# Velocity S-wave (km/s) = 3.07085 3.99767 3.56451
# Velocity P-wave (km/s) = 4.34838 6.26742 5.39393
#
# Compressibility (1/GPa) = 0.06101882
#
# Stress axis : x y z
#
# Youngs Moduli (GPa) = 86.29384 17.36032 105.13224
#
# Poissons Ratio (x) = 0.02468 0.37998
# Poissons Ratio (y) = 0.12268 0.40013
# Poissons Ratio (z) = 0.31189 0.06607
#
# Static dielectric constant tensor:
#      x y z
#    x 1.246790 -0.470070 0.287610 
#    y -0.470070 1.891630 0.239570 
#    z 0.287610 0.239570 2.012930 
# 
# From -- ./inp_files/232909.got.cif
#   From: 2010.05.17/outbox.cif.g08.bks.cpg/sg2_117_cif.got.tgz:232909.got - 2010.06.03 11:33:40.
