data_PCOD9037004
_publ_section_title
;
Structure prediction by ZEFSAII (Michael W. Deem and Ramdas Pophale) SiO2 
 PCOD9037004
Probable space group: P -1
;
_chemical_formula_sum "Si O2"
_cell_formula_units_Z 14
_cell_length_a 8.862534
_cell_length_b 5.952973
_cell_length_c 12.222691
_cell_angle_alpha 86.995237
_cell_angle_beta 98.899082
_cell_angle_gamma 108.255352
_cell_volume 605.017367
_symmetry_space_group_name_H-M "P -1"
_symmetry_group_IT_number 2
_symmetry_cell_setting 'triclinic'
loop_
_space_group_symop_operation_xyz
x,y,z
-x,-y,-z
loop_
_atom_site_type_symbol
_atom_site_label
_atom_site_fract_x
_atom_site_fract_y
_atom_site_fract_z
Si Si1 0.109144 0.964442 0.114630
Si Si2 0.134375 0.383082 0.495788
Si Si3 0.408799 0.828870 0.089702
Si Si4 0.620368 0.111492 0.303280
Si Si5 0.593187 0.592259 0.790159
Si Si6 0.428880 0.677184 0.421094
Si Si7 0.060374 0.000604 0.680349
O O1 0.254690 0.190742 0.165232
O O2 0.998175 0.916049 0.213721
O O3 0.219807 0.805094 0.087392
O O4 0.000000 0.000000 0.000000
O O5 0.272030 0.627503 0.477189
O O6 0.000000 0.500000 0.500000
O O7 0.085669 0.185409 0.398405
O O8 0.142509 0.227687 0.607007
O O9 0.436378 0.575253 0.103438
O O10 0.512722 0.958159 0.199677
O O11 0.500000 0.000000 0.000000
O O12 0.558731 0.338754 0.276643
O O13 0.802640 0.130797 0.295023
O O14 0.548370 0.936055 0.402392
O O15 0.635083 0.447227 0.698328
O O16 0.500000 0.500000 0.500000
#
# Coordination Sequence:
#
# PCOD9037004 Si02
#       7
#     2   2   2   2   2   2   2
#     4  11  24  43  70  99 140 180 226 287 341 410
#     4  11  26  40  67  97 142 183 224 286 337 409
#     4  10  23  45  69  97 129 175 233 282 339 408
#     4  10  23  39  68  94 133 176 227 278 332 414
#     4  10  24  43  68  99 132 177 226 290 332 407
#     4  11  22  42  64 100 134 182 227 274 343 400
#     4  11  24  44  63 104 137 181 231 277 348 400
#
# _framework density 23.139831999999998
#
# number of rings (size 3 to 8) (size 9 to 14) (size 15 to 20)
#    0.000    1.429    2.857    0.857    8.000    3.429 
#    0.000    2.857    0.000    0.000    0.000    0.000 
#    0.000    0.000    0.000    0.000    0.000    0.000 
#
# Total GULP energy -77945.559159 kJ/mol
# GULP energy per Si atom -5567.539940 kJ/mol
# Density = 2.308716 g / cm^3
# Si number density = 23.139832 Si / 1000 Ang^3
#
#
#
# Elastic Constant Matrix: (Units=GPa)
#
#
# Indices 1 2 3 4 5 6 
#
# 1 144.9663 34.6819 55.7048 -26.6136 -14.3095 -5.3129
# 2 34.6819 85.8239 36.6736 -25.3272 -6.7318 5.7725
# 3 55.7048 36.6736 140.8618 -20.0788 -10.5468 -2.2842
# 4 -26.6136 -25.3272 -20.0788 44.2387 6.4615 7.8881
# 5 -14.3095 -6.7318 -10.5468 6.4615 41.3687 1.0216
# 6 -5.3129 5.7725 -2.2842 7.8881 1.0216 27.0881
#
#
#
# Elastic Compliance Matrix: (Units=1/GPa)
#
#
# Indices 1 2 3 4 5 6 
#
# 1 0.009017 -0.001614 -0.002588 0.002899 0.001719 0.000985
# 2 -0.001614 0.016283 -0.002496 0.008319 0.000315 -0.006431
# 3 -0.002588 -0.002496 0.008967 0.000874 0.000836 0.000494
# 4 0.002899 0.008319 0.000874 0.031647 -0.002110 -0.010267
# 5 0.001719 0.000315 0.000836 -0.002110 0.025362 -0.000001
# 6 0.000985 -0.006431 0.000494 -0.010267 -0.000001 0.041512
#
#
# Mechanical properties :
#
#
# Convention : Reuss Voigt Hill
#
# Bulk Modulus (GPa) = 47.91051 69.53030 58.72041
# Shear Modulus (GPa) = 32.64998 38.84521 35.74760
#
# Velocity S-wave (km/s) = 3.76038 4.10166 3.93472
# Velocity P-wave (km/s) = 6.29315 7.24876 6.78779
#
# Compressibility (1/GPa) = 0.02087225
#
# Stress axis : x y z
#
# Youngs Moduli (GPa) = 110.90641 61.41469 111.51390
#
# Poissons Ratio (x) = 0.09911 0.28855
# Poissons Ratio (y) = 0.17898 0.27833
# Poissons Ratio (z) = 0.28698 0.15329
#
# Static dielectric constant tensor:
#      x y z
#    x 2.140490 -0.079440 -0.083720 
#    y -0.079440 2.031350 -0.040460 
#    z -0.083720 -0.040460 2.004480 
# 
# From -- ./inp_files/105442.got.cif
#   From: 2010.05.17/outbox.cif.g08.bks.cpg/sg2_53_cif.got.tgz:105442.got - 2010.06.03 11:33:40.
