data_PCOD9037441
_publ_section_title
;
Structure prediction by ZEFSAII (Michael W. Deem and Ramdas Pophale) SiO2 
 PCOD9037441
Probable space group: P -1
;
_chemical_formula_sum "Si O2"
_cell_formula_units_Z 16
_cell_length_a 18.898538
_cell_length_b 11.330881
_cell_length_c 5.112128
_cell_angle_alpha 109.469449
_cell_angle_beta 79.856080
_cell_angle_gamma 130.486489
_cell_volume 783.734009
_symmetry_space_group_name_H-M "P -1"
_symmetry_group_IT_number 2
_symmetry_cell_setting 'triclinic'
loop_
_space_group_symop_operation_xyz
x,y,z
-x,-y,-z
loop_
_atom_site_type_symbol
_atom_site_label
_atom_site_fract_x
_atom_site_fract_y
_atom_site_fract_z
Si Si1 0.635695 0.662573 0.644548
Si Si2 0.505445 0.335770 0.053773
Si Si3 0.806218 0.938281 0.036487
Si Si4 0.893123 0.915470 0.466923
Si Si5 0.649710 0.349303 0.713983
Si Si6 0.336246 0.078297 0.594667
Si Si7 0.514327 0.909492 0.708999
Si Si8 0.265189 0.465142 0.701584
O O1 0.533198 0.574881 0.759511
O O2 0.660064 0.807643 0.542736
O O3 0.659143 0.565242 0.394257
O O4 0.712876 0.755634 0.893326
O O5 0.512478 0.245476 0.222341
O O6 0.589970 0.409022 0.855940
O O7 0.416366 0.189978 0.837618
O O8 0.868845 0.947304 0.226437
O O9 0.760560 0.013343 0.249945
O O10 0.861180 0.979764 0.759257
O O11 0.830370 0.718981 0.370562
O O12 0.000000 0.000000 0.500000
O O13 0.563947 0.168373 0.529492
O O14 0.721380 0.443576 0.504228
O O15 0.708875 0.412914 0.989071
O O16 0.378050 0.998958 0.375156
O O17 0.500000 0.000000 0.000000
#
# Coordination Sequence:
#
# PCOD9037441 Si02
#       8
#     2   2   2   2   2   2   2   2
#     4   9  18  31  50  71 105 148 174 210 250 295
#     4   9  19  34  48  76 100 140 186 215 253 309
#     4  10  17  33  52  74 109 137 175 220 250 310
#     4  11  22  35  55  79 105 145 180 212 265 319
#     4  11  22  35  49  75 103 143 184 214 258 307
#     4   9  17  32  53  76 103 143 183 218 257 305
#     4  10  21  39  55  74 107 143 185 234 263 301
#     4  11  21  34  51  71 109 142 171 220 252 314
#
# _framework density 20.415091
#
# number of rings (size 3 to 8) (size 9 to 14) (size 15 to 20)
#    0.000    2.000    3.750    1.875    1.750    3.000 
#    0.000    0.000    0.000    0.000    0.000    0.000 
#    0.000    6.000    0.000    0.000    0.000    0.000 
#
# Total GULP energy -89119.126283 kJ/mol
# GULP energy per Si atom -5569.945393 kJ/mol
# Density = 2.036863 g / cm^3
# Si number density = 20.415091 Si / 1000 Ang^3
#
#
#
# Elastic Constant Matrix: (Units=GPa)
#
#
# Indices 1 2 3 4 5 6 
#
# 1 82.0829 18.7003 40.8892 5.8219 1.2167 10.2406
# 2 18.7003 33.0541 15.9268 3.3375 2.6002 11.4636
# 3 40.8892 15.9268 162.8665 -6.3578 4.2922 5.6830
# 4 5.8219 3.3375 -6.3578 28.0548 -7.6426 3.3547
# 5 1.2167 2.6002 4.2922 -7.6426 35.3218 -3.2095
# 6 10.2406 11.4636 5.6830 3.3547 -3.2095 23.8218
#
#
#
# Elastic Compliance Matrix: (Units=1/GPa)
#
#
# Indices 1 2 3 4 5 6 
#
# 1 0.015817 -0.005989 -0.003397 -0.003183 -0.000629 -0.002743
# 2 -0.005989 0.041181 -0.001936 -0.003392 -0.004865 -0.016959
# 3 -0.003397 -0.001936 0.007272 0.002535 -0.000049 0.000294
# 4 -0.003183 -0.003392 0.002535 0.039842 0.008484 -0.002072
# 5 -0.000629 -0.004865 -0.000049 0.008484 0.031042 0.005611
# 6 -0.002743 -0.016959 0.000294 -0.002072 0.005611 0.052296
#
#
# Mechanical properties :
#
#
# Convention : Reuss Voigt Hill
#
# Bulk Modulus (GPa) = 24.02357 47.67068 35.84712
# Shear Modulus (GPa) = 22.32428 30.93881 26.63155
#
# Velocity S-wave (km/s) = 3.31043 3.89715 3.61571
# Velocity P-wave (km/s) = 5.13858 6.60695 5.91848
#
# Compressibility (1/GPa) = 0.04162579
#
# Stress axis : x y z
#
# Youngs Moduli (GPa) = 63.22321 24.28280 137.50927
#
# Poissons Ratio (x) = 0.14543 0.46716
# Poissons Ratio (y) = 0.37865 0.26622
# Poissons Ratio (z) = 0.21479 0.04701
#
# Static dielectric constant tensor:
#      x y z
#    x 1.765470 -0.024660 -0.013290 
#    y -0.024660 1.794430 -0.029930 
#    z -0.013290 -0.029930 1.867960 
# 
# From -- ./inp_files/108708.got.cif
#   From: 2010.05.17/outbox.cif.g08.bks.cpg/sg2_55_cif.got.tgz:108708.got - 2010.06.03 11:33:40.
