data_PCOD9037366
_publ_section_title
;
Structure prediction by ZEFSAII (Michael W. Deem and Ramdas Pophale) SiO2 
 PCOD9037366
Probable space group: P -1
;
_chemical_formula_sum "Si O2"
_cell_formula_units_Z 14
_cell_length_a 9.445215
_cell_length_b 8.895815
_cell_length_c 10.042740
_cell_angle_alpha 84.223690
_cell_angle_beta 55.096435
_cell_angle_gamma 99.416840
_cell_volume 662.732518
_symmetry_space_group_name_H-M "P -1"
_symmetry_group_IT_number 2
_symmetry_cell_setting 'triclinic'
loop_
_space_group_symop_operation_xyz
x,y,z
-x,-y,-z
loop_
_atom_site_type_symbol
_atom_site_label
_atom_site_fract_x
_atom_site_fract_y
_atom_site_fract_z
Si Si1 0.635199 0.842872 0.191638
Si Si2 0.729781 0.128559 0.492678
Si Si3 0.713490 0.174049 0.191261
Si Si4 0.674206 0.631966 0.939962
Si Si5 0.677880 0.795253 0.654392
Si Si6 0.699662 0.619526 0.397519
Si Si7 0.039555 0.587802 0.793092
O O1 0.430755 0.838078 0.338521
O O2 0.708527 0.765914 0.283712
O O3 0.736588 0.027847 0.106199
O O4 0.643024 0.735548 0.071364
O O5 0.670856 0.104814 0.370903
O O6 0.891458 0.283328 0.373979
O O7 0.767869 0.973892 0.545389
O O8 0.537454 0.221556 0.234983
O O9 0.883920 0.318925 0.119361
O O10 0.727011 0.749549 0.776760
O O11 0.828056 0.549166 0.903245
O O12 0.500000 0.500000 0.000000
O O13 0.718353 0.678751 0.533027
O O14 0.500000 0.500000 0.500000
O O15 0.850969 0.537469 0.280927
#
# Coordination Sequence:
#
# PCOD9037366 Si02
#       7
#     2   2   2   2   2   2   2
#     4  11  20  40  67  94 128 166 205 264 323 369
#     4   9  18  39  72  98 109 155 231 269 287 370
#     4   9  18  39  72  98 109 155 231 269 287 370
#     4  12  30  42  54  94 150 169 191 263 337 376
#     4  11  20  40  67  94 128 166 205 264 323 369
#     4  12  17  35  73  95 113 174 217 257 305 370
#     4  10  23  40  66 101 122 162 222 265 301 376
#
# _framework density 21.124662000000001
#
# number of rings (size 3 to 8) (size 9 to 14) (size 15 to 20)
#    0.857    0.571    5.714    1.714    0.000    4.571 
#    0.000    0.000    6.286    0.000    0.000    0.000 
#    0.000    0.000    0.000    0.000    0.000    0.000 
#
# Total GULP energy -78161.544117 kJ/mol
# GULP energy per Si atom -5582.967437 kJ/mol
# Density = 2.107658 g / cm^3
# Si number density = 21.124662 Si / 1000 Ang^3
#
#
#
# Elastic Constant Matrix: (Units=GPa)
#
#
# Indices 1 2 3 4 5 6 
#
# 1 88.9677 38.7588 29.2655 14.3308 -20.9512 -11.1929
# 2 38.7588 72.4682 25.6673 21.9814 -27.9880 -11.3310
# 3 29.2655 25.6673 81.4983 27.2392 4.5959 -5.1054
# 4 14.3308 21.9814 27.2392 36.7767 -10.9425 3.4691
# 5 -20.9512 -27.9880 4.5959 -10.9425 31.4464 -3.3236
# 6 -11.1929 -11.3310 -5.1054 3.4691 -3.3236 22.2854
#
#
#
# Elastic Compliance Matrix: (Units=1/GPa)
#
#
# Indices 1 2 3 4 5 6 
#
# 1 0.018010 -0.001210 -0.007046 0.002169 0.013606 0.008508
# 2 -0.001210 0.035061 -0.008947 -0.006400 0.031687 0.020892
# 3 -0.007046 -0.008947 0.023959 -0.015891 -0.022049 -0.003413
# 4 0.002169 -0.006400 -0.015891 0.046926 0.013223 -0.011138
# 5 0.013606 0.031687 -0.022049 0.013223 0.079823 0.027740
# 6 0.008508 0.020892 -0.003413 -0.011138 0.027740 0.064856
#
#
# Mechanical properties :
#
#
# Convention : Reuss Voigt Hill
#
# Bulk Modulus (GPa) = 23.46039 47.81303 35.63671
# Shear Modulus (GPa) = 15.76055 28.05122 21.90589
#
# Velocity S-wave (km/s) = 2.73440 3.64798 3.22371
# Velocity P-wave (km/s) = 4.59337 6.35818 5.54642
#
# Compressibility (1/GPa) = 0.04262503
#
# Stress axis : x y z
#
# Youngs Moduli (GPa) = 55.52573 28.52169 41.73858
#
# Poissons Ratio (x) = 0.03451 0.29407
# Poissons Ratio (y) = 0.06718 0.37342
# Poissons Ratio (z) = 0.39121 0.25518
#
# Static dielectric constant tensor:
#      x y z
#    x 1.746890 0.026770 -0.025230 
#    y 0.026770 1.822440 -0.056510 
#    z -0.025230 -0.056510 1.764320 
# 
# From -- ./inp_files/159097.got.cif
#   From: 2010.05.17/outbox.cif.g08.bks.cpg/sg2_80_cif.got.tgz:159097.got - 2010.06.03 11:33:40.
