data_PCOD9037729
_publ_section_title
;
Structure prediction by ZEFSAII (Michael W. Deem and Ramdas Pophale) SiO2 
 PCOD9037729
Probable space group: P -1
;
_chemical_formula_sum "Si O2"
_cell_formula_units_Z 16
_cell_length_a 12.652541
_cell_length_b 11.500446
_cell_length_c 16.057068
_cell_angle_alpha 123.627895
_cell_angle_beta 153.940264
_cell_angle_gamma 46.356215
_cell_volume 726.479652
_symmetry_space_group_name_H-M "P -1"
_symmetry_group_IT_number 2
_symmetry_cell_setting 'triclinic'
loop_
_space_group_symop_operation_xyz
x,y,z
-x,-y,-z
loop_
_atom_site_type_symbol
_atom_site_label
_atom_site_fract_x
_atom_site_fract_y
_atom_site_fract_z
Si Si1 0.465119 0.348052 0.899605
Si Si2 0.156380 0.459602 0.395358
Si Si3 0.723163 0.982628 0.438831
Si Si4 0.429739 0.109927 0.871890
Si Si5 0.162875 0.319746 0.163612
Si Si6 0.945503 0.832143 0.219404
Si Si7 0.252605 0.315586 0.577450
Si Si8 0.318910 0.528250 0.246652
O O1 0.606722 0.191356 0.997205
O O2 0.498423 0.294248 0.805798
O O3 0.147393 0.414633 0.732635
O O4 0.500000 0.500000 0.000000
O O5 0.127316 0.401277 0.260978
O O6 0.292319 0.319910 0.508736
O O7 0.360417 0.528642 0.562636
O O8 0.736955 0.914030 0.329651
O O9 0.797939 0.830147 0.491921
O O10 0.391471 0.129043 0.267466
O O11 0.916335 0.060414 0.617730
O O12 0.204415 0.198020 0.821222
O O13 0.678841 0.933775 0.010245
O O14 0.297773 0.382250 0.214202
O O15 0.860674 0.389359 0.932125
O O16 0.182595 0.669920 0.276644
O O17 0.000000 0.500000 0.500000
#
# Coordination Sequence:
#
# PCOD9037729 Si02
#       8
#     2   2   2   2   2   2   2   2
#     4  10  23  42  68  93 129 169 218 269 320 379
#     4  11  23  43  67  92 129 175 213 262 327 380
#     4  11  22  42  65  94 132 167 213 268 322 378
#     4  10  23  41  61  97 128 168 215 264 325 375
#     4  11  24  41  66  97 133 169 213 266 326 384
#     4  11  22  40  66  93 131 168 212 267 320 383
#     4   9  23  44  62  93 126 165 220 263 316 386
#     4  11  24  43  64  97 133 170 216 266 318 395
#
# _framework density 22.024016
#
# number of rings (size 3 to 8) (size 9 to 14) (size 15 to 20)
#    0.000    1.500    2.500    1.500    7.000    0.500 
#    2.250    0.625    0.000    0.000    0.000    0.000 
#    0.000    0.000    0.000    0.000    0.000    0.000 
#
# Total GULP energy -89257.191151 kJ/mol
# GULP energy per Si atom -5578.574447 kJ/mol
# Density = 2.197389 g / cm^3
# Si number density = 22.024016 Si / 1000 Ang^3
#
#
#
# Elastic Constant Matrix: (Units=GPa)
#
#
# Indices 1 2 3 4 5 6 
#
# 1 56.1316 12.7969 21.7032 -1.5425 -26.5709 4.9133
# 2 12.7969 86.3818 21.0810 5.0735 -4.5005 17.3016
# 3 21.7032 21.0810 70.7301 11.4186 -5.6808 -4.6645
# 4 -1.5425 5.0735 11.4186 36.5016 -2.4855 2.1846
# 5 -26.5709 -4.5005 -5.6808 -2.4855 35.3132 -6.9460
# 6 4.9133 17.3016 -4.6645 2.1846 -6.9460 28.3333
#
#
#
# Elastic Compliance Matrix: (Units=1/GPa)
#
#
# Indices 1 2 3 4 5 6 
#
# 1 0.032884 -0.001711 -0.008725 0.005998 0.023381 -0.000824
# 2 -0.001711 0.014904 -0.004721 -0.000209 -0.002147 -0.010092
# 3 -0.008725 -0.004721 0.019508 -0.006462 -0.003035 0.007362
# 4 0.005998 -0.000209 -0.006462 0.030223 0.004967 -0.003089
# 5 0.023381 -0.002147 -0.003035 0.004967 0.047054 0.007910
# 6 -0.000824 -0.010092 0.007362 -0.003089 0.007910 0.044989
#
#
# Mechanical properties :
#
#
# Convention : Reuss Voigt Hill
#
# Bulk Modulus (GPa) = 27.04137 36.04507 31.54322
# Shear Modulus (GPa) = 21.53280 30.54047 26.03663
#
# Velocity S-wave (km/s) = 3.13021 3.72787 3.44203
# Velocity P-wave (km/s) = 5.03677 5.91026 5.49091
#
# Compressibility (1/GPa) = 0.03698037
#
# Stress axis : x y z
#
# Youngs Moduli (GPa) = 30.40997 67.09633 51.26199
#
# Poissons Ratio (x) = 0.11482 0.44726
# Poissons Ratio (y) = 0.05204 0.24202
# Poissons Ratio (z) = 0.26533 0.31678
#
# Static dielectric constant tensor:
#      x y z
#    x 1.859970 0.129950 -0.072860 
#    y 0.129950 2.086550 -0.118290 
#    z -0.072860 -0.118290 1.898750 
# 
# From -- ./inp_files/519080.got.cif
#   From: 2010.05.17/outbox.cif.g08.bks.cpg/sg2_260_cif.got.tgz:519080.got - 2010.06.03 11:33:40.
