data_PCOD9037212
_publ_section_title
;
Structure prediction by ZEFSAII (Michael W. Deem and Ramdas Pophale) SiO2 
 PCOD9037212
Probable space group: P -1
;
_chemical_formula_sum "Si O2"
_cell_formula_units_Z 16
_cell_length_a 16.088769
_cell_length_b 11.977807
_cell_length_c 11.763633
_cell_angle_alpha 92.190708
_cell_angle_beta 142.682151
_cell_angle_gamma 58.376334
_cell_volume 795.085696
_symmetry_space_group_name_H-M "P -1"
_symmetry_group_IT_number 2
_symmetry_cell_setting 'triclinic'
loop_
_space_group_symop_operation_xyz
x,y,z
-x,-y,-z
loop_
_atom_site_type_symbol
_atom_site_label
_atom_site_fract_x
_atom_site_fract_y
_atom_site_fract_z
Si Si1 0.870197 0.869717 0.418874
Si Si2 0.355394 0.333536 0.612110
Si Si3 0.496476 0.844648 0.788525
Si Si4 0.028349 0.218832 0.740008
Si Si5 0.010091 0.441980 0.385272
Si Si6 0.363038 0.694511 0.707729
Si Si7 0.507196 0.954929 0.377816
Si Si8 0.298150 0.736911 0.906843
O O1 0.889148 0.828705 0.304474
O O2 0.002420 0.681712 0.620402
O O3 0.026365 0.877275 0.612396
O O4 0.612875 0.047190 0.203582
O O5 0.165135 0.558839 0.427099
O O6 0.260632 0.309463 0.601122
O O7 0.353324 0.255111 0.496903
O O8 0.605497 0.222910 0.914144
O O9 0.409835 0.773450 0.687973
O O10 0.414329 0.991491 0.613477
O O11 0.780278 0.645436 0.081820
O O12 0.884397 0.199005 0.588839
O O13 0.250282 0.090640 0.056313
O O14 0.000000 0.500000 0.500000
O O15 0.373141 0.709872 0.856147
O O16 0.556648 0.467097 0.898193
O O17 0.500000 0.000000 0.500000
#
# Coordination Sequence:
#
# PCOD9037212 Si02
#       8
#     2   2   2   2   2   2   2   2
#     4  11  22  35  62 102 134 158 190 245 314 388
#     4  11  22  40  64  85 125 166 202 253 305 366
#     4  12  24  38  62  93 128 167 199 253 309 364
#     4  10  23  40  63  94 124 165 201 244 313 378
#     4  12  21  36  57  94 134 163 195 241 309 384
#     4   9  19  36  61  93 130 160 193 239 310 386
#     4  12  28  45  61  86 119 168 225 264 300 348
#     4   9  19  36  61  94 132 164 187 236 313 388
#
# _framework density 20.123616999999999
#
# number of rings (size 3 to 8) (size 9 to 14) (size 15 to 20)
#    0.000    1.250    5.000    1.500    5.250    2.500 
#    0.000    0.625    0.000    1.500    0.000    0.000 
#    0.000    0.000    0.000    0.000    0.000    0.000 
#
# Total GULP energy -89257.294549 kJ/mol
# GULP energy per Si atom -5578.580909 kJ/mol
# Density = 2.007782 g / cm^3
# Si number density = 20.123617 Si / 1000 Ang^3
#
#
#
# Elastic Constant Matrix: (Units=GPa)
#
#
# Indices 1 2 3 4 5 6 
#
# 1 69.5861 49.2871 30.6493 20.6625 8.7590 12.0960
# 2 49.2871 135.9998 32.3316 14.9470 -1.7642 6.4746
# 3 30.6493 32.3316 65.0741 8.4593 11.9674 -5.0044
# 4 20.6625 14.9470 8.4593 38.1496 3.7486 0.2897
# 5 8.7590 -1.7642 11.9674 3.7486 20.2677 8.8567
# 6 12.0960 6.4746 -5.0044 0.2897 8.8567 36.2770
#
#
#
# Elastic Compliance Matrix: (Units=1/GPa)
#
#
# Indices 1 2 3 4 5 6 
#
# 1 0.027546 -0.006334 -0.008912 -0.010254 -0.001428 -0.008853
# 2 -0.006334 0.010782 -0.003704 -0.000630 0.006850 -0.001991
# 3 -0.008912 -0.003704 0.024996 0.002272 -0.016497 0.011090
# 4 -0.010254 -0.000630 0.002272 0.031962 -0.004976 0.004805
# 5 -0.001428 0.006850 -0.016497 -0.004976 0.069984 -0.020068
# 6 -0.008853 -0.001991 0.011090 0.004805 -0.020068 0.037264
#
#
# Mechanical properties :
#
#
# Convention : Reuss Voigt Hill
#
# Bulk Modulus (GPa) = 39.33426 55.02179 47.17802
# Shear Modulus (GPa) = 20.08759 29.49832 24.79296
#
# Velocity S-wave (km/s) = 3.16287 3.83280 3.51384
# Velocity P-wave (km/s) = 5.73821 6.85481 6.32122
#
# Compressibility (1/GPa) = 0.02542313
#
# Stress axis : x y z
#
# Youngs Moduli (GPa) = 36.30312 92.74649 40.00562
#
# Poissons Ratio (x) = 0.58748 0.35653
# Poissons Ratio (y) = 0.22995 0.14820
# Poissons Ratio (z) = 0.32353 0.34358
#
# Static dielectric constant tensor:
#      x y z
#    x 1.696980 0.030370 0.046030 
#    y 0.030370 1.836930 -0.048890 
#    z 0.046030 -0.048890 1.735740 
# 
# From -- ./inp_files/464707.got.cif
#   From: 2010.05.17/outbox.cif.g08.bks.cpg/sg2_233_cif.got.tgz:464707.got - 2010.06.03 11:33:40.
