data_PCOD9037304
_publ_section_title
;
Structure prediction by ZEFSAII (Michael W. Deem and Ramdas Pophale) SiO2 
 PCOD9037304
Probable space group: P -1
;
_chemical_formula_sum "Si O2"
_cell_formula_units_Z 14
_cell_length_a 15.273714
_cell_length_b 13.172105
_cell_length_c 8.398971
_cell_angle_alpha 88.359693
_cell_angle_beta 76.584512
_cell_angle_gamma 23.812206
_cell_volume 586.592799
_symmetry_space_group_name_H-M "P -1"
_symmetry_group_IT_number 2
_symmetry_cell_setting 'triclinic'
loop_
_space_group_symop_operation_xyz
x,y,z
-x,-y,-z
loop_
_atom_site_type_symbol
_atom_site_label
_atom_site_fract_x
_atom_site_fract_y
_atom_site_fract_z
Si Si1 0.560519 0.179625 0.389722
Si Si2 0.237313 0.328322 0.905853
Si Si3 0.398107 0.228919 0.190364
Si Si4 0.973573 0.282782 0.260871
Si Si5 0.787172 0.177453 0.930526
Si Si6 0.883723 0.735179 0.521783
Si Si7 0.244421 0.806685 0.681215
O O1 0.565515 0.139446 0.205073
O O2 0.273824 0.500935 0.553369
O O3 0.729409 0.100343 0.343390
O O4 0.668999 0.978164 0.470805
O O5 0.148500 0.511654 0.823191
O O6 0.475537 0.006101 0.777944
O O7 0.337043 0.270977 0.031672
O O8 0.000000 0.500000 0.000000
O O9 0.124937 0.537926 0.358746
O O10 0.151266 0.167587 0.302340
O O11 0.121249 0.033274 0.135403
O O12 0.500000 0.500000 0.000000
O O13 0.772036 0.210547 0.126688
O O14 0.967321 0.056296 0.744397
O O15 0.000000 0.500000 0.500000
O O16 0.500000 0.500000 0.500000
#
# Coordination Sequence:
#
# PCOD9037304 Si02
#       7
#     2   2   2   2   2   2   2
#     4  11  24  46  73 104 147 195 250 301 381 454
#     4  11  23  42  66 102 154 190 246 304 371 449
#     4  10  23  40  65 102 140 196 237 301 360 443
#     4  11  25  44  72 107 144 196 248 308 383 446
#     4  11  28  50  77 111 146 192 258 327 383 457
#     4  11  23  41  68 103 145 192 238 299 363 449
#     4  11  26  52  76 106 146 195 253 324 386 452
#
# _framework density 23.866643
#
# number of rings (size 3 to 8) (size 9 to 14) (size 15 to 20)
#    0.000    1.143    1.429    3.429    6.000    6.286 
#    2.571    0.000    0.000    0.000    0.000    0.000 
#    0.000    0.000    0.000    0.000    0.000    0.000 
#
# Total GULP energy -78085.302315 kJ/mol
# GULP energy per Si atom -5577.521594 kJ/mol
# Density = 2.381232 g / cm^3
# Si number density = 23.866643 Si / 1000 Ang^3
#
#
#
# Elastic Constant Matrix: (Units=GPa)
#
#
# Indices 1 2 3 4 5 6 
#
# 1 140.1660 35.8683 62.3777 3.9561 -6.2565 -1.2607
# 2 35.8683 90.2528 50.4760 17.3557 -4.9183 -21.2988
# 3 62.3777 50.4760 116.4579 23.9904 -2.4094 -11.2389
# 4 3.9561 17.3557 23.9904 42.5364 -4.9999 -0.6423
# 5 -6.2565 -4.9183 -2.4094 -4.9999 41.5161 -5.2588
# 6 -1.2607 -21.2988 -11.2389 -0.6423 -5.2588 20.8675
#
#
#
# Elastic Compliance Matrix: (Units=1/GPa)
#
#
# Indices 1 2 3 4 5 6 
#
# 1 0.010105 -0.002744 -0.005329 0.003192 0.000665 -0.004795
# 2 -0.002744 0.020187 -0.004403 -0.004800 0.003527 0.018808
# 3 -0.005329 -0.004403 0.014868 -0.006151 -0.000849 0.002789
# 4 0.003192 -0.004800 -0.006151 0.028798 0.002190 -0.006581
# 5 0.000665 0.003527 -0.000849 0.002190 0.026063 0.009818
# 6 -0.004795 0.018808 0.002789 -0.006581 0.009818 0.070602
#
#
# Mechanical properties :
#
#
# Convention : Reuss Voigt Hill
#
# Bulk Modulus (GPa) = 49.48800 71.59121 60.53960
# Shear Modulus (GPa) = 24.71438 34.19432 29.45435
#
# Velocity S-wave (km/s) = 3.22144 3.78924 3.51682
# Velocity P-wave (km/s) = 5.88363 7.01469 6.47391
#
# Compressibility (1/GPa) = 0.02020692
#
# Stress axis : x y z
#
# Youngs Moduli (GPa) = 98.96205 49.53790 67.25698
#
# Poissons Ratio (x) = 0.13595 0.35844
# Poissons Ratio (y) = 0.27159 0.29611
# Poissons Ratio (z) = 0.52741 0.21810
#
# Static dielectric constant tensor:
#      x y z
#    x 2.105230 -0.169320 -0.068930 
#    y -0.169320 1.968460 0.010600 
#    z -0.068930 0.010600 1.931370 
# 
# From -- ./inp_files/335347.got.cif
#   From: 2010.05.17/outbox.cif.g08.bks.cpg/sg2_168_cif.got.tgz:335347.got - 2010.06.03 11:33:40.
