data_PCOD9037219
_publ_section_title
;
Structure prediction by ZEFSAII (Michael W. Deem and Ramdas Pophale) SiO2 
 PCOD9037219
Probable space group: P -1
;
_chemical_formula_sum "Si O2"
_cell_formula_units_Z 14
_cell_length_a 10.570920
_cell_length_b 4.858571
_cell_length_c 9.906332
_cell_angle_alpha 85.430765
_cell_angle_beta 90.656405
_cell_angle_gamma 86.024529
_cell_volume 505.873792
_symmetry_space_group_name_H-M "P -1"
_symmetry_group_IT_number 2
_symmetry_cell_setting 'triclinic'
loop_
_space_group_symop_operation_xyz
x,y,z
-x,-y,-z
loop_
_atom_site_type_symbol
_atom_site_label
_atom_site_fract_x
_atom_site_fract_y
_atom_site_fract_z
Si Si1 0.968240 0.138492 0.819149
Si Si2 0.870695 0.403358 0.242124
Si Si3 0.362945 0.155659 0.520221
Si Si4 0.627169 0.080839 0.192876
Si Si5 0.628449 0.550836 0.753836
Si Si6 0.124196 0.803839 0.470395
Si Si7 0.281370 0.003476 0.088822
O O1 0.895884 0.275717 0.681234
O O2 0.084040 0.326058 0.838813
O O3 0.858913 0.104259 0.927305
O O4 0.024273 0.839823 0.784946
O O5 0.867598 0.430957 0.404829
O O6 0.740200 0.283740 0.203883
O O7 0.359462 0.416100 0.408934
O O8 0.500000 0.000000 0.500000
O O9 0.357789 0.155355 0.682307
O O10 0.500898 0.277080 0.208934
O O11 0.646028 0.955383 0.050203
O O12 0.753176 0.021385 0.518703
O O13 0.729073 0.725304 0.829076
O O14 0.360382 0.759975 0.181790
O O15 0.000000 0.000000 0.500000
#
# Coordination Sequence:
#
# PCOD9037219 Si02
#       7
#     2   2   2   2   2   2   2
#     4  11  22  39  64  96 129 175 220 270 331 403
#     4  10  23  40  63  95 131 172 221 275 332 391
#     4   9  19  42  68  98 134 173 225 281 335 393
#     4  10  24  45  68 100 138 176 222 283 339 395
#     4  11  24  46  70  98 132 181 229 272 333 408
#     4   9  18  36  62  93 126 171 221 270 325 395
#     4  12  25  42  71  99 136 177 225 275 336 407
#
# _framework density 27.674885
#
# number of rings (size 3 to 8) (size 9 to 14) (size 15 to 20)
#    0.000    1.714    1.429    2.143    2.000    3.429 
#    2.571    7.857    0.000    0.000    0.000    0.000 
#    0.000    0.000    0.000    0.000    0.000    0.000 
#
# Total GULP energy -78619.509966 kJ/mol
# GULP energy per Si atom -5615.679283 kJ/mol
# Density = 2.761190 g / cm^3
# Si number density = 27.674885 Si / 1000 Ang^3
#
#
#
# Elastic Constant Matrix: (Units=GPa)
#
#
# Indices 1 2 3 4 5 6 
#
# 1 124.5978 16.9429 29.9242 -6.6455 -24.2818 7.9190
# 2 16.9429 129.3643 57.6494 -7.2166 5.2281 -13.7228
# 3 29.9242 57.6494 202.2012 -23.7169 -2.5314 -4.8674
# 4 -6.6455 -7.2166 -23.7169 37.9949 -2.5964 2.8703
# 5 -24.2818 5.2281 -2.5314 -2.5964 44.0960 -0.2439
# 6 7.9190 -13.7228 -4.8674 2.8703 -0.2439 30.7268
#
#
#
# Elastic Compliance Matrix: (Units=1/GPa)
#
#
# Indices 1 2 3 4 5 6 
#
# 1 0.009815 -0.001390 -0.000888 0.001537 0.005590 -0.003390
# 2 -0.001390 0.009528 -0.002487 -0.000446 -0.002040 0.004245
# 3 -0.000888 -0.002487 0.006168 0.003262 0.000351 -0.000207
# 4 0.001537 -0.000446 0.003262 0.028938 0.002775 -0.002759
# 5 0.005590 -0.002040 0.000351 0.002775 0.026168 -0.002348
# 6 -0.003390 0.004245 -0.000207 -0.002759 -0.002348 0.035521
#
#
# Mechanical properties :
#
#
# Convention : Reuss Voigt Hill
#
# Bulk Modulus (GPa) = 62.56600 73.91070 68.23835
# Shear Modulus (GPa) = 38.16988 46.00667 42.08828
#
# Velocity S-wave (km/s) = 3.71782 4.08167 3.90399
# Velocity P-wave (km/s) = 6.40985 6.99844 6.71060
#
# Compressibility (1/GPa) = 0.01598312
#
# Stress axis : x y z
#
# Youngs Moduli (GPa) = 101.88689 104.95274 162.12930
#
# Poissons Ratio (x) = 0.14585 0.14392
# Poissons Ratio (y) = 0.14159 0.40314
# Poissons Ratio (z) = 0.09044 0.26097
#
# Static dielectric constant tensor:
#      x y z
#    x 2.221350 -0.030720 -0.002150 
#    y -0.030720 2.030650 -0.026430 
#    z -0.002150 -0.026430 2.144580 
# 
# From -- ./inp_files/410447.got.cif
#   From: 2010.05.17/outbox.cif.g08.bks.cpg/sg2_206_cif.got.tgz:410447.got - 2010.06.03 11:33:40.
