data_PCOD9037604
_publ_section_title
;
Structure prediction by ZEFSAII (Michael W. Deem and Ramdas Pophale) SiO2 
 PCOD9037604
Probable space group: P -1
;
_chemical_formula_sum "Si O2"
_cell_formula_units_Z 16
_cell_length_a 9.095961
_cell_length_b 11.229320
_cell_length_c 9.584004
_cell_angle_alpha 107.493946
_cell_angle_beta 64.576552
_cell_angle_gamma 69.688538
_cell_volume 702.678073
_symmetry_space_group_name_H-M "P -1"
_symmetry_group_IT_number 2
_symmetry_cell_setting 'triclinic'
loop_
_space_group_symop_operation_xyz
x,y,z
-x,-y,-z
loop_
_atom_site_type_symbol
_atom_site_label
_atom_site_fract_x
_atom_site_fract_y
_atom_site_fract_z
Si Si1 0.313109 0.504203 0.029522
Si Si2 0.931407 0.995118 0.371350
Si Si3 0.194385 0.334395 0.869103
Si Si4 0.075637 0.768883 0.003323
Si Si5 0.334610 0.124987 0.512065
Si Si6 0.666702 0.849944 0.803924
Si Si7 0.120306 0.737377 0.650155
Si Si8 0.199474 0.475973 0.355682
O O1 0.178489 0.546931 0.236846
O O2 0.500000 0.500000 0.000000
O O3 0.343141 0.350825 0.906601
O O4 0.219051 0.623383 0.985943
O O5 0.831781 0.906222 0.411122
O O6 0.818229 0.164632 0.423378
O O7 0.000000 0.000000 0.500000
O O8 0.057478 0.903069 0.149242
O O9 0.271256 0.280522 0.663855
O O10 0.000000 0.500000 0.000000
O O11 0.125632 0.229468 0.919724
O O12 0.140289 0.751946 0.811682
O O13 0.373962 0.119832 0.333021
O O14 0.500000 0.000000 0.500000
O O15 0.661056 0.702927 0.782795
O O16 0.888064 0.806408 0.733906
O O17 0.500000 0.000000 0.000000
O O18 0.240563 0.568327 0.481664
O O19 0.000000 0.500000 0.500000
#
# Coordination Sequence:
#
# PCOD9037604 Si02
#       8
#     2   2   2   2   2   2   2   2
#     4  11  24  43  70 105 145 179 231 297 366 407
#     4  11  22  43  70  99 138 181 235 287 346 421
#     4   9  21  39  71  96 133 180 238 275 335 426
#     4  10  23  40  70 101 137 186 240 277 350 431
#     4  11  26  43  68 101 138 183 231 287 356 416
#     4  11  26  44  68 104 145 179 234 296 356 409
#     4  11  23  44  73  99 137 186 240 288 342 427
#     4  10  24  43  72 100 136 187 237 281 351 429
#
# _framework density 22.770026999999999
#
# number of rings (size 3 to 8) (size 9 to 14) (size 15 to 20)
#    0.000    1.500    1.250    2.625   17.500    3.000 
#    2.250    0.625    0.000    0.000    0.000    0.000 
#    0.000    0.000    0.000    0.000    0.000    0.000 
#
# Total GULP energy -89291.703061 kJ/mol
# GULP energy per Si atom -5580.731441 kJ/mol
# Density = 2.271820 g / cm^3
# Si number density = 22.770027 Si / 1000 Ang^3
#
#
#
# Elastic Constant Matrix: (Units=GPa)
#
#
# Indices 1 2 3 4 5 6 
#
# 1 90.9182 18.3506 40.2604 0.4103 35.9935 0.6811
# 2 18.3506 112.7264 62.8505 -5.8678 23.5003 -3.5836
# 3 40.2604 62.8505 177.4836 -4.6844 53.0408 -5.4630
# 4 0.4103 -5.8678 -4.6844 54.9992 -2.8838 13.1533
# 5 35.9935 23.5003 53.0408 -2.8838 40.6602 2.0609
# 6 0.6811 -3.5836 -5.4630 13.1533 2.0609 35.8532
#
#
#
# Elastic Compliance Matrix: (Units=1/GPa)
#
#
# Indices 1 2 3 4 5 6 
#
# 1 0.017149 0.000069 0.001124 -0.001210 -0.016837 0.001264
# 2 0.000069 0.011207 -0.003284 0.000680 -0.002231 0.000497
# 3 0.001124 -0.003284 0.010442 -0.000678 -0.012880 0.002231
# 4 -0.001210 0.000680 -0.000678 0.020205 0.003382 -0.007620
# 5 -0.016837 -0.002231 -0.012880 0.003382 0.058156 -0.006449
# 6 0.001264 0.000497 0.002231 -0.007620 -0.006449 0.031423
#
#
# Mechanical properties :
#
#
# Convention : Reuss Voigt Hill
#
# Bulk Modulus (GPa) = 28.88890 69.33904 49.11397
# Shear Modulus (GPa) = 30.43134 43.61362 37.02248
#
# Velocity S-wave (km/s) = 3.65974 4.38127 4.03666
# Velocity P-wave (km/s) = 5.52929 7.49080 6.58350
#
# Compressibility (1/GPa) = 0.03461537
#
# Stress axis : x y z
#
# Youngs Moduli (GPa) = 58.31382 89.22744 95.76440
#
# Poissons Ratio (x) = -0.00613 -0.10766
# Poissons Ratio (y) = -0.00401 0.31453
# Poissons Ratio (z) = -0.06556 0.29306
#
# Static dielectric constant tensor:
#      x y z
#    x 1.905980 0.002350 0.005830 
#    y 0.002350 1.855300 0.033540 
#    z 0.005830 0.033540 1.942100 
# 
# From -- ./inp_files/189168.got.cif
#   From: 2010.05.17/outbox.cif.g08.bks.cpg/sg2_95_cif.got.tgz:189168.got - 2010.06.03 11:33:40.
