data_PCOD9037724
_publ_section_title
;
Structure prediction by ZEFSAII (Michael W. Deem and Ramdas Pophale) SiO2 
 PCOD9037724
Probable space group: P -1
;
_chemical_formula_sum "Si O2"
_cell_formula_units_Z 16
_cell_length_a 17.155541
_cell_length_b 7.492241
_cell_length_c 8.436521
_cell_angle_alpha 52.742707
_cell_angle_beta 45.864026
_cell_angle_gamma 62.445111
_cell_volume 617.824692
_symmetry_space_group_name_H-M "P -1"
_symmetry_group_IT_number 2
_symmetry_cell_setting 'triclinic'
loop_
_space_group_symop_operation_xyz
x,y,z
-x,-y,-z
loop_
_atom_site_type_symbol
_atom_site_label
_atom_site_fract_x
_atom_site_fract_y
_atom_site_fract_z
Si Si1 0.341414 0.185649 0.093552
Si Si2 0.369129 0.039178 0.792934
Si Si3 0.942081 0.011197 0.745812
Si Si4 0.791810 0.641363 0.290775
Si Si5 0.101134 0.734360 0.874632
Si Si6 0.075073 0.499929 0.550253
Si Si7 0.562859 0.167478 0.635651
Si Si8 0.718857 0.331356 0.103485
O O1 0.469770 0.236706 0.859315
O O2 0.266868 0.412306 0.100156
O O3 0.313009 0.071820 0.028907
O O4 0.347791 0.005580 0.319230
O O5 0.333111 0.823166 0.869148
O O6 0.329407 0.260106 0.629081
O O7 0.494453 0.044650 0.664334
O O8 0.037887 0.956620 0.770587
O O9 0.882555 0.255889 0.677193
O O10 0.861869 0.823110 0.004325
O O11 0.000000 0.000000 0.500000
O O12 0.828372 0.402555 0.286370
O O13 0.823862 0.634695 0.432928
O O14 0.176258 0.780012 0.893610
O O15 0.014876 0.561086 0.155269
O O16 0.000000 0.500000 0.500000
O O17 0.626947 0.355789 0.360475
#
# Coordination Sequence:
#
# PCOD9037724 Si02
#       8
#     2   2   2   2   2   2   2   2
#     4   9  21  43  64  89 124 162 207 253 299 373
#     4  10  23  41  61  94 128 158 207 259 297 373
#     4  11  21  40  66  85 116 170 202 246 315 364
#     4  11  22  43  61  90 125 160 211 254 303 377
#     4  11  23  40  63  92 121 162 212 255 304 378
#     4  11  25  41  61  91 125 160 210 261 309 363
#     4   9  21  45  63  91 125 164 206 252 307 372
#     4  12  23  39  66  92 126 165 200 257 318 351
#
# _framework density 25.897314000000001
#
# number of rings (size 3 to 8) (size 9 to 14) (size 15 to 20)
#    0.750    0.750    3.750    1.500    3.500    3.500 
#    0.000    1.250    0.000    0.000    0.000    0.000 
#    0.000    0.000    0.000    0.000    0.000    0.000 
#
# Total GULP energy -89326.865195 kJ/mol
# GULP energy per Si atom -5582.929075 kJ/mol
# Density = 2.583837 g / cm^3
# Si number density = 25.897314 Si / 1000 Ang^3
#
#
#
# Elastic Constant Matrix: (Units=GPa)
#
#
# Indices 1 2 3 4 5 6 
#
# 1 154.1277 27.9028 37.4539 -18.9283 45.0937 -11.4120
# 2 27.9028 78.0046 19.5178 -21.4151 27.6850 -13.9185
# 3 37.4539 19.5178 130.0345 -18.0261 29.8767 -8.6932
# 4 -18.9283 -21.4151 -18.0261 42.3023 -11.8043 12.8412
# 5 45.0937 27.6850 29.8767 -11.8043 46.2134 -16.3124
# 6 -11.4120 -13.9185 -8.6932 12.8412 -16.3124 35.9173
#
#
#
# Elastic Compliance Matrix: (Units=1/GPa)
#
#
# Indices 1 2 3 4 5 6 
#
# 1 0.009339 0.000250 -0.000468 0.002160 -0.009097 -0.001953
# 2 0.000250 0.017829 0.000325 0.006528 -0.009285 0.000516
# 3 -0.000468 0.000325 0.009344 0.002781 -0.005513 -0.001259
# 4 0.002160 0.006528 0.002781 0.030850 -0.002926 -0.008469
# 5 -0.009097 -0.009285 -0.005513 -0.002926 0.043471 0.012966
# 6 -0.001953 0.000516 -0.001259 -0.008469 0.012966 0.036033
#
#
# Mechanical properties :
#
#
# Convention : Reuss Voigt Hill
#
# Bulk Modulus (GPa) = 27.22986 59.10175 43.16581
# Shear Modulus (GPa) = 31.46719 43.37277 37.41998
#
# Velocity S-wave (km/s) = 3.48957 4.09687 3.80536
# Velocity P-wave (km/s) = 5.17432 6.72683 6.00099
#
# Compressibility (1/GPa) = 0.03672439
#
# Stress axis : x y z
#
# Youngs Moduli (GPa) = 107.07805 56.08927 107.01668
#
# Poissons Ratio (x) = -0.01401 0.05012
# Poissons Ratio (y) = -0.02675 -0.03475
# Poissons Ratio (z) = 0.05015 -0.01821
#
# Static dielectric constant tensor:
#      x y z
#    x 1.603070 0.597140 0.903020 
#    y 0.597140 1.289890 -1.208090 
#    z 0.903020 -1.208090 0.016410 
# 
# From -- ./inp_files/325570.got.cif
#   From: 2010.05.17/outbox.cif.g08.bks.cpg/sg2_163_cif.got.tgz:325570.got - 2010.06.03 11:33:40.
