data_PCOD9037777
_publ_section_title
;
Structure prediction by ZEFSAII (Michael W. Deem and Ramdas Pophale) SiO2 
 PCOD9037777
Probable space group: P -1
;
_chemical_formula_sum "Si O2"
_cell_formula_units_Z 16
_cell_length_a 9.061802
_cell_length_b 13.865312
_cell_length_c 11.163681
_cell_angle_alpha 31.208688
_cell_angle_beta 104.306206
_cell_angle_gamma 104.561018
_cell_volume 702.011751
_symmetry_space_group_name_H-M "P -1"
_symmetry_group_IT_number 2
_symmetry_cell_setting 'triclinic'
loop_
_space_group_symop_operation_xyz
x,y,z
-x,-y,-z
loop_
_atom_site_type_symbol
_atom_site_label
_atom_site_fract_x
_atom_site_fract_y
_atom_site_fract_z
Si Si1 0.465044 0.539425 0.209864
Si Si2 0.144796 0.152592 0.138040
Si Si3 0.883638 0.221517 0.325126
Si Si4 0.425916 0.083471 0.092358
Si Si5 0.333153 0.506522 0.899903
Si Si6 0.452383 0.743830 0.309689
Si Si7 0.143385 0.514872 0.158030
Si Si8 0.100270 0.632695 0.284327
O O1 0.462986 0.762892 0.978585
O O2 0.617941 0.484028 0.238613
O O3 0.478001 0.446131 0.438430
O O4 0.307940 0.463071 0.201379
O O5 0.106147 0.981781 0.403123
O O6 0.272059 0.091539 0.131199
O O7 0.215857 0.321924 0.059222
O O8 0.009683 0.219648 0.954374
O O9 0.739932 0.312263 0.260693
O O10 0.022961 0.358055 0.254536
O O11 0.877060 0.281480 0.120580
O O12 0.442181 0.166639 0.871850
O O13 0.470989 0.878206 0.288763
O O14 0.500000 0.500000 0.000000
O O15 0.268443 0.718571 0.271907
O O16 0.137719 0.516709 0.297007
O O17 0.000000 0.500000 0.500000
#
# Coordination Sequence:
#
# PCOD9037777 Si02
#       8
#     2   2   2   2   2   2   2   2
#     4  11  22  43  68  96 135 181 218 284 347 399
#     4  11  26  45  71 100 140 183 228 288 345 412
#     4  11  25  49  70 103 139 180 236 281 345 421
#     4  10  23  41  62  98 131 171 227 278 330 405
#     4  11  22  44  71 102 134 178 229 286 349 403
#     4  11  24  42  67  96 136 175 231 278 338 413
#     4  11  25  46  72  99 141 182 229 288 346 407
#     4  12  26  45  71 101 140 187 230 285 342 414
#
# _framework density 22.791642
#
# number of rings (size 3 to 8) (size 9 to 14) (size 15 to 20)
#    0.000    1.000    3.750    2.625    3.500    3.500 
#    2.250    0.000    0.000    0.000    0.000    0.000 
#    0.000    0.000    0.000    0.000    0.000    0.000 
#
# Total GULP energy -89106.130528 kJ/mol
# GULP energy per Si atom -5569.133158 kJ/mol
# Density = 2.273977 g / cm^3
# Si number density = 22.791642 Si / 1000 Ang^3
#
#
#
# Elastic Constant Matrix: (Units=GPa)
#
#
# Indices 1 2 3 4 5 6 
#
# 1 104.7504 11.0929 39.1994 8.7062 -2.1440 6.3661
# 2 11.0929 48.1622 18.9374 4.1528 3.6733 -1.0342
# 3 39.1994 18.9374 157.9667 1.3953 -18.0389 20.1937
# 4 8.7062 4.1528 1.3953 23.2356 -3.7796 0.0046
# 5 -2.1440 3.6733 -18.0389 -3.7796 33.0670 12.8701
# 6 6.3661 -1.0342 20.1937 0.0046 12.8701 41.0946
#
#
#
# Elastic Compliance Matrix: (Units=1/GPa)
#
#
# Indices 1 2 3 4 5 6 
#
# 1 0.010968 -0.001061 -0.002667 -0.003929 -0.001041 -0.000089
# 2 -0.001061 0.023679 -0.004027 -0.004800 -0.007415 0.005062
# 3 -0.002667 -0.004027 0.009273 0.002511 0.008282 -0.006839
# 4 -0.003929 -0.004800 0.002511 0.046563 0.008271 -0.003341
# 5 -0.001041 -0.007415 0.008282 0.008271 0.043338 -0.017668
# 6 -0.000089 0.005062 -0.006839 -0.003341 -0.017668 0.033370
#
#
# Mechanical properties :
#
#
# Convention : Reuss Voigt Hill
#
# Bulk Modulus (GPa) = 35.19977 49.92652 42.56314
# Shear Modulus (GPa) = 26.01878 35.58942 30.80410
#
# Velocity S-wave (km/s) = 3.38241 3.95588 3.68033
# Velocity P-wave (km/s) = 5.54364 6.54359 6.06426
#
# Compressibility (1/GPa) = 0.02840928
#
# Stress axis : x y z
#
# Youngs Moduli (GPa) = 91.17750 42.23164 107.84241
#
# Poissons Ratio (x) = 0.04481 0.28763
# Poissons Ratio (y) = 0.09675 0.43425
# Poissons Ratio (z) = 0.24319 0.17005
#
# Static dielectric constant tensor:
#      x y z
#    x 1.929520 -0.059690 -0.028320 
#    y -0.059690 1.934940 0.028330 
#    z -0.028320 0.028330 1.878090 
# 
# From -- ./inp_files/398285.got.cif
#   From: 2010.05.17/outbox.cif.g08.bks.cpg/sg2_200_cif.got.tgz:398285.got - 2010.06.03 11:33:40.
