data_PCOD9037747
_publ_section_title
;
Structure prediction by ZEFSAII (Michael W. Deem and Ramdas Pophale) SiO2 
 PCOD9037747
Probable space group: P -1
;
_chemical_formula_sum "Si O2"
_cell_formula_units_Z 16
_cell_length_a 15.034186
_cell_length_b 8.926502
_cell_length_c 15.299984
_cell_angle_alpha 78.558190
_cell_angle_beta 37.572506
_cell_angle_gamma 50.551297
_cell_volume 736.170832
_symmetry_space_group_name_H-M "P -1"
_symmetry_group_IT_number 2
_symmetry_cell_setting 'triclinic'
loop_
_space_group_symop_operation_xyz
x,y,z
-x,-y,-z
loop_
_atom_site_type_symbol
_atom_site_label
_atom_site_fract_x
_atom_site_fract_y
_atom_site_fract_z
Si Si1 0.730482 0.660952 0.093612
Si Si2 0.776737 0.442998 0.909365
Si Si3 0.382580 0.934408 0.070628
Si Si4 0.878536 0.857857 0.938040
Si Si5 0.949914 0.328786 0.485294
Si Si6 0.820006 0.787169 0.495185
Si Si7 0.807977 0.275504 0.164136
Si Si8 0.548630 0.370599 0.209627
O O1 0.824596 0.431392 0.094314
O O2 0.463465 0.934159 0.304290
O O3 0.716004 0.622028 0.008473
O O4 0.908812 0.654763 0.958935
O O5 0.048213 0.240500 0.685684
O O6 0.706616 0.347173 0.025040
O O7 0.596152 0.631909 0.948306
O O8 0.248544 0.036104 0.070086
O O9 0.175263 0.076167 0.285559
O O10 0.500000 0.000000 0.000000
O O11 0.116135 0.759257 0.790353
O O12 0.674112 0.101009 0.132836
O O13 0.874076 0.559351 0.478195
O O14 0.720476 0.413229 0.641936
O O15 0.041099 0.275211 0.518395
O O16 0.562782 0.417402 0.293361
O O17 0.000000 0.000000 0.000000
#
# Coordination Sequence:
#
# PCOD9037747 Si02
#       8
#     2   2   2   2   2   2   2   2
#     4  11  20  40  69  94 124 165 222 257 312 385
#     4  11  23  40  61  98 135 165 203 267 319 378
#     4  12  21  37  63  95 132 161 214 261 314 380
#     4  11  20  39  67  91 120 175 212 259 319 374
#     4  11  21  37  60  96 132 170 204 265 314 376
#     4  11  21  36  66  95 130 167 214 253 318 381
#     4   9  22  42  65  90 125 170 212 267 319 370
#     4  10  23  41  62  90 133 164 212 264 320 372
#
# _framework density 21.734086000000001
#
# number of rings (size 3 to 8) (size 9 to 14) (size 15 to 20)
#    0.000    1.250    5.000    1.125    0.000    2.500 
#    4.500    0.625   11.000    4.500    0.000    0.000 
#    0.000    0.000    0.000    0.000    0.000    0.000 
#
# Total GULP energy -89207.643910 kJ/mol
# GULP energy per Si atom -5575.477744 kJ/mol
# Density = 2.168462 g / cm^3
# Si number density = 21.734086 Si / 1000 Ang^3
#
#
#
# Elastic Constant Matrix: (Units=GPa)
#
#
# Indices 1 2 3 4 5 6 
#
# 1 125.0004 19.3436 8.6152 -14.2772 -0.0918 0.2483
# 2 19.3436 75.2949 -0.9687 7.0264 -0.0038 4.1724
# 3 8.6152 -0.9687 85.1214 -7.1678 2.6621 8.4868
# 4 -14.2772 7.0264 -7.1678 16.4086 4.8095 -0.4781
# 5 -0.0918 -0.0038 2.6621 4.8095 17.1158 -0.5949
# 6 0.2483 4.1724 8.4868 -0.4781 -0.5949 27.9024
#
#
#
# Elastic Compliance Matrix: (Units=1/GPa)
#
#
# Indices 1 2 3 4 5 6 
#
# 1 0.009801 -0.003570 -0.000080 0.010913 -0.002982 0.000594
# 2 -0.003570 0.015322 -0.000227 -0.010697 0.002945 -0.002311
# 3 -0.000080 -0.000227 0.012825 0.006694 -0.004009 -0.003837
# 4 0.010913 -0.010697 0.006694 0.085263 -0.024930 0.000396
# 5 -0.002982 0.002945 -0.004009 -0.024930 0.066101 0.001788
# 6 0.000594 -0.002311 -0.003837 0.000396 0.001788 0.037391
#
#
# Mechanical properties :
#
#
# Convention : Reuss Voigt Hill
#
# Bulk Modulus (GPa) = 33.11884 37.71080 35.41482
# Shear Modulus (GPa) = 20.44808 29.51380 24.98094
#
# Velocity S-wave (km/s) = 3.07062 3.68904 3.39394
# Velocity P-wave (km/s) = 5.27664 5.96104 5.62925
#
# Compressibility (1/GPa) = 0.03019430
#
# Stress axis : x y z
#
# Youngs Moduli (GPa) = 102.02908 65.26593 77.97267
#
# Poissons Ratio (x) = 0.23303 0.00621
# Poissons Ratio (y) = 0.36429 0.01768
# Poissons Ratio (z) = 0.00812 0.01480
#
# Static dielectric constant tensor:
#      x y z
#    x 1.883910 -0.034810 -0.039220 
#    y -0.034810 1.838480 -0.005970 
#    z -0.039220 -0.005970 1.772270 
# 
# From -- ./inp_files/528582.got.cif
#   From: 2010.05.17/outbox.cif.g08.bks.cpg/sg2_265_cif.got.tgz:528582.got - 2010.06.03 11:33:40.
