data_PCOD9037410
_publ_section_title
;
Structure prediction by ZEFSAII (Michael W. Deem and Ramdas Pophale) SiO2 
 PCOD9037410
Probable space group: P -1
;
_chemical_formula_sum "Si O2"
_cell_formula_units_Z 14
_cell_length_a 6.776389
_cell_length_b 19.393174
_cell_length_c 5.166218
_cell_angle_alpha 87.966431
_cell_angle_beta 100.531057
_cell_angle_gamma 130.806625
_cell_volume 502.007850
_symmetry_space_group_name_H-M "P -1"
_symmetry_group_IT_number 2
_symmetry_cell_setting 'triclinic'
loop_
_space_group_symop_operation_xyz
x,y,z
-x,-y,-z
loop_
_atom_site_type_symbol
_atom_site_label
_atom_site_fract_x
_atom_site_fract_y
_atom_site_fract_z
Si Si1 0.394929 0.560296 0.073026
Si Si2 0.723740 0.381405 0.472703
Si Si3 0.142750 0.924193 0.189431
Si Si4 0.288081 0.026434 0.718198
Si Si5 0.955367 0.639194 0.799011
Si Si6 0.931059 0.741405 0.398931
Si Si7 0.576680 0.223996 0.715291
O O1 0.239044 0.569093 0.258690
O O2 0.281669 0.457920 0.112518
O O3 0.698778 0.647112 0.209690
O O4 0.339795 0.581178 0.778965
O O5 0.505300 0.273649 0.514149
O O6 0.966682 0.388825 0.431236
O O7 0.429830 0.950933 0.219371
O O8 0.949851 0.821919 0.273496
O O9 0.184667 0.991688 0.408671
O O10 0.100255 0.947420 0.895098
O O11 0.361566 0.122145 0.784486
O O12 0.893180 0.703348 0.686272
O O13 0.224864 0.703650 0.023493
O O14 0.227836 0.779790 0.407659
#
# Coordination Sequence:
#
# PCOD9037410 Si02
#       7
#     2   2   2   2   2   2   2
#     4  12  26  42  64  90 129 169 205 251 312 366
#     4  11  25  43  64  89 125 167 216 250 298 369
#     4   9  19  34  57  89 122 154 197 250 308 360
#     4   9  19  33  60  88 120 153 200 253 303 357
#     4  11  24  42  65  93 126 164 211 257 301 365
#     4  10  25  39  63  96 129 161 203 258 313 368
#     4  10  23  40  66  97 124 158 210 259 308 362
#
# _framework density 27.888007999999999
#
# number of rings (size 3 to 8) (size 9 to 14) (size 15 to 20)
#    0.000    1.714    1.429    1.286   18.000    0.571 
#    0.000    0.000    0.000    5.143    0.000    0.000 
#    0.000    0.000    0.000    0.000    0.000    0.000 
#
# Total GULP energy -78372.573967 kJ/mol
# GULP energy per Si atom -5598.040998 kJ/mol
# Density = 2.782453 g / cm^3
# Si number density = 27.888008 Si / 1000 Ang^3
#
#
#
# Elastic Constant Matrix: (Units=GPa)
#
#
# Indices 1 2 3 4 5 6 
#
# 1 69.3855 37.2395 31.6036 -26.2303 4.9177 0.4210
# 2 37.2395 218.2491 77.0142 -54.2841 8.6503 -2.9136
# 3 31.6036 77.0142 183.2043 -46.6840 9.6625 -12.1866
# 4 -26.2303 -54.2841 -46.6840 52.3195 -0.9582 -0.6183
# 5 4.9177 8.6503 9.6625 -0.9582 53.7058 -12.1599
# 6 0.4210 -2.9136 -12.1866 -0.6183 -12.1599 58.3426
#
#
#
# Elastic Compliance Matrix: (Units=1/GPa)
#
#
# Indices 1 2 3 4 5 6 
#
# 1 0.018177 -0.000926 -0.000831 0.007379 -0.001360 -0.000556
# 2 -0.000926 0.006478 -0.001214 0.005161 -0.000649 -0.000004
# 3 -0.000831 -0.001214 0.007528 0.005046 -0.000669 0.001432
# 4 0.007379 0.005161 0.005046 0.032657 -0.001542 0.001283
# 5 -0.001360 -0.000649 -0.000669 -0.001542 0.019838 0.003956
# 6 -0.000556 -0.000004 0.001432 0.001283 0.003956 0.018281
#
#
# Mechanical properties :
#
#
# Convention : Reuss Voigt Hill
#
# Bulk Modulus (GPa) = 38.10995 84.72815 61.41905
# Shear Modulus (GPa) = 42.49908 54.53900 48.51904
#
# Velocity S-wave (km/s) = 3.90798 4.42706 4.17559
# Velocity P-wave (km/s) = 5.83593 7.52193 6.73192
#
# Compressibility (1/GPa) = 0.02623987
#
# Stress axis : x y z
#
# Youngs Moduli (GPa) = 55.01370 154.37190 132.82969
#
# Poissons Ratio (x) = 0.14302 0.11041
# Poissons Ratio (y) = 0.05097 0.16127
# Poissons Ratio (z) = 0.04573 0.18743
#
# Static dielectric constant tensor:
#      x y z
#    x 2.424030 0.020570 -0.019990 
#    y 0.020570 2.150760 -0.019110 
#    z -0.019990 -0.019110 2.111970 
# 
# From -- ./inp_files/50249.got.cif
#   From: 2010.05.17/outbox.cif.g08.bks.cpg/sg2_26_cif.got.tgz:50249.got - 2010.06.03 11:33:40.
