data_PCOD9037440
_publ_section_title
;
Structure prediction by ZEFSAII (Michael W. Deem and Ramdas Pophale) SiO2 
 PCOD9037440
Probable space group: P -1
;
_chemical_formula_sum "Si O2"
_cell_formula_units_Z 16
_cell_length_a 11.682991
_cell_length_b 5.537744
_cell_length_c 26.735052
_cell_angle_alpha 130.862889
_cell_angle_beta 149.810526
_cell_angle_gamma 62.977321
_cell_volume 629.072426
_symmetry_space_group_name_H-M "P -1"
_symmetry_group_IT_number 2
_symmetry_cell_setting 'triclinic'
loop_
_space_group_symop_operation_xyz
x,y,z
-x,-y,-z
loop_
_atom_site_type_symbol
_atom_site_label
_atom_site_fract_x
_atom_site_fract_y
_atom_site_fract_z
Si Si1 0.403900 0.162573 0.169497
Si Si2 0.027307 0.506610 0.068934
Si Si3 0.031906 0.090161 0.819928
Si Si4 0.267620 0.793952 0.355194
Si Si5 0.570330 0.305476 0.953890
Si Si6 0.832230 0.515974 0.232127
Si Si7 0.404414 0.526600 0.619087
Si Si8 0.877842 0.142615 0.518377
O O1 0.284523 0.459030 0.169675
O O2 0.565255 0.218184 0.287578
O O3 0.484606 0.087708 0.133709
O O4 0.188320 0.824341 0.045509
O O5 0.016061 0.859160 0.134003
O O6 0.000000 0.500000 0.000000
O O7 0.808370 0.977503 0.684283
O O8 0.204676 0.874722 0.843902
O O9 0.150782 0.484656 0.908092
O O10 0.355061 0.519690 0.320351
O O11 0.046505 0.674519 0.294068
O O12 0.500000 0.000000 0.500000
O O13 0.406898 0.395904 0.860450
O O14 0.500000 0.500000 0.000000
O O15 0.935800 0.632152 0.341422
O O16 0.268956 0.644440 0.538003
O O17 0.268458 0.169485 0.544806
O O18 0.000000 0.000000 0.500000
#
# Coordination Sequence:
#
# PCOD9037440 Si02
#       8
#     2   2   2   2   2   2   2   2
#     4  10  24  42  67 102 143 188 248 307 369 449
#     4  10  23  40  67 102 143 192 246 304 378 444
#     4  11  25  44  71 105 145 194 253 311 379 449
#     4  12  25  45  72 107 152 192 251 309 381 447
#     4  11  24  46  69 102 144 196 249 310 378 446
#     4  12  27  45  75 106 150 199 254 317 377 461
#     4  12  27  48  79 112 151 199 258 312 387 455
#     4  12  29  52  78 110 152 203 256 313 382 461
#
# _framework density 25.434273999999998
#
# number of rings (size 3 to 8) (size 9 to 14) (size 15 to 20)
#    0.000    0.750    3.750    2.250    7.000    2.000 
#    0.000    0.000    0.000    0.000    0.000    0.000 
#    0.000    0.000    0.000    0.000    0.000    0.000 
#
# Total GULP energy -89214.966741 kJ/mol
# GULP energy per Si atom -5575.935421 kJ/mol
# Density = 2.537638 g / cm^3
# Si number density = 25.434274 Si / 1000 Ang^3
#
#
#
# Elastic Constant Matrix: (Units=GPa)
#
#
# Indices 1 2 3 4 5 6 
#
# 1 92.5301 29.6890 37.3179 13.7528 -26.3181 -12.5206
# 2 29.6890 74.4328 37.2036 -8.8286 5.2114 -5.4038
# 3 37.3179 37.2036 130.8998 -8.6900 -33.8436 -1.2359
# 4 13.7528 -8.8286 -8.6900 51.4593 -4.0034 -5.0003
# 5 -26.3181 5.2114 -33.8436 -4.0034 56.4190 7.4670
# 6 -12.5206 -5.4038 -1.2359 -5.0003 7.4670 44.4976
#
#
#
# Elastic Compliance Matrix: (Units=1/GPa)
#
#
# Indices 1 2 3 4 5 6 
#
# 1 0.016549 -0.006907 -0.001273 -0.005083 0.006963 0.002043
# 2 -0.006907 0.020274 -0.005722 0.003910 -0.008545 0.002233
# 3 -0.001273 -0.005722 0.011599 0.001710 0.007246 -0.001755
# 4 -0.005083 0.003910 0.001710 0.021879 -0.000367 0.001612
# 5 0.006963 -0.008545 0.007246 -0.000367 0.026529 -0.003370
# 6 0.002043 0.002233 -0.001755 0.001612 -0.003370 0.024017
#
#
# Mechanical properties :
#
#
# Convention : Reuss Voigt Hill
#
# Bulk Modulus (GPa) = 48.49796 56.25376 52.37586
# Shear Modulus (GPa) = 32.14977 43.38532 37.76754
#
# Velocity S-wave (km/s) = 3.55918 4.13459 3.85763
# Velocity P-wave (km/s) = 5.99998 6.70511 6.36232
#
# Compressibility (1/GPa) = 0.02061942
#
# Stress axis : x y z
#
# Youngs Moduli (GPa) = 60.42628 49.32457 86.21527
#
# Poissons Ratio (x) = 0.34068 0.10973
# Poissons Ratio (y) = 0.41736 0.49329
# Poissons Ratio (z) = 0.07690 0.28222
#
# Static dielectric constant tensor:
#      x y z
#    x 5.269830 0.166580 0.087670 
#    y 0.166580 2.092970 0.010100 
#    z 0.087670 0.010100 1.976200 
# 
# From -- ./inp_files/617949.got.cif
#   From: 2010.05.17/outbox.cif.g08.bks.cpg/sg2_309_cif.got.tgz:617949.got - 2010.06.03 11:33:40.
