data_PCOD9037966
_publ_section_title
;
Structure prediction by ZEFSAII (Michael W. Deem and Ramdas Pophale) SiO2 
 PCOD9037966
Probable space group: P -1
;
_chemical_formula_sum "Si O2"
_cell_formula_units_Z 14
_cell_length_a 10.606544
_cell_length_b 6.735784
_cell_length_c 12.924245
_cell_angle_alpha 43.669235
_cell_angle_beta 106.664848
_cell_angle_gamma 119.646876
_cell_volume 550.210205
_symmetry_space_group_name_H-M "P -1"
_symmetry_group_IT_number 2
_symmetry_cell_setting 'triclinic'
loop_
_space_group_symop_operation_xyz
x,y,z
-x,-y,-z
loop_
_atom_site_type_symbol
_atom_site_label
_atom_site_fract_x
_atom_site_fract_y
_atom_site_fract_z
Si Si1 0.465606 0.571103 0.349146
Si Si2 0.901125 0.349599 0.282289
Si Si3 0.257586 0.400727 0.708857
Si Si4 0.860201 0.209700 0.969163
Si Si5 0.920225 0.724523 0.467383
Si Si6 0.775712 0.781852 0.734516
Si Si7 0.621167 0.854944 0.873845
O O1 0.500000 0.500000 0.500000
O O2 0.451765 0.900951 0.228446
O O3 0.588488 0.583548 0.291879
O O4 0.318446 0.317517 0.355689
O O5 0.033254 0.425059 0.368685
O O6 0.862095 0.985437 0.385561
O O7 0.069511 0.933742 0.363751
O O8 0.767950 0.398575 0.280942
O O9 0.198266 0.501056 0.554727
O O10 0.251669 0.018098 0.057577
O O11 0.804214 0.473570 0.886259
O O12 0.020266 0.406435 0.883875
O O13 0.847862 0.966920 0.148536
O O14 0.692187 0.854694 0.780139
O O15 0.500000 0.500000 0.000000
#
# Coordination Sequence:
#
# PCOD9037966 Si02
#       7
#     2   2   2   2   2   2   2
#     4  11  28  43  65 101 139 170 225 279 324 392
#     4  10  23  41  65  93 133 170 217 269 334 386
#     4  12  24  40  67  98 132 171 218 275 327 381
#     4  10  23  42  67 101 132 168 220 277 325 397
#     4  10  24  41  68  95 128 174 223 264 325 403
#     4  10  23  45  68  92 135 178 216 267 339 386
#     4  11  23  43  69  93 135 182 221 265 336 400
#
# _framework density 25.444821000000001
#
# number of rings (size 3 to 8) (size 9 to 14) (size 15 to 20)
#    0.000    1.429    0.000    3.429   10.000    8.571 
#    0.000    0.000    0.000    0.000    0.000    0.000 
#    0.000    0.000    0.000    0.000    0.000    0.000 
#
# Total GULP energy -78524.336337 kJ/mol
# GULP energy per Si atom -5608.881167 kJ/mol
# Density = 2.538691 g / cm^3
# Si number density = 25.444821 Si / 1000 Ang^3
#
#
#
# Elastic Constant Matrix: (Units=GPa)
#
#
# Indices 1 2 3 4 5 6 
#
# 1 190.4790 49.3775 48.1723 -3.6914 -29.8300 -46.9572
# 2 49.3775 72.8830 10.4186 9.6321 -2.4094 -3.5121
# 3 48.1723 10.4186 110.8725 -0.7070 -5.7122 0.1946
# 4 -3.6914 9.6321 -0.7070 32.9681 6.9716 3.6155
# 5 -29.8300 -2.4094 -5.7122 6.9716 48.7111 0.0858
# 6 -46.9572 -3.5121 0.1946 3.6155 0.0858 41.2302
#
#
#
# Elastic Compliance Matrix: (Units=1/GPa)
#
#
# Indices 1 2 3 4 5 6 
#
# 1 0.012756 -0.007158 -0.004539 0.000454 0.006836 0.013885
# 2 -0.007158 0.018681 0.001200 -0.005014 -0.002590 -0.006121
# 3 -0.004539 0.001200 0.010813 0.000249 -0.001479 -0.005137
# 4 0.000454 -0.005014 0.000249 0.033151 -0.004681 -0.002809
# 5 0.006836 -0.002590 -0.001479 -0.004681 0.025070 0.007930
# 6 0.013885 -0.006121 -0.005137 -0.002809 0.007930 0.039800
#
#
# Mechanical properties :
#
#
# Convention : Reuss Voigt Hill
#
# Bulk Modulus (GPa) = 47.04618 65.57460 56.31039
# Shear Modulus (GPa) = 29.70022 42.33297 36.01660
#
# Velocity S-wave (km/s) = 3.42020 4.08329 3.76637
# Velocity P-wave (km/s) = 5.84180 6.93241 6.41034
#
# Compressibility (1/GPa) = 0.02125571
#
# Stress axis : x y z
#
# Youngs Moduli (GPa) = 78.39753 53.53161 92.48091
#
# Poissons Ratio (x) = 0.38317 0.41975
# Poissons Ratio (y) = 0.56116 -0.11097
# Poissons Ratio (z) = 0.35583 -0.06423
#
# Static dielectric constant tensor:
#      x y z
#    x 1.994960 -0.031940 0.018020 
#    y -0.031940 2.009870 0.036190 
#    z 0.018020 0.036190 1.999390 
# 
# From -- ./inp_files/416331.got.cif
#   From: 2010.05.17/outbox.cif.g08.bks.cpg/sg2_209_cif.got.tgz:416331.got - 2010.06.03 11:33:40.
