data_PCOD9037550
_publ_section_title
;
Structure prediction by ZEFSAII (Michael W. Deem and Ramdas Pophale) SiO2 
 PCOD9037550
Probable space group: P -1
;
_chemical_formula_sum "Si O2"
_cell_formula_units_Z 16
_cell_length_a 13.032217
_cell_length_b 17.112926
_cell_length_c 5.600190
_cell_angle_alpha 90.148545
_cell_angle_beta 78.768335
_cell_angle_gamma 34.193292
_cell_volume 657.390700
_symmetry_space_group_name_H-M "P -1"
_symmetry_group_IT_number 2
_symmetry_cell_setting 'triclinic'
loop_
_space_group_symop_operation_xyz
x,y,z
-x,-y,-z
loop_
_atom_site_type_symbol
_atom_site_label
_atom_site_fract_x
_atom_site_fract_y
_atom_site_fract_z
Si Si1 0.997363 0.048740 0.254040
Si Si2 0.341670 0.897106 0.844303
Si Si3 0.792689 0.628400 0.222032
Si Si4 0.620495 0.845741 0.944446
Si Si5 0.944525 0.656723 0.466511
Si Si6 0.183975 0.682626 0.645653
Si Si7 0.636517 0.586496 0.530834
Si Si8 0.046545 0.194156 0.751481
O O1 0.816001 0.223364 0.336580
O O2 0.000000 0.000000 0.500000
O O3 0.199211 0.969858 0.132527
O O4 0.000000 0.000000 0.000000
O O5 0.503073 0.859478 0.830779
O O6 0.448674 0.749870 0.716723
O O7 0.201525 0.027392 0.716600
O O8 0.857305 0.628930 0.434573
O O9 0.703674 0.598789 0.279444
O O10 0.642225 0.781571 0.170876
O O11 0.000000 0.500000 0.000000
O O12 0.837368 0.735879 0.766678
O O13 0.500000 0.000000 0.000000
O O14 0.870440 0.771131 0.323662
O O15 0.177004 0.516520 0.378051
O O16 0.356316 0.509987 0.534108
O O17 0.066609 0.746908 0.447562
O O18 0.081389 0.725371 0.946199
#
# Coordination Sequence:
#
# PCOD9037550 Si02
#       8
#     2   2   2   2   2   2   2   2
#     4  11  25  50  80 103 134 178 233 299 368 427
#     4  11  25  44  68 108 137 181 241 300 346 419
#     4  12  22  37  60  86 137 199 236 278 337 402
#     4  12  27  39  63 101 142 189 244 288 328 410
#     4  11  23  41  58  91 145 195 236 274 341 401
#     4  10  23  46  72 104 134 182 224 285 364 427
#     4  11  23  41  65 100 144 187 232 286 353 421
#     4  10  23  40  68  96 143 187 238 280 336 411
#
# _framework density 24.338645
#
# number of rings (size 3 to 8) (size 9 to 14) (size 15 to 20)
#    0.000    1.000    2.500    4.125   10.500    3.000 
#    0.000    1.250    0.000    0.000    0.000    0.000 
#    0.000    0.000    0.000    0.000    0.000    0.000 
#
# Total GULP energy -89274.673737 kJ/mol
# GULP energy per Si atom -5579.667109 kJ/mol
# Density = 2.428325 g / cm^3
# Si number density = 24.338645 Si / 1000 Ang^3
#
#
#
# Elastic Constant Matrix: (Units=GPa)
#
#
# Indices 1 2 3 4 5 6 
#
# 1 71.5978 47.9732 31.6517 2.9276 5.3212 28.7546
# 2 47.9732 211.0360 68.5114 10.5473 2.1817 45.3791
# 3 31.6517 68.5114 117.4376 -7.4960 -1.2690 5.6660
# 4 2.9276 10.5473 -7.4960 52.9731 7.4765 -4.0733
# 5 5.3212 2.1817 -1.2690 7.4765 43.1131 2.9166
# 6 28.7546 45.3791 5.6660 -4.0733 2.9166 51.4399
#
#
#
# Elastic Compliance Matrix: (Units=1/GPa)
#
#
# Indices 1 2 3 4 5 6 
#
# 1 0.021163 -0.000796 -0.004888 -0.002299 -0.001594 -0.010681
# 2 -0.000796 0.007712 -0.004151 -0.002615 0.000454 -0.006134
# 3 -0.004888 -0.004151 0.012206 0.003193 0.000261 0.005288
# 4 -0.002299 -0.002615 0.003193 0.020855 -0.003451 0.005087
# 5 -0.001594 0.000454 0.000261 -0.003451 0.024054 -0.001175
# 6 -0.010681 -0.006134 0.005288 0.005087 -0.001175 0.030709
#
#
# Mechanical properties :
#
#
# Convention : Reuss Voigt Hill
#
# Bulk Modulus (GPa) = 46.70370 77.37153 62.03762
# Shear Modulus (GPa) = 34.84169 46.30089 40.57129
#
# Velocity S-wave (km/s) = 3.78767 4.36634 4.08726
# Velocity P-wave (km/s) = 6.19350 7.56825 6.91512
#
# Compressibility (1/GPa) = 0.02141158
#
# Stress axis : x y z
#
# Youngs Moduli (GPa) = 47.25131 129.67074 81.92960
#
# Poissons Ratio (x) = 0.10318 0.40050
# Poissons Ratio (y) = 0.03760 0.34005
# Poissons Ratio (z) = 0.23098 0.53821
#
# Static dielectric constant tensor:
#      x y z
#    x 1.980290 -0.066320 -0.208860 
#    y -0.066320 1.862790 -0.337640 
#    z -0.208860 -0.337640 0.887550 
# 
# From -- ./inp_files/99742.got.cif
#   From: 2010.05.17/outbox.cif.g08.bks.cpg/sg2_50_cif.got.tgz:99742.got - 2010.06.03 11:33:40.
