data_PCOD9037469
_publ_section_title
;
Structure prediction by ZEFSAII (Michael W. Deem and Ramdas Pophale) SiO2 
 PCOD9037469
Probable space group: P -1
;
_chemical_formula_sum "Si O2"
_cell_formula_units_Z 16
_cell_length_a 12.658033
_cell_length_b 10.932543
_cell_length_c 8.911188
_cell_angle_alpha 92.895298
_cell_angle_beta 145.901867
_cell_angle_gamma 84.651098
_cell_volume 687.532698
_symmetry_space_group_name_H-M "P -1"
_symmetry_group_IT_number 2
_symmetry_cell_setting 'triclinic'
loop_
_space_group_symop_operation_xyz
x,y,z
-x,-y,-z
loop_
_atom_site_type_symbol
_atom_site_label
_atom_site_fract_x
_atom_site_fract_y
_atom_site_fract_z
Si Si1 0.567188 0.760694 0.797964
Si Si2 0.969284 0.358444 0.001253
Si Si3 0.924804 0.883886 0.730939
Si Si4 0.127211 0.200596 0.656821
Si Si5 0.779139 0.531368 0.279682
Si Si6 0.653627 0.494915 0.816067
Si Si7 0.207505 0.689805 0.522834
Si Si8 0.319304 0.933851 0.333827
O O1 0.692532 0.639051 0.878255
O O2 0.411921 0.736362 0.740514
O O3 0.429227 0.806657 0.506350
O O4 0.717189 0.849506 0.040776
O O5 0.812032 0.391805 0.945005
O O6 0.897881 0.302801 0.759890
O O7 0.103303 0.248302 0.229201
O O8 0.000000 0.500000 0.000000
O O9 0.897684 0.879654 0.521639
O O10 0.140983 0.912070 0.019443
O O11 0.781312 0.988342 0.642815
O O12 0.224290 0.321699 0.716640
O O13 0.930242 0.242364 0.511421
O O14 0.756214 0.453899 0.397223
O O15 0.000000 0.500000 0.500000
O O16 0.648660 0.479376 0.991340
O O17 0.500000 0.500000 0.500000
O O18 0.500000 0.000000 0.500000
#
# Coordination Sequence:
#
# PCOD9037469 Si02
#       8
#     2   2   2   2   2   2   2   2
#     4  11  24  43  64 101 136 178 230 282 340 403
#     4  12  22  38  69 100 135 177 224 273 344 405
#     4  11  25  49  69 103 133 177 233 281 337 415
#     4  10  23  40  67  96 140 174 223 278 341 408
#     4   9  19  37  57  91 135 181 213 260 332 400
#     4  11  21  38  61  96 140 172 223 279 320 404
#     4  11  21  39  65  94 143 183 217 275 337 404
#     4  11  27  48  76  94 135 180 234 288 338 402
#
# _framework density 23.271621
#
# number of rings (size 3 to 8) (size 9 to 14) (size 15 to 20)
#    0.000    1.250    2.500    4.500    3.500    3.500 
#    2.250    1.250    0.000    0.000    0.000    0.000 
#    0.000    0.000    0.000    0.000    0.000    0.000 
#
# Total GULP energy -89117.731508 kJ/mol
# GULP energy per Si atom -5569.858219 kJ/mol
# Density = 2.321865 g / cm^3
# Si number density = 23.271621 Si / 1000 Ang^3
#
#
#
# Elastic Constant Matrix: (Units=GPa)
#
#
# Indices 1 2 3 4 5 6 
#
# 1 56.1237 -1.0280 26.8896 20.4993 8.4405 -11.3495
# 2 -1.0280 35.8132 -5.3011 5.0229 3.9495 -14.9203
# 3 26.8896 -5.3011 110.0083 18.0219 -5.4139 -25.1437
# 4 20.4993 5.0229 18.0219 34.8440 -6.2831 -5.3463
# 5 8.4405 3.9495 -5.4139 -6.2831 45.8913 8.6846
# 6 -11.3495 -14.9203 -25.1437 -5.3463 8.6846 42.0865
#
#
#
# Elastic Compliance Matrix: (Units=1/GPa)
#
#
# Indices 1 2 3 4 5 6 
#
# 1 0.028786 0.007893 -0.002224 -0.017384 -0.010349 0.009160
# 2 0.007893 0.040520 0.006294 -0.012330 -0.009804 0.020711
# 3 -0.002224 0.006294 0.012720 -0.005005 -0.000982 0.008798
# 4 -0.017384 -0.012330 -0.005005 0.043990 0.011357 -0.008805
# 5 -0.010349 -0.009804 -0.000982 0.011357 0.028098 -0.011209
# 6 0.009160 0.020711 0.008798 -0.008805 -0.011209 0.040023
#
#
# Mechanical properties :
#
#
# Convention : Reuss Voigt Hill
#
# Bulk Modulus (GPa) = 9.43824 27.00734 18.22279
# Shear Modulus (GPa) = 24.32768 36.65667 30.49218
#
# Velocity S-wave (km/s) = 3.23674 3.97314 3.62370
# Velocity P-wave (km/s) = 4.24655 5.71649 5.03545
#
# Compressibility (1/GPa) = 0.10595196
#
# Stress axis : x y z
#
# Youngs Moduli (GPa) = 34.73903 24.67930 78.61912
#
# Poissons Ratio (x) = -0.19479 0.17484
# Poissons Ratio (y) = -0.27418 -0.49487
# Poissons Ratio (z) = 0.07725 -0.15534
#
# Static dielectric constant tensor:
#      x y z
#    x 1.960340 0.132070 -0.031200 
#    y 0.132070 1.965480 -0.014420 
#    z -0.031200 -0.014420 1.931690 
# 
# From -- ./inp_files/259237.got.cif
#   From: 2010.05.17/outbox.cif.g08.bks.cpg/sg2_130_cif.got.tgz:259237.got - 2010.06.03 11:33:40.
