data_PCOD9037456
_publ_section_title
;
Structure prediction by ZEFSAII (Michael W. Deem and Ramdas Pophale) SiO2 
 PCOD9037456
Probable space group: P -1
;
_chemical_formula_sum "Si O2"
_cell_formula_units_Z 16
_cell_length_a 15.095786
_cell_length_b 11.737642
_cell_length_c 9.278169
_cell_angle_alpha 54.278247
_cell_angle_beta 141.420805
_cell_angle_gamma 128.234038
_cell_volume 788.295963
_symmetry_space_group_name_H-M "P -1"
_symmetry_group_IT_number 2
_symmetry_cell_setting 'triclinic'
loop_
_space_group_symop_operation_xyz
x,y,z
-x,-y,-z
loop_
_atom_site_type_symbol
_atom_site_label
_atom_site_fract_x
_atom_site_fract_y
_atom_site_fract_z
Si Si1 0.639056 0.921489 0.599963
Si Si2 0.801127 0.078806 0.981653
Si Si3 0.949876 0.549124 0.250065
Si Si4 0.532847 0.930958 0.940972
Si Si5 0.922772 0.866547 0.892107
Si Si6 0.457932 0.618976 0.531296
Si Si7 0.852708 0.420065 0.781668
Si Si8 0.386956 0.621544 0.111403
O O1 0.754511 0.873488 0.676884
O O2 0.515608 0.764355 0.594931
O O3 0.561103 0.018684 0.338848
O O4 0.717307 0.004784 0.781773
O O5 0.976546 0.100729 0.150023
O O6 0.798824 0.245570 0.876280
O O7 0.705062 0.986985 0.060768
O O8 0.000000 0.500000 0.500000
O O9 0.090078 0.557745 0.322579
O O10 0.928947 0.711203 0.081776
O O11 0.793261 0.429798 0.088084
O O12 0.466504 0.755870 0.008908
O O13 0.500000 0.000000 0.000000
O O14 0.000000 0.000000 0.000000
O O15 0.286692 0.522949 0.414697
O O16 0.448107 0.665888 0.318071
O O17 0.564786 0.521217 0.756602
O O18 0.000000 0.500000 0.000000
#
# Coordination Sequence:
#
# PCOD9037456 Si02
#       8
#     2   2   2   2   2   2   2   2
#     4  11  21  42  69  91 127 173 218 262 324 386
#     4  10  23  40  67  94 125 169 219 261 318 396
#     4  11  24  40  63  96 131 164 215 271 321 374
#     4  12  24  41  63  95 128 163 214 270 321 375
#     4   9  21  42  64  90 125 175 209 255 327 388
#     4  11  22  43  67  94 130 177 214 261 326 396
#     4  11  22  42  66  92 125 176 215 258 325 394
#     4  11  24  40  64  97 134 167 215 268 327 383
#
# _framework density 20.296945000000001
#
# number of rings (size 3 to 8) (size 9 to 14) (size 15 to 20)
#    0.000    1.250    5.000    0.375    5.250    0.000 
#    4.500    1.875    0.000    0.000    0.000    0.000 
#    0.000    0.000    0.000    0.000    0.000    0.000 
#
# Total GULP energy -89236.416825 kJ/mol
# GULP energy per Si atom -5577.276052 kJ/mol
# Density = 2.025075 g / cm^3
# Si number density = 20.296945 Si / 1000 Ang^3
#
#
#
# Elastic Constant Matrix: (Units=GPa)
#
#
# Indices 1 2 3 4 5 6 
#
# 1 98.1461 17.8130 12.8421 -17.8900 13.2258 22.3433
# 2 17.8130 100.8623 19.8421 4.7313 -16.3076 16.1545
# 3 12.8421 19.8421 50.2993 -5.4363 8.0295 7.0277
# 4 -17.8900 4.7313 -5.4363 24.7315 10.3328 -5.4404
# 5 13.2258 -16.3076 8.0295 10.3328 30.5121 5.9304
# 6 22.3433 16.1545 7.0277 -5.4404 5.9304 36.6601
#
#
#
# Elastic Compliance Matrix: (Units=1/GPa)
#
#
# Indices 1 2 3 4 5 6 
#
# 1 0.019606 -0.009646 0.005724 0.027217 -0.024214 -0.000840
# 2 -0.009646 0.022650 -0.013298 -0.030149 0.032180 -0.011233
# 3 0.005724 -0.013298 0.030106 0.025702 -0.027149 0.004806
# 4 0.027217 -0.030149 0.025702 0.107141 -0.074801 0.019770
# 5 -0.024214 0.032180 -0.027149 -0.074801 0.097029 -0.021015
# 6 -0.000840 -0.011233 0.004806 0.019770 -0.021015 0.038151
#
#
# Mechanical properties :
#
#
# Convention : Reuss Voigt Hill
#
# Bulk Modulus (GPa) = 26.37035 38.92245 32.64640
# Shear Modulus (GPa) = 13.82116 31.63476 22.72796
#
# Velocity S-wave (km/s) = 2.61233 3.95219 3.34993
# Velocity P-wave (km/s) = 4.70314 6.32808 5.57513
#
# Compressibility (1/GPa) = 0.03792137
#
# Stress axis : x y z
#
# Youngs Moduli (GPa) = 51.00486 44.14949 33.21602
#
# Poissons Ratio (x) = 0.42585 -0.19012
# Poissons Ratio (y) = 0.49198 0.44172
# Poissons Ratio (z) = -0.29194 0.58712
#
# Static dielectric constant tensor:
#      x y z
#    x 1.884690 0.021370 -0.007300 
#    y 0.021370 1.752830 0.006100 
#    z -0.007300 0.006100 1.732250 
# 
# From -- ./inp_files/306629.got.cif
#   From: 2010.05.17/outbox.cif.g08.bks.cpg/sg2_154_cif.got.tgz:306629.got - 2010.06.03 11:33:40.
