data_PCOD9037384
_publ_section_title
;
Structure prediction by ZEFSAII (Michael W. Deem and Ramdas Pophale) SiO2 
 PCOD9037384
Probable space group: P -1
;
_chemical_formula_sum "Si O2"
_cell_formula_units_Z 14
_cell_length_a 11.590818
_cell_length_b 12.519717
_cell_length_c 8.895300
_cell_angle_alpha 36.375683
_cell_angle_beta 63.447020
_cell_angle_gamma 60.492934
_cell_volume 663.072582
_symmetry_space_group_name_H-M "P -1"
_symmetry_group_IT_number 2
_symmetry_cell_setting 'triclinic'
loop_
_space_group_symop_operation_xyz
x,y,z
-x,-y,-z
loop_
_atom_site_type_symbol
_atom_site_label
_atom_site_fract_x
_atom_site_fract_y
_atom_site_fract_z
Si Si1 0.302618 0.597633 0.877016
Si Si2 0.336268 0.110307 0.647288
Si Si3 0.893530 0.401849 0.255804
Si Si4 0.194804 0.399198 0.632809
Si Si5 0.472678 0.743242 0.858062
Si Si6 0.899241 0.341696 0.858508
Si Si7 0.939025 0.937387 0.260159
O O1 0.208068 0.673091 0.706638
O O2 0.361712 0.709603 0.843691
O O3 0.434900 0.448134 0.916802
O O4 0.193910 0.522052 0.123385
O O5 0.410981 0.890897 0.855084
O O6 0.304565 0.234905 0.675336
O O7 0.426815 0.186279 0.390795
O O8 0.194553 0.114571 0.652236
O O9 0.801308 0.554536 0.247369
O O10 0.973069 0.230783 0.505411
O O11 0.000000 0.500000 0.000000
O O12 0.175976 0.589329 0.331551
O O13 0.049798 0.356532 0.746039
O O14 0.908518 0.132947 0.143377
O O15 0.000000 0.000000 0.000000
#
# Coordination Sequence:
#
# PCOD9037384 Si02
#       7
#     2   2   2   2   2   2   2
#     4  11  22  43  64  92 132 176 229 269 325 398
#     4  11  21  39  67  95 126 175 232 263 317 410
#     4  12  25  41  66 106 141 166 210 293 348 382
#     4  11  21  38  66  97 138 167 216 275 346 392
#     4  10  23  40  66  90 129 190 227 260 315 407
#     4  11  20  38  66  99 128 173 216 272 336 403
#     4  12  22  39  71 103 130 167 222 279 340 399
#
# _framework density 21.113828999999999
#
# number of rings (size 3 to 8) (size 9 to 14) (size 15 to 20)
#    0.000    0.857    7.143    1.714    0.000    0.571 
#    0.000    1.429    0.000    0.000    0.000    0.000 
#    0.000    0.000    0.000    0.000    0.000    0.000 
#
# Total GULP energy -77955.580728 kJ/mol
# GULP energy per Si atom -5568.255766 kJ/mol
# Density = 2.106577 g / cm^3
# Si number density = 21.113829 Si / 1000 Ang^3
#
#
#
# Elastic Constant Matrix: (Units=GPa)
#
#
# Indices 1 2 3 4 5 6 
#
# 1 80.0114 20.3335 30.7314 4.9131 -2.0722 -14.6410
# 2 20.3335 156.1068 32.5362 -7.2837 6.3098 -1.8460
# 3 30.7314 32.5362 80.7913 -8.6994 -0.3939 -5.5798
# 4 4.9131 -7.2837 -8.6994 30.8035 3.6819 -0.5559
# 5 -2.0722 6.3098 -0.3939 3.6819 25.3907 -1.7888
# 6 -14.6410 -1.8460 -5.5798 -0.5559 -1.7888 30.6069
#
#
#
# Elastic Compliance Matrix: (Units=1/GPa)
#
#
# Indices 1 2 3 4 5 6 
#
# 1 0.016701 -0.001201 -0.005897 -0.004818 0.002756 0.006915
# 2 -0.001201 0.007200 -0.002340 0.001482 -0.002185 -0.000668
# 3 -0.005897 -0.002340 0.016100 0.004979 -0.000369 0.000042
# 4 -0.004818 0.001482 0.004979 0.035679 -0.005929 -0.001006
# 5 0.002756 -0.002185 -0.000369 -0.005929 0.041248 0.003422
# 6 0.006915 -0.000668 0.000042 -0.001006 0.003422 0.036129
#
#
# Mechanical properties :
#
#
# Convention : Reuss Voigt Hill
#
# Bulk Modulus (GPa) = 47.33554 53.79020 50.56287
# Shear Modulus (GPa) = 27.93707 32.91410 30.42559
#
# Velocity S-wave (km/s) = 3.64148 3.95256 3.80020
# Velocity P-wave (km/s) = 6.33627 6.80896 6.57686
#
# Compressibility (1/GPa) = 0.02112577
#
# Stress axis : x y z
#
# Youngs Moduli (GPa) = 59.87724 138.89774 62.11120
#
# Poissons Ratio (x) = 0.16678 0.36626
# Poissons Ratio (y) = 0.07190 0.14533
# Poissons Ratio (z) = 0.35309 0.32500
#
# Static dielectric constant tensor:
#      x y z
#    x 1.782440 0.039550 -0.032950 
#    y 0.039550 1.935820 -0.031880 
#    z -0.032950 -0.031880 1.821890 
# 
# From -- ./inp_files/271310.got.cif
#   From: 2010.05.17/outbox.cif.g08.bks.cpg/sg2_136_cif.got.tgz:271310.got - 2010.06.03 11:33:40.
