data_PCOD9037897
_publ_section_title
;
Structure prediction by ZEFSAII (Michael W. Deem and Ramdas Pophale) SiO2 
 PCOD9037897
Probable space group: P -1
;
_chemical_formula_sum "Si O2"
_cell_formula_units_Z 16
_cell_length_a 9.872365
_cell_length_b 11.447233
_cell_length_c 8.616461
_cell_angle_alpha 54.909775
_cell_angle_beta 98.278553
_cell_angle_gamma 127.069705
_cell_volume 604.384472
_symmetry_space_group_name_H-M "P -1"
_symmetry_group_IT_number 2
_symmetry_cell_setting 'triclinic'
loop_
_space_group_symop_operation_xyz
x,y,z
-x,-y,-z
loop_
_atom_site_type_symbol
_atom_site_label
_atom_site_fract_x
_atom_site_fract_y
_atom_site_fract_z
Si Si1 0.125651 0.452356 0.025843
Si Si2 0.817964 0.195160 0.641359
Si Si3 0.532800 0.381945 0.862283
Si Si4 0.120224 0.972808 0.670615
Si Si5 0.187767 0.310277 0.554433
Si Si6 0.643856 0.825019 0.721091
Si Si7 0.347723 0.013821 0.931690
Si Si8 0.703105 0.428217 0.356183
O O1 0.311741 0.599961 0.033113
O O2 0.156823 0.464326 0.839891
O O3 0.037125 0.243776 0.214827
O O4 0.000000 0.500000 0.000000
O O5 0.752417 0.313586 0.536952
O O6 0.015226 0.300350 0.523761
O O7 0.678052 0.001178 0.673270
O O8 0.810034 0.130933 0.864097
O O9 0.659161 0.573117 0.640450
O O10 0.433829 0.219790 0.843816
O O11 0.394749 0.311299 0.038701
O O12 0.109589 0.098499 0.691984
O O13 0.184671 0.074067 0.438056
O O14 0.274534 0.978950 0.773526
O O15 0.282285 0.427682 0.637660
O O16 0.481820 0.708847 0.662226
O O17 0.500000 0.000000 0.000000
#
# Coordination Sequence:
#
# PCOD9037897 Si02
#       8
#     2   2   2   2   2   2   2   2
#     4  11  23  42  69  98 130 169 218 273 329 393
#     4  11  23  42  69  99 132 174 224 273 326 390
#     4  10  23  41  64  95 128 171 221 268 324 388
#     4  12  26  44  66  96 135 174 217 273 336 395
#     4  12  26  43  64  96 138 178 217 270 334 395
#     4  10  23  42  67  97 129 173 225 277 326 382
#     4  11  23  42  69  98 130 169 218 273 329 393
#     4  11  23  42  69  99 132 174 224 273 326 390
#
# _framework density 26.473215
#
# number of rings (size 3 to 8) (size 9 to 14) (size 15 to 20)
#    0.000    1.000    0.000    6.750    0.000    8.500 
#    0.000    5.000    0.000    0.000    0.000    0.000 
#    0.000    0.000    0.000    0.000    0.000    0.000 
#
# Total GULP energy -89651.105932 kJ/mol
# GULP energy per Si atom -5603.194121 kJ/mol
# Density = 2.641296 g / cm^3
# Si number density = 26.473215 Si / 1000 Ang^3
#
#
#
# Elastic Constant Matrix: (Units=GPa)
#
#
# Indices 1 2 3 4 5 6 
#
# 1 85.3304 34.3915 29.3505 -11.8650 1.8984 -12.6975
# 2 34.3915 165.4238 35.6256 -8.2539 -1.4296 11.2373
# 3 29.3505 35.6256 152.6603 -7.4500 -25.8475 -13.0123
# 4 -11.8650 -8.2539 -7.4500 40.2973 0.8359 4.0635
# 5 1.8984 -1.4296 -25.8475 0.8359 39.4430 0.1218
# 6 -12.6975 11.2373 -13.0123 4.0635 0.1218 47.9447
#
#
#
# Elastic Compliance Matrix: (Units=1/GPa)
#
#
# Indices 1 2 3 4 5 6 
#
# 1 0.014536 -0.002690 -0.002086 0.003020 -0.002240 0.003664
# 2 -0.002690 0.007140 -0.001453 0.000700 -0.000570 -0.002838
# 3 -0.002086 -0.001453 0.008420 0.000325 0.005552 0.002032
# 4 0.003020 0.000700 0.000325 0.026067 -0.000455 -0.001484
# 5 -0.002240 -0.000570 0.005552 -0.000455 0.029085 0.001012
# 6 0.003664 -0.002838 0.002032 -0.001484 0.001012 0.023167
#
#
# Mechanical properties :
#
#
# Convention : Reuss Voigt Hill
#
# Bulk Modulus (GPa) = 56.70220 66.90552 61.80386
# Shear Modulus (GPa) = 39.44626 45.80677 42.62652
#
# Velocity S-wave (km/s) = 3.86430 4.16421 4.01705
# Velocity P-wave (km/s) = 6.43239 6.96050 6.70165
#
# Compressibility (1/GPa) = 0.01763600
#
# Stress axis : x y z
#
# Youngs Moduli (GPa) = 68.79462 140.05284 118.76656
#
# Poissons Ratio (x) = 0.37677 0.24780
# Poissons Ratio (y) = 0.18507 0.17261
# Poissons Ratio (z) = 0.14354 0.20355
#
# Static dielectric constant tensor:
#      x y z
#    x 2.101730 0.033680 0.024930 
#    y 0.033680 1.990820 -0.001980 
#    z 0.024930 -0.001980 2.199800 
# 
# From -- ./inp_files/262083.got.cif
#   From: 2010.05.17/outbox.cif.g08.bks.cpg/sg2_132_cif.got.tgz:262083.got - 2010.06.03 11:33:40.
