data_PCOD9037000
_publ_section_title
;
Structure prediction by ZEFSAII (Michael W. Deem and Ramdas Pophale) SiO2 
 PCOD9037000
Probable space group: P -1
;
_chemical_formula_sum "Si O2"
_cell_formula_units_Z 14
_cell_length_a 16.782288
_cell_length_b 11.360883
_cell_length_c 9.135925
_cell_angle_alpha 140.829664
_cell_angle_beta 135.166891
_cell_angle_gamma 32.151567
_cell_volume 578.226267
_symmetry_space_group_name_H-M "P -1"
_symmetry_group_IT_number 2
_symmetry_cell_setting 'triclinic'
loop_
_space_group_symop_operation_xyz
x,y,z
-x,-y,-z
loop_
_atom_site_type_symbol
_atom_site_label
_atom_site_fract_x
_atom_site_fract_y
_atom_site_fract_z
Si Si1 0.322875 0.519993 0.447708
Si Si2 0.726592 0.541079 0.000055
Si Si3 0.022124 0.698189 0.381193
Si Si4 0.505018 0.973063 0.655359
Si Si5 0.920804 0.738860 0.809996
Si Si6 0.249074 0.003934 0.893219
Si Si7 0.867694 0.037806 0.778579
O O1 0.336855 0.418447 0.206311
O O2 0.326848 0.738964 0.667826
O O3 0.156366 0.647802 0.417914
O O4 0.448619 0.285512 0.487054
O O5 0.729178 0.332766 0.876305
O O6 0.641230 0.784400 0.221011
O O7 0.901973 0.409340 0.091181
O O8 0.092526 0.458189 0.342286
O O9 0.890055 0.773169 0.172991
O O10 0.930784 0.931865 0.597425
O O11 0.500000 0.000000 0.500000
O O12 0.635101 0.961397 0.884388
O O13 0.855088 0.861905 0.684519
O O14 0.827952 0.964865 0.022658
O O15 0.000000 0.000000 0.000000
#
# Coordination Sequence:
#
# PCOD9037000 Si02
#       7
#     2   2   2   2   2   2   2
#     4  12  24  47  79 104 148 190 242 300 357 435
#     4  11  24  49  69 106 147 190 244 293 360 435
#     4  12  22  44  75 114 143 184 247 303 354 427
#     4  12  31  49  70 106 152 192 241 299 366 438
#     4  11  23  41  76 108 145 187 242 301 356 420
#     4  12  25  47  78 108 142 195 242 295 367 427
#     4  10  23  39  68 106 145 184 236 298 358 416
#
# _framework density 24.211974999999999
#
# number of rings (size 3 to 8) (size 9 to 14) (size 15 to 20)
#    0.000    0.571    4.286    4.286    6.000    2.286 
#    2.571    0.000    0.000    0.000    0.000    0.000 
#    0.000    0.000    0.000    0.000    0.000    0.000 
#
# Total GULP energy -78430.825469 kJ/mol
# GULP energy per Si atom -5602.201819 kJ/mol
# Density = 2.415687 g / cm^3
# Si number density = 24.211975 Si / 1000 Ang^3
#
#
#
# Elastic Constant Matrix: (Units=GPa)
#
#
# Indices 1 2 3 4 5 6 
#
# 1 56.2596 17.4348 16.7999 -0.3662 -3.9413 8.0694
# 2 17.4348 96.0201 28.1405 13.2513 -4.0021 25.3753
# 3 16.7999 28.1405 109.4638 10.1517 -13.2799 -3.6652
# 4 -0.3662 13.2513 10.1517 38.6573 1.1900 -1.5000
# 5 -3.9413 -4.0021 -13.2799 1.1900 46.7344 4.9470
# 6 8.0694 25.3753 -3.6652 -1.5000 4.9470 41.1555
#
#
#
# Elastic Compliance Matrix: (Units=1/GPa)
#
#
# Indices 1 2 3 4 5 6 
#
# 1 0.019715 -0.002267 -0.002553 0.001497 0.000997 -0.002761
# 2 -0.002267 0.014953 -0.003218 -0.004706 0.001289 -0.009388
# 3 -0.002553 -0.003218 0.010901 -0.001735 0.002321 0.003113
# 4 0.001497 -0.004706 -0.001735 0.028153 -0.001879 0.003706
# 5 0.000997 0.001289 0.002321 -0.001879 0.022678 -0.003578
# 6 -0.002761 -0.009388 0.003113 0.003706 -0.003578 0.031470
#
#
# Mechanical properties :
#
#
# Convention : Reuss Voigt Hill
#
# Bulk Modulus (GPa) = 33.90531 42.94376 38.42453
# Shear Modulus (GPa) = 32.51428 38.60067 35.55748
#
# Velocity S-wave (km/s) = 3.66854 3.99718 3.83638
# Velocity P-wave (km/s) = 5.65492 6.25126 5.96056
#
# Compressibility (1/GPa) = 0.02949391
#
# Stress axis : x y z
#
# Youngs Moduli (GPa) = 50.72211 66.87438 91.73262
#
# Poissons Ratio (x) = 0.15160 0.23422
# Poissons Ratio (y) = 0.11498 0.29518
# Poissons Ratio (z) = 0.12951 0.21519
#
# Static dielectric constant tensor:
#      x y z
#    x 2.031080 0.028290 0.015940 
#    y 0.028290 1.928390 0.016060 
#    z 0.015940 0.016060 1.940870 
# 
# From -- ./inp_files/255981.got.cif
#   From: 2010.05.17/outbox.cif.g08.bks.cpg/sg2_128_cif.got.tgz:255981.got - 2010.06.03 11:33:40.
