data_PCOD9037827
_publ_section_title
;
Structure prediction by ZEFSAII (Michael W. Deem and Ramdas Pophale) SiO2 
 PCOD9037827
Probable space group: P -1
;
_chemical_formula_sum "Si O2"
_cell_formula_units_Z 15
_cell_length_a 10.809831
_cell_length_b 12.033133
_cell_length_c 10.461167
_cell_angle_alpha 143.851513
_cell_angle_beta 70.914648
_cell_angle_gamma 92.625584
_cell_volume 698.020442
_symmetry_space_group_name_H-M "P -1"
_symmetry_group_IT_number 2
_symmetry_cell_setting 'triclinic'
loop_
_space_group_symop_operation_xyz
x,y,z
-x,-y,-z
loop_
_atom_site_type_symbol
_atom_site_label
_atom_site_fract_x
_atom_site_fract_y
_atom_site_fract_z
Si Si1 0.026175 0.167222 0.486302
Si Si2 0.113279 0.868299 0.942084
Si Si3 0.759859 0.097525 0.630331
Si Si4 0.543991 0.400563 0.184738
Si Si5 0.500000 0.000000 0.500000
Si Si6 0.582819 0.202113 0.266491
Si Si7 0.972925 0.569172 0.720782
Si Si8 0.353035 0.193192 0.986001
O O1 0.876998 0.155370 0.568002
O O2 0.995044 0.387459 0.641955
O O3 0.139491 0.096159 0.497724
O O4 0.098709 0.008265 0.199832
O O5 0.263068 0.797932 0.756987
O O6 0.078855 0.677405 0.818802
O O7 0.000000 0.000000 0.000000
O O8 0.648118 0.047287 0.534374
O O9 0.667871 0.280800 0.930589
O O10 0.561185 0.280897 0.201993
O O11 0.525326 0.628599 0.444564
O O12 0.401382 0.382021 0.161472
O O13 0.557833 0.938523 0.282122
O O14 0.603642 0.968337 0.062115
O O15 0.000000 0.500000 0.500000
O O16 0.810917 0.727832 0.920114
#
# Coordination Sequence:
#
# PCOD9037827 Si02
#       8
#     2   2   2   2   1   2   2   2
#     4  11  24  45  71  98 139 180 227 281 342 404
#     4  12  22  40  68  98 136 174 226 280 339 399
#     4  10  23  47  70  98 139 183 227 285 338 405
#     4  10  23  41  63  95 128 172 225 273 336 404
#     4  10  24  44  68  96 132 180 228 270 342 402
#     4  11  22  41  65  94 131 173 218 279 338 398
#     4  12  24  39  67 103 131 174 223 278 337 403
#     4  11  23  41  64  93 131 172 221 274 334 399
#
# _framework density 21.489343999999999
#
# number of rings (size 3 to 8) (size 9 to 14) (size 15 to 20)
#    0.000    1.067    4.000    2.000    0.000    1.067 
#    9.600    8.667    0.000    0.000    0.000    0.000 
#    0.000    0.000    0.000    0.000    0.000    0.000 
#
# Total GULP energy -83503.431594 kJ/mol
# GULP energy per Si atom -5566.895440 kJ/mol
# Density = 2.144043 g / cm^3
# Si number density = 21.489344 Si / 1000 Ang^3
#
#
#
# Elastic Constant Matrix: (Units=GPa)
#
#
# Indices 1 2 3 4 5 6 
#
# 1 69.4840 5.5741 -2.0527 9.4584 -3.2725 8.1263
# 2 5.5741 78.2848 28.5747 14.5882 -6.9151 3.0859
# 3 -2.0527 28.5747 50.3444 12.0325 -9.5162 5.0045
# 4 9.4584 14.5882 12.0325 36.0648 6.9720 -1.9857
# 5 -3.2725 -6.9151 -9.5162 6.9720 24.0232 -13.0705
# 6 8.1263 3.0859 5.0045 -1.9857 -13.0705 23.9797
#
#
#
# Elastic Compliance Matrix: (Units=1/GPa)
#
#
# Indices 1 2 3 4 5 6 
#
# 1 0.016072 -0.000968 0.003471 -0.005661 0.001967 -0.005443
# 2 -0.000968 0.016868 -0.007980 -0.004536 0.003665 0.001445
# 3 0.003471 -0.007980 0.029286 -0.009884 0.012500 -0.000266
# 4 -0.005661 -0.004536 -0.009884 0.037730 -0.018137 -0.002197
# 5 0.001967 0.003665 0.012500 -0.018137 0.071518 0.033733
# 6 -0.005443 0.001445 -0.000266 -0.002197 0.033733 0.061621
#
#
# Mechanical properties :
#
#
# Convention : Reuss Voigt Hill
#
# Bulk Modulus (GPa) = 19.50445 29.14506 24.32476
# Shear Modulus (GPa) = 19.14687 27.88135 23.51411
#
# Velocity S-wave (km/s) = 2.98819 3.60592 3.31149
# Velocity P-wave (km/s) = 4.58277 5.56138 5.09562
#
# Compressibility (1/GPa) = 0.05127035
#
# Stress axis : x y z
#
# Youngs Moduli (GPa) = 62.22075 59.28540 34.14634
#
# Poissons Ratio (x) = 0.05738 -0.11851
# Poissons Ratio (y) = 0.06022 0.27249
# Poissons Ratio (z) = -0.21595 0.47311
#
# Static dielectric constant tensor:
#      x y z
#    x 1.847670 0.021810 -0.005320 
#    y 0.021810 1.786230 0.009770 
#    z -0.005320 0.009770 1.802450 
# 
# From -- ./inp_files/429200.got.cif
#   From: 2010.05.17/outbox.cif.g08.bks.cpg/sg2_215_cif.got.tgz:429200.got - 2010.06.03 11:33:40.
