data_PCOD9037372
_publ_section_title
;
Structure prediction by ZEFSAII (Michael W. Deem and Ramdas Pophale) SiO2 
 PCOD9037372
Probable space group: P -1
;
_chemical_formula_sum "Si O2"
_cell_formula_units_Z 14
_cell_length_a 10.548062
_cell_length_b 9.282565
_cell_length_c 9.294568
_cell_angle_alpha 44.825272
_cell_angle_beta 109.821780
_cell_angle_gamma 113.148004
_cell_volume 587.338460
_symmetry_space_group_name_H-M "P -1"
_symmetry_group_IT_number 2
_symmetry_cell_setting 'triclinic'
loop_
_space_group_symop_operation_xyz
x,y,z
-x,-y,-z
loop_
_atom_site_type_symbol
_atom_site_label
_atom_site_fract_x
_atom_site_fract_y
_atom_site_fract_z
Si Si1 0.244638 0.166278 0.866883
Si Si2 0.471197 0.713719 0.268301
Si Si3 0.036832 0.368745 0.470632
Si Si4 0.171832 0.724372 0.059382
Si Si5 0.196483 0.849824 0.657281
Si Si6 0.365689 0.520188 0.849402
Si Si7 0.471616 0.143721 0.518757
O O1 0.396875 0.186539 0.846406
O O2 0.161744 0.276301 0.643281
O O3 0.264712 0.300754 0.925020
O O4 0.171671 0.923552 0.020511
O O5 0.500000 0.500000 0.500000
O O6 0.326524 0.681564 0.153403
O O7 0.469685 0.872625 0.288935
O O8 0.075983 0.524570 0.239492
O O9 0.000000 0.500000 0.500000
O O10 0.915445 0.185908 0.487816
O O11 0.141900 0.797652 0.835514
O O12 0.284378 0.674112 0.784335
O O13 0.305760 0.075347 0.525934
O O14 0.438013 0.631937 0.654581
O O15 0.500000 0.500000 0.000000
O O16 0.500000 0.000000 0.500000
#
# Coordination Sequence:
#
# PCOD9037372 Si02
#       7
#     2   2   2   2   2   2   2
#     4  12  25  45  73 106 134 189 232 289 350 414
#     4  12  22  44  74 103 144 178 226 296 358 403
#     4  12  27  51  70  97 147 189 238 284 347 423
#     4  12  27  45  75 105 138 181 242 288 352 417
#     4  11  25  46  68 100 140 186 231 290 343 418
#     4  11  23  40  68 105 141 176 232 287 352 411
#     4  10  23  40  66 103 137 181 223 283 352 405
#
# _framework density 23.83634
#
# number of rings (size 3 to 8) (size 9 to 14) (size 15 to 20)
#    0.000    0.571    5.714    1.714    6.000    1.143 
#    2.571    0.000    0.000    0.000    0.000    0.000 
#    0.000    0.000    0.000    0.000    0.000    0.000 
#
# Total GULP energy -78260.736673 kJ/mol
# GULP energy per Si atom -5590.052620 kJ/mol
# Density = 2.378209 g / cm^3
# Si number density = 23.836340 Si / 1000 Ang^3
#
#
#
# Elastic Constant Matrix: (Units=GPa)
#
#
# Indices 1 2 3 4 5 6 
#
# 1 51.1972 9.8748 15.4686 10.4252 0.1538 0.9742
# 2 9.8748 103.6678 10.4687 12.9077 11.0068 6.1800
# 3 15.4686 10.4687 44.2012 -2.7688 9.1996 -0.2772
# 4 10.4252 12.9077 -2.7688 40.9099 2.7076 1.5360
# 5 0.1538 11.0068 9.1996 2.7076 28.3667 1.1246
# 6 0.9742 6.1800 -0.2772 1.5360 1.1246 36.5011
#
#
#
# Elastic Compliance Matrix: (Units=1/GPa)
#
#
# Indices 1 2 3 4 5 6 
#
# 1 0.023898 -0.000887 -0.009390 -0.006690 0.003914 -0.000398
# 2 -0.000887 0.010719 -0.001752 -0.003001 -0.003237 -0.001578
# 3 -0.009390 -0.001752 0.028562 0.005449 -0.009084 0.000815
# 4 -0.006690 -0.003001 0.005449 0.027689 -0.003196 -0.000339
# 5 0.003914 -0.003237 -0.009084 -0.003196 0.039767 -0.000716
# 6 -0.000398 -0.001578 0.000815 -0.000339 -0.000716 0.027717
#
#
# Mechanical properties :
#
#
# Convention : Reuss Voigt Hill
#
# Bulk Modulus (GPa) = 25.56152 30.07673 27.81913
# Shear Modulus (GPa) = 25.58191 32.03914 28.81052
#
# Velocity S-wave (km/s) = 3.27957 3.67022 3.48038
# Velocity P-wave (km/s) = 5.00878 5.53227 5.27702
#
# Compressibility (1/GPa) = 0.03912130
#
# Stress axis : x y z
#
# Youngs Moduli (GPa) = 41.84382 93.29132 35.01155
#
# Poissons Ratio (x) = 0.08276 0.32874
# Poissons Ratio (y) = 0.03712 0.06136
# Poissons Ratio (z) = 0.39289 0.16349
#
# Static dielectric constant tensor:
#      x y z
#    x 1.899300 -0.028980 0.010870 
#    y -0.028980 2.002190 -0.045770 
#    z 0.010870 -0.045770 1.808000 
# 
# From -- ./inp_files/242234.got.cif
#   From: 2010.05.17/outbox.cif.g08.bks.cpg/sg2_122_cif.got.tgz:242234.got - 2010.06.03 11:33:40.
