data_PCOD9037772
_publ_section_title
;
Structure prediction by ZEFSAII (Michael W. Deem and Ramdas Pophale) SiO2 
 PCOD9037772
Probable space group: P -1
;
_chemical_formula_sum "Si O2"
_cell_formula_units_Z 16
_cell_length_a 5.217880
_cell_length_b 17.795642
_cell_length_c 8.385987
_cell_angle_alpha 80.450504
_cell_angle_beta 121.750741
_cell_angle_gamma 110.151230
_cell_volume 621.503426
_symmetry_space_group_name_H-M "P -1"
_symmetry_group_IT_number 2
_symmetry_cell_setting 'triclinic'
loop_
_space_group_symop_operation_xyz
x,y,z
-x,-y,-z
loop_
_atom_site_type_symbol
_atom_site_label
_atom_site_fract_x
_atom_site_fract_y
_atom_site_fract_z
Si Si1 0.179684 0.282517 0.884246
Si Si2 0.558984 0.420738 0.753337
Si Si3 0.764917 0.029137 0.712869
Si Si4 0.585276 0.852687 0.836927
Si Si5 0.879378 0.650552 0.623124
Si Si6 0.490177 0.083993 0.898805
Si Si7 0.788890 0.572808 0.945419
Si Si8 0.601742 0.258885 0.475958
O O1 0.408731 0.329203 0.800007
O O2 0.827170 0.261445 0.701667
O O3 0.236825 0.207186 0.014986
O O4 0.278516 0.353465 0.019299
O O5 0.392446 0.416092 0.533338
O O6 0.527554 0.490696 0.837155
O O7 0.932840 0.442365 0.854975
O O8 0.770667 0.945488 0.828200
O O9 0.500000 0.000000 0.500000
O O10 0.649333 0.084097 0.780251
O O11 0.119298 0.076348 0.755105
O O12 0.455207 0.817300 0.633939
O O13 0.378607 0.857133 0.927761
O O14 0.954677 0.613491 0.821894
O O15 0.715943 0.720058 0.586827
O O16 0.173826 0.674790 0.591822
O O17 0.500000 0.000000 0.000000
#
# Coordination Sequence:
#
# PCOD9037772 Si02
#       8
#     2   2   2   2   2   2   2   2
#     4  11  23  44  63  98 137 174 232 280 342 402
#     4  10  23  41  62  96 129 182 228 283 340 402
#     4  11  25  48  75 108 143 177 234 279 339 413
#     4  11  24  45  72 100 138 184 222 280 341 401
#     4  11  23  44  63  96 136 173 229 283 336 403
#     4  10  23  47  71 104 140 180 226 276 337 412
#     4  11  21  40  68  90 132 180 228 285 340 399
#     4  11  25  43  64  99 136 175 222 282 339 402
#
# _framework density 25.744024
#
# number of rings (size 3 to 8) (size 9 to 14) (size 15 to 20)
#    0.000    1.250    2.500    3.375    1.750    3.000 
#   11.250    1.875    0.000    0.000    0.000    0.000 
#    0.000    0.000    0.000    0.000    0.000    0.000 
#
# Total GULP energy -89374.067105 kJ/mol
# GULP energy per Si atom -5585.879194 kJ/mol
# Density = 2.568543 g / cm^3
# Si number density = 25.744024 Si / 1000 Ang^3
#
#
#
# Elastic Constant Matrix: (Units=GPa)
#
#
# Indices 1 2 3 4 5 6 
#
# 1 102.5483 21.6063 26.7733 9.0963 -3.7382 -23.0861
# 2 21.6063 124.4664 37.5735 15.5771 -6.2259 -14.8386
# 3 26.7733 37.5735 103.7697 32.9356 4.1883 -14.0359
# 4 9.0963 15.5771 32.9356 55.0524 -3.3487 -12.4030
# 5 -3.7382 -6.2259 4.1883 -3.3487 32.4642 3.3480
# 6 -23.0861 -14.8386 -14.0359 -12.4030 3.3480 29.0584
#
#
#
# Elastic Compliance Matrix: (Units=1/GPa)
#
#
# Indices 1 2 3 4 5 6 
#
# 1 0.012393 -0.000529 -0.002319 0.001576 0.000856 0.009029
# 2 -0.000529 0.009448 -0.002963 -0.000088 0.001843 0.002724
# 3 -0.002319 -0.002963 0.013784 -0.007081 -0.003413 0.000674
# 4 0.001576 -0.000088 -0.007081 0.024078 0.002763 0.007746
# 5 0.000856 0.001843 -0.003413 0.002763 0.032245 -0.002563
# 6 0.009029 0.002724 0.000674 0.007746 -0.002563 0.046904
#
#
# Mechanical properties :
#
#
# Convention : Reuss Voigt Hill
#
# Bulk Modulus (GPa) = 41.66156 55.85449 48.75803
# Shear Modulus (GPa) = 31.55051 39.63711 35.59381
#
# Velocity S-wave (km/s) = 3.50458 3.92811 3.72237
# Velocity P-wave (km/s) = 5.70914 6.50512 6.12008
#
# Compressibility (1/GPa) = 0.02400294
#
# Stress axis : x y z
#
# Youngs Moduli (GPa) = 80.69340 105.83783 72.54708
#
# Poissons Ratio (x) = 0.05600 0.16825
# Poissons Ratio (y) = 0.04269 0.21494
# Poissons Ratio (z) = 0.18715 0.31357
#
# Static dielectric constant tensor:
#      x y z
#    x 2.148060 -0.003030 -0.043170 
#    y -0.003030 2.057420 0.023030 
#    z -0.043170 0.023030 2.037860 
# 
# From -- ./inp_files/122681.got.cif
#   From: 2010.05.17/outbox.cif.g08.bks.cpg/sg2_62_cif.got.tgz:122681.got - 2010.06.03 11:33:40.
