data_PCOD9037738
_publ_section_title
;
Structure prediction by ZEFSAII (Michael W. Deem and Ramdas Pophale) SiO2 
 PCOD9037738
Probable space group: P -1
;
_chemical_formula_sum "Si O2"
_cell_formula_units_Z 16
_cell_length_a 8.458042
_cell_length_b 11.703461
_cell_length_c 13.723502
_cell_angle_alpha 65.953144
_cell_angle_beta 123.023567
_cell_angle_gamma 72.720248
_cell_volume 764.602095
_symmetry_space_group_name_H-M "P -1"
_symmetry_group_IT_number 2
_symmetry_cell_setting 'triclinic'
loop_
_space_group_symop_operation_xyz
x,y,z
-x,-y,-z
loop_
_atom_site_type_symbol
_atom_site_label
_atom_site_fract_x
_atom_site_fract_y
_atom_site_fract_z
Si Si1 0.764135 0.147865 0.195984
Si Si2 0.602168 0.119317 0.798430
Si Si3 0.375337 0.999030 0.645209
Si Si4 0.796113 0.855494 0.111719
Si Si5 0.781308 0.326285 0.298852
Si Si6 0.633273 0.676972 0.160004
Si Si7 0.639540 0.180228 0.454464
Si Si8 0.669999 0.301492 0.608494
O O1 0.637266 0.096086 0.237828
O O2 0.705109 0.305396 0.175163
O O3 0.642862 0.196292 0.031764
O O4 0.068496 0.991060 0.360515
O O5 0.398234 0.261905 0.760781
O O6 0.688132 0.203134 0.741532
O O7 0.504662 0.065197 0.704229
O O8 0.794388 0.946403 0.986172
O O9 0.480889 0.880091 0.626099
O O10 0.082673 0.164925 0.466800
O O11 0.811988 0.698658 0.158291
O O12 0.035227 0.787892 0.282951
O O13 0.500000 0.000000 0.000000
O O14 0.726576 0.494166 0.244229
O O15 0.652976 0.291164 0.346502
O O16 0.538281 0.280335 0.486039
O O17 0.500000 0.500000 0.500000
#
# Coordination Sequence:
#
# PCOD9037738 Si02
#       8
#     2   2   2   2   2   2   2   2
#     4   9  17  35  58  87 115 153 202 244 292 352
#     4  11  23  38  59  87 122 159 201 241 299 367
#     4   9  19  35  57  86 114 157 201 241 291 357
#     4  10  23  41  62  88 118 160 204 240 292 362
#     4   9  19  31  57  90 120 148 196 255 298 337
#     4  11  20  33  60  90 120 152 197 253 296 346
#     4   9  19  38  58  80 121 158 196 241 293 360
#     4  12  26  41  61  91 124 158 196 253 306 346
#
# _framework density 20.925917999999999
#
# number of rings (size 3 to 8) (size 9 to 14) (size 15 to 20)
#    0.000    2.000    1.250    4.500    7.000    1.000 
#    0.000    0.000    0.000    0.750    0.000    0.000 
#    0.000    0.000    0.000    0.000    0.000    0.000 
#
# Total GULP energy -89179.759736 kJ/mol
# GULP energy per Si atom -5573.734983 kJ/mol
# Density = 2.087829 g / cm^3
# Si number density = 20.925918 Si / 1000 Ang^3
#
#
#
# Elastic Constant Matrix: (Units=GPa)
#
#
# Indices 1 2 3 4 5 6 
#
# 1 45.2862 42.5114 26.1865 -3.2462 -7.1833 17.3527
# 2 42.5114 169.3401 47.0588 3.0873 -13.0446 31.0631
# 3 26.1865 47.0588 60.4930 12.6692 -1.6606 12.1310
# 4 -3.2462 3.0873 12.6692 32.4605 5.1099 -7.6237
# 5 -7.1833 -13.0446 -1.6606 5.1099 21.7515 -2.0929
# 6 17.3527 31.0631 12.1310 -7.6237 -2.0929 29.9742
#
#
#
# Elastic Compliance Matrix: (Units=1/GPa)
#
#
# Indices 1 2 3 4 5 6 
#
# 1 0.038750 -0.003629 -0.012464 0.005160 0.007321 -0.011805
# 2 -0.003629 0.009408 -0.004029 -0.001762 0.003954 -0.006190
# 3 -0.012464 -0.004029 0.028277 -0.012402 -0.001781 -0.003332
# 4 0.005160 -0.001762 -0.012402 0.040891 -0.008591 0.013658
# 5 0.007321 0.003954 -0.001781 -0.008591 0.052052 -0.006166
# 6 -0.011805 -0.006190 -0.003332 0.013658 -0.006166 0.051003
#
#
# Mechanical properties :
#
#
# Convention : Reuss Voigt Hill
#
# Bulk Modulus (GPa) = 27.63054 56.29253 41.96153
# Shear Modulus (GPa) = 18.33596 27.46140 22.89868
#
# Velocity S-wave (km/s) = 2.96333 3.62652 3.31157
# Velocity P-wave (km/s) = 4.99411 6.67044 5.89219
#
# Compressibility (1/GPa) = 0.03619184
#
# Stress axis : x y z
#
# Youngs Moduli (GPa) = 25.80657 106.28989 35.36430
#
# Poissons Ratio (x) = 0.38572 0.44077
# Poissons Ratio (y) = 0.09365 0.14249
# Poissons Ratio (z) = 0.32164 0.42825
#
# Static dielectric constant tensor:
#      x y z
#    x 1.785920 0.002210 -0.012800 
#    y 0.002210 1.808640 0.021890 
#    z -0.012800 0.021890 1.763630 
# 
# From -- ./inp_files/271250.got.cif
#   From: 2010.05.17/outbox.cif.g08.bks.cpg/sg2_136_cif.got.tgz:271250.got - 2010.06.03 11:33:40.
