data_PCOD9037955
_publ_section_title
;
Structure prediction by ZEFSAII (Michael W. Deem and Ramdas Pophale) SiO2 
 PCOD9037955
Probable space group: P -1
;
_chemical_formula_sum "Si O2"
_cell_formula_units_Z 16
_cell_length_a 12.946190
_cell_length_b 16.129558
_cell_length_c 9.415742
_cell_angle_alpha 51.910244
_cell_angle_beta 120.452123
_cell_angle_gamma 153.659984
_cell_volume 680.612076
_symmetry_space_group_name_H-M "P -1"
_symmetry_group_IT_number 2
_symmetry_cell_setting 'triclinic'
loop_
_space_group_symop_operation_xyz
x,y,z
-x,-y,-z
loop_
_atom_site_type_symbol
_atom_site_label
_atom_site_fract_x
_atom_site_fract_y
_atom_site_fract_z
Si Si1 0.901761 0.282745 0.756223
Si Si2 0.647100 0.511640 0.426790
Si Si3 0.863975 0.044331 0.158650
Si Si4 0.498920 0.283226 0.969132
Si Si5 0.369384 0.717106 0.495336
Si Si6 0.614546 0.976180 0.642837
Si Si7 0.270578 0.281136 0.993522
Si Si8 0.180992 0.299539 0.354581
O O1 0.715918 0.238522 0.683511
O O2 0.158494 0.526599 0.659193
O O3 0.845476 0.182098 0.673076
O O4 0.879931 0.177300 0.972488
O O5 0.616866 0.368234 0.512982
O O6 0.760345 0.662661 0.217181
O O7 0.387365 0.367837 0.416330
O O8 0.807655 0.654922 0.523922
O O9 0.941447 0.091356 0.326024
O O10 0.061176 0.128438 0.119715
O O11 0.622020 0.819677 0.160131
O O12 0.321800 0.207981 0.034570
O O13 0.716649 0.524285 0.850037
O O14 0.534436 0.198544 0.156408
O O15 0.595926 0.901654 0.559161
O O16 0.500000 0.000000 0.500000
O O17 0.500000 0.500000 0.000000
#
# Coordination Sequence:
#
# PCOD9037955 Si02
#       8
#     2   2   2   2   2   2   2   2
#     4   9  19  30  52  82 103 132 173 222 269 309
#     4  10  20  36  57  76 110 144 181 212 266 318
#     4  11  19  34  55  77 108 138 174 226 269 305
#     4  10  20  32  54  79 106 141 181 211 271 322
#     4  10  17  33  53  75 107 137 171 221 267 308
#     4   9  18  31  51  80 107 132 172 224 266 306
#     4  11  18  33  56  81 106 137 174 228 268 308
#     4  10  22  38  52  76 112 149 173 218 261 320
#
# _framework density 23.508251999999999
#
# number of rings (size 3 to 8) (size 9 to 14) (size 15 to 20)
#    0.000    2.000    3.750    1.875    0.000    0.000 
#    0.000    7.500    0.000    6.750    0.000    0.000 
#    0.000    0.000    0.000    0.000    0.000    0.000 
#
# Total GULP energy -89415.307917 kJ/mol
# GULP energy per Si atom -5588.456745 kJ/mol
# Density = 2.345475 g / cm^3
# Si number density = 23.508252 Si / 1000 Ang^3
#
#
#
# Elastic Constant Matrix: (Units=GPa)
#
#
# Indices 1 2 3 4 5 6 
#
# 1 53.5388 24.9822 37.5649 16.2045 4.6668 -24.2445
# 2 24.9822 125.7042 39.2581 39.7966 2.8468 -14.9856
# 3 37.5649 39.2581 98.5759 29.8658 13.0870 -15.8608
# 4 16.2045 39.7966 29.8658 53.0485 -9.2496 -7.4566
# 5 4.6668 2.8468 13.0870 -9.2496 32.6308 3.7179
# 6 -24.2445 -14.9856 -15.8608 -7.4566 3.7179 30.7775
#
#
#
# Elastic Compliance Matrix: (Units=1/GPa)
#
#
# Indices 1 2 3 4 5 6 
#
# 1 0.037701 -0.000550 -0.008061 -0.004117 -0.006128 0.025019
# 2 -0.000550 0.011294 -0.001022 -0.007840 -0.003062 0.003009
# 3 -0.008061 -0.001022 0.017183 -0.007675 -0.007951 0.001108
# 4 -0.004117 -0.007840 -0.007675 0.032057 0.014001 -0.004940
# 5 -0.006128 -0.003062 -0.007951 0.014001 0.040302 -0.011892
# 6 0.025019 0.003009 0.001108 -0.004940 -0.011892 0.054475
#
#
# Mechanical properties :
#
#
# Convention : Reuss Voigt Hill
#
# Bulk Modulus (GPa) = 21.31750 53.49214 37.40482
# Shear Modulus (GPa) = 21.93790 35.02560 28.48175
#
# Velocity S-wave (km/s) = 3.05815 3.86415 3.48453
# Velocity P-wave (km/s) = 4.64300 6.53551 5.66879
#
# Compressibility (1/GPa) = 0.04690982
#
# Stress axis : x y z
#
# Youngs Moduli (GPa) = 26.52475 88.54342 58.19800
#
# Poissons Ratio (x) = 0.04872 0.46915
# Poissons Ratio (y) = 0.01460 0.05949
# Poissons Ratio (z) = 0.21382 0.09051
#
# Static dielectric constant tensor:
#      x y z
#    x 1.908100 -0.001700 0.001240 
#    y -0.001700 1.910370 -0.000420 
#    z 0.001240 -0.000420 1.892190 
# 
# From -- ./inp_files/258839.got.cif
#   From: 2010.05.17/outbox.cif.g08.bks.cpg/sg2_130_cif.got.tgz:258839.got - 2010.06.03 11:33:40.
