data_PCOD9037498
_publ_section_title
;
Structure prediction by ZEFSAII (Michael W. Deem and Ramdas Pophale) SiO2 
 PCOD9037498
Probable space group: P -1
;
_chemical_formula_sum "Si O2"
_cell_formula_units_Z 14
_cell_length_a 9.181152
_cell_length_b 7.494465
_cell_length_c 12.971160
_cell_angle_alpha 118.815925
_cell_angle_beta 126.007721
_cell_angle_gamma 60.658362
_cell_volume 605.103346
_symmetry_space_group_name_H-M "P -1"
_symmetry_group_IT_number 2
_symmetry_cell_setting 'triclinic'
loop_
_space_group_symop_operation_xyz
x,y,z
-x,-y,-z
loop_
_atom_site_type_symbol
_atom_site_label
_atom_site_fract_x
_atom_site_fract_y
_atom_site_fract_z
Si Si1 0.732112 0.219709 0.773676
Si Si2 0.063432 0.692842 0.504006
Si Si3 0.656508 0.290529 0.541071
Si Si4 0.621525 0.881651 0.337737
Si Si5 0.053044 0.262568 0.315900
Si Si6 0.791949 0.374114 0.050542
Si Si7 0.487908 0.152537 0.939231
O O1 0.734887 0.327064 0.694937
O O2 0.514522 0.261197 0.728926
O O3 0.842015 0.285894 0.931840
O O4 0.817144 0.969281 0.719879
O O5 0.177720 0.781887 0.493788
O O6 0.080010 0.754902 0.646968
O O7 0.841844 0.759274 0.403122
O O8 0.142616 0.438445 0.448342
O O9 0.500000 0.500000 0.500000
O O10 0.579598 0.085845 0.451373
O O11 0.563197 0.952102 0.215738
O O12 0.954789 0.356993 0.195286
O O13 0.669398 0.618415 0.053784
O O14 0.673724 0.225831 0.011559
O O15 0.500000 0.000000 0.000000
#
# Coordination Sequence:
#
# PCOD9037498 Si02
#       7
#     2   2   2   2   2   2   2
#     4  11  25  43  67  95 135 177 212 272 342 394
#     4  11  25  41  70  98 126 174 222 274 324 397
#     4  12  27  40  64 101 136 167 222 275 331 393
#     4  11  23  45  67  96 131 174 221 269 335 393
#     4  11  23  44  68  93 134 173 223 268 337 393
#     4  10  23  43  67  96 135 178 218 273 337 394
#     4  10  23  40  68 100 131 175 227 273 326 398
#
# _framework density 23.136544000000001
#
# number of rings (size 3 to 8) (size 9 to 14) (size 15 to 20)
#    0.000    1.143    2.857    2.143    8.000    0.000 
#    0.000    0.714    0.000    0.000    0.000    0.000 
#    0.000    0.000    0.000    0.000    0.000    0.000 
#
# Total GULP energy -78263.480681 kJ/mol
# GULP energy per Si atom -5590.248620 kJ/mol
# Density = 2.308388 g / cm^3
# Si number density = 23.136544 Si / 1000 Ang^3
#
#
#
# Elastic Constant Matrix: (Units=GPa)
#
#
# Indices 1 2 3 4 5 6 
#
# 1 67.6995 12.6337 29.9544 -7.7070 -23.8302 4.9365
# 2 12.6337 80.3354 29.9342 -10.8449 -9.3186 -5.5156
# 3 29.9544 29.9342 153.8238 -10.8162 -40.9936 0.7254
# 4 -7.7070 -10.8449 -10.8162 33.4801 4.2137 -13.3116
# 5 -23.8302 -9.3186 -40.9936 4.2137 32.4512 -5.1613
# 6 4.9365 -5.5156 0.7254 -13.3116 -5.1613 32.9822
#
#
#
# Elastic Compliance Matrix: (Units=1/GPa)
#
#
# Indices 1 2 3 4 5 6 
#
# 1 0.020303 -0.001282 0.000400 0.002565 0.014726 0.000078
# 2 -0.001282 0.014612 -0.002004 0.005724 0.000793 0.005114
# 3 0.000400 -0.002004 0.010395 0.002061 0.012938 0.002233
# 4 0.002565 0.005724 0.002061 0.039250 0.003730 0.016953
# 5 0.014726 0.000793 0.012938 0.003730 0.059050 0.008390
# 6 0.000078 0.005114 0.002233 0.016953 0.008390 0.039269
#
#
# Mechanical properties :
#
#
# Convention : Reuss Voigt Hill
#
# Bulk Modulus (GPa) = 25.29201 49.65593 37.47397
# Shear Modulus (GPa) = 24.77317 35.07181 29.92249
#
# Velocity S-wave (km/s) = 3.27576 3.89763 3.60015
# Velocity P-wave (km/s) = 5.02622 6.46251 5.78908
#
# Compressibility (1/GPa) = 0.03953819
#
# Stress axis : x y z
#
# Youngs Moduli (GPa) = 49.25303 68.43688 96.19833
#
# Poissons Ratio (x) = 0.08776 -0.03851
# Poissons Ratio (y) = 0.06316 0.19280
# Poissons Ratio (z) = -0.01972 0.13716
#
# Static dielectric constant tensor:
#      x y z
#    x 1.964050 0.046700 -0.002460 
#    y 0.046700 1.886070 -0.009330 
#    z -0.002460 -0.009330 1.879120 
# 
# From -- ./inp_files/380107.got.cif
#   From: 2010.05.17/outbox.cif.g08.bks.cpg/sg2_191_cif.got.tgz:380107.got - 2010.06.03 11:33:40.
