data_PCOD9037263
_publ_section_title
;
Structure prediction by ZEFSAII (Michael W. Deem and Ramdas Pophale) SiO2 
 PCOD9037263
Probable space group: P -1
;
_chemical_formula_sum "Si O2"
_cell_formula_units_Z 16
_cell_length_a 24.755681
_cell_length_b 13.937735
_cell_length_c 27.508139
_cell_angle_alpha 29.106405
_cell_angle_beta 9.281139
_cell_angle_gamma 28.187974
_cell_volume 722.151010
_symmetry_space_group_name_H-M "P -1"
_symmetry_group_IT_number 2
_symmetry_cell_setting 'triclinic'
loop_
_space_group_symop_operation_xyz
x,y,z
-x,-y,-z
loop_
_atom_site_type_symbol
_atom_site_label
_atom_site_fract_x
_atom_site_fract_y
_atom_site_fract_z
Si Si1 0.843251 0.172535 0.730396
Si Si2 0.910602 0.561467 0.332581
Si Si3 0.329080 0.215157 0.778023
Si Si4 0.281485 0.492596 0.866908
Si Si5 0.654945 0.600104 0.652951
Si Si6 0.712407 0.887836 0.815692
Si Si7 0.254609 0.743785 0.521552
Si Si8 0.945804 0.938027 0.298903
O O1 0.797243 0.395939 0.649302
O O2 0.902509 0.159346 0.741107
O O3 0.496810 0.115879 0.046043
O O4 0.119047 0.985772 0.542792
O O5 0.543344 0.607177 0.610253
O O6 0.800675 0.551425 0.490731
O O7 0.110560 0.345304 0.228805
O O8 0.232217 0.669399 0.997408
O O9 0.505663 0.326540 0.612775
O O10 0.623150 0.121264 0.519492
O O11 0.995819 0.351744 0.987957
O O12 0.212057 0.031561 0.990704
O O13 0.509529 0.323193 0.704409
O O14 0.055857 0.370911 0.152775
O O15 0.809425 0.775646 0.460735
O O16 0.000000 0.000000 0.500000
O O17 0.500000 0.000000 0.000000
#
# Coordination Sequence:
#
# PCOD9037263 Si02
#       8
#     2   2   2   2   2   2   2   2
#     4  10  23  40  64  94 125 163 204 247 310 379
#     4  11  24  40  61  91 124 165 212 250 304 376
#     4  11  24  42  64  94 124 160 212 260 306 367
#     4  12  23  42  64  91 129 168 200 254 312 367
#     4  11  24  44  64  90 126 163 208 266 308 354
#     4  11  21  36  57  88 125 161 194 241 297 367
#     4  11  22  38  64  97 127 162 201 248 311 382
#     4  11  24  44  66  91 121 162 214 266 309 356
#
# _framework density 22.156030000000001
#
# number of rings (size 3 to 8) (size 9 to 14) (size 15 to 20)
#    0.000    1.000    0.000    7.875    0.000    8.000 
#    0.000   10.000    0.000    0.000    0.000    0.000 
#    0.000    0.000    0.000    0.000    0.000    0.000 
#
# Total GULP energy -89455.731759 kJ/mol
# GULP energy per Si atom -5590.983235 kJ/mol
# Density = 2.210560 g / cm^3
# Si number density = 22.156030 Si / 1000 Ang^3
#
#
#
# Elastic Constant Matrix: (Units=GPa)
#
#
# Indices 1 2 3 4 5 6 
#
# 1 93.0597 23.5681 30.4236 3.9222 -22.3938 1.3528
# 2 23.5681 27.3385 17.0082 -1.6958 -16.2927 -4.5897
# 3 30.4236 17.0082 129.8876 -5.7210 -15.8890 -2.2086
# 4 3.9222 -1.6958 -5.7210 32.1893 -4.5069 -11.6042
# 5 -22.3938 -16.2927 -15.8890 -4.5069 48.4820 1.4369
# 6 1.3528 -4.5897 -2.2086 -11.6042 1.4369 19.7372
#
#
#
# Elastic Compliance Matrix: (Units=1/GPa)
#
#
# Indices 1 2 3 4 5 6 
#
# 1 0.015363 -0.012319 -0.002100 -0.005284 0.001996 -0.007405
# 2 -0.012319 0.062456 -0.002404 0.014639 0.015202 0.022599
# 3 -0.002100 -0.002404 0.008812 0.002599 0.001292 0.002005
# 4 -0.005284 0.014639 0.002599 0.044612 0.006595 0.029806
# 5 0.001996 0.015202 0.001292 0.006595 0.027533 0.005415
# 6 -0.007405 0.022599 0.002005 0.029806 0.005415 0.073783
#
#
# Mechanical properties :
#
#
# Convention : Reuss Voigt Hill
#
# Bulk Modulus (GPa) = 18.87313 43.58728 31.23020
# Shear Modulus (GPa) = 17.61395 32.03408 24.82401
#
# Velocity S-wave (km/s) = 2.82263 3.80655 3.35090
# Velocity P-wave (km/s) = 4.37718 6.24782 5.39421
#
# Compressibility (1/GPa) = 0.05298538
#
# Stress axis : x y z
#
# Youngs Moduli (GPa) = 65.09200 16.01130 113.47793
#
# Poissons Ratio (x) = 0.19724 0.23828
# Poissons Ratio (y) = 0.80186 0.27282
# Poissons Ratio (z) = 0.13668 0.03849
#
# Static dielectric constant tensor:
#      x y z
#    x 1.807960 -0.060530 -0.036210 
#    y -0.060530 1.878470 -0.111400 
#    z -0.036210 -0.111400 2.199120 
# 
# From -- ./inp_files/620976.got.cif
#   From: 2010.05.17/outbox.cif.g08.bks.cpg/sg2_311_cif.got.tgz:620976.got - 2010.06.03 11:33:40.
