data_PCOD9037169
_publ_section_title
;
Structure prediction by ZEFSAII (Michael W. Deem and Ramdas Pophale) SiO2 
 PCOD9037169
Probable space group: P -1
;
_chemical_formula_sum "Si O2"
_cell_formula_units_Z 16
_cell_length_a 22.411686
_cell_length_b 5.628013
_cell_length_c 4.989430
_cell_angle_alpha 82.603039
_cell_angle_beta 81.759632
_cell_angle_gamma 108.674567
_cell_volume 579.718946
_symmetry_space_group_name_H-M "P -1"
_symmetry_group_IT_number 2
_symmetry_cell_setting 'triclinic'
loop_
_space_group_symop_operation_xyz
x,y,z
-x,-y,-z
loop_
_atom_site_type_symbol
_atom_site_label
_atom_site_fract_x
_atom_site_fract_y
_atom_site_fract_z
Si Si1 0.014170 0.233252 0.254866
Si Si2 0.241420 0.898782 0.591440
Si Si3 0.545624 0.385250 0.320558
Si Si4 0.864132 0.353970 0.902866
Si Si5 0.892790 0.956895 0.101680
Si Si6 0.424599 0.003857 0.252778
Si Si7 0.218560 0.391889 0.406059
Si Si8 0.359042 0.103466 0.798646
O O1 0.064921 0.492552 0.290488
O O2 0.061921 0.194570 0.003123
O O3 0.000000 0.000000 0.500000
O O4 0.946509 0.202686 0.171562
O O5 0.259402 0.668434 0.473183
O O6 0.250661 0.169290 0.393469
O O7 0.283830 0.988707 0.819677
O O8 0.168595 0.749157 0.765874
O O9 0.500000 0.500000 0.500000
O O10 0.496803 0.211266 0.157299
O O11 0.607900 0.612356 0.149918
O O12 0.567346 0.223042 0.547885
O O13 0.862284 0.068665 0.862776
O O14 0.818151 0.504808 0.813127
O O15 0.838748 0.764819 0.338356
O O16 0.384481 0.108624 0.476815
O O17 0.388511 0.947164 0.002437
#
# Coordination Sequence:
#
# PCOD9037169 Si02
#       8
#     2   2   2   2   2   2   2   2
#     4  11  21  39  62  95 125 171 213 283 343 420
#     4  11  28  45  69  98 136 179 234 283 343 417
#     4   9  21  42  68 105 142 183 230 292 352 420
#     4  11  24  42  67  91 135 173 221 284 350 411
#     4  10  23  40  62  96 127 165 225 275 347 420
#     4  10  23  43  70 102 142 183 232 292 357 414
#     4  11  25  47  68  96 131 179 228 284 348 412
#     4  11  25  43  68 103 136 188 237 291 350 423
#
# _framework density 27.599581000000001
#
# number of rings (size 3 to 8) (size 9 to 14) (size 15 to 20)
#    0.000    1.500    2.500    0.750    5.250    7.000 
#    0.000    0.000    0.000    0.000    0.000    0.000 
#    0.000    0.000    0.000    0.000    0.000    0.000 
#
# Total GULP energy -89248.056198 kJ/mol
# GULP energy per Si atom -5578.003512 kJ/mol
# Density = 2.753676 g / cm^3
# Si number density = 27.599581 Si / 1000 Ang^3
#
#
#
# Elastic Constant Matrix: (Units=GPa)
#
#
# Indices 1 2 3 4 5 6 
#
# 1 109.7511 42.9512 29.4897 -10.5344 25.1292 15.9994
# 2 42.9512 132.0299 38.1472 -30.3416 16.4621 -8.1268
# 3 29.4897 38.1472 102.3038 -19.2109 17.2725 1.6552
# 4 -10.5344 -30.3416 -19.2109 49.7408 -1.8327 11.7780
# 5 25.1292 16.4621 17.2725 -1.8327 48.7235 -11.0914
# 6 15.9994 -8.1268 1.6552 11.7780 -11.0914 39.6908
#
#
#
# Elastic Compliance Matrix: (Units=1/GPa)
#
#
# Indices 1 2 3 4 5 6 
#
# 1 0.014017 -0.003331 -0.000863 0.002499 -0.007802 -0.009218
# 2 -0.003331 0.010440 -0.002085 0.004329 -0.000414 0.002167
# 3 -0.000863 -0.002085 0.012164 0.003753 -0.003640 -0.002717
# 4 0.002499 0.004329 0.003753 0.026830 -0.005284 -0.009715
# 5 -0.007802 -0.000414 -0.003640 -0.005284 0.028693 0.012798
# 6 -0.009218 0.002167 -0.002717 -0.009715 0.012798 0.035927
#
#
# Mechanical properties :
#
#
# Convention : Reuss Voigt Hill
#
# Bulk Modulus (GPa) = 41.55568 62.80677 52.18122
# Shear Modulus (GPa) = 33.63615 43.19746 38.41680
#
# Velocity S-wave (km/s) = 3.49480 3.96049 3.73491
# Velocity P-wave (km/s) = 5.60127 6.61209 6.12756
#
# Compressibility (1/GPa) = 0.02406410
#
# Stress axis : x y z
#
# Youngs Moduli (GPa) = 71.34144 95.78571 82.20850
#
# Poissons Ratio (x) = 0.31906 0.07092
# Poissons Ratio (y) = 0.23764 0.17139
# Poissons Ratio (z) = 0.06155 0.19970
#
# Static dielectric constant tensor:
#      x y z
#    x 2.657430 0.142910 0.109660 
#    y 0.142910 2.509250 0.192700 
#    z 0.109660 0.192700 2.185390 
# 
# From -- ./inp_files/12459.got.cif
#   From: 2010.05.17/outbox.cif.g08.bks.cpg/sg2_7_cif.got.tgz:12459.got - 2010.06.03 11:33:40.
