data_PCOD9037578
_publ_section_title
;
Structure prediction by ZEFSAII (Michael W. Deem and Ramdas Pophale) SiO2 
 PCOD9037578
Probable space group: P -1
;
_chemical_formula_sum "Si O2"
_cell_formula_units_Z 12
_cell_length_a 7.481468
_cell_length_b 7.034255
_cell_length_c 9.708843
_cell_angle_alpha 62.653574
_cell_angle_beta 102.667425
_cell_angle_gamma 87.385870
_cell_volume 436.436728
_symmetry_space_group_name_H-M "P -1"
_symmetry_group_IT_number 2
_symmetry_cell_setting 'triclinic'
loop_
_space_group_symop_operation_xyz
x,y,z
-x,-y,-z
loop_
_atom_site_type_symbol
_atom_site_label
_atom_site_fract_x
_atom_site_fract_y
_atom_site_fract_z
Si Si1 0.245639 0.593327 0.724187
Si Si2 0.701300 0.490012 0.963671
Si Si3 0.903730 0.209521 0.632205
Si Si4 0.294179 0.056529 0.712949
Si Si5 0.604560 0.255429 0.801684
Si Si6 0.699440 0.844919 0.608079
O O1 0.113923 0.641838 0.555923
O O2 0.430160 0.450421 0.735248
O O3 0.278199 0.826553 0.715433
O O4 0.176428 0.490022 0.886619
O O5 0.723849 0.264828 0.957426
O O6 0.705756 0.668233 0.787695
O O7 0.500000 0.500000 0.000000
O O8 0.742860 0.279390 0.693025
O O9 0.113528 0.150884 0.739763
O O10 0.850515 0.986844 0.634593
O O11 0.493354 0.059455 0.815728
O O12 0.275704 0.223556 0.523594
O O13 0.500000 0.000000 0.500000
#
# Coordination Sequence:
#
# PCOD9037578 Si02
#       6
#     2   2   2   2   2   2
#     4  10  23  46  67 101 142 179 228 285 346 409
#     4  10  23  40  69 104 135 184 228 278 355 409
#     4  11  24  45  73 103 135 180 240 284 334 416
#     4  11  25  45  71 104 136 182 235 283 341 414
#     4  11  24  42  75 100 135 182 236 281 345 407
#     4  11  20  41  72  98 138 186 225 283 345 411
#
# _framework density 27.495397000000001
#
# number of rings (size 3 to 8) (size 9 to 14) (size 15 to 20)
#    0.000    1.333    1.667    6.500    2.333    1.333 
#    6.000    4.167    3.667    3.000    0.000    0.000 
#    0.000    0.000    0.000    0.000    0.000    0.000 
#
# Total GULP energy -67036.751957 kJ/mol
# GULP energy per Si atom -5586.395996 kJ/mol
# Density = 2.743282 g / cm^3
# Si number density = 27.495397 Si / 1000 Ang^3
#
#
#
# Elastic Constant Matrix: (Units=GPa)
#
#
# Indices 1 2 3 4 5 6 
#
# 1 134.6700 18.1359 33.0365 10.4143 9.4432 -14.2626
# 2 18.1359 120.3009 29.0238 18.3339 -6.1672 -14.9585
# 3 33.0365 29.0238 172.4839 15.1580 -9.2473 -9.9253
# 4 10.4143 18.3339 15.1580 53.4879 -9.1967 -6.2217
# 5 9.4432 -6.1672 -9.2473 -9.1967 17.2390 3.0754
# 6 -14.2626 -14.9585 -9.9253 -6.2217 3.0754 27.7627
#
#
#
# Elastic Compliance Matrix: (Units=1/GPa)
#
#
# Indices 1 2 3 4 5 6 
#
# 1 0.009049 -0.000547 -0.001647 -0.001967 -0.007833 0.004192
# 2 -0.000547 0.009520 -0.001013 -0.002198 0.001303 0.003849
# 3 -0.001647 -0.001013 0.006551 -0.000501 0.003710 0.000427
# 4 -0.001967 -0.002198 -0.000501 0.022118 0.011590 0.001299
# 5 -0.007833 0.001303 0.003710 0.011590 0.072259 -0.007402
# 6 0.004192 0.003849 0.000427 0.001299 -0.007402 0.041511
#
#
# Mechanical properties :
#
#
# Convention : Reuss Voigt Hill
#
# Bulk Modulus (GPa) = 53.46005 65.31637 59.38821
# Shear Modulus (GPa) = 28.79260 42.84847 35.82053
#
# Velocity S-wave (km/s) = 3.23952 3.95192 3.61332
# Velocity P-wave (km/s) = 5.78603 6.68061 6.24935
#
# Compressibility (1/GPa) = 0.01870556
#
# Stress axis : x y z
#
# Youngs Moduli (GPa) = 110.51475 105.04595 152.64847
#
# Poissons Ratio (x) = 0.05750 0.25140
# Poissons Ratio (y) = 0.06050 0.15456
# Poissons Ratio (z) = 0.18201 0.10636
#
# Static dielectric constant tensor:
#      x y z
#    x 2.211470 0.055260 0.015080 
#    y 0.055260 2.273610 -0.026830 
#    z 0.015080 -0.026830 2.334890 
# 
# From -- ./inp_files/375469.got.cif
#   From: 2010.05.17/outbox.cif.g08.bks.cpg/sg2_188_cif.got.tgz:375469.got - 2010.06.03 11:33:40.
