data_PCOD9037926
_publ_section_title
;
Structure prediction by ZEFSAII (Michael W. Deem and Ramdas Pophale) SiO2 
 PCOD9037926
Probable space group: P -1
;
_chemical_formula_sum "Si O2"
_cell_formula_units_Z 16
_cell_length_a 18.364933
_cell_length_b 8.555064
_cell_length_c 15.438432
_cell_angle_alpha 131.044455
_cell_angle_beta 22.784806
_cell_angle_gamma 131.983629
_cell_volume 691.510292
_symmetry_space_group_name_H-M "P -1"
_symmetry_group_IT_number 2
_symmetry_cell_setting 'triclinic'
loop_
_space_group_symop_operation_xyz
x,y,z
-x,-y,-z
loop_
_atom_site_type_symbol
_atom_site_label
_atom_site_fract_x
_atom_site_fract_y
_atom_site_fract_z
Si Si1 0.418671 0.841100 0.914247
Si Si2 0.440902 0.262024 0.942179
Si Si3 0.205436 0.662942 0.538880
Si Si4 0.132926 0.605711 0.798328
Si Si5 0.308338 0.586943 0.764106
Si Si6 0.027679 0.286344 0.339041
Si Si7 0.027224 0.772142 0.365097
Si Si8 0.825666 0.827431 0.449135
O O1 0.375701 0.719949 0.825815
O O2 0.621241 0.804232 0.712043
O O3 0.429580 0.085615 0.965355
O O4 0.242480 0.753149 0.140494
O O5 0.600549 0.232489 0.685174
O O6 0.500000 0.500000 0.000000
O O7 0.236257 0.249261 0.117413
O O8 0.203243 0.682208 0.652147
O O9 0.023541 0.718871 0.708718
O O10 0.149973 0.412443 0.482716
O O11 0.243956 0.722391 0.803094
O O12 0.193089 0.376597 0.665367
O O13 0.900546 0.572730 0.043471
O O14 0.500000 0.500000 0.500000
O O15 0.000000 0.500000 0.500000
O O16 0.880647 0.072331 0.453202
O O17 0.003041 0.780941 0.292189
O O18 0.000000 0.000000 0.500000
#
# Coordination Sequence:
#
# PCOD9037926 Si02
#       8
#     2   2   2   2   2   2   2   2
#     4  12  22  40  67  95 123 171 221 255 323 393
#     4  12  23  40  65  92 130 176 214 255 320 393
#     4  11  23  38  61  97 132 159 216 269 316 370
#     4  10  23  41  64  98 127 163 211 281 324 372
#     4  11  21  40  71  93 125 167 220 263 334 383
#     4  12  22  38  62  89 129 178 214 255 318 386
#     4  11  23  39  61  92 134 162 211 273 315 377
#     4  11  21  39  64  89 127 169 214 255 320 388
#
# _framework density 23.137761000000001
#
# number of rings (size 3 to 8) (size 9 to 14) (size 15 to 20)
#    0.000    0.750    7.500    1.500    0.000    3.500 
#    0.000    0.625    0.000    7.500    0.000    0.000 
#    0.000    0.000    0.000    0.000    0.000    0.000 
#
# Total GULP energy -89110.705767 kJ/mol
# GULP energy per Si atom -5569.419110 kJ/mol
# Density = 2.308510 g / cm^3
# Si number density = 23.137761 Si / 1000 Ang^3
#
#
#
# Elastic Constant Matrix: (Units=GPa)
#
#
# Indices 1 2 3 4 5 6 
#
# 1 99.0677 -16.0427 20.9607 -10.5704 -6.8961 -3.3169
# 2 -16.0427 33.2717 1.8896 -7.0021 -6.5033 -2.0357
# 3 20.9607 1.8896 136.3607 -12.4719 -23.7947 -2.3592
# 4 -10.5704 -7.0021 -12.4719 28.5421 -1.5751 2.0738
# 5 -6.8961 -6.5033 -23.7947 -1.5751 42.2650 -1.0311
# 6 -3.3169 -2.0357 -2.3592 2.0738 -1.0311 20.9769
#
#
#
# Elastic Compliance Matrix: (Units=1/GPa)
#
#
# Indices 1 2 3 4 5 6 
#
# 1 0.012565 0.008170 -0.000893 0.006278 0.003093 0.002211
# 2 0.008170 0.038591 0.000942 0.013058 0.008392 0.004264
# 3 -0.000893 0.000942 0.008716 0.003931 0.005072 0.000791
# 4 0.006278 0.013058 0.003931 0.042745 0.006811 -0.001189
# 5 0.003093 0.008392 0.005072 0.006811 0.028629 0.002608
# 6 0.002211 0.004264 0.000791 -0.001189 0.002608 0.048770
#
#
# Mechanical properties :
#
#
# Convention : Reuss Voigt Hill
#
# Bulk Modulus (GPa) = 13.10430 31.36838 22.23634
# Shear Modulus (GPa) = 26.45315 35.81627 31.13471
#
# Velocity S-wave (km/s) = 3.38492 3.93868 3.67225
# Velocity P-wave (km/s) = 4.57743 5.85413 5.25470
#
# Compressibility (1/GPa) = 0.07631083
#
# Stress axis : x y z
#
# Youngs Moduli (GPa) = 79.58527 25.91289 114.73169
#
# Poissons Ratio (x) = -0.21171 0.10241
# Poissons Ratio (y) = -0.65023 -0.10805
# Poissons Ratio (z) = 0.07104 -0.02440
#
# Static dielectric constant tensor:
#      x y z
#    x 48.576270 38.268370 11.337160 
#    y 38.268370 33.407290 9.276530 
#    z 11.337160 9.276530 4.587250 
# 
# From -- ./inp_files/221737.got.cif
#   From: 2010.05.17/outbox.cif.g08.bks.cpg/sg2_111_cif.got.tgz:221737.got - 2010.06.03 11:33:40.
