data_PCOD9037015
_publ_section_title
;
Structure prediction by ZEFSAII (Michael W. Deem and Ramdas Pophale) SiO2 
 PCOD9037015
Probable space group: P -1
;
_chemical_formula_sum "Si O2"
_cell_formula_units_Z 15
_cell_length_a 8.846254
_cell_length_b 7.674233
_cell_length_c 9.235072
_cell_angle_alpha 77.358408
_cell_angle_beta 75.233090
_cell_angle_gamma 61.813445
_cell_volume 530.775474
_symmetry_space_group_name_H-M "P -1"
_symmetry_group_IT_number 2
_symmetry_cell_setting 'triclinic'
loop_
_space_group_symop_operation_xyz
x,y,z
-x,-y,-z
loop_
_atom_site_type_symbol
_atom_site_label
_atom_site_fract_x
_atom_site_fract_y
_atom_site_fract_z
Si Si1 0.690402 0.388399 0.037779
Si Si2 0.606963 0.426959 0.642101
Si Si3 0.000000 0.000000 0.000000
Si Si4 0.530528 0.888988 0.218006
Si Si5 0.012085 0.118860 0.642774
Si Si6 0.871131 0.323417 0.289235
Si Si7 0.228586 0.256880 0.081043
Si Si8 0.730621 0.703106 0.468850
O O1 0.710414 0.369784 0.210610
O O2 0.500000 0.500000 0.000000
O O3 0.782919 0.525040 0.942732
O O4 0.796881 0.164710 0.003137
O O5 0.500000 0.500000 0.500000
O O6 0.534228 0.281319 0.755653
O O7 0.811713 0.267384 0.637874
O O8 0.638214 0.624199 0.624750
O O9 0.959695 0.917890 0.183397
O O10 0.591806 0.871006 0.370123
O O11 0.373245 0.096721 0.177067
O O12 0.693359 0.823895 0.081312
O O13 0.131105 0.218919 0.532524
O O14 0.079706 0.890655 0.616209
O O15 0.828059 0.512483 0.367932
O O16 0.038189 0.274058 0.152883
#
# Coordination Sequence:
#
# PCOD9037015 Si02
#       8
#     2   2   1   2   2   2   2   2
#     4  11  25  39  66 105 148 189 243 293 369 452
#     4  10  23  46  69 101 137 192 247 292 359 433
#     4  10  26  40  68 106 152 180 228 310 372 420
#     4  10  23  39  68  99 138 188 235 298 366 427
#     4  11  24  42  72 106 139 185 242 301 370 437
#     4  11  24  44  66 106 147 180 239 301 367 445
#     4  11  22  40  67  99 146 185 230 300 376 432
#     4  11  24  43  74  95 138 195 236 295 364 427
#
# _framework density 28.260534
#
# number of rings (size 3 to 8) (size 9 to 14) (size 15 to 20)
#    0.000    1.333    2.667    1.600    9.333    0.533 
#    0.000    0.000    0.000    4.800    0.000    0.000 
#    0.000    0.000    0.000    0.000    0.000    0.000 
#
# Total GULP energy -83732.962652 kJ/mol
# GULP energy per Si atom -5582.197510 kJ/mol
# Density = 2.819621 g / cm^3
# Si number density = 28.260534 Si / 1000 Ang^3
#
#
#
# Elastic Constant Matrix: (Units=GPa)
#
#
# Indices 1 2 3 4 5 6 
#
# 1 124.5401 66.8859 14.7328 -16.0613 2.5432 5.9804
# 2 66.8859 141.2044 54.4133 -43.6930 16.7576 -13.3561
# 3 14.7328 54.4133 120.2503 -19.5003 10.0609 7.1228
# 4 -16.0613 -43.6930 -19.5003 53.8601 -14.4045 8.2520
# 5 2.5432 16.7576 10.0609 -14.4045 55.3302 -35.1364
# 6 5.9804 -13.3561 7.1228 8.2520 -35.1364 50.8889
#
#
#
# Elastic Compliance Matrix: (Units=1/GPa)
#
#
# Indices 1 2 3 4 5 6 
#
# 1 0.011550 -0.006769 0.001903 -0.001205 -0.002094 -0.004651
# 2 -0.006769 0.015069 -0.005249 0.008086 0.002595 0.005966
# 3 0.001903 -0.005249 0.011231 0.000136 -0.004512 -0.006311
# 4 -0.001205 0.008086 0.000136 0.026011 0.005521 0.001839
# 5 -0.002094 0.002595 -0.004512 0.005521 0.035728 0.025332
# 6 -0.004651 0.005966 -0.006311 0.001839 0.025332 0.039838
#
#
# Mechanical properties :
#
#
# Convention : Reuss Voigt Hill
#
# Bulk Modulus (GPa) = 56.74872 73.11765 64.93318
# Shear Modulus (GPa) = 30.20589 48.68002 39.44295
#
# Velocity S-wave (km/s) = 3.27285 4.15486 3.73995
# Velocity P-wave (km/s) = 5.86568 6.99614 6.45570
#
# Compressibility (1/GPa) = 0.01762154
#
# Stress axis : x y z
#
# Youngs Moduli (GPa) = 86.57743 66.36098 89.03723
#
# Poissons Ratio (x) = 0.44919 -0.16944
# Poissons Ratio (y) = 0.58603 0.46733
# Poissons Ratio (z) = -0.16476 0.34831
#
# Static dielectric constant tensor:
#      x y z
#    x 2.381340 0.113450 -0.034180 
#    y 0.113450 2.252390 0.152200 
#    z -0.034180 0.152200 2.329560 
# 
# From -- ./inp_files/381302.got.cif
#   From: 2010.05.17/outbox.cif.g08.bks.cpg/sg2_191_cif.got.tgz:381302.got - 2010.06.03 11:33:40.
