data_PCOD9037268
_publ_section_title
;
Structure prediction by ZEFSAII (Michael W. Deem and Ramdas Pophale) SiO2 
 PCOD9037268
Probable space group: P -1
;
_chemical_formula_sum "Si O2"
_cell_formula_units_Z 15
_cell_length_a 19.024950
_cell_length_b 7.947442
_cell_length_c 17.200988
_cell_angle_alpha 137.126647
_cell_angle_beta 22.304884
_cell_angle_gamma 124.911353
_cell_volume 612.735818
_symmetry_space_group_name_H-M "P -1"
_symmetry_group_IT_number 2
_symmetry_cell_setting 'triclinic'
loop_
_space_group_symop_operation_xyz
x,y,z
-x,-y,-z
loop_
_atom_site_type_symbol
_atom_site_label
_atom_site_fract_x
_atom_site_fract_y
_atom_site_fract_z
Si Si1 0.180692 0.821512 0.314422
Si Si2 0.654521 0.191010 0.218263
Si Si3 0.966124 0.244753 0.284087
Si Si4 0.000000 0.500000 0.500000
Si Si5 0.725729 0.702964 0.558659
Si Si6 0.892936 0.440958 0.970942
Si Si7 0.322659 0.028816 0.532449
Si Si8 0.586123 0.537047 0.183976
O O1 0.093899 0.712771 0.438138
O O2 0.294978 0.008783 0.289339
O O3 0.332379 0.581280 0.024341
O O4 0.000000 0.000000 0.500000
O O5 0.500000 0.500000 0.500000
O O6 0.811299 0.220512 0.007497
O O7 0.505201 0.048019 0.302982
O O8 0.818432 0.991841 0.044445
O O9 0.002336 0.384645 0.370733
O O10 0.854520 0.474481 0.412392
O O11 0.809495 0.110781 0.416934
O O12 0.525708 0.647954 0.731343
O O13 0.871889 0.650031 0.317133
O O14 0.767085 0.530295 0.050183
O O15 0.818868 0.679835 0.190080
O O16 0.425874 0.841628 0.438262
#
# Coordination Sequence:
#
# PCOD9037268 Si02
#       8
#     2   2   2   1   2   2   2   2
#     4  12  23  45  71 100 139 178 227 287 338 405
#     4  10  23  40  64  94 134 176 221 279 335 403
#     4  11  24  43  66  95 133 176 229 278 342 404
#     4  12  24  42  78  94 134 186 220 280 350 396
#     4  11  24  43  68  98 136 178 228 286 336 407
#     4  11  22  39  67  96 132 178 221 279 345 397
#     4  10  24  43  65  95 135 175 227 283 333 411
#     4  11  24  42  67  99 133 176 228 279 340 408
#
# _framework density 24.480369
#
# number of rings (size 3 to 8) (size 9 to 14) (size 15 to 20)
#    0.000    1.067    2.667    3.200    0.000    9.600 
#    0.000    6.000    0.000    0.000    0.000    0.000 
#    0.000    0.000    0.000    0.000    0.000    0.000 
#
# Total GULP energy -83649.131600 kJ/mol
# GULP energy per Si atom -5576.608773 kJ/mol
# Density = 2.442465 g / cm^3
# Si number density = 24.480369 Si / 1000 Ang^3
#
#
#
# Elastic Constant Matrix: (Units=GPa)
#
#
# Indices 1 2 3 4 5 6 
#
# 1 33.6786 30.4644 11.9441 0.8287 -6.0243 -1.3884
# 2 30.4644 162.4824 32.4791 -30.9155 -0.4496 7.4264
# 3 11.9441 32.4791 67.4919 -16.1255 4.8526 -1.8218
# 4 0.8287 -30.9155 -16.1255 49.9799 -1.5646 3.3114
# 5 -6.0243 -0.4496 4.8526 -1.5646 36.3199 -5.9570
# 6 -1.3884 7.4264 -1.8218 3.3114 -5.9570 40.4942
#
#
#
# Elastic Compliance Matrix: (Units=1/GPa)
#
#
# Indices 1 2 3 4 5 6 
#
# 1 0.040805 -0.008162 -0.005542 -0.007561 0.007806 0.004413
# 2 -0.008162 0.009163 -0.001657 0.005406 -0.001222 -0.002657
# 3 -0.005542 -0.001657 0.017958 0.004758 -0.003122 0.000073
# 4 -0.007561 0.005406 0.004758 0.025190 -0.001277 -0.003284
# 5 0.007806 -0.001222 -0.003122 -0.001277 0.029973 0.004865
# 6 0.004413 -0.002657 0.000073 -0.003284 0.004865 0.026321
#
#
# Mechanical properties :
#
#
# Convention : Reuss Voigt Hill
#
# Bulk Modulus (GPa) = 26.87913 45.93646 36.40780
# Shear Modulus (GPa) = 25.96955 37.94315 31.95635
#
# Velocity S-wave (km/s) = 3.26057 3.94120 3.61693
# Velocity P-wave (km/s) = 5.01785 6.28618 5.68748
#
# Compressibility (1/GPa) = 0.03720359
#
# Stress axis : x y z
#
# Youngs Moduli (GPa) = 24.50688 109.13850 55.68471
#
# Poissons Ratio (x) = 0.89074 0.30862
# Poissons Ratio (y) = 0.20001 0.09228
# Poissons Ratio (z) = 0.13583 0.18087
#
# Static dielectric constant tensor:
#      x y z
#    x 1.952280 -0.085110 -0.042250 
#    y -0.085110 1.972940 0.014230 
#    z -0.042250 0.014230 1.963930 
# 
# From -- ./inp_files/577463.got.cif
#   From: 2010.05.17/outbox.cif.g08.bks.cpg/sg2_289_cif.got.tgz:577463.got - 2010.06.03 11:33:40.
