data_PCOD9037143
_publ_section_title
;
Structure prediction by ZEFSAII (Michael W. Deem and Ramdas Pophale) SiO2 
 PCOD9037143
Probable space group: P -1
;
_chemical_formula_sum "Si O2"
_cell_formula_units_Z 13
_cell_length_a 8.692590
_cell_length_b 12.840711
_cell_length_c 12.496432
_cell_angle_alpha 140.315658
_cell_angle_beta 36.710447
_cell_angle_gamma 130.939376
_cell_volume 529.736709
_symmetry_space_group_name_H-M "P -1"
_symmetry_group_IT_number 2
_symmetry_cell_setting 'triclinic'
loop_
_space_group_symop_operation_xyz
x,y,z
-x,-y,-z
loop_
_atom_site_type_symbol
_atom_site_label
_atom_site_fract_x
_atom_site_fract_y
_atom_site_fract_z
Si Si1 0.088290 0.746188 0.844452
Si Si2 0.656092 0.679519 0.444304
Si Si3 0.145989 0.600188 0.243970
Si Si4 0.000000 0.000000 0.500000
Si Si5 0.006183 0.691635 0.613817
Si Si6 0.206242 0.925314 0.118040
Si Si7 0.585982 0.357771 0.092709
O O1 0.374780 0.688736 0.658986
O O2 0.878080 0.593013 0.866129
O O3 0.087894 0.787967 0.752320
O O4 0.069921 0.888427 0.052579
O O5 0.870181 0.623113 0.360979
O O6 0.628751 0.542393 0.258112
O O7 0.761330 0.859844 0.489796
O O8 0.171657 0.698818 0.418977
O O9 0.347197 0.649237 0.075746
O O10 0.066549 0.033777 0.363648
O O11 0.706882 0.712276 0.775078
O O12 0.000000 0.500000 0.500000
O O13 0.227518 0.756554 0.040337
O O14 0.500000 0.000000 0.000000
#
# Coordination Sequence:
#
# PCOD9037143 Si02
#       7
#     2   2   2   1   2   2   2
#     4  11  22  41  65  97 133 175 207 275 328 387
#     4  12  21  41  69  98 131 163 229 272 327 381
#     4  11  21  38  66  96 130 169 217 270 319 386
#     4  12  26  40  66 102 128 168 218 288 324 382
#     4  10  23  40  62 101 135 171 219 265 325 396
#     4  12  25  43  69  96 132 169 222 277 329 378
#     4  12  23  42  70 102 127 176 221 270 328 393
#
# _framework density 24.540492
#
# number of rings (size 3 to 8) (size 9 to 14) (size 15 to 20)
#    0.000    0.615    7.692    2.769    0.000    2.462 
#    2.769    0.769    0.000    2.769    0.000    0.000 
#    0.000    0.000    0.000    0.000    0.000    0.000 
#
# Total GULP energy -72480.294869 kJ/mol
# GULP energy per Si atom -5575.407298 kJ/mol
# Density = 2.448464 g / cm^3
# Si number density = 24.540492 Si / 1000 Ang^3
#
#
#
# Elastic Constant Matrix: (Units=GPa)
#
#
# Indices 1 2 3 4 5 6 
#
# 1 80.3812 -8.4151 39.5444 14.8435 36.5144 0.9121
# 2 -8.4151 99.5185 21.8709 -9.2360 19.2281 -1.0702
# 3 39.5444 21.8709 107.7475 -11.9784 64.9112 -8.2900
# 4 14.8435 -9.2360 -11.9784 27.1518 -4.0420 8.9939
# 5 36.5144 19.2281 64.9112 -4.0420 72.8938 2.4084
# 6 0.9121 -1.0702 -8.2900 8.9939 2.4084 26.0187
#
#
#
# Elastic Compliance Matrix: (Units=1/GPa)
#
#
# Indices 1 2 3 4 5 6 
#
# 1 0.021894 0.003158 -0.005202 -0.015693 -0.008166 0.003885
# 2 0.003158 0.011352 -0.001373 0.001091 -0.003288 -0.000154
# 3 -0.005202 -0.001373 0.023587 0.007966 -0.017810 0.006536
# 4 -0.015693 0.001091 0.007966 0.055325 0.004088 -0.016370
# 5 -0.008166 -0.003288 -0.017810 0.004088 0.035099 -0.010186
# 6 0.003885 -0.000154 0.006536 -0.016370 -0.010186 0.046975
#
#
# Mechanical properties :
#
#
# Convention : Reuss Voigt Hill
#
# Bulk Modulus (GPa) = 20.00070 43.73860 31.86965
# Shear Modulus (GPa) = 22.96382 40.85598 31.90990
#
# Velocity S-wave (km/s) = 3.06233 4.08467 3.60987
# Velocity P-wave (km/s) = 4.54660 6.33307 5.51268
#
# Compressibility (1/GPa) = 0.04999825
#
# Stress axis : x y z
#
# Youngs Moduli (GPa) = 45.67440 88.08995 42.39656
#
# Poissons Ratio (x) = -0.27817 0.22056
# Poissons Ratio (y) = -0.14423 0.05820
# Poissons Ratio (z) = 0.23761 0.12093
#
# Static dielectric constant tensor:
#      x y z
#    x 1.978100 -0.061880 -0.030230 
#    y -0.061880 2.017760 0.080040 
#    z -0.030230 0.080040 2.040100 
# 
# From -- ./inp_files/373926.got.cif
#   From: 2010.05.17/outbox.cif.g08.bks.cpg/sg2_187_cif.got.tgz:373926.got - 2010.06.03 11:33:40.
