data_PCOD9037092
_publ_section_title
;
Structure prediction by ZEFSAII (Michael W. Deem and Ramdas Pophale) SiO2 
 PCOD9037092
Probable space group: P -1
;
_chemical_formula_sum "Si O2"
_cell_formula_units_Z 16
_cell_length_a 6.490221
_cell_length_b 8.812042
_cell_length_c 15.105065
_cell_angle_alpha 69.558290
_cell_angle_beta 83.084292
_cell_angle_gamma 98.495483
_cell_volume 786.696999
_symmetry_space_group_name_H-M "P -1"
_symmetry_group_IT_number 2
_symmetry_cell_setting 'triclinic'
loop_
_space_group_symop_operation_xyz
x,y,z
-x,-y,-z
loop_
_atom_site_type_symbol
_atom_site_label
_atom_site_fract_x
_atom_site_fract_y
_atom_site_fract_z
Si Si1 0.170675 0.407342 0.765801
Si Si2 0.771153 0.883475 0.049379
Si Si3 0.265597 0.207954 0.408092
Si Si4 0.342660 0.763640 0.751622
Si Si5 0.164059 0.795084 0.300862
Si Si6 0.537184 0.912141 0.879528
Si Si7 0.565885 0.446709 0.603356
Si Si8 0.868587 0.984565 0.381207
O O1 0.204349 0.279409 0.866130
O O2 0.193102 0.590560 0.767216
O O3 0.361094 0.415247 0.683669
O O4 0.954090 0.331524 0.741285
O O5 0.628726 0.985583 0.092552
O O6 0.655560 0.847036 0.968392
O O7 0.000000 0.000000 0.000000
O O8 0.455071 0.211492 0.329027
O O9 0.271939 0.395029 0.398289
O O10 0.046294 0.120631 0.393085
O O11 0.288936 0.104967 0.516858
O O12 0.421274 0.773510 0.846172
O O13 0.235995 0.919808 0.706487
O O14 0.321808 0.708815 0.367010
O O15 0.294131 0.957064 0.212485
O O16 0.987816 0.851437 0.359265
O O17 0.500000 0.500000 0.500000
#
# Coordination Sequence:
#
# PCOD9037092 Si02
#       8
#     2   2   2   2   2   2   2   2
#     4  11  24  43  68  96 135 173 213 274 327 388
#     4  11  23  45  72  98 125 170 220 272 331 387
#     4  10  23  40  59  92 133 178 218 271 316 388
#     4  11  24  42  63  96 134 172 217 270 328 381
#     4  12  23  41  68  97 130 173 223 264 326 389
#     4  11  24  41  70  98 125 168 220 273 322 399
#     4  11  25  41  64  97 135 174 220 271 324 381
#     4  11  23  38  66  93 133 179 222 265 320 385
#
# _framework density 20.338200000000001
#
# number of rings (size 3 to 8) (size 9 to 14) (size 15 to 20)
#    0.000    1.000    3.750    2.625    1.750    6.500 
#    0.000    0.625    0.000    0.000    0.000    0.000 
#    0.000    0.000    0.000    0.000    0.000    0.000 
#
# Total GULP energy -89502.973840 kJ/mol
# GULP energy per Si atom -5593.935865 kJ/mol
# Density = 2.029191 g / cm^3
# Si number density = 20.338200 Si / 1000 Ang^3
#
#
#
# Elastic Constant Matrix: (Units=GPa)
#
#
# Indices 1 2 3 4 5 6 
#
# 1 30.0542 3.1359 22.8770 5.1889 19.4503 -7.8069
# 2 3.1359 70.5841 25.1459 9.8521 10.2136 8.5280
# 3 22.8770 25.1459 100.4664 1.9187 29.4825 -0.6279
# 4 5.1889 9.8521 1.9187 34.1222 1.9763 2.5240
# 5 19.4503 10.2136 29.4825 1.9763 34.4931 -6.6816
# 6 -7.8069 8.5280 -0.6279 2.5240 -6.6816 34.1285
#
#
#
# Elastic Compliance Matrix: (Units=1/GPa)
#
#
# Indices 1 2 3 4 5 6 
#
# 1 0.058402 0.003752 -0.006163 -0.008636 -0.026788 0.007702
# 2 0.003752 0.017139 -0.003764 -0.004751 -0.004480 -0.004019
# 3 -0.006163 -0.003764 0.014748 0.001835 -0.008509 -0.002000
# 4 -0.008636 -0.004751 0.001835 0.031948 0.002363 -0.002655
# 5 -0.026788 -0.004480 -0.008509 0.002363 0.053557 0.005146
# 6 0.007702 -0.004019 -0.002000 -0.002655 0.005146 0.033234
#
#
# Mechanical properties :
#
#
# Convention : Reuss Voigt Hill
#
# Bulk Modulus (GPa) = 12.83063 33.71357 23.27210
# Shear Modulus (GPa) = 20.21368 30.54517 25.37942
#
# Velocity S-wave (km/s) = 3.15600 3.87959 3.53635
# Velocity P-wave (km/s) = 4.42750 6.05646 5.30488
#
# Compressibility (1/GPa) = 0.07793848
#
# Stress axis : x y z
#
# Youngs Moduli (GPa) = 17.12284 58.34778 67.80395
#
# Poissons Ratio (x) = -0.21893 0.41790
# Poissons Ratio (y) = -0.06425 0.25520
# Poissons Ratio (z) = 0.10553 0.21961
#
# Static dielectric constant tensor:
#      x y z
#    x 1.709960 0.017160 0.006440 
#    y 0.017160 1.722000 0.013910 
#    z 0.006440 0.013910 1.710270 
# 
# From -- ./inp_files/38152.got.cif
#   From: 2010.05.17/outbox.cif.g08.bks.cpg/sg2_20_cif.got.tgz:38152.got - 2010.06.03 11:33:40.
