data_PCOD9037422
_publ_section_title
;
Structure prediction by ZEFSAII (Michael W. Deem and Ramdas Pophale) SiO2 
 PCOD9037422
Probable space group: P -1
;
_chemical_formula_sum "Si O2"
_cell_formula_units_Z 16
_cell_length_a 21.227429
_cell_length_b 9.322408
_cell_length_c 5.305252
_cell_angle_alpha 126.022878
_cell_angle_beta 60.606112
_cell_angle_gamma 130.056289
_cell_volume 639.127236
_symmetry_space_group_name_H-M "P -1"
_symmetry_group_IT_number 2
_symmetry_cell_setting 'triclinic'
loop_
_space_group_symop_operation_xyz
x,y,z
-x,-y,-z
loop_
_atom_site_type_symbol
_atom_site_label
_atom_site_fract_x
_atom_site_fract_y
_atom_site_fract_z
Si Si1 0.375531 0.622637 0.814952
Si Si2 0.131490 0.670350 0.306025
Si Si3 0.883004 0.698041 0.323599
Si Si4 0.969772 0.115075 0.371150
Si Si5 0.350056 0.369566 0.107698
Si Si6 0.545607 0.722387 0.508046
Si Si7 0.714254 0.029247 0.388551
Si Si8 0.733381 0.292803 0.224991
O O1 0.361555 0.529849 0.027196
O O2 0.473437 0.777903 0.727222
O O3 0.315013 0.703847 0.925103
O O4 0.352487 0.449798 0.462917
O O5 0.062288 0.735360 0.507129
O O6 0.195754 0.784624 0.521053
O O7 0.105073 0.433191 0.062561
O O8 0.197237 0.768400 0.047297
O O9 0.792481 0.531068 0.435709
O O10 0.957146 0.760772 0.441697
O O11 0.892609 0.911462 0.438807
O O12 0.000000 0.000000 0.000000
O O13 0.425953 0.321025 0.863392
O O14 0.274427 0.148882 0.947552
O O15 0.500000 0.500000 0.500000
O O16 0.638345 0.893333 0.594029
O O17 0.677934 0.133970 0.379431
#
# Coordination Sequence:
#
# PCOD9037422 Si02
#       8
#     2   2   2   2   2   2   2   2
#     4  11  21  42  66 100 138 193 239 312 354 435
#     4  10  25  45  68  97 148 176 232 294 365 429
#     4   9  25  44  66 102 140 172 234 289 364 427
#     4  11  24  44  75 102 129 185 234 285 361 448
#     4   9  23  37  69  92 136 180 255 291 364 418
#     4   8  19  39  65  98 135 184 249 307 352 425
#     4  10  23  40  66  99 130 191 235 289 371 419
#     4  10  26  39  65  94 148 178 228 294 367 423
#
# _framework density 25.034140000000001
#
# number of rings (size 3 to 8) (size 9 to 14) (size 15 to 20)
#    1.500    0.750    0.000    0.750    7.000    4.000 
#    2.250    0.625    0.000    0.000    0.000    0.000 
#    0.000    0.000    0.000    0.000    0.000    0.000 
#
# Total GULP energy -89070.698047 kJ/mol
# GULP energy per Si atom -5566.918628 kJ/mol
# Density = 2.497716 g / cm^3
# Si number density = 25.034140 Si / 1000 Ang^3
#
#
#
# Elastic Constant Matrix: (Units=GPa)
#
#
# Indices 1 2 3 4 5 6 
#
# 1 80.4107 37.5537 23.0457 10.7433 -1.1399 2.8757
# 2 37.5537 95.9984 20.8524 5.2136 -2.1792 -14.8578
# 3 23.0457 20.8524 95.5899 23.9165 4.0890 6.9494
# 4 10.7433 5.2136 23.9165 43.4634 5.2603 2.6147
# 5 -1.1399 -2.1792 4.0890 5.2603 40.3193 -3.6010
# 6 2.8757 -14.8578 6.9494 2.6147 -3.6010 23.3565
#
#
#
# Elastic Compliance Matrix: (Units=1/GPa)
#
#
# Indices 1 2 3 4 5 6 
#
# 1 0.016604 -0.006937 -0.001553 -0.002072 0.000008 -0.005762
# 2 -0.006937 0.015588 -0.002779 0.000428 0.001930 0.011847
# 3 -0.001553 -0.002779 0.013416 -0.006216 -0.001195 -0.005057
# 4 -0.002072 0.000428 -0.006216 0.027331 -0.003074 -0.001157
# 5 0.000008 0.001930 -0.001195 -0.003074 0.025958 0.005929
# 6 -0.005762 0.011847 -0.005057 -0.001157 0.005929 0.053608
#
#
# Mechanical properties :
#
#
# Convention : Reuss Voigt Hill
#
# Bulk Modulus (GPa) = 43.34501 48.32251 45.83376
# Shear Modulus (GPa) = 27.36221 34.13102 30.74661
#
# Velocity S-wave (km/s) = 3.30964 3.69640 3.50835
# Velocity P-wave (km/s) = 5.65304 6.12882 5.89573
#
# Compressibility (1/GPa) = 0.02307071
#
# Stress axis : x y z
#
# Youngs Moduli (GPa) = 60.22654 64.15045 74.53798
#
# Poissons Ratio (x) = 0.44502 0.11574
# Poissons Ratio (y) = 0.41780 0.20713
# Poissons Ratio (z) = 0.09352 0.17827
#
# Static dielectric constant tensor:
#      x y z
#    x 2.069960 0.015960 -0.017400 
#    y 0.015960 2.066970 -0.003740 
#    z -0.017400 -0.003740 2.191560 
# 
# From -- ./inp_files/117351.got.cif
#   From: 2010.05.17/outbox.cif.g08.bks.cpg/sg2_59_cif.got.tgz:117351.got - 2010.06.03 11:33:40.
