data_PCOD9037089
_publ_section_title
;
Structure prediction by ZEFSAII (Michael W. Deem and Ramdas Pophale) SiO2 
 PCOD9037089
Probable space group: P -1
;
_chemical_formula_sum "Si O2"
_cell_formula_units_Z 16
_cell_length_a 15.221660
_cell_length_b 9.651517
_cell_length_c 12.030833
_cell_angle_alpha 72.118620
_cell_angle_beta 29.165259
_cell_angle_gamma 79.433779
_cell_volume 805.934728
_symmetry_space_group_name_H-M "P -1"
_symmetry_group_IT_number 2
_symmetry_cell_setting 'triclinic'
loop_
_space_group_symop_operation_xyz
x,y,z
-x,-y,-z
loop_
_atom_site_type_symbol
_atom_site_label
_atom_site_fract_x
_atom_site_fract_y
_atom_site_fract_z
Si Si1 0.669766 0.430244 0.785624
Si Si2 0.252091 0.220195 0.915104
Si Si3 0.477129 0.996831 0.394055
Si Si4 0.665843 0.324191 0.053610
Si Si5 0.059825 0.317068 0.702006
Si Si6 0.810344 0.541103 0.244112
Si Si7 0.071929 0.986667 0.796388
Si Si8 0.492845 0.386546 0.772953
O O1 0.826744 0.560492 0.534712
O O2 0.587536 0.336918 0.791506
O O3 0.500000 0.500000 0.000000
O O4 0.726837 0.350168 0.851096
O O5 0.391556 0.109952 0.766526
O O6 0.274915 0.364957 0.776429
O O7 0.307691 0.282683 0.960843
O O8 0.058563 0.127656 0.110194
O O9 0.268869 0.943183 0.602293
O O10 0.500000 0.000000 0.500000
O O11 0.538659 0.164784 0.243474
O O12 0.561729 0.453809 0.178198
O O13 0.846408 0.324640 0.926928
O O14 0.132570 0.358280 0.735110
O O15 0.085387 0.150785 0.690701
O O16 0.650209 0.411666 0.498044
O O17 0.000000 0.500000 0.000000
O O18 0.000000 0.000000 0.000000
#
# Coordination Sequence:
#
# PCOD9037089 Si02
#       8
#     2   2   2   2   2   2   2   2
#     4   9  20  39  65  88 118 162 217 267 303 361
#     4  12  24  39  59  91 126 164 199 254 314 376
#     4  12  23  39  65  90 127 167 205 253 314 378
#     4  11  21  41  66  91 121 166 213 264 309 366
#     4  11  20  38  62  95 121 163 216 258 304 378
#     4  11  23  37  60  91 130 166 202 256 314 376
#     4  12  22  38  59  88 128 164 208 248 311 384
#     4  10  23  40  59  90 125 161 214 259 316 362
#
# _framework density 19.852723000000001
#
# number of rings (size 3 to 8) (size 9 to 14) (size 15 to 20)
#    0.000    1.000    3.750    4.500    1.750    0.000 
#    0.000    0.625    0.000    3.750    0.000    0.000 
#    0.000    0.000    0.000    0.000    0.000    0.000 
#
# Total GULP energy -89340.309528 kJ/mol
# GULP energy per Si atom -5583.769346 kJ/mol
# Density = 1.980754 g / cm^3
# Si number density = 19.852723 Si / 1000 Ang^3
#
#
#
# Elastic Constant Matrix: (Units=GPa)
#
#
# Indices 1 2 3 4 5 6 
#
# 1 99.3384 21.3225 29.6953 -16.0781 -19.4361 8.9865
# 2 21.3225 70.4658 16.7260 0.5958 -0.2445 3.3932
# 3 29.6953 16.7260 81.1508 0.7430 -17.8721 8.1245
# 4 -16.0781 0.5958 0.7430 28.3108 -8.3360 -12.3681
# 5 -19.4361 -0.2445 -17.8721 -8.3360 45.8465 -1.9284
# 6 8.9865 3.3932 8.1245 -12.3681 -1.9284 28.1236
#
#
#
# Elastic Compliance Matrix: (Units=1/GPa)
#
#
# Indices 1 2 3 4 5 6 
#
# 1 0.015088 -0.003938 -0.003451 0.011942 0.007302 0.002404
# 2 -0.003938 0.016076 -0.002362 -0.004479 -0.003412 -0.002203
# 3 -0.003451 -0.002362 0.015345 -0.002988 0.003791 -0.004099
# 4 0.011942 -0.004479 -0.002988 0.057157 0.015266 0.023771
# 5 0.007302 -0.003412 0.003791 0.015266 0.029383 0.005712
# 6 0.002404 -0.002203 -0.004099 0.023771 0.005712 0.047085
#
#
# Mechanical properties :
#
#
# Convention : Reuss Voigt Hill
#
# Bulk Modulus (GPa) = 37.02852 42.93807 39.98330
# Shear Modulus (GPa) = 23.96513 32.67028 28.31770
#
# Velocity S-wave (km/s) = 3.47817 4.06104 3.78085
# Velocity P-wave (km/s) = 5.90104 6.60792 6.26446
#
# Compressibility (1/GPa) = 0.02700621
#
# Stress axis : x y z
#
# Youngs Moduli (GPa) = 66.27979 62.20608 65.16763
#
# Poissons Ratio (x) = 0.24494 0.22490
# Poissons Ratio (y) = 0.26098 0.15394
# Poissons Ratio (z) = 0.22874 0.14695
#
# Static dielectric constant tensor:
#      x y z
#    x 1.651800 -0.073410 0.042190 
#    y -0.073410 1.571170 0.040190 
#    z 0.042190 0.040190 1.693930 
# 
# From -- ./inp_files/282841.got.cif
#   From: 2010.05.17/outbox.cif.g08.bks.cpg/sg2_142_cif.got.tgz:282841.got - 2010.06.03 11:33:40.
