data_PCOD9037843
_publ_section_title
;
Structure prediction by ZEFSAII (Michael W. Deem and Ramdas Pophale) SiO2 
 PCOD9037843
Probable space group: P -1
;
_chemical_formula_sum "Si O2"
_cell_formula_units_Z 14
_cell_length_a 18.520184
_cell_length_b 8.434531
_cell_length_c 10.904975
_cell_angle_alpha 134.633934
_cell_angle_beta 139.186659
_cell_angle_gamma 73.990456
_cell_volume 661.541702
_symmetry_space_group_name_H-M "P -1"
_symmetry_group_IT_number 2
_symmetry_cell_setting 'triclinic'
loop_
_space_group_symop_operation_xyz
x,y,z
-x,-y,-z
loop_
_atom_site_type_symbol
_atom_site_label
_atom_site_fract_x
_atom_site_fract_y
_atom_site_fract_z
Si Si1 0.779112 0.687787 0.403450
Si Si2 0.712870 0.881462 0.647185
Si Si3 0.616812 0.771725 0.738900
Si Si4 0.911796 0.003007 0.279350
Si Si5 0.002495 0.609886 0.718119
Si Si6 0.985328 0.244337 0.904134
Si Si7 0.526544 0.134469 0.739266
O O1 0.755237 0.719531 0.532686
O O2 0.894260 0.631888 0.517950
O O3 0.839474 0.969808 0.566392
O O4 0.643532 0.441691 0.045248
O O5 0.642478 0.754177 0.616722
O O6 0.612861 0.900373 0.436802
O O7 0.845493 0.169277 0.000798
O O8 0.500000 0.500000 0.500000
O O9 0.576358 0.988509 0.809605
O O10 0.756627 0.867390 0.033096
O O11 0.925728 0.841205 0.097648
O O12 0.968049 0.313518 0.501465
O O13 0.000000 0.000000 0.500000
O O14 0.989178 0.682213 0.880175
O O15 0.000000 0.500000 0.000000
O O16 0.500000 0.000000 0.500000
#
# Coordination Sequence:
#
# PCOD9037843 Si02
#       7
#     2   2   2   2   2   2   2
#     4  11  22  43  70  97 136 178 223 278 335 402
#     4  10  23  43  67  97 135 175 222 277 339 396
#     4  11  25  43  63  95 136 174 227 279 331 402
#     4  12  25  41  71  98 136 179 223 278 354 385
#     4  11  23  44  70 102 131 175 231 283 328 408
#     4  11  24  41  65 107 136 167 224 285 334 400
#     4  10  23  41  63  97 134 174 227 267 324 409
#
# _framework density 21.162689
#
# number of rings (size 3 to 8) (size 9 to 14) (size 15 to 20)
#    0.000    1.143    2.857    3.857    6.000    2.286 
#    0.000    0.714    0.000    0.000    0.000    0.000 
#    0.000    0.000    0.000    0.000    0.000    0.000 
#
# Total GULP energy -78193.258796 kJ/mol
# GULP energy per Si atom -5585.232771 kJ/mol
# Density = 2.111452 g / cm^3
# Si number density = 21.162689 Si / 1000 Ang^3
#
#
#
# Elastic Constant Matrix: (Units=GPa)
#
#
# Indices 1 2 3 4 5 6 
#
# 1 110.0475 48.5679 57.2415 8.3976 12.3089 -6.9142
# 2 48.5679 121.1232 65.9760 4.8516 17.2425 -21.7128
# 3 57.2415 65.9760 175.3326 12.0650 19.1820 -12.6799
# 4 8.3976 4.8516 12.0650 46.5095 -6.3504 1.7316
# 5 12.3089 17.2425 19.1820 -6.3504 41.2954 -1.4935
# 6 -6.9142 -21.7128 -12.6799 1.7316 -1.4935 31.4250
#
#
#
# Elastic Compliance Matrix: (Units=1/GPa)
#
#
# Indices 1 2 3 4 5 6 
#
# 1 0.012071 -0.003369 -0.002491 -0.001329 -0.001262 -0.000664
# 2 -0.003369 0.012839 -0.002877 -0.000632 -0.002869 0.006867
# 3 -0.002491 -0.002877 0.007977 -0.001616 -0.001985 0.000677
# 4 -0.001329 -0.000632 -0.001616 0.022979 0.004857 -0.002416
# 5 -0.001262 -0.002869 -0.001985 0.004857 0.027386 -0.002027
# 6 -0.000664 0.006867 0.000677 -0.002416 -0.002027 0.036731
#
#
# Mechanical properties :
#
#
# Convention : Reuss Voigt Hill
#
# Bulk Modulus (GPa) = 64.88916 83.34159 74.11537
# Shear Modulus (GPa) = 35.06442 39.49383 37.27913
#
# Velocity S-wave (km/s) = 4.07492 4.32464 4.20164
# Velocity P-wave (km/s) = 7.27108 8.02518 7.65742
#
# Compressibility (1/GPa) = 0.01541089
#
# Stress axis : x y z
#
# Youngs Moduli (GPa) = 82.84487 77.88765 125.36237
#
# Poissons Ratio (x) = 0.26241 0.31234
# Poissons Ratio (y) = 0.27911 0.36070
# Poissons Ratio (z) = 0.20641 0.22411
#
# Static dielectric constant tensor:
#      x y z
#    x 1.889540 -0.089810 0.029700 
#    y -0.089810 1.884070 -0.063450 
#    z 0.029700 -0.063450 1.759710 
# 
# From -- ./inp_files/158299.got.cif
#   From: 2010.05.17/outbox.cif.g08.bks.cpg/sg2_80_cif.got.tgz:158299.got - 2010.06.03 11:33:40.
