data_PCOD9037844
_publ_section_title
;
Structure prediction by ZEFSAII (Michael W. Deem and Ramdas Pophale) SiO2 
 PCOD9037844
Probable space group: P -1
;
_chemical_formula_sum "Si O2"
_cell_formula_units_Z 16
_cell_length_a 12.378850
_cell_length_b 10.764569
_cell_length_c 10.547835
_cell_angle_alpha 96.237631
_cell_angle_beta 133.260065
_cell_angle_gamma 118.566382
_cell_volume 657.271656
_symmetry_space_group_name_H-M "P -1"
_symmetry_group_IT_number 2
_symmetry_cell_setting 'triclinic'
loop_
_space_group_symop_operation_xyz
x,y,z
-x,-y,-z
loop_
_atom_site_type_symbol
_atom_site_label
_atom_site_fract_x
_atom_site_fract_y
_atom_site_fract_z
Si Si1 0.244846 0.112703 0.658052
Si Si2 0.902928 0.386478 0.043933
Si Si3 0.734521 0.495384 0.100946
Si Si4 0.796045 0.201631 0.349728
Si Si5 0.258236 0.326800 0.104057
Si Si6 0.304599 0.485933 0.403684
Si Si7 0.672507 0.033824 0.961326
Si Si8 0.056580 0.080165 0.247639
O O1 0.224012 0.144199 0.500784
O O2 0.258949 0.974057 0.666768
O O3 0.476899 0.318343 0.925619
O O4 0.000000 0.000000 0.500000
O O5 0.781321 0.415157 0.029050
O O6 0.740412 0.157542 0.903388
O O7 0.135965 0.486169 0.307367
O O8 0.000000 0.500000 0.000000
O O9 0.938593 0.611088 0.378994
O O10 0.749925 0.630256 0.042116
O O11 0.754317 0.171551 0.162472
O O12 0.598734 0.156355 0.253862
O O13 0.307128 0.476681 0.251986
O O14 0.463142 0.366757 0.315464
O O15 0.025278 0.097412 0.908365
O O16 0.191844 0.278144 0.313076
O O17 0.823765 0.005246 0.092404
#
# Coordination Sequence:
#
# PCOD9037844 Si02
#       8
#     2   2   2   2   2   2   2   2
#     4  12  24  45  66  98 138 176 225 292 340 409
#     4  11  23  44  70  98 141 183 228 282 342 410
#     4  12  25  43  71 103 133 185 234 277 353 413
#     4  11  24  46  69 100 141 182 230 284 345 414
#     4  11  22  40  67  98 134 179 222 278 342 402
#     4  10  23  41  63  97 139 175 226 280 328 407
#     4  10  24  46  67 100 144 181 227 288 342 408
#     4  11  22  41  66  95 134 176 226 273 342 402
#
# _framework density 24.343053999999999
#
# number of rings (size 3 to 8) (size 9 to 14) (size 15 to 20)
#    0.000    1.000    6.250    0.375    1.750    1.000 
#    4.500    0.625    0.000    0.000    0.000    0.000 
#    0.000    0.000    0.000    0.000    0.000    0.000 
#
# Total GULP energy -89321.598414 kJ/mol
# GULP energy per Si atom -5582.599901 kJ/mol
# Density = 2.428765 g / cm^3
# Si number density = 24.343054 Si / 1000 Ang^3
#
#
#
# Elastic Constant Matrix: (Units=GPa)
#
#
# Indices 1 2 3 4 5 6 
#
# 1 63.1681 17.7132 25.0977 -3.6510 14.6531 5.9624
# 2 17.7132 82.5019 25.7498 -11.0016 5.0039 7.2461
# 3 25.0977 25.7498 164.3668 15.1805 19.8372 11.0052
# 4 -3.6510 -11.0016 15.1805 38.6834 -6.5293 7.0651
# 5 14.6531 5.0039 19.8372 -6.5293 32.0750 1.0754
# 6 5.9624 7.2461 11.0052 7.0651 1.0754 26.5403
#
#
#
# Elastic Compliance Matrix: (Units=1/GPa)
#
#
# Indices 1 2 3 4 5 6 
#
# 1 0.019205 -0.002842 -0.001524 0.000927 -0.007103 -0.002866
# 2 -0.002842 0.014464 -0.002316 0.005779 0.001783 -0.003961
# 3 -0.001524 -0.002316 0.007699 -0.004442 -0.004580 -0.000850
# 4 0.000927 0.005779 -0.004442 0.032351 0.008306 -0.008893
# 5 -0.007103 0.001783 -0.004580 0.008306 0.038693 -0.000771
# 6 -0.002866 -0.003961 -0.000850 -0.008893 -0.000771 0.042155
#
#
# Mechanical properties :
#
#
# Convention : Reuss Voigt Hill
#
# Bulk Modulus (GPa) = 35.70665 49.68426 42.69546
# Shear Modulus (GPa) = 28.20650 35.55814 31.88232
#
# Velocity S-wave (km/s) = 3.40767 3.82607 3.62292
# Velocity P-wave (km/s) = 5.49390 6.32240 5.92266
#
# Compressibility (1/GPa) = 0.02800598
#
# Stress axis : x y z
#
# Youngs Moduli (GPa) = 52.07042 69.13666 129.88210
#
# Poissons Ratio (x) = 0.19646 0.19791
# Poissons Ratio (y) = 0.14796 0.30077
# Poissons Ratio (z) = 0.07934 0.16010
#
# Static dielectric constant tensor:
#      x y z
#    x 2.032620 0.063840 -0.012560 
#    y 0.063840 1.979680 0.008070 
#    z -0.012560 0.008070 1.936100 
# 
# From -- ./inp_files/452416.got.cif
#   From: 2010.05.17/outbox.cif.g08.bks.cpg/sg2_227_cif.got.tgz:452416.got - 2010.06.03 11:33:40.
