data_PCOD9037125
_publ_section_title
;
Structure prediction by ZEFSAII (Michael W. Deem and Ramdas Pophale) SiO2 
 PCOD9037125
Probable space group: P -1
;
_chemical_formula_sum "Si O2"
_cell_formula_units_Z 16
_cell_length_a 25.636909
_cell_length_b 28.206741
_cell_length_c 16.712215
_cell_angle_alpha 21.828339
_cell_angle_beta 157.709141
_cell_angle_gamma 169.849203
_cell_volume 779.661001
_symmetry_space_group_name_H-M "P -1"
_symmetry_group_IT_number 2
_symmetry_cell_setting 'triclinic'
loop_
_space_group_symop_operation_xyz
x,y,z
-x,-y,-z
loop_
_atom_site_type_symbol
_atom_site_label
_atom_site_fract_x
_atom_site_fract_y
_atom_site_fract_z
Si Si1 0.891567 0.135235 0.956528
Si Si2 0.148348 0.603134 0.311777
Si Si3 0.857495 0.304353 0.531754
Si Si4 0.124176 0.155903 0.845943
Si Si5 0.460434 0.852099 0.922780
Si Si6 0.632298 0.703192 0.439331
Si Si7 0.540842 0.633966 0.158107
Si Si8 0.513874 0.381459 0.260900
O O1 0.193459 0.388128 0.040479
O O2 0.735780 0.874004 0.122344
O O3 0.966185 0.253300 0.790016
O O4 0.641719 0.006381 0.853707
O O5 0.294977 0.583119 0.549304
O O6 0.971870 0.454994 0.376773
O O7 0.891365 0.413634 0.177371
O O8 0.391504 0.917304 0.172204
O O9 0.000000 0.500000 0.500000
O O10 0.500000 0.000000 0.500000
O O11 0.313775 0.229271 0.937594
O O12 0.340397 0.448925 0.716937
O O13 0.825952 0.945027 0.705425
O O14 0.000000 0.000000 0.000000
O O15 0.530655 0.765333 0.185461
O O16 0.500000 0.500000 0.500000
O O17 0.493548 0.534695 0.589159
O O18 0.000000 0.000000 0.500000
O O19 0.500000 0.500000 0.000000
#
# Coordination Sequence:
#
# PCOD9037125 Si02
#       8
#     2   2   2   2   2   2   2   2
#     4  12  23  37  60  93 133 168 202 249 313 395
#     4  12  24  40  62  87 128 173 203 263 322 368
#     4  12  23  35  53  87 129 167 199 236 308 401
#     4  10  23  40  61  91 122 160 214 270 319 369
#     4  12  23  41  61  93 132 167 213 244 318 391
#     4  12  23  40  66  96 131 171 212 259 307 377
#     4  12  24  40  65  93 129 170 202 270 319 354
#     4  10  23  43  62  88 118 160 219 269 310 371
#
# _framework density 20.521740000000001
#
# number of rings (size 3 to 8) (size 9 to 14) (size 15 to 20)
#    0.000    0.500    5.000    3.750    7.000    0.000 
#    0.000    0.000    0.000    4.500    0.000    0.000 
#    0.000    0.000    0.000    0.000    0.000    0.000 
#
# Total GULP energy -89146.786474 kJ/mol
# GULP energy per Si atom -5571.674155 kJ/mol
# Density = 2.047503 g / cm^3
# Si number density = 20.521740 Si / 1000 Ang^3
#
#
#
# Elastic Constant Matrix: (Units=GPa)
#
#
# Indices 1 2 3 4 5 6 
#
# 1 47.0336 28.6619 3.0863 -4.0634 17.9464 -11.3691
# 2 28.6619 141.7115 34.4162 21.0818 16.1196 -36.0433
# 3 3.0863 34.4162 126.3206 2.0977 6.4318 -9.6350
# 4 -4.0634 21.0818 2.0977 29.3192 4.5896 -0.5941
# 5 17.9464 16.1196 6.4318 4.5896 33.7463 -8.9972
# 6 -11.3691 -36.0433 -9.6350 -0.5941 -8.9972 29.5345
#
#
#
# Elastic Compliance Matrix: (Units=1/GPa)
#
#
# Indices 1 2 3 4 5 6 
#
# 1 0.032463 -0.006942 0.001709 0.011856 -0.015891 -0.000021
# 2 -0.006942 0.014014 -0.002521 -0.011004 0.002769 0.014230
# 3 0.001709 -0.002521 0.008610 0.001682 -0.001590 -0.000061
# 4 0.011856 -0.011004 0.001682 0.044940 -0.010293 -0.010548
# 5 -0.015891 0.002769 -0.001590 -0.010293 0.040859 0.008983
# 6 -0.000021 0.014230 -0.000061 -0.010548 0.008983 0.053721
#
#
# Mechanical properties :
#
#
# Convention : Reuss Voigt Hill
#
# Bulk Modulus (GPa) = 25.26686 49.71051 37.48869
# Shear Modulus (GPa) = 22.39046 35.11341 28.75194
#
# Velocity S-wave (km/s) = 3.30670 4.14095 3.74712
# Velocity P-wave (km/s) = 5.18826 6.86580 6.08512
#
# Compressibility (1/GPa) = 0.03957753
#
# Stress axis : x y z
#
# Youngs Moduli (GPa) = 30.80471 71.35511 116.14423
#
# Poissons Ratio (x) = 0.49536 -0.19848
# Poissons Ratio (y) = 0.21385 0.29286
# Poissons Ratio (z) = -0.05264 0.17992
#
# Static dielectric constant tensor:
#      x y z
#    x 1.749030 0.000450 -0.005300 
#    y 0.000450 1.750560 -0.005850 
#    z -0.005300 -0.005850 1.854810 
# 
# From -- ./inp_files/81204.got.cif
#   From: 2010.05.17/outbox.cif.g08.bks.cpg/sg2_41_cif.got.tgz:81204.got - 2010.06.03 11:33:40.
