data_PCOD9037937
_publ_section_title
;
Structure prediction by ZEFSAII (Michael W. Deem and Ramdas Pophale) SiO2 
 PCOD9037937
Probable space group: P -1
;
_chemical_formula_sum "Si O2"
_cell_formula_units_Z 14
_cell_length_a 17.733643
_cell_length_b 11.127647
_cell_length_c 13.621301
_cell_angle_alpha 135.402570
_cell_angle_beta 19.986163
_cell_angle_gamma 138.369684
_cell_volume 609.777240
_symmetry_space_group_name_H-M "P -1"
_symmetry_group_IT_number 2
_symmetry_cell_setting 'triclinic'
loop_
_space_group_symop_operation_xyz
x,y,z
-x,-y,-z
loop_
_atom_site_type_symbol
_atom_site_label
_atom_site_fract_x
_atom_site_fract_y
_atom_site_fract_z
Si Si1 0.906630 0.800911 0.448347
Si Si2 0.577905 0.694451 0.965128
Si Si3 0.917960 0.340420 0.428782
Si Si4 0.271762 0.143283 0.930979
Si Si5 0.260364 0.734312 0.694074
Si Si6 0.874896 0.467771 0.902442
Si Si7 0.616610 0.550882 0.496756
O O1 0.810551 0.730039 0.414094
O O2 0.105705 0.714116 0.181473
O O3 0.689332 0.698780 0.726000
O O4 0.000000 0.000000 0.500000
O O5 0.352516 0.760465 0.277316
O O6 0.753256 0.817836 0.901242
O O7 0.500000 0.500000 0.000000
O O8 0.000000 0.500000 0.500000
O O9 0.950678 0.451126 0.352790
O O10 0.075204 0.209749 0.158221
O O11 0.526909 0.250404 0.634577
O O12 0.256745 0.936371 0.823676
O O13 0.317868 0.623073 0.648974
O O14 0.994843 0.619042 0.924294
O O15 0.623427 0.447306 0.157908
O O16 0.500000 0.500000 0.500000
#
# Coordination Sequence:
#
# PCOD9037937 Si02
#       7
#     2   2   2   2   2   2   2
#     4  11  26  46  71 102 145 185 237 294 353 423
#     4  12  21  40  68 103 134 178 230 289 358 416
#     4  12  21  35  67 100 133 176 222 286 358 415
#     4  11  22  38  65 102 141 174 229 298 356 419
#     4  10  23  41  64  99 140 183 232 293 355 418
#     4  11  22  42  68  96 137 183 232 288 352 417
#     4  11  25  46  71  95 137 193 242 285 351 431
#
# _framework density 22.959202999999999
#
# number of rings (size 3 to 8) (size 9 to 14) (size 15 to 20)
#    0.000    0.857    5.714    1.714    0.000    6.857 
#    0.000    1.429    0.000    0.000    0.000    0.000 
#    0.000    0.000    0.000    0.000    0.000    0.000 
#
# Total GULP energy -78014.574399 kJ/mol
# GULP energy per Si atom -5572.469600 kJ/mol
# Density = 2.290695 g / cm^3
# Si number density = 22.959203 Si / 1000 Ang^3
#
#
#
# Elastic Constant Matrix: (Units=GPa)
#
#
# Indices 1 2 3 4 5 6 
#
# 1 126.9372 45.5827 11.3315 7.6875 -9.7376 16.3298
# 2 45.5827 137.6362 23.2288 25.6338 -21.8966 13.8960
# 3 11.3315 23.2288 90.7516 7.7564 -26.3176 1.5618
# 4 7.6875 25.6338 7.7564 30.4557 3.1824 4.9297
# 5 -9.7376 -21.8966 -26.3176 3.1824 42.8969 -0.4479
# 6 16.3298 13.8960 1.5618 4.9297 -0.4479 10.0137
#
#
#
# Elastic Compliance Matrix: (Units=1/GPa)
#
#
# Indices 1 2 3 4 5 6 
#
# 1 0.010557 -0.002065 -0.000427 0.001525 0.000811 -0.014998
# 2 -0.002065 0.011196 -0.000120 -0.008195 0.005699 -0.007862
# 3 -0.000427 -0.000120 0.014012 -0.004485 0.008784 0.001277
# 4 0.001525 -0.008195 -0.004485 0.043516 -0.009945 -0.012283
# 5 0.000811 0.005699 0.008784 -0.009945 0.032487 -0.004252
# 6 -0.014998 -0.007862 0.001277 -0.012283 -0.004252 0.140888
#
#
# Mechanical properties :
#
#
# Convention : Reuss Voigt Hill
#
# Bulk Modulus (GPa) = 32.74178 57.29012 45.01595
# Shear Modulus (GPa) = 18.65258 35.01873 26.83565
#
# Velocity S-wave (km/s) = 2.85340 3.90969 3.42254
# Velocity P-wave (km/s) = 5.01474 6.73707 5.93868
#
# Compressibility (1/GPa) = 0.03054201
#
# Stress axis : x y z
#
# Youngs Moduli (GPa) = 94.72613 89.31612 71.36861
#
# Poissons Ratio (x) = 0.18444 0.03045
# Poissons Ratio (y) = 0.19561 0.00854
# Poissons Ratio (z) = 0.04042 0.01069
#
# Static dielectric constant tensor:
#      x y z
#    x 1.956570 -0.015840 -0.011820 
#    y -0.015840 1.952270 -0.033980 
#    z -0.011820 -0.033980 1.921200 
# 
# From -- ./inp_files/538305.got.cif
#   From: 2010.05.17/outbox.cif.g08.bks.cpg/sg2_270_cif.got.tgz:538305.got - 2010.06.03 11:33:40.
