data_PCOD9037063
_publ_section_title
;
Structure prediction by ZEFSAII (Michael W. Deem and Ramdas Pophale) SiO2 
 PCOD9037063
Probable space group: P -1
;
_chemical_formula_sum "Si O2"
_cell_formula_units_Z 14
_cell_length_a 10.866810
_cell_length_b 11.427245
_cell_length_c 5.431285
_cell_angle_alpha 108.691475
_cell_angle_beta 63.773390
_cell_angle_gamma 85.341638
_cell_volume 553.045571
_symmetry_space_group_name_H-M "P -1"
_symmetry_group_IT_number 2
_symmetry_cell_setting 'triclinic'
loop_
_space_group_symop_operation_xyz
x,y,z
-x,-y,-z
loop_
_atom_site_type_symbol
_atom_site_label
_atom_site_fract_x
_atom_site_fract_y
_atom_site_fract_z
Si Si1 0.600847 0.912390 0.654174
Si Si2 0.871374 0.463517 0.298692
Si Si3 0.666798 0.108579 0.416990
Si Si4 0.918569 0.980688 0.807987
Si Si5 0.120444 0.295858 0.234087
Si Si6 0.404899 0.610997 0.321168
Si Si7 0.681187 0.652022 0.289067
O O1 0.490078 0.888332 0.533340
O O2 0.679015 0.767452 0.560600
O O3 0.702817 0.990805 0.496580
O O4 0.500000 0.000000 0.000000
O O5 0.909582 0.585980 0.470957
O O6 0.732313 0.433256 0.515392
O O7 0.803572 0.521394 0.138393
O O8 0.000735 0.341060 0.153258
O O9 0.656291 0.245997 0.635984
O O10 0.767086 0.080874 0.069970
O O11 0.893988 0.838833 0.743097
O O12 0.000000 0.000000 0.500000
O O13 0.000000 0.000000 0.000000
O O14 0.269472 0.294151 0.970458
O O15 0.525216 0.627861 0.421203
O O16 0.500000 0.500000 0.000000
#
# Coordination Sequence:
#
# PCOD9037063 Si02
#       7
#     2   2   2   2   2   2   2
#     4  10  23  39  72 105 140 188 244 317 379 456
#     4  11  25  44  69 102 145 196 252 305 376 457
#     4  10  24  44  67 106 145 191 252 310 389 453
#     4  12  29  51  79 112 154 202 257 325 392 462
#     4  11  25  47  71 105 144 199 246 318 377 457
#     4  11  23  45  68 104 149 197 247 318 381 460
#     4  11  23  43  75 103 144 196 256 305 389 452
#
# _framework density 25.314368999999999
#
# number of rings (size 3 to 8) (size 9 to 14) (size 15 to 20)
#    0.000    1.143    2.857    1.714    8.000    0.000 
#    5.143    0.000    0.000    0.000    0.000    0.000 
#    0.000    0.000    0.000    0.000    0.000    0.000 
#
# Total GULP energy -78198.304946 kJ/mol
# GULP energy per Si atom -5585.593210 kJ/mol
# Density = 2.525675 g / cm^3
# Si number density = 25.314369 Si / 1000 Ang^3
#
#
#
# Elastic Constant Matrix: (Units=GPa)
#
#
# Indices 1 2 3 4 5 6 
#
# 1 80.6767 23.6596 7.4724 -6.6656 -14.6509 10.5818
# 2 23.6596 168.1776 52.0425 8.0182 -0.8997 21.1487
# 3 7.4724 52.0425 120.2460 -6.5833 -27.1297 9.3482
# 4 -6.6656 8.0182 -6.5833 45.2104 3.8705 -8.3384
# 5 -14.6509 -0.8997 -27.1297 3.8705 39.8545 5.9021
# 6 10.5818 21.1487 9.3482 -8.3384 5.9021 42.4622
#
#
#
# Elastic Compliance Matrix: (Units=1/GPa)
#
#
# Indices 1 2 3 4 5 6 
#
# 1 0.014797 -0.002296 0.002070 0.001595 0.007188 -0.003685
# 2 -0.002296 0.007885 -0.003790 -0.002557 -0.002604 -0.002660
# 3 0.002070 -0.003790 0.012149 0.001546 0.009131 -0.002268
# 4 0.001595 -0.002557 0.001546 0.024183 -0.001582 0.005504
# 5 0.007188 -0.002604 0.009131 -0.001582 0.035185 -0.007706
# 6 -0.003685 -0.002660 -0.002268 0.005504 -0.007706 0.028445
#
#
# Mechanical properties :
#
#
# Convention : Reuss Voigt Hill
#
# Bulk Modulus (GPa) = 37.31725 59.49437 48.40581
# Shear Modulus (GPa) = 35.81366 44.56712 40.19039
#
# Velocity S-wave (km/s) = 3.76541 4.20044 3.98886
# Velocity P-wave (km/s) = 5.80327 6.86135 6.35437
#
# Compressibility (1/GPa) = 0.02679726
#
# Stress axis : x y z
#
# Youngs Moduli (GPa) = 67.57971 126.82927 82.30886
#
# Poissons Ratio (x) = 0.29125 -0.17037
# Poissons Ratio (y) = 0.15519 0.31199
# Poissons Ratio (z) = -0.13988 0.48074
#
# Static dielectric constant tensor:
#      x y z
#    x 2.207980 -0.079190 0.022100 
#    y -0.079190 2.097500 0.003600 
#    z 0.022100 0.003600 1.991670 
# 
# From -- ./inp_files/71575.got.cif
#   From: 2010.05.17/outbox.cif.g08.bks.cpg/sg2_36_cif.got.tgz:71575.got - 2010.06.03 11:33:40.
