data_PCOD9037096
_publ_section_title
;
Structure prediction by ZEFSAII (Michael W. Deem and Ramdas Pophale) SiO2 
 PCOD9037096
Probable space group: P -1
;
_chemical_formula_sum "Si O2"
_cell_formula_units_Z 16
_cell_length_a 13.624581
_cell_length_b 16.361943
_cell_length_c 9.169951
_cell_angle_alpha 102.808260
_cell_angle_beta 66.143284
_cell_angle_gamma 44.432805
_cell_volume 789.932333
_symmetry_space_group_name_H-M "P -1"
_symmetry_group_IT_number 2
_symmetry_cell_setting 'triclinic'
loop_
_space_group_symop_operation_xyz
x,y,z
-x,-y,-z
loop_
_atom_site_type_symbol
_atom_site_label
_atom_site_fract_x
_atom_site_fract_y
_atom_site_fract_z
Si Si1 0.563956 0.609764 0.831996
Si Si2 0.268472 0.447455 0.004738
Si Si3 0.590778 0.560021 0.368262
Si Si4 0.841013 0.567936 0.494376
Si Si5 0.718124 0.807154 0.485313
Si Si6 0.789239 0.102460 0.072594
Si Si7 0.186750 0.699929 0.610339
Si Si8 0.725752 0.754360 0.118514
O O1 0.685485 0.605601 0.681125
O O2 0.312505 0.773409 0.955332
O O3 0.743001 0.406127 0.610835
O O4 0.547203 0.642238 0.023751
O O5 0.281430 0.489476 0.865172
O O6 0.324164 0.309919 0.893756
O O7 0.986601 0.651858 0.312442
O O8 0.439688 0.738343 0.615606
O O9 0.388478 0.632718 0.471586
O O10 0.767519 0.389396 0.309584
O O11 0.675961 0.754883 0.588355
O O12 0.000000 0.500000 0.500000
O O13 0.032101 0.400634 0.188844
O O14 0.757514 0.752258 0.270344
O O15 0.500785 0.027849 0.711096
O O16 0.000000 0.000000 0.000000
O O17 0.915468 0.929909 0.870493
#
# Coordination Sequence:
#
# PCOD9037096 Si02
#       8
#     2   2   2   2   2   2   2   2
#     4  11  23  37  61  88 120 161 194 237 301 349
#     4  11  22  40  57  88 125 155 193 246 299 347
#     4   9  20  38  64  83 115 153 192 250 296 344
#     4  11  21  41  59  87 127 159 188 245 293 350
#     4  10  23  40  61  86 121 158 200 244 288 348
#     4   9  20  40  61  84 115 149 199 249 285 346
#     4   9  20  39  59  88 112 149 203 240 291 357
#     4  10  23  40  60  86 121 157 203 240 289 353
#
# _framework density 20.254901
#
# number of rings (size 3 to 8) (size 9 to 14) (size 15 to 20)
#    0.000    2.000    2.500    2.250    7.000    4.000 
#    0.000    2.500    0.000    0.000    0.000    0.000 
#    0.000    0.000    0.000    0.000    0.000    0.000 
#
# Total GULP energy -89300.911897 kJ/mol
# GULP energy per Si atom -5581.306994 kJ/mol
# Density = 2.020880 g / cm^3
# Si number density = 20.254901 Si / 1000 Ang^3
#
#
#
# Elastic Constant Matrix: (Units=GPa)
#
#
# Indices 1 2 3 4 5 6 
#
# 1 56.9208 11.9673 -0.9631 6.6568 11.8386 -6.3608
# 2 11.9673 71.9543 32.1051 20.3915 10.5644 8.8587
# 3 -0.9631 32.1051 47.2634 15.7903 11.9570 14.1614
# 4 6.6568 20.3915 15.7903 33.5979 4.8810 4.5968
# 5 11.8386 10.5644 11.9570 4.8810 17.9331 0.2106
# 6 -6.3608 8.8587 14.1614 4.5968 0.2106 34.5088
#
#
#
# Elastic Compliance Matrix: (Units=1/GPa)
#
#
# Indices 1 2 3 4 5 6 
#
# 1 0.022838 -0.004175 0.008063 -0.003657 -0.017028 0.002564
# 2 -0.004175 0.022251 -0.012931 -0.006568 0.000061 -0.000301
# 3 0.008063 -0.012931 0.042305 -0.008691 -0.023415 -0.011255
# 4 -0.003657 -0.006568 -0.008691 0.038397 0.001634 -0.000546
# 5 -0.017028 0.000061 -0.023415 0.001634 0.082068 0.005736
# 6 0.002564 -0.000301 -0.011255 -0.000546 0.005736 0.034184
#
#
# Mechanical properties :
#
#
# Convention : Reuss Voigt Hill
#
# Bulk Modulus (GPa) = 14.42815 29.15078 21.78946
# Shear Modulus (GPa) = 17.65335 26.07656 21.86496
#
# Velocity S-wave (km/s) = 2.95542 3.59196 3.28912
# Velocity P-wave (km/s) = 4.33414 5.62371 5.02050
#
# Compressibility (1/GPa) = 0.06930896
#
# Stress axis : x y z
#
# Youngs Moduli (GPa) = 43.78619 44.94155 23.63766
#
# Poissons Ratio (x) = 0.18764 -0.19059
# Poissons Ratio (y) = 0.18281 0.30565
# Poissons Ratio (z) = -0.35305 0.58113
#
# Static dielectric constant tensor:
#      x y z
#    x 1.778990 -0.029000 -0.000680 
#    y -0.029000 1.717860 0.012600 
#    z -0.000680 0.012600 1.710330 
# 
# From -- ./inp_files/313286.got.cif
#   From: 2010.05.17/outbox.cif.g08.bks.cpg/sg2_157_cif.got.tgz:313286.got - 2010.06.03 11:33:40.
