data_PCOD9037014
_publ_section_title
;
Structure prediction by ZEFSAII (Michael W. Deem and Ramdas Pophale) SiO2 
 PCOD9037014
Probable space group: P -1
;
_chemical_formula_sum "Si O2"
_cell_formula_units_Z 12
_cell_length_a 11.977013
_cell_length_b 7.634710
_cell_length_c 7.315019
_cell_angle_alpha 99.497957
_cell_angle_beta 87.142660
_cell_angle_gamma 41.491886
_cell_volume 421.395943
_symmetry_space_group_name_H-M "P -1"
_symmetry_group_IT_number 2
_symmetry_cell_setting 'triclinic'
loop_
_space_group_symop_operation_xyz
x,y,z
-x,-y,-z
loop_
_atom_site_type_symbol
_atom_site_label
_atom_site_fract_x
_atom_site_fract_y
_atom_site_fract_z
Si Si1 0.025657 0.734057 0.195071
Si Si2 0.627910 0.594607 0.748018
Si Si3 0.747960 0.859288 0.083724
Si Si4 0.728961 0.599279 0.350445
Si Si5 0.074386 0.213898 0.395988
Si Si6 0.542094 0.340101 0.785826
O O1 0.200849 0.638564 0.178056
O O2 0.856222 0.909321 0.111906
O O3 0.940828 0.864107 0.422183
O O4 0.131857 0.418244 0.093710
O O5 0.673220 0.659057 0.578413
O O6 0.573043 0.466362 0.666462
O O7 0.454049 0.880063 0.908882
O O8 0.730700 0.782873 0.272162
O O9 0.603626 0.617852 0.259798
O O10 0.932931 0.297067 0.287700
O O11 0.000000 0.500000 0.500000
O O12 0.269659 0.982188 0.270948
O O13 0.500000 0.500000 0.000000
#
# Coordination Sequence:
#
# PCOD9037014 Si02
#       6
#     2   2   2   2   2   2
#     4  10  23  39  68  99 135 173 229 274 336 396
#     4  11  25  42  66 100 139 179 221 283 339 404
#     4  11  22  39  70 102 133 177 229 278 333 402
#     4  11  25  43  73 100 139 184 227 278 342 408
#     4  11  25  45  71  99 134 181 230 277 337 405
#     4  12  29  46  69 102 142 180 226 283 348 401
#
# _framework density 28.476780000000002
#
# number of rings (size 3 to 8) (size 9 to 14) (size 15 to 20)
#    0.000    1.000    1.667    3.500    7.000    4.667 
#    0.000    0.000    0.000    0.000    0.000    0.000 
#    0.000    0.000    0.000    0.000    0.000    0.000 
#
# Total GULP energy -67172.078982 kJ/mol
# GULP energy per Si atom -5597.673249 kJ/mol
# Density = 2.841197 g / cm^3
# Si number density = 28.476780 Si / 1000 Ang^3
#
#
#
# Elastic Constant Matrix: (Units=GPa)
#
#
# Indices 1 2 3 4 5 6 
#
# 1 192.3142 58.8595 60.3519 -2.0526 4.9252 -71.1316
# 2 58.8595 100.4377 55.8526 28.6035 1.8924 -37.7568
# 3 60.3519 55.8526 123.0398 31.8192 -36.7905 -31.4619
# 4 -2.0526 28.6035 31.8192 43.1566 -7.3272 -12.6412
# 5 4.9252 1.8924 -36.7905 -7.3272 49.0728 -8.8814
# 6 -71.1316 -37.7568 -31.4619 -12.6412 -8.8814 67.6081
#
#
#
# Elastic Compliance Matrix: (Units=1/GPa)
#
#
# Indices 1 2 3 4 5 6 
#
# 1 0.010923 -0.002875 -0.004076 0.007964 -0.001164 0.009326
# 2 -0.002875 0.018117 -0.005846 -0.008174 -0.005633 0.002104
# 3 -0.004076 -0.005846 0.019683 -0.007742 0.014611 0.002079
# 4 0.007964 -0.008174 -0.007742 0.036864 0.000514 0.007172
# 5 -0.001164 -0.005633 0.014611 0.000514 0.032984 0.006858
# 6 0.009326 0.002104 0.002079 0.007172 0.006858 0.028988
#
#
# Mechanical properties :
#
#
# Convention : Reuss Voigt Hill
#
# Bulk Modulus (GPa) = 43.23473 85.10217 64.16845
# Shear Modulus (GPa) = 27.64517 48.01601 37.83059
#
# Velocity S-wave (km/s) = 3.11914 4.11073 3.64877
# Velocity P-wave (km/s) = 5.30919 7.24433 6.35090
#
# Compressibility (1/GPa) = 0.02312955
#
# Stress axis : x y z
#
# Youngs Moduli (GPa) = 91.54847 55.19554 50.80541
#
# Poissons Ratio (x) = 0.15869 0.20706
# Poissons Ratio (y) = 0.26321 0.29703
# Poissons Ratio (z) = 0.37311 0.32269
#
# Static dielectric constant tensor:
#      x y z
#    x 2.252940 0.061870 -0.030430 
#    y 0.061870 2.323280 -0.085360 
#    z -0.030430 -0.085360 2.186610 
# 
# From -- ./inp_files/157790.got.cif
#   From: 2010.05.17/outbox.cif.g08.bks.cpg/sg2_79_cif.got.tgz:157790.got - 2010.06.03 11:33:40.
