data_PCOD9037241
_publ_section_title
;
Structure prediction by ZEFSAII (Michael W. Deem and Ramdas Pophale) SiO2 
 PCOD9037241
Probable space group: P -1
;
_chemical_formula_sum "Si O2"
_cell_formula_units_Z 14
_cell_length_a 14.505326
_cell_length_b 5.637065
_cell_length_c 11.595824
_cell_angle_alpha 102.062100
_cell_angle_beta 84.837340
_cell_angle_gamma 133.683799
_cell_volume 668.552968
_symmetry_space_group_name_H-M "P -1"
_symmetry_group_IT_number 2
_symmetry_cell_setting 'triclinic'
loop_
_space_group_symop_operation_xyz
x,y,z
-x,-y,-z
loop_
_atom_site_type_symbol
_atom_site_label
_atom_site_fract_x
_atom_site_fract_y
_atom_site_fract_z
Si Si1 0.731595 0.803292 0.765508
Si Si2 0.146850 0.325634 0.431587
Si Si3 0.762435 0.227973 0.318538
Si Si4 0.953929 0.385150 0.659123
Si Si5 0.601132 0.224950 0.179077
Si Si6 0.474973 0.505607 0.636116
Si Si7 0.392568 0.511611 0.023341
O O1 0.759546 0.601728 0.673886
O O2 0.598839 0.659607 0.712959
O O3 0.714231 0.749098 0.898319
O O4 0.850477 0.188655 0.754352
O O5 0.212366 0.516939 0.563121
O O6 0.083879 0.459244 0.402665
O O7 0.067475 0.930684 0.418961
O O8 0.710170 0.236482 0.205153
O O9 0.896916 0.333586 0.299575
O O10 0.649200 0.865146 0.347309
O O11 0.559015 0.282363 0.305944
O O12 0.472637 0.875063 0.108345
O O13 0.649590 0.490131 0.099806
O O14 0.500000 0.500000 0.500000
O O15 0.500000 0.500000 0.000000
#
# Coordination Sequence:
#
# PCOD9037241 Si02
#       7
#     2   2   2   2   2   2   2
#     4  10  23  40  64 100 130 178 223 282 337 401
#     4  10  24  41  67  98 140 183 225 273 340 414
#     4  12  24  41  64 100 137 181 222 280 340 411
#     4  10  25  42  67  97 142 185 227 268 345 412
#     4  11  25  39  70  97 134 176 228 285 346 400
#     4  12  25  38  66 103 138 167 223 287 345 408
#     4  11  22  45  65  96 133 178 231 281 344 403
#
# _framework density 20.940750000000001
#
# number of rings (size 3 to 8) (size 9 to 14) (size 15 to 20)
#    0.857    0.286    2.857    2.571    8.000    1.143 
#    0.000    0.714    0.000    4.286    0.000    0.000 
#    0.000    0.000    0.000    0.000    0.000    0.000 
#
# Total GULP energy -78120.912279 kJ/mol
# GULP energy per Si atom -5580.065163 kJ/mol
# Density = 2.089309 g / cm^3
# Si number density = 20.940750 Si / 1000 Ang^3
#
#
#
# Elastic Constant Matrix: (Units=GPa)
#
#
# Indices 1 2 3 4 5 6 
#
# 1 69.2502 55.0230 -9.1813 9.8134 10.6651 15.5784
# 2 55.0230 99.2120 37.7254 -35.9731 1.7635 17.2457
# 3 -9.1813 37.7254 67.8217 -17.5445 -2.6098 14.5615
# 4 9.8134 -35.9731 -17.5445 29.3951 0.3283 -8.2360
# 5 10.6651 1.7635 -2.6098 0.3283 32.3205 -0.5526
# 6 15.5784 17.2457 14.5615 -8.2360 -0.5526 37.5177
#
#
#
# Elastic Compliance Matrix: (Units=1/GPa)
#
#
# Indices 1 2 3 4 5 6 
#
# 1 -0.031245 0.040549 -0.015085 0.054403 0.006536 0.012229
# 2 0.040549 -0.032520 0.014251 -0.049904 -0.010265 -0.018526
# 3 -0.015085 0.014251 0.012461 0.030308 0.004926 0.001602
# 4 0.054403 -0.049904 0.030308 -0.032215 -0.012774 -0.018673
# 5 0.006536 -0.010265 0.004926 -0.012774 0.029832 -0.002272
# 6 0.012229 -0.018526 0.001602 -0.018673 -0.002272 0.025338
#
#
# Mechanical properties :
#
#
# Convention : Reuss Voigt Hill
#
# Bulk Modulus (GPa) = 35.55501 44.82423 40.18962
# Shear Modulus (GPa) = -50.81142 30.02777 -10.39182
#
# Velocity S-wave (km/s) = -4.93123 3.79085 -2.23008
# Velocity P-wave (km/s) = 3.92518 6.37279 3.55003
#
# Compressibility (1/GPa) = 0.02812543
#
# Stress axis : x y z
#
# Youngs Moduli (GPa) = -32.00533 -30.75041 80.25079
#
# Poissons Ratio (x) = 1.24689 1.21061
# Poissons Ratio (y) = 1.29777 -1.14368
# Poissons Ratio (z) = -0.48281 0.43823
#
# Static dielectric constant tensor:
#      x y z
#    x 1.776320 -0.013790 -0.036890 
#    y -0.013790 1.836230 -0.000890 
#    z -0.036890 -0.000890 1.765870 
# 
# From -- ./inp_files/440621.got.cif
#   From: 2010.05.17/outbox.cif.g08.bks.cpg/sg2_221_cif.got.tgz:440621.got - 2010.06.03 11:33:40.
