data_PCOD9037186
_publ_section_title
;
Structure prediction by ZEFSAII (Michael W. Deem and Ramdas Pophale) SiO2 
 PCOD9037186
Probable space group: P -1
;
_chemical_formula_sum "Si O2"
_cell_formula_units_Z 16
_cell_length_a 20.557754
_cell_length_b 19.271369
_cell_length_c 7.141958
_cell_angle_alpha 47.019207
_cell_angle_beta 44.731660
_cell_angle_gamma 20.775343
_cell_volume 704.595497
_symmetry_space_group_name_H-M "P -1"
_symmetry_group_IT_number 2
_symmetry_cell_setting 'triclinic'
loop_
_space_group_symop_operation_xyz
x,y,z
-x,-y,-z
loop_
_atom_site_type_symbol
_atom_site_label
_atom_site_fract_x
_atom_site_fract_y
_atom_site_fract_z
Si Si1 0.008857 0.786282 0.107776
Si Si2 0.551577 0.729107 0.594543
Si Si3 0.213216 0.135077 0.344057
Si Si4 0.310686 0.544721 0.442849
Si Si5 0.446589 0.380687 0.865164
Si Si6 0.187011 0.856217 0.254619
Si Si7 0.824059 0.624477 0.004931
Si Si8 0.039054 0.266802 0.077876
O O1 0.986929 0.727144 0.422211
O O2 0.917479 0.815085 0.060990
O O3 0.230384 0.610912 0.932608
O O4 0.894692 0.986356 0.997997
O O5 0.600271 0.579365 0.696798
O O6 0.694389 0.676172 0.306919
O O7 0.358559 0.934090 0.513240
O O8 0.546006 0.724291 0.838837
O O9 0.201892 0.139265 0.134137
O O10 0.262310 0.196726 0.201103
O O11 0.437956 0.391441 0.638447
O O12 0.270771 0.691473 0.274241
O O13 0.103933 0.682805 0.637859
O O14 0.634594 0.267823 0.756142
O O15 0.000000 0.000000 0.500000
O O16 0.912498 0.476741 0.937948
O O17 0.000000 0.500000 0.000000
#
# Coordination Sequence:
#
# PCOD9037186 Si02
#       8
#     2   2   2   2   2   2   2   2
#     4  11  23  42  66  91 127 167 208 254 312 367
#     4  11  23  40  62  97 125 163 210 252 313 371
#     4  11  22  40  64  94 126 163 208 258 306 375
#     4  10  23  40  63  88 128 165 203 261 309 359
#     4  11  23  42  64  90 130 164 203 264 304 365
#     4  12  23  42  65  95 123 166 213 254 313 367
#     4   9  19  39  64  87 124 165 203 256 312 365
#     4   9  20  39  62  89 121 165 204 255 310 365
#
# _framework density 22.708064
#
# number of rings (size 3 to 8) (size 9 to 14) (size 15 to 20)
#    0.000    1.500    3.750    3.000    1.750    1.000 
#    0.000    5.000    0.000   11.250    0.000    0.000 
#    0.000    0.000    0.000    0.000    0.000    0.000 
#
# Total GULP energy -89234.065165 kJ/mol
# GULP energy per Si atom -5577.129073 kJ/mol
# Density = 2.265638 g / cm^3
# Si number density = 22.708064 Si / 1000 Ang^3
#
#
#
# Elastic Constant Matrix: (Units=GPa)
#
#
# Indices 1 2 3 4 5 6 
#
# 1 63.3162 17.9592 27.4721 -12.5787 1.1447 7.0681
# 2 17.9592 79.1820 30.3586 -5.9056 -4.5033 -6.5673
# 3 27.4721 30.3586 99.5543 -9.4215 -11.5905 9.6728
# 4 -12.5787 -5.9056 -9.4215 43.0986 -5.2689 -6.7012
# 5 1.1447 -4.5033 -11.5905 -5.2689 35.9397 -5.8917
# 6 7.0681 -6.5673 9.6728 -6.7012 -5.8917 27.7187
#
#
#
# Elastic Compliance Matrix: (Units=1/GPa)
#
#
# Indices 1 2 3 4 5 6 
#
# 1 0.019611 -0.003116 -0.004028 0.003492 -0.002460 -0.004012
# 2 -0.003116 0.015759 -0.004212 0.001646 0.002078 0.006838
# 3 -0.004028 -0.004212 0.013290 0.001008 0.003438 -0.003634
# 4 0.003492 0.001646 0.001008 0.026361 0.005377 0.006664
# 5 -0.002460 0.002078 0.003438 0.005377 0.031353 0.007884
# 6 -0.004012 0.006838 -0.003634 0.006664 0.007884 0.043275
#
#
# Mechanical properties :
#
#
# Convention : Reuss Voigt Hill
#
# Bulk Modulus (GPa) = 38.53933 43.73692 41.13813
# Shear Modulus (GPa) = 27.62284 32.43558 30.02921
#
# Velocity S-wave (km/s) = 3.49152 3.78348 3.64043
# Velocity P-wave (km/s) = 5.76739 6.19586 5.98546
#
# Compressibility (1/GPa) = 0.02594752
#
# Stress axis : x y z
#
# Youngs Moduli (GPa) = 50.99145 63.45562 75.24729
#
# Poissons Ratio (x) = 0.19773 0.30307
# Poissons Ratio (y) = 0.15889 0.31698
# Poissons Ratio (z) = 0.20537 0.26730
#
# Static dielectric constant tensor:
#      x y z
#    x 1.847190 0.013310 -0.026160 
#    y 0.013310 1.957200 0.005090 
#    z -0.026160 0.005090 2.015900 
# 
# From -- ./inp_files/349683.got.cif
#   From: 2010.05.17/outbox.cif.g08.bks.cpg/sg2_175_cif.got.tgz:349683.got - 2010.06.03 11:33:40.
