data_PCOD9037228
_publ_section_title
;
Structure prediction by ZEFSAII (Michael W. Deem and Ramdas Pophale) SiO2 
 PCOD9037228
Probable space group: P -1
;
_chemical_formula_sum "Si O2"
_cell_formula_units_Z 14
_cell_length_a 11.962725
_cell_length_b 14.558444
_cell_length_c 17.950633
_cell_angle_alpha 33.000667
_cell_angle_beta 153.353644
_cell_angle_gamma 150.801152
_cell_volume 659.133793
_symmetry_space_group_name_H-M "P -1"
_symmetry_group_IT_number 2
_symmetry_cell_setting 'triclinic'
loop_
_space_group_symop_operation_xyz
x,y,z
-x,-y,-z
loop_
_atom_site_type_symbol
_atom_site_label
_atom_site_fract_x
_atom_site_fract_y
_atom_site_fract_z
Si Si1 0.389066 0.301336 0.615862
Si Si2 0.771546 0.531693 0.296177
Si Si3 0.635381 0.152764 0.412913
Si Si4 0.710628 0.745775 0.243710
Si Si5 0.233511 0.785265 0.707101
Si Si6 0.328257 0.957138 0.084266
Si Si7 0.152559 0.382409 0.877718
O O1 0.500000 0.500000 0.500000
O O2 0.449643 0.334136 0.718912
O O3 0.531418 0.175397 0.761238
O O4 0.042643 0.186306 0.474037
O O5 0.571195 0.320962 0.284584
O O6 0.618777 0.603557 0.213876
O O7 0.925883 0.662811 0.226304
O O8 0.000000 0.500000 0.500000
O O9 0.563696 0.099322 0.321081
O O10 0.972999 0.219748 0.572774
O O11 0.500000 0.000000 0.500000
O O12 0.724842 0.941337 0.088048
O O13 0.106817 0.556089 0.766349
O O14 0.435818 0.866963 0.843313
O O15 0.036628 0.812791 0.054625
O O16 0.500000 0.500000 0.000000
#
# Coordination Sequence:
#
# PCOD9037228 Si02
#       7
#     2   2   2   2   2   2   2
#     4  11  23  47  70  89 129 177 225 270 318 385
#     4   9  20  37  60  88 130 163 214 251 314 391
#     4   9  20  36  61  91 132 169 208 258 319 394
#     4  10  23  40  63  97 127 168 218 269 325 380
#     4  10  23  42  65  97 124 172 225 259 320 395
#     4  12  25  41  71  94 134 172 216 275 324 377
#     4  11  24  40  63  99 136 167 206 266 334 386
#
# _framework density 21.239998
#
# number of rings (size 3 to 8) (size 9 to 14) (size 15 to 20)
#    0.000    1.714    1.429    2.571    8.000    1.143 
#    0.000    0.714    0.000    0.000    0.000    0.000 
#    0.000    0.000    0.000    0.000    0.000    0.000 
#
# Total GULP energy -77998.389495 kJ/mol
# GULP energy per Si atom -5571.313535 kJ/mol
# Density = 2.119165 g / cm^3
# Si number density = 21.239998 Si / 1000 Ang^3
#
#
#
# Elastic Constant Matrix: (Units=GPa)
#
#
# Indices 1 2 3 4 5 6 
#
# 1 132.3578 43.7465 53.8210 -12.6847 -24.8727 1.2831
# 2 43.7465 48.0823 32.8271 -5.6750 -13.4054 8.9340
# 3 53.8210 32.8271 114.8518 -17.2462 -17.2495 -3.4082
# 4 -12.6847 -5.6750 -17.2462 35.9943 11.9801 -7.2599
# 5 -24.8727 -13.4054 -17.2495 11.9801 41.8004 -5.0537
# 6 1.2831 8.9340 -3.4082 -7.2599 -5.0537 27.7104
#
#
#
# Elastic Compliance Matrix: (Units=1/GPa)
#
#
# Indices 1 2 3 4 5 6 
#
# 1 0.012208 -0.008932 -0.002384 0.001209 0.003428 0.002963
# 2 -0.008932 0.036246 -0.006703 -0.004270 0.003240 -0.012625
# 3 -0.002384 -0.006703 0.012786 0.004997 0.000920 0.005321
# 4 0.001209 -0.004270 0.004997 0.034278 -0.007253 0.009593
# 5 0.003428 0.003240 0.000920 -0.007253 0.029755 0.002436
# 6 0.002963 -0.012625 0.005321 0.009593 0.002436 0.043633
#
#
# Mechanical properties :
#
#
# Convention : Reuss Voigt Hill
#
# Bulk Modulus (GPa) = 39.67901 61.78679 50.73290
# Shear Modulus (GPa) = 23.43634 32.09417 27.76526
#
# Velocity S-wave (km/s) = 3.32536 3.89141 3.61947
# Velocity P-wave (km/s) = 5.78497 7.02451 6.43465
#
# Compressibility (1/GPa) = 0.02520224
#
# Stress axis : x y z
#
# Youngs Moduli (GPa) = 81.91352 27.58921 78.20981
#
# Poissons Ratio (x) = 0.24643 0.18642
# Poissons Ratio (y) = 0.73165 0.52427
# Poissons Ratio (z) = 0.19525 0.18494
#
# Static dielectric constant tensor:
#      x y z
#    x 1.739370 -0.165750 -0.073670 
#    y -0.165750 1.697690 -0.008390 
#    z -0.073670 -0.008390 1.890210 
# 
# From -- ./inp_files/272129.got.cif
#   From: 2010.05.17/outbox.cif.g08.bks.cpg/sg2_137_cif.got.tgz:272129.got - 2010.06.03 11:33:40.
