data_PCOD9037732
_publ_section_title
;
Structure prediction by ZEFSAII (Michael W. Deem and Ramdas Pophale) SiO2 
 PCOD9037732
Probable space group: P -1
;
_chemical_formula_sum "Si O2"
_cell_formula_units_Z 16
_cell_length_a 12.563860
_cell_length_b 9.393620
_cell_length_c 9.246813
_cell_angle_alpha 37.498748
_cell_angle_beta 76.026572
_cell_angle_gamma 74.742604
_cell_volume 639.919368
_symmetry_space_group_name_H-M "P -1"
_symmetry_group_IT_number 2
_symmetry_cell_setting 'triclinic'
loop_
_space_group_symop_operation_xyz
x,y,z
-x,-y,-z
loop_
_atom_site_type_symbol
_atom_site_label
_atom_site_fract_x
_atom_site_fract_y
_atom_site_fract_z
Si Si1 0.438925 0.824553 0.826715
Si Si2 0.411928 0.645264 0.305428
Si Si3 0.890434 0.404307 0.048592
Si Si4 0.734707 0.750246 0.367312
Si Si5 0.954770 0.932544 0.224249
Si Si6 0.337762 0.405213 0.051887
Si Si7 0.101323 0.878235 0.467223
Si Si8 0.285577 0.114136 0.061119
O O1 0.567415 0.797413 0.757833
O O2 0.365647 0.073647 0.671874
O O3 0.442106 0.706775 0.081542
O O4 0.379329 0.651485 0.882167
O O5 0.500000 0.500000 0.500000
O O6 0.306503 0.503331 0.429071
O O7 0.376771 0.889444 0.202463
O O8 0.839849 0.305936 0.291360
O O9 0.922794 0.185940 0.107853
O O10 0.790091 0.573121 0.872581
O O11 0.000000 0.500000 0.000000
O O12 0.849319 0.791778 0.368236
O O13 0.750547 0.833136 0.131428
O O14 0.046089 0.788581 0.413653
O O15 0.000000 0.000000 0.000000
O O16 0.331539 0.330365 0.947790
O O17 0.184700 0.047907 0.243528
O O18 0.000000 0.000000 0.500000
#
# Coordination Sequence:
#
# PCOD9037732 Si02
#       8
#     2   2   2   2   2   2   2   2
#     4  10  24  44  66 102 134 179 227 284 344 412
#     4  11  25  43  68  98 135 179 235 278 343 407
#     4  11  25  42  70 100 139 183 224 281 355 411
#     4  11  23  45  69  96 138 181 228 285 342 405
#     4  11  22  44  68  98 137 179 232 286 338 411
#     4  11  22  44  69  96 142 175 223 286 349 406
#     4  10  23  41  62 100 136 171 230 276 342 416
#     4  11  24  42  68  98 134 177 229 279 339 415
#
# _framework density 25.003152
#
# number of rings (size 3 to 8) (size 9 to 14) (size 15 to 20)
#    0.000    1.250    2.500    3.000    3.500    5.000 
#    0.000    3.125    0.000    0.000    0.000    0.000 
#    0.000    0.000    0.000    0.000    0.000    0.000 
#
# Total GULP energy -89460.825533 kJ/mol
# GULP energy per Si atom -5591.301596 kJ/mol
# Density = 2.494624 g / cm^3
# Si number density = 25.003152 Si / 1000 Ang^3
#
#
#
# Elastic Constant Matrix: (Units=GPa)
#
#
# Indices 1 2 3 4 5 6 
#
# 1 145.0479 51.0880 24.1542 7.9465 -2.9046 6.2311
# 2 51.0880 157.2185 32.4761 2.6467 8.4784 15.0792
# 3 24.1542 32.4761 94.5167 35.0716 -9.6402 -11.0988
# 4 7.9465 2.6467 35.0716 34.6968 -1.5716 1.7547
# 5 -2.9046 8.4784 -9.6402 -1.5716 28.0353 3.8790
# 6 6.2311 15.0792 -11.0988 1.7547 3.8790 33.0342
#
#
#
# Elastic Compliance Matrix: (Units=1/GPa)
#
#
# Indices 1 2 3 4 5 6 
#
# 1 0.007987 -0.002363 -0.001006 -0.000529 0.001290 -0.000889
# 2 -0.002363 0.008888 -0.005513 0.005533 -0.003783 -0.005313
# 3 -0.001006 -0.005513 0.023298 -0.023147 0.006759 0.010970
# 4 -0.000529 0.005533 -0.023147 0.052316 -0.005041 -0.012390
# 5 0.001290 -0.003783 0.006759 -0.005041 0.039067 -0.000565
# 6 -0.000889 -0.005313 0.010970 -0.012390 -0.000565 0.037275
#
#
# Mechanical properties :
#
#
# Convention : Reuss Voigt Hill
#
# Bulk Modulus (GPa) = 44.62360 68.02440 56.32400
# Shear Modulus (GPa) = 25.76489 38.42424 32.09457
#
# Velocity S-wave (km/s) = 3.21357 3.92443 3.58665
# Velocity P-wave (km/s) = 5.62630 6.91377 6.30300
#
# Compressibility (1/GPa) = 0.02240966
#
# Stress axis : x y z
#
# Youngs Moduli (GPa) = 125.20280 112.51634 42.92229
#
# Poissons Ratio (x) = 0.26587 0.04317
# Poissons Ratio (y) = 0.29585 0.23662
# Poissons Ratio (z) = 0.12593 0.62026
#
# Static dielectric constant tensor:
#      x y z
#    x 2.013210 -0.049740 0.011750 
#    y -0.049740 1.948670 -0.034890 
#    z 0.011750 -0.034890 2.001880 
# 
# From -- ./inp_files/241986.got.cif
#   From: 2010.05.17/outbox.cif.g08.bks.cpg/sg2_121_cif.got.tgz:241986.got - 2010.06.03 11:33:40.
