data_PCOD9037113
_publ_section_title
;
Structure prediction by ZEFSAII (Michael W. Deem and Ramdas Pophale) SiO2 
 PCOD9037113
Probable space group: P -1
;
_chemical_formula_sum "Si O2"
_cell_formula_units_Z 14
_cell_length_a 5.242042
_cell_length_b 8.983448
_cell_length_c 14.909257
_cell_angle_alpha 90.207156
_cell_angle_beta 54.719806
_cell_angle_gamma 91.022723
_cell_volume 573.040607
_symmetry_space_group_name_H-M "P -1"
_symmetry_group_IT_number 2
_symmetry_cell_setting 'triclinic'
loop_
_space_group_symop_operation_xyz
x,y,z
-x,-y,-z
loop_
_atom_site_type_symbol
_atom_site_label
_atom_site_fract_x
_atom_site_fract_y
_atom_site_fract_z
Si Si1 0.403875 0.088005 0.927888
Si Si2 0.323672 0.900140 0.774389
Si Si3 0.098654 0.622000 0.052074
Si Si4 0.777216 0.679842 0.902372
Si Si5 0.910832 0.810124 0.246524
Si Si6 0.057873 0.158778 0.438304
Si Si7 0.573786 0.674403 0.479708
O O1 0.726929 0.145047 0.817978
O O2 0.254177 0.977262 0.884900
O O3 0.584890 0.300928 0.051183
O O4 0.500000 0.000000 0.000000
O O5 0.680844 0.855227 0.692465
O O6 0.073723 0.768773 0.802644
O O7 0.271587 0.035966 0.717073
O O8 0.191968 0.497341 0.109227
O O9 0.892780 0.730877 0.152993
O O10 0.000000 0.500000 0.000000
O O11 0.764505 0.763295 0.002802
O O12 0.778724 0.707109 0.350036
O O13 0.224117 0.266934 0.477441
O O14 0.740688 0.229968 0.467261
O O15 0.000000 0.000000 0.500000
O O16 0.500000 0.500000 0.500000
#
# Coordination Sequence:
#
# PCOD9037113 Si02
#       7
#     2   2   2   2   2   2   2
#     4  11  23  40  68 107 147 190 246 310 376 455
#     4  12  25  41  75 107 145 196 256 314 383 448
#     4  10  23  43  65  99 147 193 236 295 371 457
#     4  10  23  40  61 102 141 186 240 292 360 453
#     4  11  25  44  72 104 146 200 248 315 387 457
#     4  12  27  52  83 113 154 200 272 332 388 463
#     4  12  29  55  78 114 156 205 261 336 399 462
#
# _framework density 24.431079
#
# number of rings (size 3 to 8) (size 9 to 14) (size 15 to 20)
#    0.000    0.857    2.857    3.000    8.000    0.000 
#    0.000    0.000    0.000    0.000    0.000    0.000 
#    0.000    0.000    0.000    0.000    0.000    0.000 
#
# Total GULP energy -78272.327185 kJ/mol
# GULP energy per Si atom -5590.880513 kJ/mol
# Density = 2.437547 g / cm^3
# Si number density = 24.431079 Si / 1000 Ang^3
#
#
#
# Elastic Constant Matrix: (Units=GPa)
#
#
# Indices 1 2 3 4 5 6 
#
# 1 60.8887 9.3989 17.0824 2.2924 -6.2113 29.3219
# 2 9.3989 144.7372 20.8599 -19.2356 -14.2069 12.6296
# 3 17.0824 20.8599 101.6000 -9.4543 -30.1170 4.8385
# 4 2.2924 -19.2356 -9.4543 44.3700 3.8622 -4.0892
# 5 -6.2113 -14.2069 -30.1170 3.8622 38.4498 5.0362
# 6 29.3219 12.6296 4.8385 -4.0892 5.0362 49.1493
#
#
#
# Elastic Compliance Matrix: (Units=1/GPa)
#
#
# Indices 1 2 3 4 5 6 
#
# 1 0.025222 0.000043 -0.002502 -0.003649 0.004538 -0.015580
# 2 0.000043 0.007775 -0.000517 0.002862 0.002447 -0.001985
# 3 -0.002502 -0.000517 0.013492 0.001870 0.009858 -0.000557
# 4 -0.003649 0.002862 0.001870 0.024768 -0.001003 0.003421
# 5 0.004538 0.002447 0.009858 -0.001003 0.036533 -0.008133
# 6 -0.015580 -0.001985 -0.000557 0.003421 -0.008133 0.031324
#
#
# Mechanical properties :
#
#
# Convention : Reuss Voigt Hill
#
# Bulk Modulus (GPa) = 24.66936 44.65645 34.66290
# Shear Modulus (GPa) = 31.53017 43.71946 37.62481
#
# Velocity S-wave (km/s) = 3.59636 4.23484 3.92859
# Velocity P-wave (km/s) = 5.23111 6.49846 5.89892
#
# Compressibility (1/GPa) = 0.04053612
#
# Stress axis : x y z
#
# Youngs Moduli (GPa) = 39.64802 128.62382 74.11735
#
# Poissons Ratio (x) = -0.00550 0.18543
# Poissons Ratio (y) = -0.00170 0.03834
# Poissons Ratio (z) = 0.09919 0.06653
#
# Static dielectric constant tensor:
#      x y z
#    x 2.089130 -0.151370 0.077180 
#    y -0.151370 2.023010 -0.057380 
#    z 0.077180 -0.057380 1.970880 
# 
# From -- ./inp_files/480471.got.cif
#   From: 2010.05.17/outbox.cif.g08.bks.cpg/sg2_241_cif.got.tgz:480471.got - 2010.06.03 11:33:40.
