data_PCOD9037689
_publ_section_title
;
Structure prediction by ZEFSAII (Michael W. Deem and Ramdas Pophale) SiO2 
 PCOD9037689
Probable space group: P -1
;
_chemical_formula_sum "Si O2"
_cell_formula_units_Z 15
_cell_length_a 11.102841
_cell_length_b 7.426906
_cell_length_c 8.701085
_cell_angle_alpha 87.829924
_cell_angle_beta 78.250485
_cell_angle_gamma 121.450378
_cell_volume 590.271745
_symmetry_space_group_name_H-M "P -1"
_symmetry_group_IT_number 2
_symmetry_cell_setting 'triclinic'
loop_
_space_group_symop_operation_xyz
x,y,z
-x,-y,-z
loop_
_atom_site_type_symbol
_atom_site_label
_atom_site_fract_x
_atom_site_fract_y
_atom_site_fract_z
Si Si1 0.744677 0.933848 0.108154
Si Si2 0.207881 0.413287 0.424667
Si Si3 0.092730 0.800295 0.670708
Si Si4 0.000000 0.000000 0.000000
Si Si5 0.449599 0.573289 0.155545
Si Si6 0.609841 0.215605 0.099755
Si Si7 0.370604 0.927912 0.409299
Si Si8 0.856973 0.568787 0.226050
O O1 0.880641 0.047724 0.193200
O O2 0.697073 0.095822 0.073899
O O3 0.594003 0.731492 0.211457
O O4 0.827622 0.870047 0.973781
O O5 0.326435 0.395203 0.300759
O O6 0.287701 0.673983 0.400803
O O7 0.177959 0.352670 0.611143
O O8 0.054109 0.285966 0.381314
O O9 0.239340 0.933456 0.525363
O O10 0.088314 0.589112 0.737654
O O11 0.967722 0.772369 0.093969
O O12 0.500000 0.500000 0.000000
O O13 0.401963 0.713550 0.068513
O O14 0.709884 0.418580 0.174466
O O15 0.456592 0.073147 0.235167
O O16 0.500000 0.000000 0.500000
#
# Coordination Sequence:
#
# PCOD9037689 Si02
#       8
#     2   2   2   1   2   2   2   2
#     4  11  25  45  69 101 140 193 237 287 359 419
#     4  11  23  43  73 106 141 186 242 291 358 424
#     4  10  23  40  75 106 137 189 240 297 350 420
#     4  12  28  44  70 100 156 178 240 290 360 422
#     4  12  27  45  68 107 148 187 237 296 358 428
#     4  11  23  43  76 101 137 194 237 296 355 423
#     4  11  17  40  69 106 138 172 243 295 342 424
#     4  10  23  45  70 105 139 187 234 295 359 420
#
# _framework density 25.412026999999998
#
# number of rings (size 3 to 8) (size 9 to 14) (size 15 to 20)
#    0.000    1.067    5.333    2.800    5.600    2.133 
#    2.400    2.000    0.000    0.000    0.000    0.000 
#    0.000    0.000    0.000    0.000    0.000    0.000 
#
# Total GULP energy -83725.614254 kJ/mol
# GULP energy per Si atom -5581.707617 kJ/mol
# Density = 2.535419 g / cm^3
# Si number density = 25.412027 Si / 1000 Ang^3
#
#
#
# Elastic Constant Matrix: (Units=GPa)
#
#
# Indices 1 2 3 4 5 6 
#
# 1 122.0282 53.0792 29.8074 -6.6143 -10.7090 28.2155
# 2 53.0792 82.8202 44.1341 -0.8067 15.2202 31.3694
# 3 29.8074 44.1341 138.2375 -6.8275 -5.4648 21.8074
# 4 -6.6143 -0.8067 -6.8275 53.7817 6.8944 5.4959
# 5 -10.7090 15.2202 -5.4648 6.8944 29.5056 -3.4122
# 6 28.2155 31.3694 21.8074 5.4959 -3.4122 63.3692
#
#
#
# Elastic Compliance Matrix: (Units=1/GPa)
#
#
# Indices 1 2 3 4 5 6 
#
# 1 0.013976 -0.011468 0.001161 0.000311 0.011087 -0.000375
# 2 -0.011468 0.030652 -0.006663 0.002058 -0.022751 -0.009178
# 3 0.001161 -0.006663 0.009386 0.000557 0.005443 -0.000204
# 4 0.000311 0.002058 0.000557 0.019832 -0.005871 -0.003385
# 5 0.011087 -0.022751 0.005443 -0.005871 0.052935 0.007812
# 6 -0.000375 -0.009178 -0.000204 -0.003385 0.007812 0.021275
#
#
# Mechanical properties :
#
#
# Convention : Reuss Voigt Hill
#
# Bulk Modulus (GPa) = 49.81868 66.34748 58.08308
# Shear Modulus (GPa) = 26.49851 43.73565 35.11708
#
# Velocity S-wave (km/s) = 3.23267 4.15307 3.72144
# Velocity P-wave (km/s) = 5.79487 7.01161 6.43208
#
# Compressibility (1/GPa) = 0.02007279
#
# Stress axis : x y z
#
# Youngs Moduli (GPa) = 71.54898 32.62385 106.54396
#
# Poissons Ratio (x) = 0.37414 -0.12366
# Poissons Ratio (y) = 0.82055 0.70993
# Poissons Ratio (z) = -0.08304 0.21738
#
# Static dielectric constant tensor:
#      x y z
#    x 1.347990 0.033640 0.932960 
#    y 0.033640 2.023200 -0.025240 
#    z 0.932960 -0.025240 0.700400 
# 
# From -- ./inp_files/243984.got.cif
#   From: 2010.05.17/outbox.cif.g08.bks.cpg/sg2_122_cif.got.tgz:243984.got - 2010.06.03 11:33:40.
