data_PCOD9037779
_publ_section_title
;
Structure prediction by ZEFSAII (Michael W. Deem and Ramdas Pophale) SiO2 
 PCOD9037779
Probable space group: P -1
;
_chemical_formula_sum "Si O2"
_cell_formula_units_Z 12
_cell_length_a 18.811685
_cell_length_b 19.557744
_cell_length_c 4.936056
_cell_angle_alpha 115.797829
_cell_angle_beta 58.233914
_cell_angle_gamma 161.086384
_cell_volume 487.297553
_symmetry_space_group_name_H-M "P -1"
_symmetry_group_IT_number 2
_symmetry_cell_setting 'triclinic'
loop_
_space_group_symop_operation_xyz
x,y,z
-x,-y,-z
loop_
_atom_site_type_symbol
_atom_site_label
_atom_site_fract_x
_atom_site_fract_y
_atom_site_fract_z
Si Si1 0.870307 0.947013 0.385607
Si Si2 0.286749 0.913883 0.214334
Si Si3 0.666885 0.657677 0.686087
Si Si4 0.496145 0.249629 0.425743
Si Si5 0.752008 0.270687 0.254917
Si Si6 0.210700 0.542413 0.281616
O O1 0.767029 0.822602 0.653851
O O2 0.659306 0.808666 0.414790
O O3 0.093635 0.185805 0.459202
O O4 0.000000 0.000000 0.000000
O O5 0.048145 0.697404 0.495061
O O6 0.327910 0.037339 0.293056
O O7 0.523883 0.095797 0.225530
O O8 0.265646 0.835638 0.872590
O O9 0.500000 0.500000 0.500000
O O10 0.500000 0.500000 0.000000
O O11 0.593559 0.318962 0.651200
O O12 0.725747 0.441327 0.100749
O O13 0.758933 0.339557 0.596300
O O14 0.000000 0.500000 0.000000
#
# Coordination Sequence:
#
# PCOD9037779 Si02
#       6
#     2   2   2   2   2   2
#     4  11  26  45  71 100 136 178 233 288 341 412
#     4   9  19  40  64  95 131 176 215 267 329 389
#     4  11  24  44  70  99 128 171 225 281 347 411
#     4  11  26  41  65  94 135 168 221 274 332 389
#     4   8  16  37  67  94 131 171 221 264 320 392
#     4  10  23  41  62  98 131 174 216 272 325 392
#
# _framework density 24.625612
#
# number of rings (size 3 to 8) (size 9 to 14) (size 15 to 20)
#    0.000    2.000    1.667    0.000    4.667    6.000 
#    0.000   28.333    0.000    0.000    0.000    0.000 
#    0.000    0.000    0.000    0.000    0.000    0.000 
#
# Total GULP energy -66985.297405 kJ/mol
# GULP energy per Si atom -5582.108117 kJ/mol
# Density = 2.456956 g / cm^3
# Si number density = 24.625612 Si / 1000 Ang^3
#
#
#
# Elastic Constant Matrix: (Units=GPa)
#
#
# Indices 1 2 3 4 5 6 
#
# 1 108.1705 27.9374 50.0729 -7.6222 7.9204 8.4023
# 2 27.9374 117.1044 24.8886 -38.5363 0.5946 12.5676
# 3 50.0729 24.8886 107.6799 -9.6270 11.3432 -9.7367
# 4 -7.6222 -38.5363 -9.6270 32.1324 3.1038 6.3364
# 5 7.9204 0.5946 11.3432 3.1038 45.0108 -0.0037
# 6 8.4023 12.5676 -9.7367 6.3364 -0.0037 34.5889
#
#
#
# Elastic Compliance Matrix: (Units=1/GPa)
#
#
# Indices 1 2 3 4 5 6 
#
# 1 0.012729 -0.000880 -0.005947 0.001180 -0.000812 -0.004663
# 2 -0.000880 0.018124 -0.002636 0.023072 -0.001012 -0.011340
# 3 -0.005947 -0.002636 0.013326 -0.001643 -0.002163 0.006454
# 4 0.001180 0.023072 -0.001643 0.063088 -0.004450 -0.020690
# 5 -0.000812 -0.001012 -0.002163 -0.004450 0.023225 0.000774
# 6 -0.004663 -0.011340 0.006454 -0.020690 0.000774 0.039771
#
#
# Mechanical properties :
#
#
# Convention : Reuss Voigt Hill
#
# Bulk Modulus (GPa) = 39.59739 59.86140 49.72939
# Shear Modulus (GPa) = 25.30269 37.68348 31.49309
#
# Velocity S-wave (km/s) = 3.20893 3.91609 3.58002
# Velocity P-wave (km/s) = 5.46300 6.69396 6.10956
#
# Compressibility (1/GPa) = 0.02525419
#
# Stress axis : x y z
#
# Youngs Moduli (GPa) = 78.55792 55.17534 75.04189
#
# Poissons Ratio (x) = 0.04856 0.44624
# Poissons Ratio (y) = 0.06913 0.19781
# Poissons Ratio (z) = 0.46715 0.14544
#
# Static dielectric constant tensor:
#      x y z
#    x 1.985390 -0.040560 -0.030090 
#    y -0.040560 1.929910 0.121020 
#    z -0.030090 0.121020 1.954340 
# 
# From -- ./inp_files/120466.got.cif
#   From: 2010.05.17/outbox.cif.g08.bks.cpg/sg2_61_cif.got.tgz:120466.got - 2010.06.03 11:33:40.
