data_PCOD9037828
_publ_section_title
;
Structure prediction by ZEFSAII (Michael W. Deem and Ramdas Pophale) SiO2 
 PCOD9037828
Probable space group: P -1
;
_chemical_formula_sum "Si O2"
_cell_formula_units_Z 14
_cell_length_a 5.327248
_cell_length_b 10.635909
_cell_length_c 20.546219
_cell_angle_alpha 36.458855
_cell_angle_beta 93.529246
_cell_angle_gamma 95.026760
_cell_volume 689.052692
_symmetry_space_group_name_H-M "P -1"
_symmetry_group_IT_number 2
_symmetry_cell_setting 'triclinic'
loop_
_space_group_symop_operation_xyz
x,y,z
-x,-y,-z
loop_
_atom_site_type_symbol
_atom_site_label
_atom_site_fract_x
_atom_site_fract_y
_atom_site_fract_z
Si Si1 0.853387 0.784114 0.029599
Si Si2 0.984151 0.076208 0.674501
Si Si3 0.650319 0.356646 0.874428
Si Si4 0.976786 0.188838 0.777447
Si Si5 0.500828 0.553104 0.300051
Si Si6 0.022468 0.427250 0.104971
Si Si7 0.514437 0.703553 0.464556
O O1 0.586825 0.805669 0.048849
O O2 0.095258 0.761487 0.089171
O O3 0.821609 0.554134 0.089548
O O4 0.936666 0.958712 0.905336
O O5 0.715572 0.151642 0.615459
O O6 0.018376 0.163100 0.712049
O O7 0.214763 0.176413 0.593828
O O8 0.995190 0.823363 0.783447
O O9 0.580351 0.502034 0.752303
O O10 0.730702 0.477685 0.891784
O O11 0.227684 0.319250 0.751908
O O12 0.719560 0.302857 0.738078
O O13 0.512608 0.373775 0.429321
O O14 0.000000 0.500000 0.000000
O O15 0.500000 0.500000 0.500000
#
# Coordination Sequence:
#
# PCOD9037828 Si02
#       7
#     2   2   2   2   2   2   2
#     4  10  23  41  63  95 129 162 208 249 318 374
#     4  12  23  41  67  98 123 163 213 259 316 365
#     4  10  24  43  61  91 133 170 201 259 310 369
#     4  12  22  38  67  98 122 171 202 261 319 374
#     4  12  25  41  64  90 134 162 216 257 313 369
#     4  10  24  44  67  94 129 163 208 256 310 380
#     4  12  24  42  64  94 127 165 211 263 312 362
#
# _framework density 20.317751000000001
#
# number of rings (size 3 to 8) (size 9 to 14) (size 15 to 20)
#    0.857    0.000    4.286    3.000    2.000    5.143 
#    0.000    1.429    0.000    0.000    0.000    0.000 
#    0.000    0.000    0.000    0.000    0.000    0.000 
#
# Total GULP energy -78143.172705 kJ/mol
# GULP energy per Si atom -5581.655193 kJ/mol
# Density = 2.027151 g / cm^3
# Si number density = 20.317751 Si / 1000 Ang^3
#
#
#
# Elastic Constant Matrix: (Units=GPa)
#
#
# Indices 1 2 3 4 5 6 
#
# 1 138.4586 21.5494 37.1012 -4.6197 -12.2203 -2.4131
# 2 21.5494 60.7983 34.8693 14.7980 10.7662 2.1910
# 3 37.1012 34.8693 124.5424 15.9164 2.0855 1.7595
# 4 -4.6197 14.7980 15.9164 44.4429 -2.4599 10.2754
# 5 -12.2203 10.7662 2.0855 -2.4599 33.6645 0.4298
# 6 -2.4131 2.1910 1.7595 10.2754 0.4298 19.9193
#
#
#
# Elastic Compliance Matrix: (Units=1/GPa)
#
#
# Indices 1 2 3 4 5 6 
#
# 1 0.008858 -0.003506 -0.002135 0.003129 0.004699 -0.000068
# 2 -0.003506 0.023646 -0.004489 -0.007462 -0.009120 0.001417
# 3 -0.002135 -0.004489 0.010242 -0.002555 -0.000169 0.000652
# 4 0.003129 -0.007462 -0.002555 0.029817 0.006039 -0.014086
# 5 0.004699 -0.009120 -0.000169 0.006039 0.034808 -0.002279
# 6 -0.000068 0.001417 0.000652 -0.014086 -0.002279 0.057296
#
#
# Mechanical properties :
#
#
# Convention : Reuss Voigt Hill
#
# Bulk Modulus (GPa) = 44.47359 56.75990 50.61674
# Shear Modulus (GPa) = 25.98444 34.95730 30.47087
#
# Velocity S-wave (km/s) = 3.58006 4.15243 3.87682
# Velocity P-wave (km/s) = 6.24705 7.14052 6.70867
#
# Compressibility (1/GPa) = 0.02248526
#
# Stress axis : x y z
#
# Youngs Moduli (GPa) = 112.89249 42.29115 97.63342
#
# Poissons Ratio (x) = 0.14829 0.20841
# Poissons Ratio (y) = 0.39585 0.43831
# Poissons Ratio (z) = 0.24098 0.18986
#
# Static dielectric constant tensor:
#      x y z
#    x 1.735760 -0.042410 0.021850 
#    y -0.042410 1.807650 0.010890 
#    z 0.021850 0.010890 1.723740 
# 
# From -- ./inp_files/82560.got.cif
#   From: 2010.05.17/outbox.cif.g08.bks.cpg/sg2_42_cif.got.tgz:82560.got - 2010.06.03 11:33:40.
