data_PCOD9037262
_publ_section_title
;
Structure prediction by ZEFSAII (Michael W. Deem and Ramdas Pophale) SiO2 
 PCOD9037262
Probable space group: P -1
;
_chemical_formula_sum "Si O2"
_cell_formula_units_Z 14
_cell_length_a 9.012016
_cell_length_b 19.823366
_cell_length_c 16.745441
_cell_angle_alpha 19.855307
_cell_angle_beta 41.764558
_cell_angle_gamma 33.017689
_cell_volume 538.667068
_symmetry_space_group_name_H-M "P -1"
_symmetry_group_IT_number 2
_symmetry_cell_setting 'triclinic'
loop_
_space_group_symop_operation_xyz
x,y,z
-x,-y,-z
loop_
_atom_site_type_symbol
_atom_site_label
_atom_site_fract_x
_atom_site_fract_y
_atom_site_fract_z
Si Si1 0.614799 0.236152 0.912209
Si Si2 0.899997 0.943452 0.731298
Si Si3 0.035094 0.283044 0.374276
Si Si4 0.626127 0.521478 0.008767
Si Si5 0.599424 0.790667 0.128726
Si Si6 0.340959 0.464888 0.327002
Si Si7 0.024706 0.295647 0.554770
O O1 0.626540 0.154846 0.906937
O O2 0.785458 0.978655 0.178723
O O3 0.748028 0.369038 0.743155
O O4 0.277730 0.460866 0.807728
O O5 0.601607 0.184821 0.555608
O O6 0.045691 0.054360 0.590704
O O7 0.835634 0.790458 0.985158
O O8 0.086437 0.760759 0.787998
O O9 0.070324 0.255845 0.485481
O O10 0.272520 0.306608 0.223495
O O11 0.437762 0.573339 0.101879
O O12 0.500000 0.500000 0.000000
O O13 0.698181 0.536330 0.415126
O O14 0.500000 0.000000 0.000000
O O15 0.129403 0.438242 0.397535
#
# Coordination Sequence:
#
# PCOD9037262 Si02
#       7
#     2   2   2   2   2   2   2
#     4  10  23  43  65  95 130 167 216 266 323 383
#     4  11  23  44  63  92 139 165 220 274 317 381
#     4  10  23  40  64  93 133 175 212 262 320 374
#     4  12  22  38  61 100 132 175 221 252 317 391
#     4  11  24  47  71  94 128 172 216 272 332 383
#     4  11  23  40  69  95 132 176 211 264 323 382
#     4  11  21  42  69  91 136 170 208 273 318 380
#
# _framework density 25.990082000000001
#
# number of rings (size 3 to 8) (size 9 to 14) (size 15 to 20)
#    0.000    1.143    5.714    0.429    4.000    4.571 
#    0.000    7.143    0.000    0.000    0.000    0.000 
#    0.000    0.000    0.000    0.000    0.000    0.000 
#
# Total GULP energy -78313.069305 kJ/mol
# GULP energy per Si atom -5593.790665 kJ/mol
# Density = 2.593093 g / cm^3
# Si number density = 25.990082 Si / 1000 Ang^3
#
#
#
# Elastic Constant Matrix: (Units=GPa)
#
#
# Indices 1 2 3 4 5 6 
#
# 1 184.5165 19.6944 72.7046 -1.9466 -12.3501 0.3089
# 2 19.6944 58.5812 35.3347 -0.1350 -5.7470 3.9493
# 3 72.7046 35.3347 176.3670 -8.6669 15.8482 0.5447
# 4 -1.9466 -0.1350 -8.6669 37.4096 -0.2947 -2.4407
# 5 -12.3501 -5.7470 15.8482 -0.2947 64.3208 -2.4678
# 6 0.3089 3.9493 0.5447 -2.4407 -2.4678 37.7831
#
#
#
# Elastic Compliance Matrix: (Units=1/GPa)
#
#
# Indices 1 2 3 4 5 6 
#
# 1 0.006727 -0.000327 -0.002900 -0.000299 0.001981 0.000131
# 2 -0.000327 0.020089 -0.004175 -0.001016 0.002682 -0.001927
# 3 -0.002900 -0.004175 0.008045 0.001692 -0.002894 0.000264
# 4 -0.000299 -0.001016 0.001692 0.027220 -0.000371 0.001818
# 5 0.001981 0.002682 -0.002894 -0.000371 0.016910 0.000826
# 6 0.000131 -0.001927 0.000264 0.001818 0.000826 0.026835
#
#
# Mechanical properties :
#
#
# Convention : Reuss Voigt Hill
#
# Bulk Modulus (GPa) = 49.86239 74.99244 62.42741
# Shear Modulus (GPa) = 39.27260 47.35142 43.31201
#
# Velocity S-wave (km/s) = 3.89145 4.27301 4.08669
# Velocity P-wave (km/s) = 6.27838 7.29806 6.80734
#
# Compressibility (1/GPa) = 0.02005520
#
# Stress axis : x y z
#
# Youngs Moduli (GPa) = 148.66494 49.77772 124.30821
#
# Poissons Ratio (x) = 0.01628 0.36055
# Poissons Ratio (y) = 0.04863 0.51899
# Poissons Ratio (z) = 0.43119 0.20782
#
# Static dielectric constant tensor:
#      x y z
#    x 2.026970 -0.062720 0.028890 
#    y -0.062720 2.225030 0.087570 
#    z 0.028890 0.087570 2.058850 
# 
# From -- ./inp_files/315101.got.cif
#   From: 2010.05.17/outbox.cif.g08.bks.cpg/sg2_158_cif.got.tgz:315101.got - 2010.06.03 11:33:40.
