data_PCOD9037503
_publ_section_title
;
Structure prediction by ZEFSAII (Michael W. Deem and Ramdas Pophale) SiO2 
 PCOD9037503
Probable space group: P -1
;
_chemical_formula_sum "Si O2"
_cell_formula_units_Z 16
_cell_length_a 5.918365
_cell_length_b 22.077522
_cell_length_c 5.092381
_cell_angle_alpha 94.249522
_cell_angle_beta 95.135497
_cell_angle_gamma 72.126251
_cell_volume 629.964623
_symmetry_space_group_name_H-M "P -1"
_symmetry_group_IT_number 2
_symmetry_cell_setting 'triclinic'
loop_
_space_group_symop_operation_xyz
x,y,z
-x,-y,-z
loop_
_atom_site_type_symbol
_atom_site_label
_atom_site_fract_x
_atom_site_fract_y
_atom_site_fract_z
Si Si1 0.352848 0.598943 0.617398
Si Si2 0.290883 0.359391 0.963262
Si Si3 0.987609 0.713513 0.744263
Si Si4 0.650156 0.242438 0.829400
Si Si5 0.515295 0.070044 0.569102
Si Si6 0.223697 0.481922 0.710708
Si Si7 0.700133 0.120885 0.081235
Si Si8 0.952922 0.835402 0.544115
O O1 0.129649 0.658597 0.536401
O O2 0.271340 0.549360 0.777685
O O3 0.521118 0.559939 0.395120
O O4 0.520476 0.627742 0.813217
O O5 0.441463 0.306471 0.754706
O O6 0.162367 0.431133 0.879060
O O7 0.143219 0.322922 0.096870
O O8 0.850693 0.778852 0.610269
O O9 0.168707 0.735827 0.956943
O O10 0.807845 0.202543 0.599321
O O11 0.564778 0.191597 0.975471
O O12 0.587951 0.097364 0.314370
O O13 0.250313 0.115273 0.624773
O O14 0.500000 0.000000 0.500000
O O15 0.693266 0.075263 0.821564
O O16 0.000000 0.500000 0.500000
O O17 0.954409 0.127278 0.204830
#
# Coordination Sequence:
#
# PCOD9037503 Si02
#       8
#     2   2   2   2   2   2   2   2
#     4  10  23  42  60  92 130 173 232 283 360 427
#     4  11  23  41  67  93 134 172 229 293 359 425
#     4  10  23  40  68 101 130 180 236 298 366 431
#     4  10  23  43  69 104 133 188 233 302 359 434
#     4  12  28  47  77 113 152 198 248 297 365 441
#     4  11  24  40  62  90 131 180 229 287 358 429
#     4  11  25  49  72 110 150 194 245 305 363 432
#     4  11  25  46  76 102 152 187 250 296 376 430
#
# _framework density 25.398249
#
# number of rings (size 3 to 8) (size 9 to 14) (size 15 to 20)
#    0.000    1.250    1.250    3.000    5.250    9.000 
#    0.000    0.000    0.000    0.000    0.000    0.000 
#    0.000    0.000    0.000    0.000    0.000    0.000 
#
# Total GULP energy -89516.352185 kJ/mol
# GULP energy per Si atom -5594.772012 kJ/mol
# Density = 2.534044 g / cm^3
# Si number density = 25.398249 Si / 1000 Ang^3
#
#
#
# Elastic Constant Matrix: (Units=GPa)
#
#
# Indices 1 2 3 4 5 6 
#
# 1 69.6677 59.6965 22.7348 -0.4052 -14.3642 22.5949
# 2 59.6965 162.6948 29.0122 -1.6858 -9.7825 39.3443
# 3 22.7348 29.0122 86.5096 1.8537 -10.8751 18.8823
# 4 -0.4052 -1.6858 1.8537 39.6019 11.6043 2.9978
# 5 -14.3642 -9.7825 -10.8751 11.6043 39.0847 -2.5810
# 6 22.5949 39.3443 18.8823 2.9978 -2.5810 48.8518
#
#
#
# Elastic Compliance Matrix: (Units=1/GPa)
#
#
# Indices 1 2 3 4 5 6 
#
# 1 0.023664 -0.006934 -0.002143 -0.001565 0.006560 -0.004090
# 2 -0.006934 0.009875 -0.000609 0.000973 -0.000840 -0.004615
# 3 -0.002143 -0.000609 0.013490 -0.001283 0.002964 -0.003498
# 4 -0.001565 0.000973 -0.001283 0.028157 -0.009166 -0.001776
# 5 0.006560 -0.000840 0.002964 -0.009166 0.031247 -0.001290
# 6 -0.004090 -0.004615 -0.003498 -0.001776 -0.001290 0.027471
#
#
# Mechanical properties :
#
#
# Convention : Reuss Voigt Hill
#
# Bulk Modulus (GPa) = 36.15431 60.19546 48.17488
# Shear Modulus (GPa) = 30.77037 39.33626 35.05331
#
# Velocity S-wave (km/s) = 3.48446 3.93972 3.71906
# Velocity P-wave (km/s) = 5.51856 6.66688 6.11971
#
# Compressibility (1/GPa) = 0.02765922
#
# Stress axis : x y z
#
# Youngs Moduli (GPa) = 42.25778 101.26906 74.12833
#
# Poissons Ratio (x) = 0.70215 0.15884
# Poissons Ratio (y) = 0.29300 0.04512
# Poissons Ratio (z) = 0.09055 0.06163
#
# Static dielectric constant tensor:
#      x y z
#    x 2.025700 -0.026450 -0.072410 
#    y -0.026450 2.036270 -0.004250 
#    z -0.072410 -0.004250 2.068210 
# 
# From -- ./inp_files/11081.got.cif
#   From: 2010.05.17/outbox.cif.g08.bks.cpg/sg2_6_cif.got.tgz:11081.got - 2010.06.03 11:33:40.
