data_PCOD9037107
_publ_section_title
;
Structure prediction by ZEFSAII (Michael W. Deem and Ramdas Pophale) SiO2 
 PCOD9037107
Probable space group: P -1
;
_chemical_formula_sum "Si O2"
_cell_formula_units_Z 16
_cell_length_a 20.335351
_cell_length_b 5.714907
_cell_length_c 22.941408
_cell_angle_alpha 62.139609
_cell_angle_beta 161.906788
_cell_angle_gamma 117.975712
_cell_volume 729.014898
_symmetry_space_group_name_H-M "P -1"
_symmetry_group_IT_number 2
_symmetry_cell_setting 'triclinic'
loop_
_space_group_symop_operation_xyz
x,y,z
-x,-y,-z
loop_
_atom_site_type_symbol
_atom_site_label
_atom_site_fract_x
_atom_site_fract_y
_atom_site_fract_z
Si Si1 0.406009 0.796394 0.051351
Si Si2 0.824313 0.121317 0.526482
Si Si3 0.872970 0.717642 0.936469
Si Si4 0.353303 0.043777 0.188664
Si Si5 0.795088 0.819222 0.069970
Si Si6 0.700585 0.463896 0.713070
Si Si7 0.883004 0.022903 0.304443
Si Si8 0.141802 0.343986 0.573901
O O1 0.308734 0.483659 0.997343
O O2 0.332162 0.982882 0.019676
O O3 0.331369 0.937117 0.913896
O O4 0.657789 0.799754 0.264425
O O5 0.806129 0.360962 0.438494
O O6 0.986985 0.195715 0.708323
O O7 0.941541 0.924951 0.605596
O O8 0.590937 0.052774 0.363100
O O9 0.730127 0.680342 0.763175
O O10 0.718705 0.710165 0.862614
O O11 0.069133 0.532987 0.124791
O O12 0.000000 0.000000 0.000000
O O13 0.331462 0.802089 0.243733
O O14 0.195835 0.035418 0.001868
O O15 0.500000 0.500000 0.500000
O O16 0.875463 0.737533 0.363560
O O17 0.938018 0.225396 0.379705
#
# Coordination Sequence:
#
# PCOD9037107 Si02
#       8
#     2   2   2   2   2   2   2   2
#     4  11  23  44  64  93 132 177 224 284 337 405
#     4  11  23  41  61  95 133 171 226 278 336 401
#     4   9  22  43  67  96 136 164 216 266 332 399
#     4  11  24  41  67  96 128 178 213 271 336 396
#     4  11  25  43  65  96 138 172 224 280 338 401
#     4  10  23  44  69 100 130 174 218 273 329 406
#     4  10  23  40  60  93 128 175 226 283 338 398
#     4  11  21  39  65  88 127 177 226 283 339 397
#
# _framework density 21.947424000000002
#
# number of rings (size 3 to 8) (size 9 to 14) (size 15 to 20)
#    0.000    1.500    2.500    1.500    1.750    7.000 
#    2.250    1.875    0.000    0.000    0.000    0.000 
#    0.000    0.000    0.000    0.000    0.000    0.000 
#
# Total GULP energy -89154.283818 kJ/mol
# GULP energy per Si atom -5572.142739 kJ/mol
# Density = 2.189747 g / cm^3
# Si number density = 21.947424 Si / 1000 Ang^3
#
#
#
# Elastic Constant Matrix: (Units=GPa)
#
#
# Indices 1 2 3 4 5 6 
#
# 1 116.1041 39.4060 50.0467 -8.8607 -9.5690 -5.4295
# 2 39.4060 67.6089 9.2828 3.6225 -1.9058 1.6026
# 3 50.0467 9.2828 78.3589 -3.5548 -24.3686 -2.6084
# 4 -8.8607 3.6225 -3.5548 25.9834 -0.0817 -4.7846
# 5 -9.5690 -1.9058 -24.3686 -0.0817 49.2843 2.0823
# 6 -5.4295 1.6026 -2.6084 -4.7846 2.0823 35.3579
#
#
#
# Elastic Compliance Matrix: (Units=1/GPa)
#
#
# Indices 1 2 3 4 5 6 
#
# 1 0.015997 -0.008469 -0.009475 0.005897 -0.002026 0.003059
# 2 -0.008469 0.019718 0.002929 -0.005749 0.000675 -0.002796
# 3 -0.009475 0.002929 0.021126 -0.000843 0.008746 -0.000658
# 4 0.005897 -0.005749 -0.000843 0.042442 0.000288 0.006830
# 5 -0.002026 0.000675 0.008746 0.000288 0.024294 -0.001088
# 6 0.003059 -0.002796 -0.000658 0.006830 -0.001088 0.029818
#
#
# Mechanical properties :
#
#
# Convention : Reuss Voigt Hill
#
# Bulk Modulus (GPa) = 37.29600 51.06034 44.17817
# Shear Modulus (GPa) = 25.99263 33.01421 29.50342
#
# Velocity S-wave (km/s) = 3.44512 3.88266 3.67042
# Velocity P-wave (km/s) = 5.73196 6.58904 6.17539
#
# Compressibility (1/GPa) = 0.02681253
#
# Stress axis : x y z
#
# Youngs Moduli (GPa) = 62.50982 50.71464 47.33535
#
# Poissons Ratio (x) = 0.42949 0.44849
# Poissons Ratio (y) = 0.52938 -0.13865
# Poissons Ratio (z) = 0.59227 -0.14855
#
# Static dielectric constant tensor:
#      x y z
#    x 1.881800 -0.081340 0.062590 
#    y -0.081340 1.989340 -0.058870 
#    z 0.062590 -0.058870 1.787270 
# 
# From -- ./inp_files/56454.got.cif
#   From: 2010.05.17/outbox.cif.g08.bks.cpg/sg2_29_cif.got.tgz:56454.got - 2010.06.03 11:33:40.
