data_PCOD9037759
_publ_section_title
;
Structure prediction by ZEFSAII (Michael W. Deem and Ramdas Pophale) SiO2 
 PCOD9037759
Probable space group: P -1
;
_chemical_formula_sum "Si O2"
_cell_formula_units_Z 16
_cell_length_a 11.855613
_cell_length_b 8.235377
_cell_length_c 11.037881
_cell_angle_alpha 109.895023
_cell_angle_beta 60.162660
_cell_angle_gamma 139.729435
_cell_volume 602.785145
_symmetry_space_group_name_H-M "P -1"
_symmetry_group_IT_number 2
_symmetry_cell_setting 'triclinic'
loop_
_space_group_symop_operation_xyz
x,y,z
-x,-y,-z
loop_
_atom_site_type_symbol
_atom_site_label
_atom_site_fract_x
_atom_site_fract_y
_atom_site_fract_z
Si Si1 0.743023 0.205473 0.283750
Si Si2 0.859458 0.206845 0.981428
Si Si3 0.574753 0.457127 0.109981
Si Si4 0.152293 0.463009 0.208141
Si Si5 0.863643 0.909352 0.779538
Si Si6 0.415157 0.270447 0.646381
Si Si7 0.381578 0.970558 0.164317
Si Si8 0.775634 0.648067 0.419488
O O1 0.705220 0.100656 0.139534
O O2 0.740154 0.410752 0.342113
O O3 0.956882 0.349402 0.234685
O O4 0.624204 0.970386 0.379876
O O5 0.790827 0.142201 0.862102
O O6 0.000000 0.500000 0.000000
O O7 0.944421 0.096636 0.901217
O O8 0.366199 0.298060 0.127693
O O9 0.653212 0.705243 0.187974
O O10 0.506240 0.256673 0.202306
O O11 0.721167 0.502724 0.956905
O O12 0.104385 0.264127 0.272839
O O13 0.285849 0.750078 0.253922
O O14 0.999778 0.099695 0.643708
O O15 0.640295 0.525920 0.578081
O O16 0.310786 0.281888 0.601570
O O17 0.500000 0.000000 0.000000
#
# Coordination Sequence:
#
# PCOD9037759 Si02
#       8
#     2   2   2   2   2   2   2   2
#     4  12  23  39  69  96 128 165 211 268 316 375
#     4  11  20  34  58  95 122 159 202 249 319 380
#     4  10  23  41  62  93 132 169 203 260 323 385
#     4  11  21  37  64  98 132 160 207 257 328 386
#     4  11  22  40  63  94 134 166 205 264 320 383
#     4  11  26  45  65  94 123 174 222 261 309 369
#     4   9  20  35  55  87 130 160 193 250 308 378
#     4  11  25  45  68  90 127 168 223 269 303 366
#
# _framework density 26.543455000000002
#
# number of rings (size 3 to 8) (size 9 to 14) (size 15 to 20)
#    0.000    1.250    3.750    2.250    5.250    3.500 
#    0.000    0.000    0.000    1.500    0.000    0.000 
#    0.000    0.000    0.000    0.000    0.000    0.000 
#
# Total GULP energy -89151.264100 kJ/mol
# GULP energy per Si atom -5571.954006 kJ/mol
# Density = 2.648304 g / cm^3
# Si number density = 26.543455 Si / 1000 Ang^3
#
#
#
# Elastic Constant Matrix: (Units=GPa)
#
#
# Indices 1 2 3 4 5 6 
#
# 1 81.0738 26.7493 24.1520 -10.2954 -14.3335 -7.8993
# 2 26.7493 119.4749 23.1990 -28.2300 10.3037 -44.1645
# 3 24.1520 23.1990 92.8805 -18.5604 -18.0423 -5.1590
# 4 -10.2954 -28.2300 -18.5604 52.8477 0.1610 -6.5447
# 5 -14.3335 10.3037 -18.0423 0.1610 27.8627 -10.8080
# 6 -7.8993 -44.1645 -5.1590 -6.5447 -10.8080 47.8287
#
#
#
# Elastic Compliance Matrix: (Units=1/GPa)
#
#
# Indices 1 2 3 4 5 6 
#
# 1 0.015655 -0.003126 -0.001185 0.001158 0.009131 0.001793
# 2 -0.003126 0.018587 -0.001126 0.011097 -0.002494 0.017480
# 3 -0.001185 -0.001126 0.014500 0.004640 0.010460 0.003327
# 4 0.001158 0.011097 0.004640 0.028685 0.005586 0.016126
# 5 0.009131 -0.002494 0.010460 0.005586 0.053353 0.013154
# 6 0.001793 0.017480 0.003327 0.016126 0.013154 0.042883
#
#
# Mechanical properties :
#
#
# Convention : Reuss Voigt Hill
#
# Bulk Modulus (GPa) = 26.40760 49.06999 37.73880
# Shear Modulus (GPa) = 25.36005 40.32975 32.84490
#
# Velocity S-wave (km/s) = 3.09433 3.90216 3.52149
# Velocity P-wave (km/s) = 4.76833 6.23131 5.54825
#
# Compressibility (1/GPa) = 0.03786789
#
# Stress axis : x y z
#
# Youngs Moduli (GPa) = 63.87780 53.80026 68.96606
#
# Poissons Ratio (x) = 0.16817 0.08175
# Poissons Ratio (y) = 0.19967 0.07764
# Poissons Ratio (z) = 0.07572 0.06057
#
# Static dielectric constant tensor:
#      x y z
#    x 2.868160 -0.315930 -0.196500 
#    y -0.315930 2.283530 0.074600 
#    z -0.196500 0.074600 2.124810 
# 
# From -- ./inp_files/527665.got.cif
#   From: 2010.05.17/outbox.cif.g08.bks.cpg/sg2_264_cif.got.tgz:527665.got - 2010.06.03 11:33:40.
