data_PCOD9037088
_publ_section_title
;
Structure prediction by ZEFSAII (Michael W. Deem and Ramdas Pophale) SiO2 
 PCOD9037088
Probable space group: P -1
;
_chemical_formula_sum "Si O2"
_cell_formula_units_Z 14
_cell_length_a 22.134564
_cell_length_b 4.841750
_cell_length_c 5.586882
_cell_angle_alpha 85.810178
_cell_angle_beta 95.864229
_cell_angle_gamma 111.688542
_cell_volume 553.043616
_symmetry_space_group_name_H-M "P -1"
_symmetry_group_IT_number 2
_symmetry_cell_setting 'triclinic'
loop_
_space_group_symop_operation_xyz
x,y,z
-x,-y,-z
loop_
_atom_site_type_symbol
_atom_site_label
_atom_site_fract_x
_atom_site_fract_y
_atom_site_fract_z
Si Si1 0.931471 0.737141 0.980025
Si Si2 0.366004 0.189265 0.971861
Si Si3 0.702748 0.424661 0.247086
Si Si4 0.141541 0.849821 0.202595
Si Si5 0.487033 0.215117 0.787421
Si Si6 0.606437 0.234480 0.605441
Si Si7 0.831234 0.357988 0.273023
O O1 0.903058 0.603343 0.236655
O O2 0.878859 0.867097 0.844388
O O3 0.924027 0.447628 0.838846
O O4 0.000000 0.000000 0.000000
O O5 0.323257 0.928964 0.790035
O O6 0.327565 0.411186 0.965999
O O7 0.438061 0.356064 0.874469
O O8 0.373468 0.982842 0.200552
O O9 0.668812 0.455148 0.479206
O O10 0.779275 0.516968 0.267774
O O11 0.171372 0.821331 0.472676
O O12 0.180190 0.818919 0.977282
O O13 0.558007 0.384351 0.691460
O O14 0.441598 0.991172 0.588876
O O15 0.500000 0.000000 0.000000
#
# Coordination Sequence:
#
# PCOD9037088 Si02
#       7
#     2   2   2   2   2   2   2
#     4  10  24  44  70 102 135 176 220 271 324 385
#     4  10  23  40  59  90 117 159 207 260 314 383
#     4  11  25  39  62  89 123 160 211 256 316 378
#     4  10  25  43  69  97 135 176 218 271 325 384
#     4   8  16  37  59  86 118 153 203 254 317 378
#     4   9  19  37  62  85 119 160 199 260 318 379
#     4  10  27  43  68  97 136 176 221 270 325 389
#
# _framework density 25.314458999999999
#
# number of rings (size 3 to 8) (size 9 to 14) (size 15 to 20)
#    0.857    1.429    0.000    0.429    6.000    4.000 
#    0.000   24.286    0.000    0.000    0.000    0.000 
#    0.000    0.000    0.000    0.000    0.000    0.000 
#
# Total GULP energy -78226.709110 kJ/mol
# GULP energy per Si atom -5587.622079 kJ/mol
# Density = 2.525684 g / cm^3
# Si number density = 25.314459 Si / 1000 Ang^3
#
#
#
# Elastic Constant Matrix: (Units=GPa)
#
#
# Indices 1 2 3 4 5 6 
#
# 1 92.5771 3.0290 33.2485 -2.0977 -12.7970 -3.9481
# 2 3.0290 98.8473 12.3649 -11.7796 -2.5383 -16.7248
# 3 33.2485 12.3649 150.2921 -7.0310 -6.8666 -13.6848
# 4 -2.0977 -11.7796 -7.0310 24.2281 -7.1778 1.3269
# 5 -12.7970 -2.5383 -6.8666 -7.1778 31.0990 -10.9273
# 6 -3.9481 -16.7248 -13.6848 1.3269 -10.9273 31.9538
#
#
#
# Elastic Compliance Matrix: (Units=1/GPa)
#
#
# Indices 1 2 3 4 5 6 
#
# 1 0.012653 0.000922 -0.002152 0.002688 0.006573 0.003260
# 2 0.000922 0.012589 0.000184 0.007628 0.006228 0.008595
# 3 -0.002152 0.000184 0.007744 0.002788 0.002896 0.004021
# 4 0.002688 0.007628 0.002788 0.050643 0.017314 0.009337
# 5 0.006573 0.006228 0.002896 0.017314 0.047301 0.020769
# 6 0.003260 0.008595 0.004021 0.009337 0.020769 0.044634
#
#
# Mechanical properties :
#
#
# Convention : Reuss Voigt Hill
#
# Bulk Modulus (GPa) = 32.36866 48.77794 40.57330
# Shear Modulus (GPa) = 26.60247 36.99444 31.79845
#
# Velocity S-wave (km/s) = 3.24525 3.82697 3.54805
# Velocity P-wave (km/s) = 5.18233 6.23203 5.73126
#
# Compressibility (1/GPa) = 0.03089408
#
# Stress axis : x y z
#
# Youngs Moduli (GPa) = 79.03212 79.43734 129.13964
#
# Poissons Ratio (x) = -0.07326 0.27793
# Poissons Ratio (y) = -0.07289 -0.02380
# Poissons Ratio (z) = 0.17009 -0.01464
#
# Static dielectric constant tensor:
#      x y z
#    x 2.029650 0.018190 -0.060580 
#    y 0.018190 2.024950 0.098300 
#    z -0.060580 0.098300 2.080000 
# 
# From -- ./inp_files/113945.got.cif
#   From: 2010.05.17/outbox.cif.g08.bks.cpg/sg2_57_cif.got.tgz:113945.got - 2010.06.03 11:33:40.
