data_PCOD9037830
_publ_section_title
;
Structure prediction by ZEFSAII (Michael W. Deem and Ramdas Pophale) SiO2 
 PCOD9037830
Probable space group: P -1
;
_chemical_formula_sum "Si O2"
_cell_formula_units_Z 14
_cell_length_a 11.619463
_cell_length_b 11.236610
_cell_length_c 6.685044
_cell_angle_alpha 105.105761
_cell_angle_beta 111.010063
_cell_angle_gamma 44.184734
_cell_volume 567.882414
_symmetry_space_group_name_H-M "P -1"
_symmetry_group_IT_number 2
_symmetry_cell_setting 'triclinic'
loop_
_space_group_symop_operation_xyz
x,y,z
-x,-y,-z
loop_
_atom_site_type_symbol
_atom_site_label
_atom_site_fract_x
_atom_site_fract_y
_atom_site_fract_z
Si Si1 0.264983 0.649199 0.671480
Si Si2 0.654660 0.834602 0.641845
Si Si3 0.590012 0.675891 0.225321
Si Si4 0.215658 0.928600 0.030211
Si Si5 0.903731 0.129581 0.685254
Si Si6 0.046329 0.323025 0.479620
Si Si7 0.184053 0.340483 0.942035
O O1 0.417286 0.460237 0.768725
O O2 0.249264 0.693223 0.445447
O O3 0.102996 0.670612 0.609811
O O4 0.246434 0.782662 0.853600
O O5 0.655572 0.701014 0.475024
O O6 0.821360 0.795444 0.664247
O O7 0.676279 0.797265 0.870625
O O8 0.500000 0.000000 0.500000
O O9 0.404689 0.854661 0.122692
O O10 0.726107 0.611208 0.106202
O O11 0.165893 0.919737 0.218651
O O12 0.050386 0.100159 0.889802
O O13 0.000000 0.000000 0.500000
O O14 0.000000 0.500000 0.500000
O O15 0.146408 0.259140 0.723338
O O16 0.000000 0.500000 0.000000
#
# Coordination Sequence:
#
# PCOD9037830 Si02
#       7
#     2   2   2   2   2   2   2
#     4  11  21  39  66  93 127 170 216 266 322 394
#     4  11  25  40  62  96 130 168 218 277 331 383
#     4  11  24  41  62  95 133 162 219 274 323 396
#     4  10  23  41  63  95 131 171 211 267 331 386
#     4   9  22  42  63  90 128 171 219 260 321 389
#     4  11  21  42  64  95 128 166 224 269 320 400
#     4  11  21  41  68  89 124 175 214 266 331 383
#
# _framework density 24.652989999999999
#
# number of rings (size 3 to 8) (size 9 to 14) (size 15 to 20)
#    0.000    1.429    4.286    0.429    0.000   14.286 
#    0.000    0.000    0.000    0.000    0.000    0.000 
#    0.000    0.000    0.000    0.000    0.000    0.000 
#
# Total GULP energy -78176.358800 kJ/mol
# GULP energy per Si atom -5584.025629 kJ/mol
# Density = 2.459688 g / cm^3
# Si number density = 24.652990 Si / 1000 Ang^3
#
#
#
# Elastic Constant Matrix: (Units=GPa)
#
#
# Indices 1 2 3 4 5 6 
#
# 1 81.3462 -1.5052 35.2308 -12.1364 -1.0483 -7.7011
# 2 -1.5052 64.0557 20.7976 -27.9196 -10.1236 2.9766
# 3 35.2308 20.7976 162.3592 -35.6314 -7.9975 7.5072
# 4 -12.1364 -27.9196 -35.6314 41.9120 7.1716 -0.9599
# 5 -1.0483 -10.1236 -7.9975 7.1716 48.6813 -3.8634
# 6 -7.7011 2.9766 7.5072 -0.9599 -3.8634 34.9000
#
#
#
# Elastic Compliance Matrix: (Units=1/GPa)
#
#
# Indices 1 2 3 4 5 6 
#
# 1 0.014471 0.002698 -0.002855 0.003617 0.000164 0.003695
# 2 0.002698 0.022897 0.000070 0.015655 0.002472 -0.000668
# 3 -0.002855 0.000070 0.008227 0.006125 0.000227 -0.002212
# 4 0.003617 0.015655 0.006125 0.040821 -0.001747 -0.000925
# 5 0.000164 0.002472 0.000227 -0.001747 0.021522 0.002111
# 6 0.003695 -0.000668 -0.002212 -0.000925 0.002111 0.030210
#
#
# Mechanical properties :
#
#
# Convention : Reuss Voigt Hill
#
# Bulk Modulus (GPa) = 22.01590 46.31197 34.16393
# Shear Modulus (GPa) = 32.58133 41.98117 37.28125
#
# Velocity S-wave (km/s) = 3.63932 4.13108 3.89297
# Velocity P-wave (km/s) = 5.15842 6.44831 5.83909
#
# Compressibility (1/GPa) = 0.04542172
#
# Stress axis : x y z
#
# Youngs Moduli (GPa) = 69.10413 43.67295 121.54676
#
# Poissons Ratio (x) = -0.11781 0.34697
# Poissons Ratio (y) = -0.18642 -0.00850
# Poissons Ratio (z) = 0.19726 -0.00306
#
# Static dielectric constant tensor:
#      x y z
#    x 1.966460 0.020320 0.022260 
#    y 0.020320 2.179820 0.004560 
#    z 0.022260 0.004560 1.964590 
# 
# From -- ./inp_files/71382.got.cif
#   From: 2010.05.17/outbox.cif.g08.bks.cpg/sg2_36_cif.got.tgz:71382.got - 2010.06.03 11:33:40.
