data_PCOD9037756
_publ_section_title
;
Structure prediction by ZEFSAII (Michael W. Deem and Ramdas Pophale) SiO2 
 PCOD9037756
Probable space group: P -1
;
_chemical_formula_sum "Si O2"
_cell_formula_units_Z 14
_cell_length_a 23.392830
_cell_length_b 4.911452
_cell_length_c 6.238856
_cell_angle_alpha 78.197731
_cell_angle_beta 117.193301
_cell_angle_gamma 120.727685
_cell_volume 547.666347
_symmetry_space_group_name_H-M "P -1"
_symmetry_group_IT_number 2
_symmetry_cell_setting 'triclinic'
loop_
_space_group_symop_operation_xyz
x,y,z
-x,-y,-z
loop_
_atom_site_type_symbol
_atom_site_label
_atom_site_fract_x
_atom_site_fract_y
_atom_site_fract_z
Si Si1 0.713438 0.001078 0.686454
Si Si2 0.932890 0.088471 0.365323
Si Si3 0.546127 0.242768 0.229409
Si Si4 0.674853 0.346312 0.188766
Si Si5 0.991659 0.274593 0.830538
Si Si6 0.212949 0.372469 0.019087
Si Si7 0.419409 0.128922 0.276129
O O1 0.696432 0.154898 0.427866
O O2 0.636511 0.780004 0.715421
O O3 0.763079 0.289654 0.886601
O O4 0.755508 0.804793 0.746968
O O5 0.951524 0.441733 0.269782
O O6 0.918186 0.096118 0.591844
O O7 0.871238 0.842110 0.145939
O O8 0.000000 0.000000 0.500000
O O9 0.623860 0.460937 0.212678
O O10 0.562554 0.054239 0.475808
O O11 0.495250 0.363773 0.246266
O O12 0.500000 0.000000 0.000000
O O13 0.745949 0.591674 0.143732
O O14 0.626186 0.114147 0.951207
O O15 0.000000 0.500000 0.000000
O O16 0.000000 0.000000 0.000000
#
# Coordination Sequence:
#
# PCOD9037756 Si02
#       7
#     2   2   2   2   2   2   2
#     4  10  23  41  62  93 130 174 217 270 326 395
#     4  11  26  45  72 102 137 175 229 286 344 412
#     4   8  13  27  59  93 127 170 218 270 323 382
#     4   9  19  38  60  90 129 173 219 266 329 389
#     4  11  24  44  70 101 135 171 217 277 343 410
#     4  11  26  42  66  93 132 168 219 268 333 393
#     4   8  15  31  58  91 129 169 219 271 321 382
#
# _framework density 25.563013999999999
#
# number of rings (size 3 to 8) (size 9 to 14) (size 15 to 20)
#    0.000    2.286    1.429    0.000    4.000    4.571 
#    0.000    0.714    0.000   77.143    0.000    0.000 
#    0.000    0.000    0.000    0.000    0.000    0.000 
#
# Total GULP energy -78188.524483 kJ/mol
# GULP energy per Si atom -5584.894606 kJ/mol
# Density = 2.550483 g / cm^3
# Si number density = 25.563014 Si / 1000 Ang^3
#
#
#
# Elastic Constant Matrix: (Units=GPa)
#
#
# Indices 1 2 3 4 5 6 
#
# 1 69.6373 34.0311 28.1406 -7.4810 19.7314 1.0907
# 2 34.0311 125.9346 43.5854 -2.0533 13.3169 -15.0324
# 3 28.1406 43.5854 164.5019 -1.3117 -7.6534 8.6571
# 4 -7.4810 -2.0533 -1.3117 43.2165 0.9336 2.6140
# 5 19.7314 13.3169 -7.6534 0.9336 34.3170 2.4422
# 6 1.0907 -15.0324 8.6571 2.6140 2.4422 33.8252
#
#
#
# Elastic Compliance Matrix: (Units=1/GPa)
#
#
# Indices 1 2 3 4 5 6 
#
# 1 0.020948 -0.003401 -0.003142 0.003668 -0.011466 -0.000838
# 2 -0.003401 0.010863 -0.002764 -0.000443 -0.003285 0.005916
# 3 -0.003142 -0.002764 0.007753 -0.000337 0.004862 -0.003436
# 4 0.003668 -0.000443 -0.000337 0.023912 -0.002528 -0.001894
# 5 -0.011466 -0.003285 0.004862 -0.002528 0.038511 -0.004920
# 6 -0.000838 0.005916 -0.003436 -0.001894 -0.004920 0.033601
#
#
# Mechanical properties :
#
#
# Convention : Reuss Voigt Hill
#
# Bulk Modulus (GPa) = 47.73516 63.50976 55.62246
# Shear Modulus (GPa) = 31.02017 39.22619 35.12318
#
# Velocity S-wave (km/s) = 3.48728 3.92151 3.71075
# Velocity P-wave (km/s) = 5.91007 6.73815 6.33765
#
# Compressibility (1/GPa) = 0.02094892
#
# Stress axis : x y z
#
# Youngs Moduli (GPa) = 47.73746 92.05879 128.97852
#
# Poissons Ratio (x) = 0.31309 0.40531
# Poissons Ratio (y) = 0.16235 0.35650
# Poissons Ratio (z) = 0.15001 0.25445
#
# Static dielectric constant tensor:
#      x y z
#    x 2.163780 0.032570 -0.027140 
#    y 0.032570 1.994150 0.044290 
#    z -0.027140 0.044290 1.945600 
# 
# From -- ./inp_files/121486.got.cif
#   From: 2010.05.17/outbox.cif.g08.bks.cpg/sg2_61_cif.got.tgz:121486.got - 2010.06.03 11:33:40.
