data_PCOD9037054
_publ_section_title
;
Structure prediction by ZEFSAII (Michael W. Deem and Ramdas Pophale) SiO2 
 PCOD9037054
Probable space group: P -1
;
_chemical_formula_sum "Si O2"
_cell_formula_units_Z 14
_cell_length_a 9.068717
_cell_length_b 15.567229
_cell_length_c 10.247681
_cell_angle_alpha 110.388505
_cell_angle_beta 58.550362
_cell_angle_gamma 61.809319
_cell_volume 665.331102
_symmetry_space_group_name_H-M "P -1"
_symmetry_group_IT_number 2
_symmetry_cell_setting 'triclinic'
loop_
_space_group_symop_operation_xyz
x,y,z
-x,-y,-z
loop_
_atom_site_type_symbol
_atom_site_label
_atom_site_fract_x
_atom_site_fract_y
_atom_site_fract_z
Si Si1 0.731862 0.199639 0.493495
Si Si2 0.363605 0.851553 0.250562
Si Si3 0.207319 0.152529 0.301147
Si Si4 0.968114 0.089939 0.950549
Si Si5 0.516751 0.991420 0.330514
Si Si6 0.871379 0.635931 0.716483
Si Si7 0.559110 0.583654 0.512451
O O1 0.535518 0.263135 0.745022
O O2 0.551896 0.321449 0.520397
O O3 0.982839 0.165029 0.397179
O O4 0.887451 0.033793 0.297266
O O5 0.476652 0.903581 0.263491
O O6 0.534357 0.762584 0.988721
O O7 0.000000 0.000000 0.500000
O O8 0.284367 0.137285 0.409945
O O9 0.094779 0.289836 0.350193
O O10 0.500000 0.000000 0.000000
O O11 0.636999 0.277104 0.212787
O O12 0.178404 0.086127 0.880878
O O13 0.000000 0.000000 0.000000
O O14 0.500000 0.000000 0.500000
O O15 0.000000 0.500000 0.500000
O O16 0.091079 0.552995 0.694386
O O17 0.500000 0.500000 0.500000
#
# Coordination Sequence:
#
# PCOD9037054 Si02
#       7
#     2   2   2   2   2   2   2
#     4  11  23  43  73 101 137 191 239 296 351 426
#     4  12  25  47  71 105 143 192 240 296 357 429
#     4  12  23  45  72 101 140 193 248 287 350 440
#     4  10  23  39  71 105 135 183 243 290 343 425
#     4  12  24  40  71 112 138 178 245 304 348 412
#     4  12  29  44  72 107 144 189 238 300 364 422
#     4  11  23  44  66 102 147 184 234 293 364 423
#
# _framework density 21.042155999999999
#
# number of rings (size 3 to 8) (size 9 to 14) (size 15 to 20)
#    0.000    0.571    5.714    2.571    8.000    0.571 
#    0.000    2.143    0.000    0.000    0.000    0.000 
#    0.000    0.000    0.000    0.000    0.000    0.000 
#
# Total GULP energy -78084.609631 kJ/mol
# GULP energy per Si atom -5577.472116 kJ/mol
# Density = 2.099426 g / cm^3
# Si number density = 21.042156 Si / 1000 Ang^3
#
#
#
# Elastic Constant Matrix: (Units=GPa)
#
#
# Indices 1 2 3 4 5 6 
#
# 1 98.3839 47.4992 47.3559 -3.7959 -5.4765 -1.0623
# 2 47.4992 131.8815 43.3498 -8.1418 -3.8565 3.5887
# 3 47.3559 43.3498 82.2229 -5.2463 -10.0125 13.9958
# 4 -3.7959 -8.1418 -5.2463 39.9539 3.5311 -1.6640
# 5 -5.4765 -3.8565 -10.0125 3.5311 40.6728 0.0016
# 6 -1.0623 3.5887 13.9958 -1.6640 0.0016 54.9876
#
#
#
# Elastic Compliance Matrix: (Units=1/GPa)
#
#
# Indices 1 2 3 4 5 6 
#
# 1 0.015355 -0.003090 -0.007647 -0.000064 -0.000102 0.002443
# 2 -0.003090 0.009889 -0.003439 0.001318 -0.000439 0.000210
# 3 -0.007647 -0.003439 0.019675 0.000648 0.003432 -0.004911
# 4 -0.000064 0.001318 0.000648 0.025570 -0.001944 0.000522
# 5 -0.000102 -0.000439 0.003432 -0.001944 0.025545 -0.000906
# 6 0.002443 0.000210 -0.004911 0.000522 -0.000906 0.019485
#
#
# Mechanical properties :
#
#
# Convention : Reuss Voigt Hill
#
# Bulk Modulus (GPa) = 60.36336 65.43312 62.89824
# Shear Modulus (GPa) = 33.46890 38.74176 36.10533
#
# Velocity S-wave (km/s) = 3.99251 4.29552 4.14678
# Velocity P-wave (km/s) = 7.07126 7.46764 7.27215
#
# Compressibility (1/GPa) = 0.01656634
#
# Stress axis : x y z
#
# Youngs Moduli (GPa) = 65.12474 101.12510 50.82705
#
# Poissons Ratio (x) = 0.31251 0.38867
# Poissons Ratio (y) = 0.20125 0.17479
# Poissons Ratio (z) = 0.49800 0.34776
#
# Static dielectric constant tensor:
#      x y z
#    x 1.801500 -0.021310 0.031240 
#    y -0.021310 1.711860 -0.034860 
#    z 0.031240 -0.034860 1.775050 
# 
# From -- ./inp_files/207003.got.cif
#   From: 2010.05.17/outbox.cif.g08.bks.cpg/sg2_104_cif.got.tgz:207003.got - 2010.06.03 11:33:40.
