data_PCOD9037619
_publ_section_title
;
Structure prediction by ZEFSAII (Michael W. Deem and Ramdas Pophale) SiO2 
 PCOD9037619
Probable space group: P -1
;
_chemical_formula_sum "Si O2"
_cell_formula_units_Z 14
_cell_length_a 13.560610
_cell_length_b 9.200638
_cell_length_c 8.237424
_cell_angle_alpha 111.358089
_cell_angle_beta 51.688433
_cell_angle_gamma 123.378825
_cell_volume 672.988698
_symmetry_space_group_name_H-M "P -1"
_symmetry_group_IT_number 2
_symmetry_cell_setting 'triclinic'
loop_
_space_group_symop_operation_xyz
x,y,z
-x,-y,-z
loop_
_atom_site_type_symbol
_atom_site_label
_atom_site_fract_x
_atom_site_fract_y
_atom_site_fract_z
Si Si1 0.977032 0.642072 0.977901
Si Si2 0.801592 0.110374 0.372554
Si Si3 0.948288 0.096980 0.725718
Si Si4 0.434886 0.862177 0.155956
Si Si5 0.272635 0.466790 0.075203
Si Si6 0.017639 0.330216 0.468706
Si Si7 0.320682 0.144983 0.891080
O O1 0.963625 0.790055 0.164419
O O2 0.845444 0.571541 0.959916
O O3 0.000000 0.500000 0.000000
O O4 0.126687 0.736744 0.770191
O O5 0.690680 0.120680 0.614222
O O6 0.941211 0.163420 0.359197
O O7 0.731849 0.940135 0.266142
O O8 0.946661 0.253201 0.679950
O O9 0.000000 0.000000 0.500000
O O10 0.803925 0.959853 0.895771
O O11 0.373140 0.668995 0.066065
O O12 0.548855 0.878863 0.182218
O O13 0.500000 0.000000 0.000000
O O14 0.182998 0.400777 0.307516
O O15 0.348672 0.344027 0.929725
O O16 0.000000 0.500000 0.500000
#
# Coordination Sequence:
#
# PCOD9037619 Si02
#       7
#     2   2   2   2   2   2   2
#     4  10  24  39  68 102 131 164 215 273 330 388
#     4  10  23  40  70  92 133 167 217 266 330 379
#     4  11  22  38  66 101 131 162 214 268 330 383
#     4  12  26  46  69  90 129 181 228 260 316 399
#     4  11  24  43  65  95 133 168 217 272 328 382
#     4  11  20  38  68  97 127 170 212 270 325 383
#     4  11  25  43  65  98 136 172 212 270 331 388
#
# _framework density 20.802726
#
# number of rings (size 3 to 8) (size 9 to 14) (size 15 to 20)
#    0.000    1.143    2.857    3.429    6.000    1.714 
#    0.000    0.714    0.000    0.000    0.000    0.000 
#    0.000    0.000    0.000    0.000    0.000    0.000 
#
# Total GULP energy -78043.109545 kJ/mol
# GULP energy per Si atom -5574.507825 kJ/mol
# Density = 2.075538 g / cm^3
# Si number density = 20.802726 Si / 1000 Ang^3
#
#
#
# Elastic Constant Matrix: (Units=GPa)
#
#
# Indices 1 2 3 4 5 6 
#
# 1 47.7051 22.1108 8.1351 -7.2808 8.0858 1.0259
# 2 22.1108 134.6143 47.2831 -5.3621 17.8601 3.0090
# 3 8.1351 47.2831 85.3988 -5.8205 18.7527 -2.2776
# 4 -7.2808 -5.3621 -5.8205 27.6573 3.7093 6.6347
# 5 8.0858 17.8601 18.7527 3.7093 25.7469 2.1033
# 6 1.0259 3.0090 -2.2776 6.6347 2.1033 37.9079
#
#
#
# Elastic Compliance Matrix: (Units=1/GPa)
#
#
# Indices 1 2 3 4 5 6 
#
# 1 0.024674 -0.003284 0.001625 0.007513 -0.007639 -0.001201
# 2 -0.003284 0.009981 -0.004638 0.000664 -0.002532 -0.000958
# 3 0.001625 -0.004638 0.016654 0.004110 -0.010111 0.001166
# 4 0.007513 0.000664 0.004110 0.042277 -0.011350 -0.006779
# 5 -0.007639 -0.002532 -0.010111 -0.011350 0.052084 -0.001103
# 6 -0.001201 -0.000958 0.001166 -0.006779 -0.001103 0.027806
#
#
# Mechanical properties :
#
#
# Convention : Reuss Voigt Hill
#
# Bulk Modulus (GPa) = 25.82869 46.97513 36.40191
# Shear Modulus (GPa) = 25.12883 30.94171 28.03527
#
# Velocity S-wave (km/s) = 3.47934 3.86085 3.67505
# Velocity P-wave (km/s) = 5.34640 6.51960 5.96193
#
# Compressibility (1/GPa) = 0.03871663
#
# Stress axis : x y z
#
# Youngs Moduli (GPa) = 40.52782 100.19287 60.04521
#
# Poissons Ratio (x) = 0.32904 -0.09760
# Poissons Ratio (y) = 0.13310 0.27847
# Poissons Ratio (z) = -0.06587 0.46465
#
# Static dielectric constant tensor:
#      x y z
#    x 1.804250 -0.029300 0.037080 
#    y -0.029300 1.785950 0.040730 
#    z 0.037080 0.040730 1.788060 
# 
# From -- ./inp_files/296009.got.cif
#   From: 2010.05.17/outbox.cif.g08.bks.cpg/sg2_149_cif.got.tgz:296009.got - 2010.06.03 11:33:40.
