data_PCOD9037395
_publ_section_title
;
Structure prediction by ZEFSAII (Michael W. Deem and Ramdas Pophale) SiO2 
 PCOD9037395
Probable space group: P -1
;
_chemical_formula_sum "Si O2"
_cell_formula_units_Z 16
_cell_length_a 18.267671
_cell_length_b 16.100228
_cell_length_c 12.084654
_cell_angle_alpha 49.787288
_cell_angle_beta 149.328973
_cell_angle_gamma 152.023680
_cell_volume 747.853350
_symmetry_space_group_name_H-M "P -1"
_symmetry_group_IT_number 2
_symmetry_cell_setting 'triclinic'
loop_
_space_group_symop_operation_xyz
x,y,z
-x,-y,-z
loop_
_atom_site_type_symbol
_atom_site_label
_atom_site_fract_x
_atom_site_fract_y
_atom_site_fract_z
Si Si1 0.160243 0.375884 0.012987
Si Si2 0.895739 0.099674 0.273667
Si Si3 0.432607 0.414529 0.820307
Si Si4 0.622483 0.747598 0.893446
Si Si5 0.583879 0.956745 0.564385
Si Si6 0.130485 0.149274 0.317134
Si Si7 0.227006 0.734224 0.074535
Si Si8 0.430145 0.736139 0.135148
O O1 0.420091 0.534251 0.139616
O O2 0.184104 0.301161 0.203702
O O3 0.164652 0.501566 0.956327
O O4 0.900852 0.177480 0.777092
O O5 0.121153 0.227497 0.550160
O O6 0.976650 0.076169 0.295131
O O7 0.608822 0.891045 0.132036
O O8 0.896289 0.224751 0.129174
O O9 0.550643 0.608499 0.833268
O O10 0.489024 0.370776 0.033993
O O11 0.529493 0.806139 0.681870
O O12 0.934036 0.961824 0.139218
O O13 0.433114 0.864938 0.331520
O O14 0.500000 0.000000 0.500000
O O15 0.387536 0.240077 0.590679
O O16 0.367242 0.790092 0.093855
O O17 0.000000 0.500000 0.000000
#
# Coordination Sequence:
#
# PCOD9037395 Si02
#       8
#     2   2   2   2   2   2   2   2
#     4  11  25  39  69  98 132 172 227 275 337 391
#     4  12  24  45  68  98 139 177 222 279 337 403
#     4  11  23  41  66 104 130 173 221 287 338 393
#     4  10  23  40  66  94 134 169 220 276 338 390
#     4  11  25  47  66  93 137 181 222 271 341 411
#     4  11  22  40  67  98 133 171 224 277 330 398
#     4  12  27  44  70  99 136 180 224 276 335 403
#     4  12  24  42  66 102 133 176 227 272 339 399
#
# _framework density 21.394566999999999
#
# number of rings (size 3 to 8) (size 9 to 14) (size 15 to 20)
#    0.000    0.750    2.500    5.625    5.250    1.000 
#    0.000    3.750    0.000    0.000    0.000    0.000 
#    0.000    0.000    0.000    0.000    0.000    0.000 
#
# Total GULP energy -89507.087276 kJ/mol
# GULP energy per Si atom -5594.192955 kJ/mol
# Density = 2.134587 g / cm^3
# Si number density = 21.394567 Si / 1000 Ang^3
#
#
#
# Elastic Constant Matrix: (Units=GPa)
#
#
# Indices 1 2 3 4 5 6 
#
# 1 55.4596 11.9410 16.9757 1.1895 -0.6509 -16.6348
# 2 11.9410 117.7758 26.9706 -3.4083 -3.4784 -24.7776
# 3 16.9757 26.9706 70.5664 -8.9482 -8.1439 -13.9904
# 4 1.1895 -3.4083 -8.9482 33.3967 -1.7638 -0.2286
# 5 -0.6509 -3.4784 -8.1439 -1.7638 27.4919 5.1908
# 6 -16.6348 -24.7776 -13.9904 -0.2286 5.1908 40.6984
#
#
#
# Elastic Compliance Matrix: (Units=1/GPa)
#
#
# Indices 1 2 3 4 5 6 
#
# 1 0.021645 0.000313 -0.004287 -0.001957 -0.002326 0.007850
# 2 0.000313 0.010271 -0.002958 0.000251 -0.000580 0.005440
# 3 -0.004287 -0.002958 0.017906 0.004914 0.004762 0.002023
# 4 -0.001957 0.000251 0.004914 0.031535 0.003314 0.000797
# 5 -0.002326 -0.000580 0.004762 0.003314 0.038736 -0.004589
# 6 0.007850 0.005440 0.002023 0.000797 -0.004589 0.032376
#
#
# Mechanical properties :
#
#
# Convention : Reuss Voigt Hill
#
# Bulk Modulus (GPa) = 27.80877 39.50850 33.65863
# Shear Modulus (GPa) = 28.03970 32.84504 30.44237
#
# Velocity S-wave (km/s) = 3.62415 3.92242 3.77623
# Velocity P-wave (km/s) = 5.52620 6.24664 5.89743
#
# Compressibility (1/GPa) = 0.03595988
#
# Stress axis : x y z
#
# Youngs Moduli (GPa) = 46.19999 97.36382 55.84575
#
# Poissons Ratio (x) = -0.03050 0.23941
# Poissons Ratio (y) = -0.01447 0.16516
# Poissons Ratio (z) = 0.19806 0.28795
#
# Static dielectric constant tensor:
#      x y z
#    x 1.779750 0.007570 -0.009630 
#    y 0.007570 1.789230 0.029670 
#    z -0.009630 0.029670 1.772980 
# 
# From -- ./inp_files/209359.got.cif
#   From: 2010.05.17/outbox.cif.g08.bks.cpg/sg2_105_cif.got.tgz:209359.got - 2010.06.03 11:33:40.
