data_PCOD9037187
_publ_section_title
;
Structure prediction by ZEFSAII (Michael W. Deem and Ramdas Pophale) SiO2 
 PCOD9037187
Probable space group: P -1
;
_chemical_formula_sum "Si O2"
_cell_formula_units_Z 16
_cell_length_a 8.991955
_cell_length_b 16.966473
_cell_length_c 7.194873
_cell_angle_alpha 66.107011
_cell_angle_beta 52.941339
_cell_angle_gamma 55.582549
_cell_volume 719.144829
_symmetry_space_group_name_H-M "P -1"
_symmetry_group_IT_number 2
_symmetry_cell_setting 'triclinic'
loop_
_space_group_symop_operation_xyz
x,y,z
-x,-y,-z
loop_
_atom_site_type_symbol
_atom_site_label
_atom_site_fract_x
_atom_site_fract_y
_atom_site_fract_z
Si Si1 0.120270 0.669448 0.543762
Si Si2 0.563866 0.145244 0.680148
Si Si3 0.694268 0.204962 0.139712
Si Si4 0.327846 0.619296 0.826516
Si Si5 0.654511 0.759026 0.914823
Si Si6 0.789477 0.487944 0.684665
Si Si7 0.607090 0.969563 0.646068
Si Si8 0.075811 0.881484 0.290107
O O1 0.268908 0.632834 0.643665
O O2 0.193818 0.594100 0.395008
O O3 0.102736 0.772795 0.400718
O O4 0.888865 0.688709 0.760324
O O5 0.613548 0.172700 0.413966
O O6 0.763373 0.107236 0.701413
O O7 0.497723 0.060408 0.776090
O O8 0.400270 0.236167 0.831096
O O9 0.776488 0.278425 0.087319
O O10 0.505725 0.256307 0.085743
O O11 0.861227 0.118975 0.972255
O O12 0.574787 0.579315 0.708634
O O13 0.249581 0.547965 0.051354
O O14 0.614656 0.868860 0.797201
O O15 0.000000 0.500000 0.500000
O O16 0.844614 0.950564 0.456675
O O17 0.500000 0.000000 0.500000
#
# Coordination Sequence:
#
# PCOD9037187 Si02
#       8
#     2   2   2   2   2   2   2   2
#     4  11  22  43  65  94 127 164 210 258 315 379
#     4  11  22  41  62  89 124 170 212 261 319 372
#     4  11  21  42  64  92 125 166 210 258 320 379
#     4  11  24  42  69  98 129 168 211 260 320 384
#     4  10  24  39  63  92 128 168 213 265 312 375
#     4  11  25  45  67  97 133 166 206 264 320 385
#     4  11  22  41  59  90 128 166 213 267 315 366
#     4  10  23  40  63  89 124 166 210 258 311 375
#
# _framework density 22.248649
#
# number of rings (size 3 to 8) (size 9 to 14) (size 15 to 20)
#    0.000    1.250    3.750    1.875    0.000    4.000 
#    2.250    0.000    0.000    0.000    0.000    0.000 
#    0.000    0.000    0.000    0.000    0.000    0.000 
#
# Total GULP energy -89475.343696 kJ/mol
# GULP energy per Si atom -5592.208981 kJ/mol
# Density = 2.219801 g / cm^3
# Si number density = 22.248649 Si / 1000 Ang^3
#
#
#
# Elastic Constant Matrix: (Units=GPa)
#
#
# Indices 1 2 3 4 5 6 
#
# 1 56.1347 0.0181 6.1973 6.1137 0.1928 11.5420
# 2 0.0181 48.6184 4.4980 7.4182 16.1936 6.2305
# 3 6.1973 4.4980 112.4680 5.2044 15.4830 -4.4147
# 4 6.1137 7.4182 5.2044 29.2612 5.0359 -0.5631
# 5 0.1928 16.1936 15.4830 5.0359 39.1770 11.9525
# 6 11.5420 6.2305 -4.4147 -0.5631 11.9525 30.7932
#
#
#
# Elastic Compliance Matrix: (Units=1/GPa)
#
#
# Indices 1 2 3 4 5 6 
#
# 1 0.020561 0.000889 -0.001853 -0.005048 0.003888 -0.009754
# 2 0.000889 0.024555 0.000383 -0.004944 -0.009122 -0.001796
# 3 -0.001853 0.000383 0.009880 -0.000489 -0.005227 0.004054
# 4 -0.005048 -0.004944 -0.000489 0.037373 -0.004097 0.005096
# 5 0.003888 -0.009122 -0.005227 -0.004097 0.036301 -0.014526
# 6 -0.009754 -0.001796 0.004054 0.005096 -0.014526 0.042807
#
#
# Mechanical properties :
#
#
# Convention : Reuss Voigt Hill
#
# Bulk Modulus (GPa) = 18.57583 26.51641 22.54612
# Shear Modulus (GPa) = 26.23522 33.61346 29.92434
#
# Velocity S-wave (km/s) = 3.43765 3.89113 3.67140
# Velocity P-wave (km/s) = 4.91161 5.66850 5.30358
#
# Compressibility (1/GPa) = 0.05383339
#
# Stress axis : x y z
#
# Youngs Moduli (GPa) = 48.63682 40.72421 101.21849
#
# Poissons Ratio (x) = -0.03620 0.18756
# Poissons Ratio (y) = -0.04323 -0.03877
# Poissons Ratio (z) = 0.09013 -0.01560
#
# Static dielectric constant tensor:
#      x y z
#    x 1.777070 0.007510 -0.043060 
#    y 0.007510 1.814200 -0.014090 
#    z -0.043060 -0.014090 1.865830 
# 
# From -- ./inp_files/46971.got.cif
#   From: 2010.05.17/outbox.cif.g08.bks.cpg/sg2_24_cif.got.tgz:46971.got - 2010.06.03 11:33:40.
