data_PCOD9037001
_publ_section_title
;
Structure prediction by ZEFSAII (Michael W. Deem and Ramdas Pophale) SiO2 
 PCOD9037001
Probable space group: P -1
;
_chemical_formula_sum "Si O2"
_cell_formula_units_Z 14
_cell_length_a 5.341923
_cell_length_b 15.030134
_cell_length_c 7.819076
_cell_angle_alpha 104.540527
_cell_angle_beta 103.910939
_cell_angle_gamma 94.832553
_cell_volume 582.833642
_symmetry_space_group_name_H-M "P -1"
_symmetry_group_IT_number 2
_symmetry_cell_setting 'triclinic'
loop_
_space_group_symop_operation_xyz
x,y,z
-x,-y,-z
loop_
_atom_site_type_symbol
_atom_site_label
_atom_site_fract_x
_atom_site_fract_y
_atom_site_fract_z
Si Si1 0.125160 0.676575 0.785641
Si Si2 0.896779 0.640678 0.072815
Si Si3 0.284285 0.060426 0.556669
Si Si4 0.700021 0.376319 0.603898
Si Si5 0.392327 0.190716 0.953761
Si Si6 0.740719 0.515877 0.282275
Si Si7 0.707216 0.786469 0.662581
O O1 0.310866 0.761582 0.946371
O O2 0.297628 0.594104 0.751621
O O3 0.437638 0.714891 0.561165
O O4 0.924046 0.626340 0.870736
O O5 0.181605 0.655981 0.214742
O O6 0.747967 0.551929 0.104337
O O7 0.637545 0.893155 0.223988
O O8 0.273330 0.138631 0.447422
O O9 0.500000 0.000000 0.500000
O O10 0.712121 0.826909 0.876388
O O11 0.000000 0.000000 0.500000
O O12 0.963089 0.435492 0.597162
O O13 0.478122 0.438389 0.634991
O O14 0.060157 0.275056 0.345450
O O15 0.239496 0.268988 0.884220
#
# Coordination Sequence:
#
# PCOD9037001 Si02
#       7
#     2   2   2   2   2   2   2
#     4  11  24  41  70 110 158 206 252 314 362 439
#     4   9  21  40  68 103 155 204 259 300 356 432
#     4  12  32  56  87 113 145 191 246 320 402 480
#     4  10  24  42  69 104 154 210 257 303 350 434
#     4  11  27  48  80 113 156 197 251 313 390 449
#     4  10  23  39  68 107 157 212 267 296 354 419
#     4  11  28  49  78 114 155 199 251 315 386 452
#
# _framework density 24.020572999999999
#
# number of rings (size 3 to 8) (size 9 to 14) (size 15 to 20)
#    0.857    0.571    0.000    3.000   14.000    3.429 
#    0.000    0.000    0.000    0.000    0.000    0.000 
#    0.000    0.000    0.000    0.000    0.000    0.000 
#
# Total GULP energy -78325.977308 kJ/mol
# GULP energy per Si atom -5594.712665 kJ/mol
# Density = 2.396590 g / cm^3
# Si number density = 24.020573 Si / 1000 Ang^3
#
#
#
# Elastic Constant Matrix: (Units=GPa)
#
#
# Indices 1 2 3 4 5 6 
#
# 1 186.1377 70.8165 46.0365 9.8470 10.9741 -6.9077
# 2 70.8165 122.5964 72.8605 10.4564 5.7664 -1.9409
# 3 46.0365 72.8605 101.2357 -6.2961 -3.6447 -4.5300
# 4 9.8470 10.4564 -6.2961 51.8562 9.1348 -2.3746
# 5 10.9741 5.7664 -3.6447 9.1348 34.0029 0.7882
# 6 -6.9077 -1.9409 -4.5300 -2.3746 0.7882 43.9309
#
#
#
# Elastic Compliance Matrix: (Units=1/GPa)
#
#
# Indices 1 2 3 4 5 6 
#
# 1 0.007038 -0.003516 -0.000714 -0.000379 -0.001670 0.000887
# 2 -0.003516 0.017220 -0.011154 -0.003873 -0.001915 -0.001117
# 3 -0.000714 -0.011154 0.018665 0.004198 0.002960 0.001493
# 4 -0.000379 -0.003873 0.004198 0.021521 -0.004586 0.001448
# 5 -0.001670 -0.001915 0.002960 -0.004586 0.031842 -0.000861
# 6 0.000887 -0.001117 0.001493 0.001448 -0.000861 0.023101
#
#
# Mechanical properties :
#
#
# Convention : Reuss Voigt Hill
#
# Bulk Modulus (GPa) = 82.27579 87.71075 84.99327
# Shear Modulus (GPa) = 32.42423 40.64177 36.53300
#
# Velocity S-wave (km/s) = 3.67802 4.11780 3.90411
# Velocity P-wave (km/s) = 7.23628 7.69432 7.46881
#
# Compressibility (1/GPa) = 0.01215424
#
# Stress axis : x y z
#
# Youngs Moduli (GPa) = 142.08219 58.07360 53.57735
#
# Poissons Ratio (x) = 0.20420 0.03825
# Poissons Ratio (y) = 0.49960 0.59759
# Poissons Ratio (z) = 0.10143 0.64774
#
# Static dielectric constant tensor:
#      x y z
#    x 1.946980 -0.021870 -0.058160 
#    y -0.021870 1.876360 0.069860 
#    z -0.058160 0.069860 2.145710 
# 
# From -- ./inp_files/134975.got.cif
#   From: 2010.05.17/outbox.cif.g08.bks.cpg/sg2_68_cif.got.tgz:134975.got - 2010.06.03 11:33:40.
