data_PCOD9037822
_publ_section_title
;
Structure prediction by ZEFSAII (Michael W. Deem and Ramdas Pophale) SiO2 
 PCOD9037822
Probable space group: P -1
;
_chemical_formula_sum "Si O2"
_cell_formula_units_Z 10
_cell_length_a 6.922268
_cell_length_b 7.390134
_cell_length_c 8.557054
_cell_angle_alpha 111.027455
_cell_angle_beta 80.102472
_cell_angle_gamma 88.232267
_cell_volume 400.474369
_symmetry_space_group_name_H-M "P -1"
_symmetry_group_IT_number 2
_symmetry_cell_setting 'triclinic'
loop_
_space_group_symop_operation_xyz
x,y,z
-x,-y,-z
loop_
_atom_site_type_symbol
_atom_site_label
_atom_site_fract_x
_atom_site_fract_y
_atom_site_fract_z
Si Si1 0.587188 0.263453 0.810977
Si Si2 0.216140 0.471144 0.893858
Si Si3 0.953597 0.343069 0.328945
Si Si4 0.643198 0.880164 0.814692
Si Si5 0.394102 0.822169 0.543630
O O1 0.348188 0.267866 0.844220
O O2 0.615597 0.326158 0.647896
O O3 0.710919 0.058687 0.759049
O O4 0.658145 0.386505 0.981799
O O5 0.183323 0.536286 0.741421
O O6 0.000000 0.500000 0.000000
O O7 0.829722 0.172984 0.361208
O O8 0.000000 0.500000 0.500000
O O9 0.162132 0.250375 0.199986
O O10 0.521773 0.774240 0.667321
O O11 0.500000 0.000000 0.000000
O O12 0.500000 0.000000 0.500000
#
# Coordination Sequence:
#
# PCOD9037822 Si02
#       5
#     2   2   2   2   2
#     4  10  23  41  63  94 134 180 225 275 341 407
#     4  11  23  40  65  97 138 179 224 281 344 408
#     4  12  26  43  71 105 137 180 233 285 345 411
#     4  11  24  43  69 100 137 179 230 287 345 409
#     4  10  24  44  67  96 138 181 227 283 342 407
#
# _framework density 24.970389000000001
#
# number of rings (size 3 to 8) (size 9 to 14) (size 15 to 20)
#    0.000    1.200    0.000    4.800    0.000   16.000 
#    0.000    0.000    0.000    0.000    0.000    0.000 
#    0.000    0.000    0.000    0.000    0.000    0.000 
#
# Total GULP energy -55681.515434 kJ/mol
# GULP energy per Si atom -5568.151543 kJ/mol
# Density = 2.491356 g / cm^3
# Si number density = 24.970389 Si / 1000 Ang^3
#
#
#
# Elastic Constant Matrix: (Units=GPa)
#
#
# Indices 1 2 3 4 5 6 
#
# 1 168.8918 45.5690 59.2286 -11.4953 3.5102 -19.9051
# 2 45.5690 79.9503 12.4249 -5.5883 6.9077 -5.9828
# 3 59.2286 12.4249 154.2795 -13.7430 30.5652 -9.2228
# 4 -11.4953 -5.5883 -13.7430 26.1795 0.4307 -4.8172
# 5 3.5102 6.9077 30.5652 0.4307 59.7238 -4.5858
# 6 -19.9051 -5.9828 -9.2228 -4.8172 -4.5858 47.9847
#
#
#
# Elastic Compliance Matrix: (Units=1/GPa)
#
#
# Indices 1 2 3 4 5 6 
#
# 1 0.008496 -0.004201 -0.002934 0.001777 0.001688 0.002777
# 2 -0.004201 0.015085 0.000990 0.001990 -0.001993 0.000338
# 3 -0.002934 0.000990 0.008764 0.003696 -0.004412 0.000540
# 4 0.001777 0.001990 0.003696 0.042437 -0.002090 0.005756
# 5 0.001688 -0.001993 -0.004412 -0.002090 0.019243 0.001233
# 6 0.002777 0.000338 0.000540 0.005756 0.001233 0.022833
#
#
# Mechanical properties :
#
#
# Convention : Reuss Voigt Hill
#
# Bulk Modulus (GPa) = 49.85871 70.84070 60.34970
# Shear Modulus (GPa) = 36.81033 45.83756 41.32395
#
# Velocity S-wave (km/s) = 3.84364 4.28913 4.07248
# Velocity P-wave (km/s) = 6.30148 7.27738 6.80694
#
# Compressibility (1/GPa) = 0.02005668
#
# Stress axis : x y z
#
# Youngs Moduli (GPa) = 117.69976 66.29255 114.10411
#
# Poissons Ratio (x) = 0.27846 0.33474
# Poissons Ratio (y) = 0.49440 -0.11297
# Poissons Ratio (z) = 0.34529 -0.06563
#
# Static dielectric constant tensor:
#      x y z
#    x 1.847860 0.113850 -0.059700 
#    y 0.113850 2.069360 0.031780 
#    z -0.059700 0.031780 2.117070 
# 
# From -- ./inp_files/15444.got.cif
#   From: 2010.05.17/outbox.cif.g08.bks.cpg/sg2_8_cif.got.tgz:15444.got - 2010.06.03 11:33:40.
