data_PCOD9037740
_publ_section_title
;
Structure prediction by ZEFSAII (Michael W. Deem and Ramdas Pophale) SiO2 
 PCOD9037740
Probable space group: P -1
;
_chemical_formula_sum "Si O2"
_cell_formula_units_Z 16
_cell_length_a 5.491848
_cell_length_b 8.933038
_cell_length_c 19.941566
_cell_angle_alpha 86.865781
_cell_angle_beta 97.308047
_cell_angle_gamma 53.452152
_cell_volume 769.038117
_symmetry_space_group_name_H-M "P -1"
_symmetry_group_IT_number 2
_symmetry_cell_setting 'triclinic'
loop_
_space_group_symop_operation_xyz
x,y,z
-x,-y,-z
loop_
_atom_site_type_symbol
_atom_site_label
_atom_site_fract_x
_atom_site_fract_y
_atom_site_fract_z
Si Si1 0.563147 0.898536 0.433111
Si Si2 0.291941 0.663506 0.434999
Si Si3 0.797499 0.782768 0.700311
Si Si4 0.959060 0.193500 0.151513
Si Si5 0.794529 0.140815 0.929941
Si Si6 0.516780 0.550010 0.692656
Si Si7 0.288677 0.528624 0.160921
Si Si8 0.855156 0.522178 0.065893
O O1 0.408724 0.791645 0.434743
O O2 0.932318 0.770336 0.437293
O O3 0.500000 0.000000 0.500000
O O4 0.404375 0.041140 0.361223
O O5 0.500000 0.500000 0.500000
O O6 0.364045 0.566087 0.367957
O O7 0.635699 0.678791 0.696585
O O8 0.836925 0.828860 0.776954
O O9 0.148976 0.659527 0.685956
O O10 0.607289 0.319460 0.164227
O O11 0.885366 0.333738 0.083250
O O12 0.118488 0.991519 0.128223
O O13 0.794198 0.313022 0.899876
O O14 0.454370 0.267652 0.946152
O O15 0.000000 0.000000 0.000000
O O16 0.676679 0.415816 0.766387
O O17 0.020047 0.511526 0.140847
O O18 0.000000 0.500000 0.000000
#
# Coordination Sequence:
#
# PCOD9037740 Si02
#       8
#     2   2   2   2   2   2   2   2
#     4  12  25  43  68 102 137 175 226 271 324 394
#     4  12  25  43  69 100 136 181 219 272 327 393
#     4  11  23  44  68  97 131 176 215 279 331 392
#     4  10  23  41  62  89 129 168 216 270 341 392
#     4  11  24  40  61  93 124 167 221 276 329 405
#     4  11  23  44  69  95 134 173 221 270 339 391
#     4  10  23  41  62  89 127 170 213 275 332 399
#     4  11  22  40  63  89 124 167 216 271 337 397
#
# _framework density 20.805211
#
# number of rings (size 3 to 8) (size 9 to 14) (size 15 to 20)
#    0.000    1.000    1.250    5.250    1.750    6.000 
#    0.000    0.000    0.000    0.000    0.000    0.000 
#    0.000    0.000    0.000    0.000    0.000    0.000 
#
# Total GULP energy -89202.166496 kJ/mol
# GULP energy per Si atom -5575.135406 kJ/mol
# Density = 2.075786 g / cm^3
# Si number density = 20.805211 Si / 1000 Ang^3
#
#
#
# Elastic Constant Matrix: (Units=GPa)
#
#
# Indices 1 2 3 4 5 6 
#
# 1 84.1983 28.6726 19.6808 -3.6606 2.2387 -6.7251
# 2 28.6726 100.5404 50.2215 2.9433 5.0933 -3.3860
# 3 19.6808 50.2215 136.7064 -6.8604 1.3007 -11.5607
# 4 -3.6606 2.9433 -6.8604 50.5150 -6.4869 8.2831
# 5 2.2387 5.0933 1.3007 -6.4869 30.2988 4.9036
# 6 -6.7251 -3.3860 -11.5607 8.2831 4.9036 24.8253
#
#
#
# Elastic Compliance Matrix: (Units=1/GPa)
#
#
# Indices 1 2 3 4 5 6 
#
# 1 0.013443 -0.003537 -0.000351 0.000552 -0.000744 0.002959
# 2 -0.003537 0.013356 -0.004486 -0.001895 -0.002170 -0.000164
# 3 -0.000351 -0.004486 0.009341 0.000968 0.000051 0.003310
# 4 0.000552 -0.001895 0.000968 0.022261 0.006352 -0.008340
# 5 -0.000744 -0.002170 0.000051 0.006352 0.036365 -0.009776
# 6 0.002959 -0.000164 0.003310 -0.008340 -0.009776 0.047316
#
#
# Mechanical properties :
#
#
# Convention : Reuss Voigt Hill
#
# Bulk Modulus (GPa) = 51.56557 57.62166 54.59362
# Shear Modulus (GPa) = 30.24911 35.98582 33.11747
#
# Velocity S-wave (km/s) = 3.81717 4.16342 3.99405
# Velocity P-wave (km/s) = 6.65330 7.13218 6.89690
#
# Compressibility (1/GPa) = 0.01939278
#
# Stress axis : x y z
#
# Youngs Moduli (GPa) = 74.38561 74.87523 107.05119
#
# Poissons Ratio (x) = 0.26486 0.03756
# Poissons Ratio (y) = 0.26313 0.48018
# Poissons Ratio (z) = 0.02610 0.33585
#
# Static dielectric constant tensor:
#      x y z
#    x 1.932760 0.098170 -0.015670 
#    y 0.098170 1.800200 -0.018160 
#    z -0.015670 -0.018160 1.749460 
# 
# From -- ./inp_files/11078.got.cif
#   From: 2010.05.17/outbox.cif.g08.bks.cpg/sg2_6_cif.got.tgz:11078.got - 2010.06.03 11:33:40.
