data_PCOD9037528
_publ_section_title
;
Structure prediction by ZEFSAII (Michael W. Deem and Ramdas Pophale) SiO2 
 PCOD9037528
Probable space group: P -1
;
_chemical_formula_sum "Si O2"
_cell_formula_units_Z 14
_cell_length_a 11.187929
_cell_length_b 10.159210
_cell_length_c 7.313267
_cell_angle_alpha 132.060618
_cell_angle_beta 114.645212
_cell_angle_gamma 60.876954
_cell_volume 533.786824
_symmetry_space_group_name_H-M "P -1"
_symmetry_group_IT_number 2
_symmetry_cell_setting 'triclinic'
loop_
_space_group_symop_operation_xyz
x,y,z
-x,-y,-z
loop_
_atom_site_type_symbol
_atom_site_label
_atom_site_fract_x
_atom_site_fract_y
_atom_site_fract_z
Si Si1 0.664002 0.380689 0.504169
Si Si2 0.555889 0.149874 0.780625
Si Si3 0.706285 0.424066 0.144569
Si Si4 0.148297 0.024722 0.668206
Si Si5 0.267302 0.220746 0.372644
Si Si6 0.680364 0.731078 0.973993
Si Si7 0.008873 0.191688 0.099803
O O1 0.500000 0.500000 0.500000
O O2 0.713719 0.377326 0.323521
O O3 0.727834 0.169864 0.419491
O O4 0.727824 0.507681 0.792324
O O5 0.466773 0.201797 0.956913
O O6 0.500000 0.000000 0.500000
O O7 0.702987 0.997090 0.774859
O O8 0.601022 0.324545 0.900272
O O9 0.671029 0.648671 0.335689
O O10 0.858747 0.323712 0.078580
O O11 0.221264 0.169678 0.765778
O O12 0.103400 0.126855 0.924867
O O13 0.000000 0.000000 0.500000
O O14 0.102095 0.296528 0.363165
O O15 0.329623 0.229259 0.215637
O O16 0.000000 0.000000 0.000000
#
# Coordination Sequence:
#
# PCOD9037528 Si02
#       7
#     2   2   2   2   2   2   2
#     4  11  22  41  71  98 123 172 226 267 313 388
#     4  12  25  39  60  96 134 168 204 272 337 381
#     4  11  22  41  67  93 126 165 224 269 315 385
#     4  11  26  43  65  98 135 174 210 273 334 385
#     4  10  23  40  68  91 120 173 223 266 313 387
#     4  10  24  41  67  92 126 173 225 261 318 396
#     4  11  20  42  68  91 128 171 218 266 319 388
#
# _framework density 26.227698
#
# number of rings (size 3 to 8) (size 9 to 14) (size 15 to 20)
#    0.000    1.143    4.286    1.714    6.000    1.143 
#    2.571    0.000    0.000    0.000    0.000    0.000 
#    0.000    0.000    0.000    0.000    0.000    0.000 
#
# Total GULP energy -78112.659479 kJ/mol
# GULP energy per Si atom -5579.475677 kJ/mol
# Density = 2.616800 g / cm^3
# Si number density = 26.227698 Si / 1000 Ang^3
#
#
#
# Elastic Constant Matrix: (Units=GPa)
#
#
# Indices 1 2 3 4 5 6 
#
# 1 112.6547 20.6500 40.8273 19.0119 20.9542 -23.1208
# 2 20.6500 57.5761 42.4245 29.7211 -2.5163 -7.9828
# 3 40.8273 42.4245 153.3332 38.6565 28.9003 -15.1677
# 4 19.0119 29.7211 38.6565 43.6036 -6.2552 8.3318
# 5 20.9542 -2.5163 28.9003 -6.2552 54.3367 -1.0933
# 6 -23.1208 -7.9828 -15.1677 8.3318 -1.0933 37.9725
#
#
#
# Elastic Compliance Matrix: (Units=1/GPa)
#
#
# Indices 1 2 3 4 5 6 
#
# 1 0.013668 0.001093 0.001228 -0.010932 -0.006906 0.011242
# 2 0.001093 0.031708 -0.002366 -0.022143 -0.000018 0.011245
# 3 0.001228 -0.002366 0.012380 -0.012586 -0.008462 0.007713
# 4 -0.010932 -0.022143 -0.012586 0.061936 0.016422 -0.029456
# 5 -0.006906 -0.000018 -0.008462 0.016422 0.027248 -0.010407
# 6 0.011242 0.011245 0.007713 -0.029456 -0.010407 0.044789
#
#
# Mechanical properties :
#
#
# Convention : Reuss Voigt Hill
#
# Bulk Modulus (GPa) = 17.34088 59.04085 38.19087
# Shear Modulus (GPa) = 23.69200 41.82671 32.75936
#
# Velocity S-wave (km/s) = 3.00879 3.99777 3.53801
# Velocity P-wave (km/s) = 4.32394 6.62339 5.59311
#
# Compressibility (1/GPa) = 0.05766719
#
# Stress axis : x y z
#
# Youngs Moduli (GPa) = 73.16335 31.53735 80.77296
#
# Poissons Ratio (x) = -0.03448 -0.09919
# Poissons Ratio (y) = -0.07999 0.19112
# Poissons Ratio (z) = -0.08984 0.07462
#
# Static dielectric constant tensor:
#      x y z
#    x 1.080000 -0.381320 -0.033560 
#    y -0.381320 2.252210 -0.338320 
#    z -0.033560 -0.338320 2.258360 
# 
# From -- ./inp_files/256088.got.cif
#   From: 2010.05.17/outbox.cif.g08.bks.cpg/sg2_129_cif.got.tgz:256088.got - 2010.06.03 11:33:40.
