data_PCOD9037386
_publ_section_title
;
Structure prediction by ZEFSAII (Michael W. Deem and Ramdas Pophale) SiO2 
 PCOD9037386
Probable space group: P -1
;
_chemical_formula_sum "Si O2"
_cell_formula_units_Z 12
_cell_length_a 6.670724
_cell_length_b 9.843312
_cell_length_c 9.042412
_cell_angle_alpha 108.512901
_cell_angle_beta 67.985005
_cell_angle_gamma 78.214051
_cell_volume 485.392836
_symmetry_space_group_name_H-M "P -1"
_symmetry_group_IT_number 2
_symmetry_cell_setting 'triclinic'
loop_
_space_group_symop_operation_xyz
x,y,z
-x,-y,-z
loop_
_atom_site_type_symbol
_atom_site_label
_atom_site_fract_x
_atom_site_fract_y
_atom_site_fract_z
Si Si1 0.639969 0.389902 0.088985
Si Si2 0.728965 0.804608 0.407826
Si Si3 0.995406 0.746306 0.800197
Si Si4 0.854086 0.390462 0.593339
Si Si5 0.772311 0.105193 0.404804
Si Si6 0.389002 0.289265 0.910312
O O1 0.813957 0.319075 0.148082
O O2 0.699316 0.527840 0.043815
O O3 0.379158 0.468161 0.255423
O O4 0.625711 0.272727 0.925811
O O5 0.934812 0.661381 0.367849
O O6 0.486875 0.844522 0.576998
O O7 0.653768 0.783386 0.255118
O O8 0.806406 0.950512 0.428675
O O9 0.035884 0.892551 0.766532
O O10 0.046846 0.624874 0.606979
O O11 0.756759 0.765470 0.949247
O O12 0.765958 0.245817 0.559665
#
# Coordination Sequence:
#
# PCOD9037386 Si02
#       6
#     2   2   2   2   2   2
#     4  11  24  42  61  92 131 160 209 242 319 368
#     4  11  22  43  68  89 123 165 211 243 315 364
#     4  10  24  40  64  95 124 160 205 259 307 355
#     4  10  23  40  66  91 121 165 204 256 297 369
#     4   9  23  43  64  93 121 163 208 255 299 371
#     4  11  25  39  64  91 126 170 195 261 305 367
#
# _framework density 24.722241
#
# number of rings (size 3 to 8) (size 9 to 14) (size 15 to 20)
#    1.000    0.667    1.667    1.500    9.333    1.333 
#    0.000    0.833    0.000    0.000    0.000    0.000 
#    0.000    0.000    0.000    0.000    0.000    0.000 
#
# Total GULP energy -67016.906310 kJ/mol
# GULP energy per Si atom -5584.742193 kJ/mol
# Density = 2.466597 g / cm^3
# Si number density = 24.722241 Si / 1000 Ang^3
#
#
#
# Elastic Constant Matrix: (Units=GPa)
#
#
# Indices 1 2 3 4 5 6 
#
# 1 57.6458 12.3791 9.9152 1.3338 1.3827 5.6273
# 2 12.3791 58.3391 3.8887 -4.7723 -13.5821 17.7160
# 3 9.9152 3.8887 68.3797 -18.9052 19.0313 12.3510
# 4 1.3338 -4.7723 -18.9052 25.5256 11.2567 -7.7861
# 5 1.3827 -13.5821 19.0313 11.2567 49.0542 -15.6847
# 6 5.6273 17.7160 12.3510 -7.7861 -15.6847 40.5421
#
#
#
# Elastic Compliance Matrix: (Units=1/GPa)
#
#
# Indices 1 2 3 4 5 6 
#
# 1 0.019055 -0.003838 -0.004478 -0.005692 0.001393 -0.000158
# 2 -0.003838 0.021017 -0.000471 -0.000072 0.003882 -0.007019
# 3 -0.004478 -0.000471 0.032793 0.031166 -0.023844 -0.012402
# 4 -0.005692 -0.000072 0.031166 0.074277 -0.031048 -0.006420
# 5 0.001393 0.003882 -0.023844 -0.031048 0.042918 0.016015
# 6 -0.000158 -0.007019 -0.012402 -0.006420 0.016015 0.036496
#
#
# Mechanical properties :
#
#
# Convention : Reuss Voigt Hill
#
# Bulk Modulus (GPa) = 18.08630 26.30338 22.19484
# Shear Modulus (GPa) = 19.04315 33.56982 26.30648
#
# Velocity S-wave (km/s) = 2.77841 3.68894 3.26557
# Velocity P-wave (km/s) = 4.19815 5.36722 4.81827
#
# Compressibility (1/GPa) = 0.05529045
#
# Stress axis : x y z
#
# Youngs Moduli (GPa) = 52.47834 47.58150 30.49389
#
# Poissons Ratio (x) = 0.18263 0.13655
# Poissons Ratio (y) = 0.20143 0.01437
# Poissons Ratio (z) = 0.23499 0.02243
#
# Static dielectric constant tensor:
#      x y z
#    x 1.952540 0.061750 -0.032710 
#    y 0.061750 1.980530 0.026240 
#    z -0.032710 0.026240 2.083340 
# 
# From -- ./inp_files/131089.got.cif
#   From: 2010.05.17/outbox.cif.g08.bks.cpg/sg2_66_cif.got.tgz:131089.got - 2010.06.03 11:33:40.
