data_PCOD9037376
_publ_section_title
;
Structure prediction by ZEFSAII (Michael W. Deem and Ramdas Pophale) SiO2 
 PCOD9037376
Probable space group: P -1
;
_chemical_formula_sum "Si O2"
_cell_formula_units_Z 16
_cell_length_a 5.103996
_cell_length_b 22.642832
_cell_length_c 15.002955
_cell_angle_alpha 156.772974
_cell_angle_beta 89.569568
_cell_angle_gamma 89.916554
_cell_volume 683.624868
_symmetry_space_group_name_H-M "P -1"
_symmetry_group_IT_number 2
_symmetry_cell_setting 'triclinic'
loop_
_space_group_symop_operation_xyz
x,y,z
-x,-y,-z
loop_
_atom_site_type_symbol
_atom_site_label
_atom_site_fract_x
_atom_site_fract_y
_atom_site_fract_z
Si Si1 0.334159 0.695008 0.633998
Si Si2 0.066499 0.911822 0.615803
Si Si3 0.924098 0.402689 0.090377
Si Si4 0.152899 0.572957 0.182331
Si Si5 0.583847 0.692099 0.444858
Si Si6 0.860512 0.530633 0.448701
Si Si7 0.250596 0.909381 0.409382
Si Si8 0.418516 0.984167 0.150911
O O1 0.368316 0.690985 0.522698
O O2 0.550166 0.569678 0.496724
O O3 0.026406 0.673052 0.617401
O O4 0.401469 0.842603 0.892134
O O5 0.019386 0.741933 0.415054
O O6 0.199742 0.900929 0.503485
O O7 0.286218 0.991207 0.784179
O O8 0.795284 0.008148 0.757546
O O9 0.777921 0.559918 0.288302
O O10 0.949533 0.406052 0.201900
O O11 0.159396 0.437480 0.069228
O O12 0.768191 0.258605 0.861555
O O13 0.449112 0.635050 0.274637
O O14 0.000000 0.500000 0.000000
O O15 0.660562 0.863527 0.688544
O O16 0.000000 0.500000 0.500000
O O17 0.500000 0.000000 0.500000
O O18 0.000000 0.000000 0.500000
#
# Coordination Sequence:
#
# PCOD9037376 Si02
#       8
#     2   2   2   2   2   2   2   2
#     4  11  23  42  67 100 139 181 231 284 347 401
#     4  11  24  43  66 102 136 179 234 274 350 417
#     4  11  24  45  70 101 138 179 234 290 347 413
#     4  11  21  40  71 101 135 177 227 294 348 409
#     4  10  23  40  66 105 139 177 228 280 356 419
#     4  11  25  44  70  99 134 187 243 283 333 409
#     4  12  29  47  69  98 139 184 230 286 345 412
#     4  11  23  40  67 101 142 178 217 286 350 418
#
# _framework density 23.404648000000002
#
# number of rings (size 3 to 8) (size 9 to 14) (size 15 to 20)
#    0.000    1.000    3.750    2.250    1.750    4.500 
#    0.000    3.750    0.000    0.000    0.000    0.000 
#    0.000    0.000    0.000    0.000    0.000    0.000 
#
# Total GULP energy -89111.717218 kJ/mol
# GULP energy per Si atom -5569.482326 kJ/mol
# Density = 2.335138 g / cm^3
# Si number density = 23.404648 Si / 1000 Ang^3
#
#
#
# Elastic Constant Matrix: (Units=GPa)
#
#
# Indices 1 2 3 4 5 6 
#
# 1 71.8034 -7.6181 21.6901 4.2040 3.2753 3.0151
# 2 -7.6181 75.4206 26.0186 -3.6001 -1.9010 4.4266
# 3 21.6901 26.0186 121.8815 -12.5572 40.9493 3.2163
# 4 4.2040 -3.6001 -12.5572 25.6921 -5.6060 14.2135
# 5 3.2753 -1.9010 40.9493 -5.6060 31.7978 4.1359
# 6 3.0151 4.4266 3.2163 14.2135 4.1359 28.4240
#
#
#
# Elastic Compliance Matrix: (Units=1/GPa)
#
#
# Indices 1 2 3 4 5 6 
#
# 1 0.016052 0.003666 -0.005845 -0.003322 0.005607 -0.000767
# 2 0.003666 0.017190 -0.007883 0.003899 0.012257 -0.005907
# 3 -0.005845 -0.007883 0.019472 0.003054 -0.024628 0.001700
# 4 -0.003322 0.003899 0.003054 0.062841 0.012116 -0.033787
# 5 0.005607 0.012257 -0.024628 0.012116 0.067484 -0.015595
# 6 -0.000767 -0.005907 0.001700 -0.033787 -0.015595 0.055155
#
#
# Mechanical properties :
#
#
# Convention : Reuss Voigt Hill
#
# Bulk Modulus (GPa) = 30.68382 38.80963 34.74673
# Shear Modulus (GPa) = 18.57478 32.45042 25.51260
#
# Velocity S-wave (km/s) = 2.82021 3.72761 3.30520
# Velocity P-wave (km/s) = 4.87272 5.92830 5.42624
#
# Compressibility (1/GPa) = 0.03259047
#
# Stress axis : x y z
#
# Youngs Moduli (GPa) = 62.29587 58.17231 51.35642
#
# Poissons Ratio (x) = -0.21324 0.30018
# Poissons Ratio (y) = -0.22835 0.40482
# Poissons Ratio (z) = 0.36413 0.45855
#
# Static dielectric constant tensor:
#      x y z
#    x 2.279780 0.480740 -0.211000 
#    y 0.480740 3.048160 -0.621440 
#    z -0.211000 -0.621440 2.208560 
# 
# From -- ./inp_files/69885.got.cif
#   From: 2010.05.17/outbox.cif.g08.bks.cpg/sg2_35_cif.got.tgz:69885.got - 2010.06.03 11:33:40.
