data_PCOD9037677
_publ_section_title
;
Structure prediction by ZEFSAII (Michael W. Deem and Ramdas Pophale) SiO2 
 PCOD9037677
Probable space group: P -1
;
_chemical_formula_sum "Si O2"
_cell_formula_units_Z 10
_cell_length_a 8.692919
_cell_length_b 5.278034
_cell_length_c 12.277065
_cell_angle_alpha 131.178973
_cell_angle_beta 84.300126
_cell_angle_gamma 89.005064
_cell_volume 419.284699
_symmetry_space_group_name_H-M "P -1"
_symmetry_group_IT_number 2
_symmetry_cell_setting 'triclinic'
loop_
_space_group_symop_operation_xyz
x,y,z
-x,-y,-z
loop_
_atom_site_type_symbol
_atom_site_label
_atom_site_fract_x
_atom_site_fract_y
_atom_site_fract_z
Si Si1 0.517354 0.173809 0.826288
Si Si2 0.373774 0.286995 0.144231
Si Si3 0.039398 0.376702 0.084453
Si Si4 0.667759 0.322180 0.404998
Si Si5 0.859791 0.833730 0.407920
O O1 0.554810 0.355065 0.761872
O O2 0.369199 0.969904 0.761889
O O3 0.500000 0.500000 0.000000
O O4 0.217855 0.364915 0.107869
O O5 0.352850 0.105026 0.209858
O O6 0.500000 0.000000 0.000000
O O7 0.933119 0.616858 0.240315
O O8 0.000000 0.500000 0.000000
O O9 0.000000 0.000000 0.000000
O O10 0.500000 0.500000 0.500000
O O11 0.774476 0.585597 0.420899
O O12 0.743992 0.133057 0.450315
O O13 0.000000 0.000000 0.500000
#
# Coordination Sequence:
#
# PCOD9037677 Si02
#       5
#     2   2   2   2   2
#     4  10  23  40  73 103 144 181 251 309 371 425
#     4  10  23  41  71 102 146 187 245 301 379 438
#     4  12  28  46  77 111 152 199 253 316 389 447
#     4  12  28  49  80 108 149 208 263 307 376 463
#     4  12  30  52  75 112 161 201 254 318 389 455
#
# _framework density 23.850142999999999
#
# number of rings (size 3 to 8) (size 9 to 14) (size 15 to 20)
#    0.000    0.800    0.000    4.800   22.400    0.000 
#    0.000    0.000    0.000    0.000    0.000    0.000 
#    0.000    0.000    0.000    0.000    0.000    0.000 
#
# Total GULP energy -55966.223095 kJ/mol
# GULP energy per Si atom -5596.622310 kJ/mol
# Density = 2.379586 g / cm^3
# Si number density = 23.850143 Si / 1000 Ang^3
#
#
#
# Elastic Constant Matrix: (Units=GPa)
#
#
# Indices 1 2 3 4 5 6 
#
# 1 125.8132 61.2346 28.4479 25.5220 14.4594 -2.7630
# 2 61.2346 241.1927 47.4741 39.7988 21.6868 -0.2215
# 3 28.4479 47.4741 108.1378 14.6516 7.9327 13.1700
# 4 25.5220 39.7988 14.6516 33.6148 6.7227 3.2290
# 5 14.4594 21.6868 7.9327 6.7227 50.4816 6.4405
# 6 -2.7630 -0.2215 13.1700 3.2290 6.4405 57.3347
#
#
#
# Elastic Compliance Matrix: (Units=1/GPa)
#
#
# Indices 1 2 3 4 5 6 
#
# 1 0.010202 -0.001268 -0.001433 -0.005426 -0.001596 0.001301
# 2 -0.001268 0.005693 -0.001490 -0.004941 -0.001283 0.000726
# 3 -0.001433 -0.001490 0.010803 -0.001596 -0.000121 -0.002453
# 4 -0.005426 -0.004941 -0.001596 0.040863 -0.001250 -0.002075
# 5 -0.001596 -0.001283 -0.000121 -0.001250 0.021306 -0.002377
# 6 0.001301 0.000726 -0.002453 -0.002075 -0.002377 0.018454
#
#
# Mechanical properties :
#
#
# Convention : Reuss Voigt Hill
#
# Bulk Modulus (GPa) = 54.60408 83.27300 68.93854
# Shear Modulus (GPa) = 41.04796 50.81867 45.93332
#
# Velocity S-wave (km/s) = 4.15309 4.62101 4.39328
# Velocity P-wave (km/s) = 6.77804 7.96634 7.39609
#
# Compressibility (1/GPa) = 0.01831365
#
# Stress axis : x y z
#
# Youngs Moduli (GPa) = 98.01833 175.66651 92.56946
#
# Poissons Ratio (x) = 0.22276 0.13269
# Poissons Ratio (y) = 0.12429 0.13797
# Poissons Ratio (z) = 0.14050 0.26182
#
# Static dielectric constant tensor:
#      x y z
#    x 1.983010 0.070740 -0.046260 
#    y 0.070740 2.019370 -0.110060 
#    z -0.046260 -0.110060 2.023640 
# 
# From -- ./inp_files/359472.got.cif
#   From: 2010.05.17/outbox.cif.g08.bks.cpg/sg2_180_cif.got.tgz:359472.got - 2010.06.03 11:33:40.
