data_PCOD9037021
_publ_section_title
;
Structure prediction by ZEFSAII (Michael W. Deem and Ramdas Pophale) SiO2 
 PCOD9037021
Probable space group: P -1
;
_chemical_formula_sum "Si O2"
_cell_formula_units_Z 12
_cell_length_a 13.552886
_cell_length_b 12.290108
_cell_length_c 7.556221
_cell_angle_alpha 140.766123
_cell_angle_beta 135.444458
_cell_angle_gamma 33.056498
_cell_volume 426.832060
_symmetry_space_group_name_H-M "P -1"
_symmetry_group_IT_number 2
_symmetry_cell_setting 'triclinic'
loop_
_space_group_symop_operation_xyz
x,y,z
-x,-y,-z
loop_
_atom_site_type_symbol
_atom_site_label
_atom_site_fract_x
_atom_site_fract_y
_atom_site_fract_z
Si Si1 0.733364 0.783534 0.891191
Si Si2 0.101544 0.895057 0.686252
Si Si3 0.519004 0.259374 0.068688
Si Si4 0.134351 0.470158 0.889602
Si Si5 0.901127 0.864035 0.670101
Si Si6 0.518176 0.282747 0.707976
O O1 0.635896 0.698014 0.567779
O O2 0.925917 0.689778 0.930849
O O3 0.592889 0.053607 0.034040
O O4 0.793414 0.679480 0.029536
O O5 0.058219 0.068407 0.008768
O O6 0.000000 0.000000 0.500000
O O7 0.045507 0.773557 0.579522
O O8 0.320162 0.725190 0.707365
O O9 0.301646 0.469445 0.067125
O O10 0.533472 0.178259 0.785776
O O11 0.130440 0.311014 0.552241
O O12 0.717941 0.094417 0.644930
O O13 0.500000 0.500000 0.000000
#
# Coordination Sequence:
#
# PCOD9037021 Si02
#       6
#     2   2   2   2   2   2
#     4  11  25  44  75 105 148 186 245 299 357 439
#     4  10  23  39  69 103 137 185 236 285 361 429
#     4  11  24  47  72 105 139 189 246 295 356 430
#     4  11  25  45  74 109 140 192 245 296 362 426
#     4  10  23  45  71 102 148 189 234 298 368 424
#     4  11  26  45  71 106 147 188 240 301 366 431
#
# _framework density 28.114103
#
# number of rings (size 3 to 8) (size 9 to 14) (size 15 to 20)
#    0.000    1.333    1.667    2.000   11.667    2.000 
#    0.000    0.833    0.000    0.000    0.000    0.000 
#    0.000    0.000    0.000    0.000    0.000    0.000 
#
# Total GULP energy -67169.195188 kJ/mol
# GULP energy per Si atom -5597.432932 kJ/mol
# Density = 2.805011 g / cm^3
# Si number density = 28.114103 Si / 1000 Ang^3
#
#
#
# Elastic Constant Matrix: (Units=GPa)
#
#
# Indices 1 2 3 4 5 6 
#
# 1 134.3520 43.7143 38.1491 -31.1206 14.0429 -19.7100
# 2 43.7143 143.6003 43.2546 -30.6023 18.7201 -38.0252
# 3 38.1491 43.2546 181.0345 -29.8607 1.5995 -3.8814
# 4 -31.1206 -30.6023 -29.8607 47.0694 0.3304 2.6387
# 5 14.0429 18.7201 1.5995 0.3304 46.5723 -28.7490
# 6 -19.7100 -38.0252 -3.8814 2.6387 -28.7490 72.6167
#
#
#
# Elastic Compliance Matrix: (Units=1/GPa)
#
#
# Indices 1 2 3 4 5 6 
#
# 1 0.009548 -0.001041 -0.000896 0.005017 -0.001779 0.001112
# 2 -0.001041 0.009939 -0.001274 0.004733 -0.001033 0.004273
# 3 -0.000896 -0.001274 0.006448 0.002702 0.000174 -0.000595
# 4 0.005017 0.004733 0.002702 0.029264 -0.002531 0.001919
# 5 -0.001779 -0.001033 0.000174 -0.002531 0.028938 0.010534
# 6 0.001112 0.004273 -0.000595 0.001919 0.010534 0.020379
#
#
# Mechanical properties :
#
#
# Convention : Reuss Voigt Hill
#
# Bulk Modulus (GPa) = 51.24705 78.80253 65.02479
# Shear Modulus (GPa) = 42.57367 55.50960 49.04163
#
# Velocity S-wave (km/s) = 3.89564 4.44829 4.18111
# Velocity P-wave (km/s) = 6.20504 7.38061 6.81821
#
# Compressibility (1/GPa) = 0.01951332
#
# Stress axis : x y z
#
# Youngs Moduli (GPa) = 104.73916 100.61099 155.07585
#
# Poissons Ratio (x) = 0.10473 0.13896
# Poissons Ratio (y) = 0.10903 0.19756
# Poissons Ratio (z) = 0.09385 0.12817
#
# Static dielectric constant tensor:
#      x y z
#    x 2.307260 -0.031120 0.058840 
#    y -0.031120 2.197940 -0.002660 
#    z 0.058840 -0.002660 2.178840 
# 
# From -- ./inp_files/316105.got.cif
#   From: 2010.05.17/outbox.cif.g08.bks.cpg/sg2_159_cif.got.tgz:316105.got - 2010.06.03 11:33:40.
