data_PCOD9037998
_publ_section_title
;
Structure prediction by ZEFSAII (Michael W. Deem and Ramdas Pophale) SiO2 
 PCOD9037998
Probable space group: P -1
;
_chemical_formula_sum "Si O2"
_cell_formula_units_Z 16
_cell_length_a 11.311218
_cell_length_b 8.564536
_cell_length_c 12.763850
_cell_angle_alpha 130.738092
_cell_angle_beta 52.219085
_cell_angle_gamma 99.848382
_cell_volume 684.325255
_symmetry_space_group_name_H-M "P -1"
_symmetry_group_IT_number 2
_symmetry_cell_setting 'triclinic'
loop_
_space_group_symop_operation_xyz
x,y,z
-x,-y,-z
loop_
_atom_site_type_symbol
_atom_site_label
_atom_site_fract_x
_atom_site_fract_y
_atom_site_fract_z
Si Si1 0.128686 0.402801 0.611538
Si Si2 0.717182 0.739368 0.741951
Si Si3 0.271384 0.961410 0.611221
Si Si4 0.352251 0.802166 0.935096
Si Si5 0.370982 0.329889 0.792178
Si Si6 0.184193 0.825861 0.821120
Si Si7 0.167796 0.942005 0.444392
Si Si8 0.247221 0.465434 0.137053
O O1 0.152185 0.409712 0.476657
O O2 0.190070 0.575349 0.708598
O O3 0.939453 0.471898 0.767808
O O4 0.222916 0.145541 0.479768
O O5 0.542570 0.753329 0.803649
O O6 0.732195 0.649146 0.811903
O O7 0.720094 0.985290 0.856404
O O8 0.446815 0.813023 0.404766
O O9 0.254470 0.864776 0.690043
O O10 0.148914 0.945174 0.581949
O O11 0.262168 0.211201 0.744975
O O12 0.326798 0.585313 0.896130
O O13 0.275100 0.861576 0.888629
O O14 0.353587 0.321762 0.922954
O O15 0.000000 0.000000 0.000000
O O16 0.275039 0.694586 0.239833
O O17 0.000000 0.000000 0.500000
#
# Coordination Sequence:
#
# PCOD9037998 Si02
#       8
#     2   2   2   2   2   2   2   2
#     4  11  23  41  67  97 130 170 214 266 319 381
#     4  11  24  42  68  98 132 168 214 268 323 383
#     4  11  25  44  66  95 128 172 216 263 323 379
#     4  11  25  43  66  97 129 169 216 266 323 381
#     4  11  24  43  68  94 131 171 216 266 316 384
#     4  12  26  45  68  94 130 171 217 267 321 383
#     4  10  23  41  65  96 131 167 212 263 319 383
#     4  11  23  43  66  97 132 171 215 263 324 381
#
# _framework density 23.380694999999999
#
# number of rings (size 3 to 8) (size 9 to 14) (size 15 to 20)
#    0.000    1.000    0.000    6.375    0.000   13.000 
#    0.000    4.375    0.000    0.000    0.000    0.000 
#    0.000    0.000    0.000    0.000    0.000    0.000 
#
# Total GULP energy -89629.093074 kJ/mol
# GULP energy per Si atom -5601.818317 kJ/mol
# Density = 2.332748 g / cm^3
# Si number density = 23.380695 Si / 1000 Ang^3
#
#
#
# Elastic Constant Matrix: (Units=GPa)
#
#
# Indices 1 2 3 4 5 6 
#
# 1 77.6956 2.3240 1.1446 5.9260 22.2201 7.8272
# 2 2.3240 77.2836 14.9689 11.4960 10.2103 7.5803
# 3 1.1446 14.9689 97.5853 -4.7097 12.4863 18.7753
# 4 5.9260 11.4960 -4.7097 45.5097 7.7492 10.7271
# 5 22.2201 10.2103 12.4863 7.7492 33.1485 3.9926
# 6 7.8272 7.5803 18.7753 10.7271 3.9926 31.7445
#
#
#
# Elastic Compliance Matrix: (Units=1/GPa)
#
#
# Indices 1 2 3 4 5 6 
#
# 1 0.016573 0.000970 0.002047 0.000847 -0.011856 -0.004323
# 2 0.000970 0.014269 -0.001658 -0.003011 -0.003572 -0.001199
# 3 0.002047 -0.001658 0.013108 0.004542 -0.005817 -0.008665
# 4 0.000847 -0.003011 0.004542 0.026616 -0.006323 -0.010375
# 5 -0.011856 -0.003572 -0.005817 -0.006323 0.042400 0.004021
# 6 -0.004323 -0.001199 -0.008665 -0.010375 0.004021 0.040979
#
#
# Mechanical properties :
#
#
# Convention : Reuss Voigt Hill
#
# Bulk Modulus (GPa) = 21.42809 32.15993 26.79401
# Shear Modulus (GPa) = 29.97895 37.68900 33.83397
#
# Velocity S-wave (km/s) = 3.58468 4.01929 3.80819
# Velocity P-wave (km/s) = 5.13011 5.94343 5.55168
#
# Compressibility (1/GPa) = 0.04666773
#
# Stress axis : x y z
#
# Youngs Moduli (GPa) = 60.33791 70.08321 76.28756
#
# Poissons Ratio (x) = -0.06796 -0.15613
# Poissons Ratio (y) = -0.05851 0.12646
# Poissons Ratio (z) = -0.12349 0.11617
#
# Static dielectric constant tensor:
#      x y z
#    x 1.871000 0.003900 -0.005140 
#    y 0.003900 1.910610 0.021570 
#    z -0.005140 0.021570 1.845760 
# 
# From -- ./inp_files/419931.got.cif
#   From: 2010.05.17/outbox.cif.g08.bks.cpg/sg2_210_cif.got.tgz:419931.got - 2010.06.03 11:33:40.
