data_PCOD9037942
_publ_section_title
;
Structure prediction by ZEFSAII (Michael W. Deem and Ramdas Pophale) SiO2 
 PCOD9037942
Probable space group: P -1
;
_chemical_formula_sum "Si O2"
_cell_formula_units_Z 16
_cell_length_a 24.957668
_cell_length_b 11.309505
_cell_length_c 5.528501
_cell_angle_alpha 52.439906
_cell_angle_beta 51.788182
_cell_angle_gamma 33.038678
_cell_volume 653.207551
_symmetry_space_group_name_H-M "P -1"
_symmetry_group_IT_number 2
_symmetry_cell_setting 'triclinic'
loop_
_space_group_symop_operation_xyz
x,y,z
-x,-y,-z
loop_
_atom_site_type_symbol
_atom_site_label
_atom_site_fract_x
_atom_site_fract_y
_atom_site_fract_z
Si Si1 0.215145 0.365107 0.026783
Si Si2 0.243960 0.578888 0.346325
Si Si3 0.251070 0.988440 0.520168
Si Si4 0.017083 0.794641 0.242482
Si Si5 0.090587 0.087874 0.097507
Si Si6 0.646369 0.381029 0.635603
Si Si7 0.617552 0.832863 0.837869
Si Si8 0.581507 0.204744 0.358262
O O1 0.208118 0.198982 0.233896
O O2 0.325810 0.219003 0.008816
O O3 0.134498 0.557062 0.208482
O O4 0.201755 0.493069 0.677952
O O5 0.307762 0.569877 0.376932
O O6 0.324178 0.401496 0.142143
O O7 0.148995 0.835308 0.228989
O O8 0.264948 0.815829 0.545060
O O9 0.364079 0.840090 0.486873
O O10 0.177879 0.071683 0.846002
O O11 0.964905 0.824488 0.598938
O O12 0.974954 0.790040 0.116222
O O13 0.000000 0.000000 0.000000
O O14 0.540104 0.602997 0.538294
O O15 0.616384 0.277494 0.989652
O O16 0.623581 0.971091 0.479407
O O17 0.500000 0.000000 0.000000
#
# Coordination Sequence:
#
# PCOD9037942 Si02
#       8
#     2   2   2   2   2   2   2   2
#     4  11  27  46  75 105 149 192 247 305 380 439
#     4  12  25  44  74 108 141 199 243 312 367 451
#     4  11  25  46  68 106 146 194 243 312 367 454
#     4  12  26  49  77 116 143 200 249 321 369 450
#     4  12  27  46  80 107 153 191 260 305 379 438
#     4  11  23  41  71 100 146 193 251 301 368 446
#     4  11  26  44  69 105 150 187 245 309 370 448
#     4  10  23  41  65 100 142 198 241 306 364 444
#
# _framework density 24.494513000000001
#
# number of rings (size 3 to 8) (size 9 to 14) (size 15 to 20)
#    0.000    0.750    2.500    3.750    5.250    7.000 
#    0.000    0.000    0.000    0.000    0.000    0.000 
#    0.000    0.000    0.000    0.000    0.000    0.000 
#
# Total GULP energy -89577.840055 kJ/mol
# GULP energy per Si atom -5598.615003 kJ/mol
# Density = 2.443876 g / cm^3
# Si number density = 24.494513 Si / 1000 Ang^3
#
#
#
# Elastic Constant Matrix: (Units=GPa)
#
#
# Indices 1 2 3 4 5 6 
#
# 1 83.2773 7.5438 5.7653 3.1743 12.9614 -8.9901
# 2 7.5438 67.5956 16.5565 -3.3238 -0.3071 -3.4541
# 3 5.7653 16.5565 124.9539 -3.1324 -0.3511 -1.1627
# 4 3.1743 -3.3238 -3.1324 46.9668 7.3851 1.1827
# 5 12.9614 -0.3071 -0.3511 7.3851 22.6794 -1.7719
# 6 -8.9901 -3.4541 -1.1627 1.1827 -1.7719 36.1269
#
#
#
# Elastic Compliance Matrix: (Units=1/GPa)
#
#
# Indices 1 2 3 4 5 6 
#
# 1 0.013652 -0.001297 -0.000451 0.000082 -0.007628 0.002882
# 2 -0.001297 0.015524 -0.001962 0.000916 0.000709 0.001103
# 3 -0.000451 -0.001962 0.008294 0.000411 0.000223 -0.000035
# 4 0.000082 0.000916 0.000411 0.022576 -0.007457 -0.000983
# 5 -0.007628 0.000709 0.000223 -0.007457 0.050966 0.000920
# 6 0.002882 0.001103 -0.000035 -0.000983 0.000920 0.028579
#
#
# Mechanical properties :
#
#
# Convention : Reuss Voigt Hill
#
# Bulk Modulus (GPa) = 33.27575 37.28422 35.27999
# Shear Modulus (GPa) = 31.84191 37.55202 34.69697
#
# Velocity S-wave (km/s) = 3.60941 3.91970 3.76775
# Velocity P-wave (km/s) = 5.56641 5.97829 5.77602
#
# Compressibility (1/GPa) = 0.03005191
#
# Stress axis : x y z
#
# Youngs Moduli (GPa) = 73.24933 64.41755 120.56500
#
# Poissons Ratio (x) = 0.08352 0.05433
# Poissons Ratio (y) = 0.09497 0.23653
# Poissons Ratio (z) = 0.03301 0.12638
#
# Static dielectric constant tensor:
#      x y z
#    x 1.963190 -0.009130 0.012640 
#    y -0.009130 1.935510 0.008040 
#    z 0.012640 0.008040 1.989700 
# 
# From -- ./inp_files/126800.got.cif
#   From: 2010.05.17/outbox.cif.g08.bks.cpg/sg2_64_cif.got.tgz:126800.got - 2010.06.03 11:33:40.
