data_PCOD9037623
_publ_section_title
;
Structure prediction by ZEFSAII (Michael W. Deem and Ramdas Pophale) SiO2 
 PCOD9037623
Probable space group: P -1
;
_chemical_formula_sum "Si O2"
_cell_formula_units_Z 14
_cell_length_a 5.677911
_cell_length_b 9.081290
_cell_length_c 20.385067
_cell_angle_alpha 37.755625
_cell_angle_beta 102.054441
_cell_angle_gamma 87.597336
_cell_volume 590.578999
_symmetry_space_group_name_H-M "P -1"
_symmetry_group_IT_number 2
_symmetry_cell_setting 'triclinic'
loop_
_space_group_symop_operation_xyz
x,y,z
-x,-y,-z
loop_
_atom_site_type_symbol
_atom_site_label
_atom_site_fract_x
_atom_site_fract_y
_atom_site_fract_z
Si Si1 0.007180 0.154817 0.011051
Si Si2 0.709663 0.536900 0.447758
Si Si3 0.429927 0.473975 0.079769
Si Si4 0.735492 0.985278 0.790551
Si Si5 0.965036 0.276559 0.210042
Si Si6 0.328589 0.697635 0.607624
Si Si7 0.846941 0.733990 0.636195
O O1 0.184872 0.001752 0.134741
O O2 0.724261 0.260424 0.989534
O O3 0.066612 0.418183 0.908954
O O4 0.000000 0.000000 0.000000
O O5 0.500000 0.500000 0.500000
O O6 0.734738 0.352654 0.452284
O O7 0.000000 0.500000 0.500000
O O8 0.542175 0.817233 0.311064
O O9 0.256329 0.301632 0.121802
O O10 0.670152 0.314619 0.192902
O O11 0.500000 0.500000 0.000000
O O12 0.946421 0.957474 0.755799
O O13 0.143079 0.199127 0.310710
O O14 0.637701 0.594675 0.668118
O O15 0.140951 0.600769 0.675928
O O16 0.252463 0.005170 0.504585
#
# Coordination Sequence:
#
# PCOD9037623 Si02
#       7
#     2   2   2   2   2   2   2
#     4  11  25  43  66 106 142 176 235 297 362 426
#     4  12  28  46  72 106 142 188 242 295 359 430
#     4  11  21  44  69  95 134 184 236 281 353 435
#     4  11  25  43  71  96 143 186 233 298 356 428
#     4  11  23  42  70  99 132 189 236 282 356 436
#     4  10  23  45  62  99 138 176 235 289 349 411
#     4  10  23  40  70  93 135 183 226 292 349 419
#
# _framework density 23.705551
#
# number of rings (size 3 to 8) (size 9 to 14) (size 15 to 20)
#    0.000    1.143    2.857    2.571   10.000    1.714 
#    2.571    0.000    0.000    0.000    0.000    0.000 
#    0.000    0.000    0.000    0.000    0.000    0.000 
#
# Total GULP energy -78008.509995 kJ/mol
# GULP energy per Si atom -5572.036428 kJ/mol
# Density = 2.365160 g / cm^3
# Si number density = 23.705551 Si / 1000 Ang^3
#
#
#
# Elastic Constant Matrix: (Units=GPa)
#
#
# Indices 1 2 3 4 5 6 
#
# 1 132.8396 52.9444 31.8213 4.7187 32.2153 2.5157
# 2 52.9444 161.5716 43.4417 15.7491 19.0347 -0.2384
# 3 31.8213 43.4417 96.3537 5.9603 30.1663 3.6336
# 4 4.7187 15.7491 5.9603 38.2397 7.3954 10.3795
# 5 32.2153 19.0347 30.1663 7.3954 29.4523 6.8128
# 6 2.5157 -0.2384 3.6336 10.3795 6.8128 32.8360
#
#
#
# Elastic Compliance Matrix: (Units=1/GPa)
#
#
# Indices 1 2 3 4 5 6 
#
# 1 0.011268 -0.002723 0.001293 0.001672 -0.012553 0.001050
# 2 -0.002723 0.008036 -0.002999 -0.003120 0.001337 0.001308
# 3 0.001293 -0.002999 0.016491 0.001491 -0.016998 0.001110
# 4 0.001672 -0.003120 0.001491 0.030684 -0.007067 -0.008549
# 5 -0.012553 0.001337 -0.016998 -0.007067 0.068096 -0.009042
# 6 0.001050 0.001308 0.001110 -0.008549 -0.009042 0.034839
#
#
# Mechanical properties :
#
#
# Convention : Reuss Voigt Hill
#
# Bulk Modulus (GPa) = 37.12110 71.90885 54.51497
# Shear Modulus (GPa) = 26.70206 37.60944 32.15575
#
# Velocity S-wave (km/s) = 3.35984 3.98744 3.68702
# Velocity P-wave (km/s) = 5.54478 7.18329 6.41655
#
# Compressibility (1/GPa) = 0.02693885
#
# Stress axis : x y z
#
# Youngs Moduli (GPa) = 88.74521 124.43649 60.63854
#
# Poissons Ratio (x) = 0.33880 -0.07842
# Poissons Ratio (y) = 0.24163 0.18185
# Poissons Ratio (z) = -0.11476 0.37317
#
# Static dielectric constant tensor:
#      x y z
#    x 2.478060 -0.225090 -0.231780 
#    y -0.225090 1.969820 0.092230 
#    z -0.231780 0.092230 2.062590 
# 
# From -- ./inp_files/39627.got.cif
#   From: 2010.05.17/outbox.cif.g08.bks.cpg/sg2_20_cif.got.tgz:39627.got - 2010.06.03 11:33:40.
