data_PCOD9037533
_publ_section_title
;
Structure prediction by ZEFSAII (Michael W. Deem and Ramdas Pophale) SiO2 
 PCOD9037533
Probable space group: P -1
;
_chemical_formula_sum "Si O2"
_cell_formula_units_Z 16
_cell_length_a 11.400184
_cell_length_b 16.652927
_cell_length_c 9.256428
_cell_angle_alpha 37.665351
_cell_angle_beta 99.052463
_cell_angle_gamma 122.517183
_cell_volume 773.141058
_symmetry_space_group_name_H-M "P -1"
_symmetry_group_IT_number 2
_symmetry_cell_setting 'triclinic'
loop_
_space_group_symop_operation_xyz
x,y,z
-x,-y,-z
loop_
_atom_site_type_symbol
_atom_site_label
_atom_site_fract_x
_atom_site_fract_y
_atom_site_fract_z
Si Si1 0.648633 0.195501 0.694390
Si Si2 0.210355 0.931031 0.284685
Si Si3 0.159351 0.592915 0.297780
Si Si4 0.405846 0.450985 0.234184
Si Si5 0.880754 0.731035 0.350498
Si Si6 0.316889 0.912125 0.638516
Si Si7 0.648360 0.685571 0.181317
Si Si8 0.492715 0.267282 0.332400
O O1 0.755789 0.165906 0.677215
O O2 0.711161 0.313610 0.681349
O O3 0.588721 0.253381 0.484472
O O4 0.500000 0.000000 0.000000
O O5 0.214930 0.871338 0.532226
O O6 0.050850 0.876060 0.259186
O O7 0.338843 0.149913 0.011438
O O8 0.140975 0.440209 0.434525
O O9 0.000000 0.500000 0.500000
O O10 0.221766 0.744043 0.972216
O O11 0.259493 0.319099 0.502506
O O12 0.582943 0.609464 0.116068
O O13 0.413481 0.331737 0.303553
O O14 0.377915 0.568959 0.983506
O O15 0.823270 0.753857 0.155926
O O16 0.500000 0.000000 0.500000
O O17 0.361230 0.077423 0.498919
O O18 0.500000 0.500000 0.500000
#
# Coordination Sequence:
#
# PCOD9037533 Si02
#       8
#     2   2   2   2   2   2   2   2
#     4  12  25  40  71  99 136 178 234 288 343 412
#     4  12  25  44  67 104 134 184 229 285 354 411
#     4  12  26  45  66 106 141 177 224 296 356 404
#     4  10  23  42  70  97 133 183 233 281 334 421
#     4  11  25  43  67  96 145 178 227 280 359 412
#     4  12  24  44  75 100 139 183 235 285 342 425
#     4  10  23  40  68  94 130 179 232 279 330 412
#     4  11  22  41  69 101 131 174 242 282 333 399
#
# _framework density 20.694800999999998
#
# number of rings (size 3 to 8) (size 9 to 14) (size 15 to 20)
#    0.000    0.750    5.000    1.875    8.750    1.500 
#    2.250    0.625    0.000    0.000    0.000    0.000 
#    0.000    0.000    0.000    0.000    0.000    0.000 
#
# Total GULP energy -89143.291988 kJ/mol
# GULP energy per Si atom -5571.455749 kJ/mol
# Density = 2.064770 g / cm^3
# Si number density = 20.694801 Si / 1000 Ang^3
#
#
#
# Elastic Constant Matrix: (Units=GPa)
#
#
# Indices 1 2 3 4 5 6 
#
# 1 58.5980 29.6768 23.6666 7.6173 2.1305 6.5226
# 2 29.6768 137.9031 30.6917 -8.9017 3.8229 5.7594
# 3 23.6666 30.6917 87.5786 2.9125 16.0896 -2.7661
# 4 7.6173 -8.9017 2.9125 41.7457 -1.4524 17.5325
# 5 2.1305 3.8229 16.0896 -1.4524 26.7447 0.8000
# 6 6.5226 5.7594 -2.7661 17.5325 0.8000 41.8129
#
#
#
# Elastic Compliance Matrix: (Units=1/GPa)
#
#
# Indices 1 2 3 4 5 6 
#
# 1 0.021479 -0.003790 -0.004680 -0.003664 0.001496 -0.001630
# 2 -0.003790 0.008939 -0.002455 0.003810 0.000780 -0.002415
# 3 -0.004680 -0.002455 0.015330 -0.002412 -0.008727 0.003261
# 4 -0.003664 0.003810 -0.002412 0.031305 0.003296 -0.013303
# 5 0.001496 0.000780 -0.008727 0.003296 0.042682 -0.003117
# 6 -0.001630 -0.002415 0.003261 -0.013303 -0.003117 0.030356
#
#
# Mechanical properties :
#
#
# Convention : Reuss Voigt Hill
#
# Bulk Modulus (GPa) = 41.84731 50.23891 46.04311
# Shear Modulus (GPa) = 27.79201 35.39697 31.59449
#
# Velocity S-wave (km/s) = 3.66860 4.14022 3.91152
# Velocity P-wave (km/s) = 6.18142 6.86906 6.53429
#
# Compressibility (1/GPa) = 0.02389640
#
# Stress axis : x y z
#
# Youngs Moduli (GPa) = 46.55745 111.87371 65.23232
#
# Poissons Ratio (x) = 0.42406 0.30532
# Poissons Ratio (y) = 0.17648 0.16011
# Poissons Ratio (z) = 0.21791 0.27460
#
# Static dielectric constant tensor:
#      x y z
#    x 1.762920 0.052870 -0.019820 
#    y 0.052870 1.698310 0.086310 
#    z -0.019820 0.086310 1.784850 
# 
# From -- ./inp_files/223234.got.cif
#   From: 2010.05.17/outbox.cif.g08.bks.cpg/sg2_112_cif.got.tgz:223234.got - 2010.06.03 11:33:40.
