data_PCOD9037455
_publ_section_title
;
Structure prediction by ZEFSAII (Michael W. Deem and Ramdas Pophale) SiO2 
 PCOD9037455
Probable space group: P -1
;
_chemical_formula_sum "Si O2"
_cell_formula_units_Z 16
_cell_length_a 8.809505
_cell_length_b 16.729915
_cell_length_c 12.305603
_cell_angle_alpha 130.914108
_cell_angle_beta 65.550230
_cell_angle_gamma 145.490751
_cell_volume 742.197744
_symmetry_space_group_name_H-M "P -1"
_symmetry_group_IT_number 2
_symmetry_cell_setting 'triclinic'
loop_
_space_group_symop_operation_xyz
x,y,z
-x,-y,-z
loop_
_atom_site_type_symbol
_atom_site_label
_atom_site_fract_x
_atom_site_fract_y
_atom_site_fract_z
Si Si1 0.552565 0.538814 0.233381
Si Si2 0.648465 0.202683 0.090390
Si Si3 0.681887 0.679747 0.548825
Si Si4 0.679050 0.306084 0.403923
Si Si5 0.677314 0.834026 0.407492
Si Si6 0.792730 0.929551 0.218375
Si Si7 0.275408 0.610282 0.953454
Si Si8 0.958937 0.166539 0.014144
O O1 0.722021 0.655410 0.395117
O O2 0.581808 0.662411 0.267944
O O3 0.674365 0.487214 0.122308
O O4 0.218924 0.343894 0.165574
O O5 0.673922 0.220981 0.230800
O O6 0.736902 0.353964 0.135358
O O7 0.849127 0.206068 0.004807
O O8 0.320047 0.012516 0.999612
O O9 0.500000 0.500000 0.500000
O O10 0.491266 0.684514 0.590545
O O11 0.962536 0.860639 0.684461
O O12 0.518609 0.211363 0.482666
O O13 0.000000 0.500000 0.500000
O O14 0.675447 0.883744 0.333787
O O15 0.000000 0.000000 0.500000
O O16 0.542118 0.806431 0.099005
O O17 0.930230 0.881945 0.123703
O O18 0.000000 0.500000 0.000000
#
# Coordination Sequence:
#
# PCOD9037455 Si02
#       8
#     2   2   2   2   2   2   2   2
#     4  10  23  40  67  94 124 182 218 269 333 396
#     4  11  22  43  64 100 138 169 226 272 340 401
#     4  11  22  42  67  95 134 175 227 264 340 409
#     4  11  23  41  69 100 130 176 221 287 328 385
#     4  11  21  43  71  98 134 169 236 278 326 403
#     4  11  24  45  67 102 131 184 220 283 339 401
#     4  11  28  43  64  97 141 176 220 279 347 403
#     4  10  23  40  70  97 130 175 222 277 333 397
#
# _framework density 21.557597999999999
#
# number of rings (size 3 to 8) (size 9 to 14) (size 15 to 20)
#    0.000    1.250    3.750    2.250    7.000    2.000 
#    0.000    0.625    0.000    0.000    0.000    0.000 
#    0.000    0.000    0.000    0.000    0.000    0.000 
#
# Total GULP energy -89240.049345 kJ/mol
# GULP energy per Si atom -5577.503084 kJ/mol
# Density = 2.150853 g / cm^3
# Si number density = 21.557598 Si / 1000 Ang^3
#
#
#
# Elastic Constant Matrix: (Units=GPa)
#
#
# Indices 1 2 3 4 5 6 
#
# 1 30.4841 32.6750 15.5309 -4.5602 1.4247 9.2201
# 2 32.6750 112.4663 52.6167 9.7269 -9.2170 11.9252
# 3 15.5309 52.6167 82.0467 17.3364 -1.7006 10.0223
# 4 -4.5602 9.7269 17.3364 43.5503 -4.5535 6.2505
# 5 1.4247 -9.2170 -1.7006 -4.5535 15.2224 3.6613
# 6 9.2201 11.9252 10.0223 6.2505 3.6613 45.5298
#
#
#
# Elastic Compliance Matrix: (Units=1/GPa)
#
#
# Indices 1 2 3 4 5 6 
#
# 1 0.055143 -0.016329 -0.001410 0.009898 -0.010539 -0.007091
# 2 -0.016329 0.018626 -0.008280 -0.001287 0.011618 -0.000507
# 3 -0.001410 -0.008280 0.019062 -0.006284 -0.004507 -0.000517
# 4 0.009898 -0.001287 -0.006284 0.028217 0.007172 -0.004735
# 5 -0.010539 0.011618 -0.004507 0.007172 0.077063 -0.007098
# 6 -0.007091 -0.000507 -0.000517 -0.004735 -0.007098 0.024867
#
#
# Mechanical properties :
#
#
# Convention : Reuss Voigt Hill
#
# Bulk Modulus (GPa) = 24.51329 47.40469 35.95899
# Shear Modulus (GPa) = 17.32421 29.13880 23.23151
#
# Velocity S-wave (km/s) = 2.83790 3.68050 3.28632
# Velocity P-wave (km/s) = 4.70468 6.33237 5.57821
#
# Compressibility (1/GPa) = 0.04079420
#
# Stress axis : x y z
#
# Youngs Moduli (GPa) = 18.13471 53.68750 52.45957
#
# Poissons Ratio (x) = 0.87665 0.07398
# Poissons Ratio (y) = 0.29612 0.43434
# Poissons Ratio (z) = 0.02557 0.44451
#
# Static dielectric constant tensor:
#      x y z
#    x 1.993040 0.017770 -0.148500 
#    y 0.017770 1.779460 -0.036290 
#    z -0.148500 -0.036290 1.953070 
# 
# From -- ./inp_files/403222.got.cif
#   From: 2010.05.17/outbox.cif.g08.bks.cpg/sg2_202_cif.got.tgz:403222.got - 2010.06.03 11:33:40.
