data_PCOD9037337
_publ_section_title
;
Structure prediction by ZEFSAII (Michael W. Deem and Ramdas Pophale) SiO2 
 PCOD9037337
Probable space group: P -1
;
_chemical_formula_sum "Si O2"
_cell_formula_units_Z 16
_cell_length_a 4.849860
_cell_length_b 8.341042
_cell_length_c 14.881152
_cell_angle_alpha 72.788212
_cell_angle_beta 94.268769
_cell_angle_gamma 91.061400
_cell_volume 573.428045
_symmetry_space_group_name_H-M "P -1"
_symmetry_group_IT_number 2
_symmetry_cell_setting 'triclinic'
loop_
_space_group_symop_operation_xyz
x,y,z
-x,-y,-z
loop_
_atom_site_type_symbol
_atom_site_label
_atom_site_fract_x
_atom_site_fract_y
_atom_site_fract_z
Si Si1 0.741374 0.855346 0.250862
Si Si2 0.859460 0.406493 0.596395
Si Si3 0.292513 0.413249 0.258731
Si Si4 0.427909 0.767379 0.975004
Si Si5 0.220648 0.516260 0.871278
Si Si6 0.915178 0.116993 0.341989
Si Si7 0.701042 0.147184 0.510716
Si Si8 0.234855 0.920254 0.123946
O O1 0.906203 0.705838 0.328884
O O2 0.079527 0.514778 0.171680
O O3 0.940108 0.910148 0.164544
O O4 0.716595 0.020956 0.285071
O O5 0.726103 0.522815 0.650165
O O6 0.635353 0.285022 0.561193
O O7 0.000000 0.500000 0.500000
O O8 0.586085 0.424686 0.216285
O O9 0.151720 0.229097 0.285132
O O10 0.234509 0.662496 0.921259
O O11 0.620120 0.898513 0.905625
O O12 0.635538 0.640664 0.051954
O O13 0.252217 0.858126 0.032880
O O14 0.554594 0.188158 0.790101
O O15 0.787392 0.221098 0.404378
O O16 0.054157 0.956395 0.419760
O O17 0.500000 0.000000 0.500000
#
# Coordination Sequence:
#
# PCOD9037337 Si02
#       8
#     2   2   2   2   2   2   2   2
#     4  11  25  42  69 100 141 179 233 289 339 411
#     4  11  24  46  69 103 143 189 234 291 351 407
#     4  12  25  45  69 103 142 182 235 287 344 414
#     4  10  24  44  72  98 138 178 226 283 353 425
#     4  11  26  44  68 103 139 180 225 288 352 417
#     4  10  23  40  65  95 135 184 233 285 343 408
#     4  10  23  44  67  97 132 186 244 289 341 409
#     4  11  24  44  68 103 133 179 231 285 344 412
#
# _framework density 27.902369
#
# number of rings (size 3 to 8) (size 9 to 14) (size 15 to 20)
#    0.000    1.250    1.250    3.000    5.250    6.000 
#    4.500    3.125    0.000    0.000    0.000    0.000 
#    0.000    0.000    0.000    0.000    0.000    0.000 
#
# Total GULP energy -89884.288707 kJ/mol
# GULP energy per Si atom -5617.768044 kJ/mol
# Density = 2.783886 g / cm^3
# Si number density = 27.902369 Si / 1000 Ang^3
#
#
#
# Elastic Constant Matrix: (Units=GPa)
#
#
# Indices 1 2 3 4 5 6 
#
# 1 116.7852 19.7965 38.7166 15.3803 -0.0567 9.0469
# 2 19.7965 112.4933 51.0092 33.4339 2.4037 10.8758
# 3 38.7166 51.0092 162.3270 7.4217 12.3727 -3.9284
# 4 15.3803 33.4339 7.4217 75.9055 9.0387 2.1580
# 5 -0.0567 2.4037 12.3727 9.0387 36.4514 -0.7189
# 6 9.0469 10.8758 -3.9284 2.1580 -0.7189 38.8652
#
#
#
# Elastic Compliance Matrix: (Units=1/GPa)
#
#
# Indices 1 2 3 4 5 6 
#
# 1 0.009788 0.000163 -0.002454 -0.001896 0.001259 -0.002444
# 2 0.000163 0.012535 -0.003958 -0.005273 0.001753 -0.003621
# 3 -0.002454 -0.003958 0.008189 0.001719 -0.002902 0.002358
# 4 -0.001896 -0.005273 0.001719 0.016185 -0.004230 0.001114
# 5 0.001259 0.001753 -0.002902 -0.004230 0.029348 -0.000299
# 6 -0.002444 -0.003621 0.002358 0.001114 -0.000299 0.027483
#
#
# Mechanical properties :
#
#
# Convention : Reuss Voigt Hill
#
# Bulk Modulus (GPa) = 55.51171 67.85001 61.68086
# Shear Modulus (GPa) = 40.97266 49.04997 45.01132
#
# Velocity S-wave (km/s) = 3.83617 4.19730 4.02079
# Velocity P-wave (km/s) = 6.28965 6.91805 6.61132
#
# Compressibility (1/GPa) = 0.01801422
#
# Stress axis : x y z
#
# Youngs Moduli (GPa) = 102.16275 79.77436 122.11101
#
# Poissons Ratio (x) = -0.01301 0.29970
# Poissons Ratio (y) = -0.01666 0.48333
# Poissons Ratio (z) = 0.25074 0.31576
#
# Static dielectric constant tensor:
#      x y z
#    x 2.126130 -0.007320 0.010930 
#    y -0.007320 2.211470 -0.032080 
#    z 0.010930 -0.032080 2.174370 
# 
# From -- ./inp_files/546565.got.cif
#   From: 2010.05.17/outbox.cif.g08.bks.cpg/sg2_274_cif.got.tgz:546565.got - 2010.06.03 11:33:40.
