data_PCOD9037571
_publ_section_title
;
Structure prediction by ZEFSAII (Michael W. Deem and Ramdas Pophale) SiO2 
 PCOD9037571
Probable space group: P -1
;
_chemical_formula_sum "Si O2"
_cell_formula_units_Z 16
_cell_length_a 15.088481
_cell_length_b 8.579599
_cell_length_c 9.693800
_cell_angle_alpha 104.201506
_cell_angle_beta 67.863263
_cell_angle_gamma 52.090869
_cell_volume 694.987839
_symmetry_space_group_name_H-M "P -1"
_symmetry_group_IT_number 2
_symmetry_cell_setting 'triclinic'
loop_
_space_group_symop_operation_xyz
x,y,z
-x,-y,-z
loop_
_atom_site_type_symbol
_atom_site_label
_atom_site_fract_x
_atom_site_fract_y
_atom_site_fract_z
Si Si1 0.018889 0.221241 0.939099
Si Si2 0.699940 0.005640 0.589045
Si Si3 0.727762 0.718090 0.744765
Si Si4 0.455746 0.896598 0.817804
Si Si5 0.253016 0.185665 0.754370
Si Si6 0.438904 0.552119 0.704795
Si Si7 0.891993 0.055677 0.913439
Si Si8 0.949716 0.886715 0.545588
O O1 0.876877 0.523437 0.049215
O O2 0.991227 0.087601 0.854555
O O3 0.177874 0.106936 0.798225
O O4 0.015218 0.189738 0.097603
O O5 0.693664 0.922840 0.720005
O O6 0.730379 0.825342 0.420543
O O7 0.837680 0.951556 0.515269
O O8 0.553933 0.291991 0.672749
O O9 0.626042 0.716332 0.728832
O O10 0.902707 0.425232 0.588031
O O11 0.658933 0.847510 0.963576
O O12 0.429139 0.742815 0.816429
O O13 0.408674 0.996018 0.709382
O O14 0.500000 0.500000 0.500000
O O15 0.267738 0.702708 0.856499
O O16 0.865000 0.020400 0.771459
O O17 0.000000 0.000000 0.500000
#
# Coordination Sequence:
#
# PCOD9037571 Si02
#       8
#     2   2   2   2   2   2   2   2
#     4  10  23  40  69 100 138 179 239 279 353 405
#     4  12  26  43  71 104 137 183 237 290 352 413
#     4  11  28  46  71 104 139 186 238 293 347 424
#     4  11  25  47  71  98 146 186 233 288 360 413
#     4  11  23  42  70 100 137 187 227 294 347 415
#     4  12  25  47  71 103 144 186 233 292 355 421
#     4  11  24  44  68 103 141 187 233 294 342 422
#     4  12  27  46  73 102 146 186 237 288 353 422
#
# _framework density 23.021986999999999
#
# number of rings (size 3 to 8) (size 9 to 14) (size 15 to 20)
#    0.000    0.750    2.500    3.375    7.000    7.500 
#    0.000    0.000    0.000    0.000    0.000    0.000 
#    0.000    0.000    0.000    0.000    0.000    0.000 
#
# Total GULP energy -89471.083469 kJ/mol
# GULP energy per Si atom -5591.942717 kJ/mol
# Density = 2.296959 g / cm^3
# Si number density = 23.021987 Si / 1000 Ang^3
#
#
#
# Elastic Constant Matrix: (Units=GPa)
#
#
# Indices 1 2 3 4 5 6 
#
# 1 93.4280 23.2537 17.5211 -10.2533 2.3891 -14.7707
# 2 23.2537 106.3462 15.1887 7.0354 -3.3924 -20.8430
# 3 17.5211 15.1887 63.5249 -5.6333 6.1120 -16.4996
# 4 -10.2533 7.0354 -5.6333 33.4761 -8.3340 -3.8221
# 5 2.3891 -3.3924 6.1120 -8.3340 30.7379 -8.8933
# 6 -14.7707 -20.8430 -16.4996 -3.8221 -8.8933 28.1133
#
#
#
# Elastic Compliance Matrix: (Units=1/GPa)
#
#
# Indices 1 2 3 4 5 6 
#
# 1 0.012880 -0.001695 -0.001277 0.005376 0.002325 0.006228
# 2 -0.001695 0.011708 -0.000602 -0.001209 0.003654 0.008428
# 3 -0.001277 -0.000602 0.019452 0.004415 0.000568 0.011080
# 4 0.005376 -0.001209 0.004415 0.037195 0.012577 0.013555
# 5 0.002325 0.003654 0.000568 0.012577 0.041588 0.019130
# 6 0.006228 0.008428 0.011080 0.013555 0.019130 0.059488
#
#
# Mechanical properties :
#
#
# Convention : Reuss Voigt Hill
#
# Bulk Modulus (GPa) = 27.10441 41.69180 34.39811
# Shear Modulus (GPa) = 24.78251 32.28785 28.53518
#
# Velocity S-wave (km/s) = 3.28452 3.74903 3.52444
# Velocity P-wave (km/s) = 5.11693 6.07365 5.61570
#
# Compressibility (1/GPa) = 0.03689436
#
# Stress axis : x y z
#
# Youngs Moduli (GPa) = 77.64086 85.40997 51.40728
#
# Poissons Ratio (x) = 0.14476 0.06563
# Poissons Ratio (y) = 0.13159 0.03093
# Poissons Ratio (z) = 0.09912 0.05138
#
# Static dielectric constant tensor:
#      x y z
#    x 1.834410 0.020890 -0.022000 
#    y 0.020890 1.858550 -0.044800 
#    z -0.022000 -0.044800 1.895410 
# 
# From -- ./inp_files/298766.got.cif
#   From: 2010.05.17/outbox.cif.g08.bks.cpg/sg2_150_cif.got.tgz:298766.got - 2010.06.03 11:33:40.
