data_PCOD9037488
_publ_section_title
;
Structure prediction by ZEFSAII (Michael W. Deem and Ramdas Pophale) SiO2 
 PCOD9037488
Probable space group: P -1
;
_chemical_formula_sum "Si O2"
_cell_formula_units_Z 14
_cell_length_a 8.578763
_cell_length_b 14.898558
_cell_length_c 15.775738
_cell_angle_alpha 27.915240
_cell_angle_beta 44.800516
_cell_angle_gamma 61.478042
_cell_volume 592.928567
_symmetry_space_group_name_H-M "P -1"
_symmetry_group_IT_number 2
_symmetry_cell_setting 'triclinic'
loop_
_space_group_symop_operation_xyz
x,y,z
-x,-y,-z
loop_
_atom_site_type_symbol
_atom_site_label
_atom_site_fract_x
_atom_site_fract_y
_atom_site_fract_z
Si Si1 0.215138 0.875193 0.736968
Si Si2 0.234019 0.728858 0.240632
Si Si3 0.223908 0.479941 0.131130
Si Si4 0.036215 0.078213 0.055281
Si Si5 0.764164 0.410089 0.462084
Si Si6 0.918198 0.178043 0.355344
Si Si7 0.547140 0.957000 0.240019
O O1 0.081027 0.981611 0.755245
O O2 0.071012 0.790252 0.775503
O O3 0.500000 0.000000 0.500000
O O4 0.233275 0.709768 0.933533
O O5 0.329727 0.682095 0.331233
O O6 0.000000 0.500000 0.500000
O O7 0.162010 0.923086 0.120473
O O8 0.422047 0.834256 0.001163
O O9 0.017620 0.382313 0.367122
O O10 0.092839 0.377910 0.178081
O O11 0.500000 0.500000 0.000000
O O12 0.812185 0.007492 0.133610
O O13 0.185950 0.340640 0.771414
O O14 0.576028 0.257165 0.591452
O O15 0.640626 0.094430 0.566589
O O16 0.000000 0.000000 0.500000
#
# Coordination Sequence:
#
# PCOD9037488 Si02
#       7
#     2   2   2   2   2   2   2
#     4  11  22  41  66  98 139 180 224 283 351 413
#     4  12  26  46  75 102 138 187 235 289 357 408
#     4  10  23  40  67  98 139 180 228 285 343 416
#     4  11  25  47  71 101 143 181 235 290 349 414
#     4  10  25  46  68 102 140 182 236 287 347 413
#     4  11  24  41  68 101 137 181 229 281 348 417
#     4  11  24  47  68 101 144 182 236 287 341 423
#
# _framework density 23.611612999999998
#
# number of rings (size 3 to 8) (size 9 to 14) (size 15 to 20)
#    0.000    1.143    2.857    2.143    8.000    0.571 
#    2.571    0.000    0.000    0.000    0.000    0.000 
#    0.000    0.000    0.000    0.000    0.000    0.000 
#
# Total GULP energy -78149.103439 kJ/mol
# GULP energy per Si atom -5582.078817 kJ/mol
# Density = 2.355787 g / cm^3
# Si number density = 23.611613 Si / 1000 Ang^3
#
#
#
# Elastic Constant Matrix: (Units=GPa)
#
#
# Indices 1 2 3 4 5 6 
#
# 1 94.1399 33.2962 39.5927 -9.3138 -1.0860 11.7596
# 2 33.2962 91.4987 30.1465 0.8857 -1.8256 2.4998
# 3 39.5927 30.1465 102.3581 -13.7379 -3.1954 2.8938
# 4 -9.3138 0.8857 -13.7379 51.7749 8.3206 3.2998
# 5 -1.0860 -1.8256 -3.1954 8.3206 38.5267 -4.7060
# 6 11.7596 2.4998 2.8938 3.2998 -4.7060 44.9748
#
#
#
# Elastic Compliance Matrix: (Units=1/GPa)
#
#
# Indices 1 2 3 4 5 6 
#
# 1 0.014303 -0.003801 -0.004084 0.001932 -0.000962 -0.003508
# 2 -0.003801 0.013200 -0.002650 -0.001776 0.000760 0.000641
# 3 -0.004084 -0.002650 0.012475 0.002561 0.000272 0.000253
# 4 0.001932 -0.001776 0.002561 0.021301 -0.004739 -0.002630
# 5 -0.000962 0.000760 0.000272 -0.004739 0.027427 0.003409
# 6 -0.003508 0.000641 0.000253 -0.002630 0.003409 0.023650
#
#
# Mechanical properties :
#
#
# Convention : Reuss Voigt Hill
#
# Bulk Modulus (GPa) = 52.89079 54.89640 53.89360
# Shear Modulus (GPa) = 35.78311 39.38601 37.58456
#
# Velocity S-wave (km/s) = 3.89715 4.08864 3.99404
# Velocity P-wave (km/s) = 6.53447 6.75200 6.64413
#
# Compressibility (1/GPa) = 0.01890688
#
# Stress axis : x y z
#
# Youngs Moduli (GPa) = 69.91514 75.75540 80.15973
#
# Poissons Ratio (x) = 0.28796 0.32741
# Poissons Ratio (y) = 0.26576 0.21244
# Poissons Ratio (z) = 0.28557 0.20077
#
# Static dielectric constant tensor:
#      x y z
#    x 1.862470 -0.001080 -0.006940 
#    y -0.001080 1.858340 0.413730 
#    z -0.006940 0.413730 1.699390 
# 
# From -- ./inp_files/504681.got.cif
#   From: 2010.05.17/outbox.cif.g08.bks.cpg/sg2_253_cif.got.tgz:504681.got - 2010.06.03 11:33:40.
