data_PCOD9037979
_publ_section_title
;
Structure prediction by ZEFSAII (Michael W. Deem and Ramdas Pophale) SiO2 
 PCOD9037979
Probable space group: P -1
;
_chemical_formula_sum "Si O2"
_cell_formula_units_Z 16
_cell_length_a 11.432702
_cell_length_b 8.045127
_cell_length_c 20.821080
_cell_angle_alpha 116.298345
_cell_angle_beta 144.093933
_cell_angle_gamma 41.776797
_cell_volume 681.777070
_symmetry_space_group_name_H-M "P -1"
_symmetry_group_IT_number 2
_symmetry_cell_setting 'triclinic'
loop_
_space_group_symop_operation_xyz
x,y,z
-x,-y,-z
loop_
_atom_site_type_symbol
_atom_site_label
_atom_site_fract_x
_atom_site_fract_y
_atom_site_fract_z
Si Si1 0.066025 0.302599 0.749891
Si Si2 0.708776 0.235930 0.200116
Si Si3 0.882672 0.424991 0.073690
Si Si4 0.511633 0.960989 0.784930
Si Si5 0.926099 0.749247 0.479940
Si Si6 0.041930 0.087665 0.198363
Si Si7 0.544759 0.880747 0.569640
Si Si8 0.506469 0.525899 0.724690
O O1 0.061160 0.429907 0.833652
O O2 0.782857 0.554283 0.624949
O O3 0.089617 0.070593 0.737476
O O4 0.354963 0.152100 0.810426
O O5 0.603653 0.438332 0.245627
O O6 0.871183 0.224906 0.212393
O O7 0.410642 0.351204 0.058978
O O8 0.167483 0.186886 0.116442
O O9 0.851722 0.278067 0.085545
O O10 0.546496 0.717007 0.770399
O O11 0.283913 0.131018 0.653897
O O12 0.000000 0.500000 0.500000
O O13 0.230027 0.645141 0.580140
O O14 0.745758 0.974949 0.495481
O O15 0.309777 0.050677 0.313386
O O16 0.194058 0.785133 0.209712
O O17 0.500000 0.000000 0.500000
#
# Coordination Sequence:
#
# PCOD9037979 Si02
#       8
#     2   2   2   2   2   2   2   2
#     4  10  23  41  65  95 126 170 218 264 321 384
#     4  11  25  43  65  95 134 169 219 271 323 379
#     4  11  23  44  67  94 127 177 219 267 321 383
#     4  11  23  42  65  96 132 166 220 265 325 385
#     4  12  21  42  65  92 133 168 212 264 321 391
#     4  11  23  41  63  94 130 166 217 268 321 383
#     4  11  22  40  65  93 129 172 216 259 322 388
#     4  11  25  41  63  99 130 168 213 269 327 386
#
# _framework density 23.468081999999999
#
# number of rings (size 3 to 8) (size 9 to 14) (size 15 to 20)
#    0.000    1.000    3.750    3.375    0.000    6.500 
#    0.000    1.875    0.000    0.000    0.000    0.000 
#    0.000    0.000    0.000    0.000    0.000    0.000 
#
# Total GULP energy -89556.665578 kJ/mol
# GULP energy per Si atom -5597.291599 kJ/mol
# Density = 2.341467 g / cm^3
# Si number density = 23.468082 Si / 1000 Ang^3
#
#
#
# Elastic Constant Matrix: (Units=GPa)
#
#
# Indices 1 2 3 4 5 6 
#
# 1 81.6364 1.7397 2.7652 -13.5029 -2.6966 -14.9225
# 2 1.7397 56.1439 13.8905 -19.5064 -10.8077 -3.9135
# 3 2.7652 13.8905 63.0376 -13.3985 -9.6952 10.5882
# 4 -13.5029 -19.5064 -13.3985 25.5412 6.0382 -5.4901
# 5 -2.6966 -10.8077 -9.6952 6.0382 24.6941 -9.0943
# 6 -14.9225 -3.9135 10.5882 -5.4901 -9.0943 34.3992
#
#
#
# Elastic Compliance Matrix: (Units=1/GPa)
#
#
# Indices 1 2 3 4 5 6 
#
# 1 0.017055 0.006759 -0.000159 0.015411 0.005453 0.012117
# 2 0.006759 0.030501 -0.002028 0.026008 0.012239 0.014413
# 3 -0.000159 -0.002028 0.018944 0.006608 0.003376 -0.004183
# 4 0.015411 0.026008 0.006608 0.073854 0.005257 0.020787
# 5 0.005453 0.012239 0.003376 0.005257 0.052954 0.017557
# 6 0.012117 0.014413 -0.004183 0.020787 0.017557 0.045214
#
#
# Mechanical properties :
#
#
# Convention : Reuss Voigt Hill
#
# Bulk Modulus (GPa) = 13.21967 26.40096 19.81032
# Shear Modulus (GPa) = 19.63938 29.08840 24.36389
#
# Velocity S-wave (km/s) = 2.89598 3.52446 3.22556
# Velocity P-wave (km/s) = 4.10214 5.27603 4.72568
#
# Compressibility (1/GPa) = 0.07564483
#
# Stress axis : x y z
#
# Youngs Moduli (GPa) = 58.63422 32.78632 52.78795
#
# Poissons Ratio (x) = -0.22162 0.00838
# Poissons Ratio (y) = -0.39633 0.10705
# Poissons Ratio (z) = 0.00931 0.06649
#
# Static dielectric constant tensor:
#      x y z
#    x 1.903100 -0.014840 -0.005220 
#    y -0.014840 1.872610 -0.005630 
#    z -0.005220 -0.005630 1.906000 
# 
# From -- ./inp_files/256031.got.cif
#   From: 2010.05.17/outbox.cif.g08.bks.cpg/sg2_129_cif.got.tgz:256031.got - 2010.06.03 11:33:40.
