data_PCOD9037505
_publ_section_title
;
Structure prediction by ZEFSAII (Michael W. Deem and Ramdas Pophale) SiO2 
 PCOD9037505
Probable space group: P -1
;
_chemical_formula_sum "Si O2"
_cell_formula_units_Z 15
_cell_length_a 4.924493
_cell_length_b 12.184534
_cell_length_c 10.120251
_cell_angle_alpha 100.590344
_cell_angle_beta 74.595032
_cell_angle_gamma 77.866861
_cell_volume 553.542988
_symmetry_space_group_name_H-M "P -1"
_symmetry_group_IT_number 2
_symmetry_cell_setting 'triclinic'
loop_
_space_group_symop_operation_xyz
x,y,z
-x,-y,-z
loop_
_atom_site_type_symbol
_atom_site_label
_atom_site_fract_x
_atom_site_fract_y
_atom_site_fract_z
Si Si1 0.500000 0.500000 0.500000
Si Si2 0.303282 0.593582 0.217732
Si Si3 0.775138 0.242178 0.979789
Si Si4 0.214978 0.292596 0.520112
Si Si5 0.127796 0.095050 0.327556
Si Si6 0.267333 0.122444 0.037600
Si Si7 0.408792 0.897793 0.412960
Si Si8 0.100990 0.561104 0.806382
O O1 0.372691 0.387602 0.481484
O O2 0.208322 0.567004 0.645300
O O3 0.641814 0.545786 0.193338
O O4 0.121435 0.639498 0.384929
O O5 0.186780 0.484711 0.161139
O O6 0.248543 0.695363 0.143146
O O7 0.472902 0.210304 0.037828
O O8 0.865950 0.330492 0.090333
O O9 0.062468 0.134389 0.938226
O O10 0.280168 0.191549 0.380726
O O11 0.346651 0.222038 0.622603
O O12 0.058495 0.125871 0.192618
O O13 0.866059 0.115883 0.470954
O O14 0.305267 0.959685 0.300025
O O15 0.500000 0.000000 0.000000
O O16 0.500000 0.000000 0.500000
#
# Coordination Sequence:
#
# PCOD9037505 Si02
#       8
#     1   2   2   2   2   2   2   2
#     4  10  24  40  66 104 146 168 234 276 354 408
#     4  11  25  43  72 102 142 179 244 275 339 417
#     4  12  26  48  72  98 140 192 226 291 345 415
#     4  10  23  40  68 101 138 183 220 290 347 412
#     4  10  23  42  70  97 137 178 234 280 354 413
#     4  12  29  45  71 103 138 181 234 293 350 408
#     4   9  21  40  66  96 127 179 224 285 336 419
#     4  11  24  44  70 105 138 190 226 288 339 421
#
# _framework density 27.098168000000001
#
# number of rings (size 3 to 8) (size 9 to 14) (size 15 to 20)
#    0.000    1.333    0.000    3.600   11.200    5.333 
#    0.000    0.000    0.000    0.000    0.000    0.000 
#    0.000    0.000    0.000    0.000    0.000    0.000 
#
# Total GULP energy -83826.440691 kJ/mol
# GULP energy per Si atom -5588.429379 kJ/mol
# Density = 2.703649 g / cm^3
# Si number density = 27.098168 Si / 1000 Ang^3
#
#
#
# Elastic Constant Matrix: (Units=GPa)
#
#
# Indices 1 2 3 4 5 6 
#
# 1 89.7857 16.6220 3.2483 -5.1426 5.8407 10.8051
# 2 16.6220 95.4420 15.6981 -5.0171 5.7601 34.0246
# 3 3.2483 15.6981 71.9829 -31.7860 2.6052 6.1420
# 4 -5.1426 -5.0171 -31.7860 39.7399 -8.8446 -4.5745
# 5 5.8407 5.7601 2.6052 -8.8446 26.5483 -8.4452
# 6 10.8051 34.0246 6.1420 -4.5745 -8.4452 55.8824
#
#
#
# Elastic Compliance Matrix: (Units=1/GPa)
#
#
# Indices 1 2 3 4 5 6 
#
# 1 0.011806 -0.001228 0.000371 0.000850 -0.002693 -0.001913
# 2 -0.001228 0.015105 -0.003972 -0.004170 -0.007171 -0.009948
# 3 0.000371 -0.003972 0.022910 0.019407 0.005723 0.002282
# 4 0.000850 -0.004170 0.019407 0.044463 0.015611 0.006240
# 5 -0.002693 -0.007171 0.005723 0.015611 0.048550 0.012873
# 6 -0.001913 -0.009948 0.002282 0.006240 0.012873 0.026527
#
#
# Mechanical properties :
#
#
# Convention : Reuss Voigt Hill
#
# Bulk Modulus (GPa) = 24.89846 36.48305 30.69075
# Shear Modulus (GPa) = 25.98707 39.21026 32.59866
#
# Velocity S-wave (km/s) = 3.10013 3.80803 3.47217
# Velocity P-wave (km/s) = 4.69282 5.72952 5.23688
#
# Compressibility (1/GPa) = 0.04016313
#
# Stress axis : x y z
#
# Youngs Moduli (GPa) = 84.70552 66.20539 43.64986
#
# Poissons Ratio (x) = 0.08129 -0.01620
# Poissons Ratio (y) = 0.10400 0.17336
# Poissons Ratio (z) = -0.03143 0.26294
#
# Static dielectric constant tensor:
#      x y z
#    x 2.350490 0.000660 0.057050 
#    y 0.000660 2.406850 -0.029310 
#    z 0.057050 -0.029310 2.082150 
# 
# From -- ./inp_files/363034.got.cif
#   From: 2010.05.17/outbox.cif.g08.bks.cpg/sg2_182_cif.got.tgz:363034.got - 2010.06.03 11:33:40.
