data_PCOD9037452
_publ_section_title
;
Structure prediction by ZEFSAII (Michael W. Deem and Ramdas Pophale) SiO2 
 PCOD9037452
Probable space group: P -1
;
_chemical_formula_sum "Si O2"
_cell_formula_units_Z 16
_cell_length_a 23.047668
_cell_length_b 7.904926
_cell_length_c 8.712647
_cell_angle_alpha 101.085041
_cell_angle_beta 45.097692
_cell_angle_gamma 132.003224
_cell_volume 707.377636
_symmetry_space_group_name_H-M "P -1"
_symmetry_group_IT_number 2
_symmetry_cell_setting 'triclinic'
loop_
_space_group_symop_operation_xyz
x,y,z
-x,-y,-z
loop_
_atom_site_type_symbol
_atom_site_label
_atom_site_fract_x
_atom_site_fract_y
_atom_site_fract_z
Si Si1 0.868840 0.987079 0.977350
Si Si2 0.469824 0.781405 0.913114
Si Si3 0.075247 0.537728 0.505695
Si Si4 0.661079 0.189843 0.050960
Si Si5 0.226682 0.512237 0.818267
Si Si6 0.390915 0.264193 0.539931
Si Si7 0.412910 0.586514 0.300045
Si Si8 0.019911 0.693829 0.884437
O O1 0.825904 0.719250 0.004478
O O2 0.749144 0.922953 0.161916
O O3 0.911604 0.063291 0.089758
O O4 0.985165 0.248267 0.704841
O O5 0.368069 0.679908 0.961026
O O6 0.579469 0.871043 0.620109
O O7 0.420292 0.572423 0.101266
O O8 0.500000 0.000000 0.000000
O O9 0.100890 0.739445 0.606710
O O10 0.000000 0.500000 0.500000
O O11 0.206109 0.668365 0.231056
O O12 0.671767 0.224195 0.219425
O O13 0.546165 0.880384 0.162793
O O14 0.302297 0.543873 0.544483
O O15 0.110458 0.439703 0.962794
O O16 0.500000 0.500000 0.500000
O O17 0.390819 0.388942 0.414273
O O18 0.000000 0.500000 0.000000
#
# Coordination Sequence:
#
# PCOD9037452 Si02
#       8
#     2   2   2   2   2   2   2   2
#     4  10  25  42  68  92 132 174 219 274 334 392
#     4  10  23  41  66  99 132 172 217 282 326 389
#     4  11  24  44  63  98 126 176 221 270 330 399
#     4  11  24  42  65  97 133 171 222 267 338 390
#     4  11  22  45  64 100 130 175 224 273 336 392
#     4  11  24  45  69 100 133 176 223 271 338 394
#     4  10  24  40  69  97 133 172 219 277 326 393
#     4  10  23  40  67  91 130 175 221 270 325 399
#
# _framework density 22.618751
#
# number of rings (size 3 to 8) (size 9 to 14) (size 15 to 20)
#    0.000    1.500    1.250    2.625    8.750    4.500 
#    0.000    0.000    0.000    0.000    0.000    0.000 
#    0.000    0.000    0.000    0.000    0.000    0.000 
#
# Total GULP energy -89371.592107 kJ/mol
# GULP energy per Si atom -5585.724507 kJ/mol
# Density = 2.256727 g / cm^3
# Si number density = 22.618751 Si / 1000 Ang^3
#
#
#
# Elastic Constant Matrix: (Units=GPa)
#
#
# Indices 1 2 3 4 5 6 
#
# 1 118.4299 18.2332 23.7512 6.3143 -13.1963 3.4565
# 2 18.2332 46.6243 7.5744 2.1555 -2.9135 2.5204
# 3 23.7512 7.5744 89.1347 1.7614 -7.1087 -19.4332
# 4 6.3143 2.1555 1.7614 37.8865 -1.4659 0.8386
# 5 -13.1963 -2.9135 -7.1087 -1.4659 43.1610 3.7888
# 6 3.4565 2.5204 -19.4332 0.8386 3.7888 33.6353
#
#
#
# Elastic Compliance Matrix: (Units=1/GPa)
#
#
# Indices 1 2 3 4 5 6 
#
# 1 0.009886 -0.003069 -0.002716 -0.001190 0.002557 -0.002613
# 2 -0.003069 0.023103 -0.001611 -0.000654 0.000544 -0.002391
# 3 -0.002716 -0.001611 0.013967 -0.000267 0.000614 0.008407
# 4 -0.001190 -0.000654 -0.000267 0.026678 0.000516 -0.000706
# 5 0.002557 0.000544 0.000614 0.000516 0.024344 -0.002704
# 6 -0.002613 -0.002391 0.008407 -0.000706 -0.002704 0.035358
#
#
# Mechanical properties :
#
#
# Convention : Reuss Voigt Hill
#
# Bulk Modulus (GPa) = 31.08935 39.25629 35.17282
# Shear Modulus (GPa) = 31.47696 36.57856 34.02776
#
# Velocity S-wave (km/s) = 3.73450 4.02578 3.88287
# Velocity P-wave (km/s) = 5.68948 6.24520 5.97380
#
# Compressibility (1/GPa) = 0.03216536
#
# Stress axis : x y z
#
# Youngs Moduli (GPa) = 101.15801 43.28401 71.59969
#
# Poissons Ratio (x) = 0.13282 0.19444
# Poissons Ratio (y) = 0.31042 0.11532
# Poissons Ratio (z) = 0.27471 0.06971
#
# Static dielectric constant tensor:
#      x y z
#    x 1.851690 -0.033000 0.034090 
#    y -0.033000 2.040250 0.041430 
#    z 0.034090 0.041430 1.848800 
# 
# From -- ./inp_files/263158.got.cif
#   From: 2010.05.17/outbox.cif.g08.bks.cpg/sg2_132_cif.got.tgz:263158.got - 2010.06.03 11:33:40.
