data_PCOD9037090
_publ_section_title
;
Structure prediction by ZEFSAII (Michael W. Deem and Ramdas Pophale) SiO2 
 PCOD9037090
Probable space group: P -1
;
_chemical_formula_sum "Si O2"
_cell_formula_units_Z 16
_cell_length_a 21.936429
_cell_length_b 12.607708
_cell_length_c 11.724218
_cell_angle_alpha 126.520584
_cell_angle_beta 30.064821
_cell_angle_gamma 145.849656
_cell_volume 823.014694
_symmetry_space_group_name_H-M "P -1"
_symmetry_group_IT_number 2
_symmetry_cell_setting 'triclinic'
loop_
_space_group_symop_operation_xyz
x,y,z
-x,-y,-z
loop_
_atom_site_type_symbol
_atom_site_label
_atom_site_fract_x
_atom_site_fract_y
_atom_site_fract_z
Si Si1 0.617019 0.079543 0.979164
Si Si2 0.117166 0.447963 0.119292
Si Si3 0.325938 0.040798 0.795062
Si Si4 0.759083 0.327161 0.543768
Si Si5 0.742571 0.310044 0.287522
Si Si6 0.976347 0.724737 0.586608
Si Si7 0.051887 0.286287 0.899123
Si Si8 0.952533 0.993056 0.702036
O O1 0.455164 0.890298 0.206647
O O2 0.713656 0.300749 0.997878
O O3 0.803038 0.140330 0.702141
O O4 0.500000 0.000000 0.000000
O O5 0.917981 0.356945 0.352348
O O6 0.090935 0.370291 0.238297
O O7 0.144790 0.361827 0.920910
O O8 0.279251 0.862124 0.819136
O O9 0.543739 0.215884 0.518396
O O10 0.179717 0.922166 0.849384
O O11 0.253202 0.103554 0.024872
O O12 0.757605 0.333094 0.413929
O O13 0.837223 0.528968 0.599833
O O14 0.902205 0.530076 0.107386
O O15 0.956714 0.862214 0.681920
O O16 0.089928 0.212722 0.689556
O O17 0.000000 0.000000 0.500000
#
# Coordination Sequence:
#
# PCOD9037090 Si02
#       8
#     2   2   2   2   2   2   2   2
#     4  11  21  38  61  95 121 154 208 252 302 356
#     4  11  22  37  63  89 123 160 202 255 302 359
#     4   9  23  38  59  94 119 158 205 249 302 359
#     4  11  21  36  62  95 121 157 203 256 302 356
#     4  11  21  38  65  93 120 156 203 260 308 338
#     4  11  23  40  60  87 126 166 199 243 311 359
#     4  10  23  40  59  90 126 158 203 252 300 359
#     4  10  23  43  61  86 125 165 204 243 300 374
#
# _framework density 19.440722000000001
#
# number of rings (size 3 to 8) (size 9 to 14) (size 15 to 20)
#    0.750    0.750    3.750    1.875    5.250    0.500 
#    2.250    1.250    0.000    1.500    0.000    0.000 
#    0.000    0.000    0.000    0.000    0.000    0.000 
#
# Total GULP energy -89198.083596 kJ/mol
# GULP energy per Si atom -5574.880225 kJ/mol
# Density = 1.939647 g / cm^3
# Si number density = 19.440722 Si / 1000 Ang^3
#
#
#
# Elastic Constant Matrix: (Units=GPa)
#
#
# Indices 1 2 3 4 5 6 
#
# 1 75.8891 42.3021 33.9922 2.4451 5.1421 6.8298
# 2 42.3021 96.2577 48.1112 9.0726 4.4637 8.9890
# 3 33.9922 48.1112 102.2493 -10.5329 -1.4744 6.2202
# 4 2.4451 9.0726 -10.5329 37.9972 -0.0347 -1.4468
# 5 5.1421 4.4637 -1.4744 -0.0347 21.6438 -1.7464
# 6 6.8298 8.9890 6.2202 -1.4468 -1.7464 32.7730
#
#
#
# Elastic Compliance Matrix: (Units=1/GPa)
#
#
# Indices 1 2 3 4 5 6 
#
# 1 0.018456 -0.006066 -0.003299 -0.000725 -0.003503 -0.001775
# 2 -0.006066 0.017237 -0.006556 -0.005645 -0.002781 -0.002617
# 3 -0.003299 -0.006556 0.014599 0.005833 0.003151 0.000140
# 4 -0.000725 -0.005645 0.005833 0.029407 0.001942 0.001994
# 5 -0.003503 -0.002781 0.003151 0.001942 0.048112 0.003544
# 6 -0.001775 -0.002617 0.000140 0.001994 0.003544 0.031851
#
#
# Mechanical properties :
#
#
# Convention : Reuss Voigt Hill
#
# Bulk Modulus (GPa) = 54.19781 58.13414 56.16598
# Shear Modulus (GPa) = 25.29677 28.48217 26.88947
#
# Velocity S-wave (km/s) = 3.61116 3.83179 3.72311
# Velocity P-wave (km/s) = 6.73249 7.03882 6.88736
#
# Compressibility (1/GPa) = 0.01845093
#
# Stress axis : x y z
#
# Youngs Moduli (GPa) = 54.18204 58.01572 68.49617
#
# Poissons Ratio (x) = 0.35190 0.22596
# Poissons Ratio (y) = 0.32865 0.44908
# Poissons Ratio (z) = 0.17874 0.38037
#
# Static dielectric constant tensor:
#      x y z
#    x 1.688710 0.031040 -0.009410 
#    y 0.031040 1.692050 0.024900 
#    z -0.009410 0.024900 1.730440 
# 
# From -- ./inp_files/471032.got.cif
#   From: 2010.05.17/outbox.cif.g08.bks.cpg/sg2_236_cif.got.tgz:471032.got - 2010.06.03 11:33:40.
