data_PCOD9037102
_publ_section_title
;
Structure prediction by ZEFSAII (Michael W. Deem and Ramdas Pophale) SiO2 
 PCOD9037102
Probable space group: P -1
;
_chemical_formula_sum "Si O2"
_cell_formula_units_Z 16
_cell_length_a 11.697943
_cell_length_b 12.275467
_cell_length_c 16.020697
_cell_angle_alpha 54.535847
_cell_angle_beta 142.508870
_cell_angle_gamma 95.650115
_cell_volume 779.369050
_symmetry_space_group_name_H-M "P -1"
_symmetry_group_IT_number 2
_symmetry_cell_setting 'triclinic'
loop_
_space_group_symop_operation_xyz
x,y,z
-x,-y,-z
loop_
_atom_site_type_symbol
_atom_site_label
_atom_site_fract_x
_atom_site_fract_y
_atom_site_fract_z
Si Si1 0.173852 0.423433 0.900960
Si Si2 0.809407 0.983749 0.653094
Si Si3 0.291891 0.116413 0.751137
Si Si4 0.682697 0.140909 0.236732
Si Si5 0.146466 0.314339 0.105998
Si Si6 0.769506 0.305860 0.470019
Si Si7 0.104743 0.488366 0.471919
Si Si8 0.232413 0.660589 0.908275
O O1 0.113389 0.610940 0.798962
O O2 0.091371 0.417720 0.763810
O O3 0.503979 0.241459 0.171024
O O4 0.065432 0.396938 0.928249
O O5 0.478479 0.148680 0.380711
O O6 0.857338 0.115729 0.640089
O O7 0.910380 0.811615 0.849204
O O8 0.985647 0.854749 0.730407
O O9 0.308651 0.261437 0.669474
O O10 0.989098 0.231002 0.558102
O O11 0.361703 0.974428 0.784382
O O12 0.500000 0.000000 0.000000
O O13 0.605371 0.306427 0.059575
O O14 0.000000 0.000000 0.500000
O O15 0.000000 0.500000 0.000000
O O16 0.789364 0.417346 0.497150
O O17 0.458667 0.470996 0.181764
O O18 0.000000 0.500000 0.500000
#
# Coordination Sequence:
#
# PCOD9037102 Si02
#       8
#     2   2   2   2   2   2   2   2
#     4  12  23  41  62  98 134 173 216 273 336 387
#     4  11  22  41  73  99 128 175 225 274 338 383
#     4  11  21  38  60  91 132 182 218 251 324 404
#     4  12  22  34  59  98 135 164 215 269 330 402
#     4  11  23  44  69 100 134 169 223 285 332 378
#     4  11  21  41  65  95 132 178 219 268 330 392
#     4  10  23  40  60  89 138 178 208 262 326 400
#     4  12  22  40  67  99 135 169 219 282 331 394
#
# _framework density 20.529426999999998
#
# number of rings (size 3 to 8) (size 9 to 14) (size 15 to 20)
#    0.000    0.750    3.750    6.375    0.000    0.000 
#    0.000    0.625    0.000    3.000    0.000    0.000 
#    0.000    0.000    0.000    0.000    0.000    0.000 
#
# Total GULP energy -89286.667018 kJ/mol
# GULP energy per Si atom -5580.416689 kJ/mol
# Density = 2.048270 g / cm^3
# Si number density = 20.529427 Si / 1000 Ang^3
#
#
#
# Elastic Constant Matrix: (Units=GPa)
#
#
# Indices 1 2 3 4 5 6 
#
# 1 93.5768 54.9868 20.4709 -13.1207 -15.2183 -0.2475
# 2 54.9868 197.1002 40.9997 -12.6081 -22.5910 21.9165
# 3 20.4709 40.9997 84.8722 -12.9245 -3.1122 -12.2516
# 4 -13.1207 -12.6081 -12.9245 33.2449 5.9717 -12.6768
# 5 -15.2183 -22.5910 -3.1122 5.9717 25.2191 -6.2184
# 6 -0.2475 21.9165 -12.2516 -12.6768 -6.2184 31.0226
#
#
#
# Elastic Compliance Matrix: (Units=1/GPa)
#
#
# Indices 1 2 3 4 5 6 
#
# 1 0.014643 -0.003874 0.000404 0.005965 0.005625 0.006579
# 2 -0.003874 0.008255 -0.004861 -0.004258 0.003279 -0.008865
# 3 0.000404 -0.004861 0.017823 0.011052 -0.000875 0.014817
# 4 0.005965 -0.004258 0.011052 0.045360 -0.003357 0.025283
# 5 0.005625 0.003279 -0.000875 -0.003357 0.048063 0.005645
# 6 0.006579 -0.008865 0.014817 0.025283 0.005645 0.055864
#
#
# Mechanical properties :
#
#
# Convention : Reuss Voigt Hill
#
# Bulk Modulus (GPa) = 41.56570 67.60712 54.58641
# Shear Modulus (GPa) = 23.28931 35.17010 29.22970
#
# Velocity S-wave (km/s) = 3.37179 4.14352 3.77741
# Velocity P-wave (km/s) = 5.95395 7.47629 6.75812
#
# Compressibility (1/GPa) = 0.02405830
#
# Stress axis : x y z
#
# Youngs Moduli (GPa) = 68.29075 121.14134 56.10707
#
# Poissons Ratio (x) = 0.46935 -0.02267
# Poissons Ratio (y) = 0.26459 0.27274
# Poissons Ratio (z) = -0.02759 0.58887
#
# Static dielectric constant tensor:
#      x y z
#    x 1.781710 0.052730 -0.029990 
#    y 0.052730 1.727880 -0.011310 
#    z -0.029990 -0.011310 1.840710 
# 
# From -- ./inp_files/519628.got.cif
#   From: 2010.05.17/outbox.cif.g08.bks.cpg/sg2_260_cif.got.tgz:519628.got - 2010.06.03 11:33:40.
