data_PCOD9037906
_publ_section_title
;
Structure prediction by ZEFSAII (Michael W. Deem and Ramdas Pophale) SiO2 
 PCOD9037906
Probable space group: P -1
;
_chemical_formula_sum "Si O2"
_cell_formula_units_Z 14
_cell_length_a 8.867117
_cell_length_b 15.253131
_cell_length_c 14.125423
_cell_angle_alpha 42.274975
_cell_angle_beta 44.092502
_cell_angle_gamma 32.479588
_cell_volume 666.339781
_symmetry_space_group_name_H-M "P -1"
_symmetry_group_IT_number 2
_symmetry_cell_setting 'triclinic'
loop_
_space_group_symop_operation_xyz
x,y,z
-x,-y,-z
loop_
_atom_site_type_symbol
_atom_site_label
_atom_site_fract_x
_atom_site_fract_y
_atom_site_fract_z
Si Si1 0.834825 0.725575 0.360648
Si Si2 0.616672 0.089431 0.421718
Si Si3 0.625337 0.304862 0.085031
Si Si4 0.086823 0.732423 0.580048
Si Si5 0.235961 0.512561 0.503489
Si Si6 0.802644 0.979514 0.045325
Si Si7 0.247745 0.314286 0.085320
O O1 0.589452 0.789795 0.495635
O O2 0.883511 0.584143 0.383744
O O3 0.734917 0.888742 0.218147
O O4 0.116770 0.642099 0.364198
O O5 0.603840 0.210538 0.255838
O O6 0.500000 0.000000 0.500000
O O7 0.926525 0.923776 0.457753
O O8 0.437626 0.319807 0.071302
O O9 0.500000 0.500000 0.000000
O O10 0.971498 0.165405 0.017473
O O11 0.115792 0.619748 0.569089
O O12 0.417719 0.628696 0.540825
O O13 0.907079 0.738352 0.741597
O O14 0.488578 0.168553 0.016730
O O15 0.000000 0.000000 0.000000
O O16 0.000000 0.500000 0.000000
#
# Coordination Sequence:
#
# PCOD9037906 Si02
#       7
#     2   2   2   2   2   2   2
#     4  11  22  42  69  97 131 169 232 276 326 408
#     4  12  21  43  71  94 132 179 224 270 331 410
#     4  11  26  43  68 100 136 175 222 278 340 398
#     4  11  23  43  65  97 132 174 227 277 341 391
#     4  10  25  37  68  98 128 167 222 292 329 386
#     4  10  23  41  64  96 129 179 219 265 334 404
#     4  11  24  43  66  94 135 178 222 274 337 402
#
# _framework density 21.010301999999999
#
# number of rings (size 3 to 8) (size 9 to 14) (size 15 to 20)
#    0.000    1.143    4.286    0.857   10.000    1.714 
#    2.571    0.714    0.000    0.000    0.000    0.000 
#    0.000    0.000    0.000    0.000    0.000    0.000 
#
# Total GULP energy -78191.296351 kJ/mol
# GULP energy per Si atom -5585.092596 kJ/mol
# Density = 2.096248 g / cm^3
# Si number density = 21.010302 Si / 1000 Ang^3
#
#
#
# Elastic Constant Matrix: (Units=GPa)
#
#
# Indices 1 2 3 4 5 6 
#
# 1 40.8956 31.3456 25.2229 3.6412 9.2514 -11.3634
# 2 31.3456 185.7848 75.4249 -1.6157 5.0519 -26.3764
# 3 25.2229 75.4249 113.8212 -7.6568 17.7234 -5.0517
# 4 3.6412 -1.6157 -7.6568 33.8659 -5.0236 0.0163
# 5 9.2514 5.0519 17.7234 -5.0236 11.7206 -5.1576
# 6 -11.3634 -26.3764 -5.0517 0.0163 -5.1576 39.2977
#
#
#
# Elastic Compliance Matrix: (Units=1/GPa)
#
#
# Indices 1 2 3 4 5 6 
#
# 1 0.036579 -0.004369 -0.001450 -0.008427 -0.026665 0.003962
# 2 -0.004369 0.009445 -0.006979 0.001279 0.013072 0.005895
# 3 -0.001450 -0.006979 0.017308 0.000078 -0.024678 -0.006117
# 4 -0.008427 0.001279 0.000078 0.033613 0.020899 0.001161
# 5 -0.026665 0.013072 -0.024678 0.020899 0.155030 0.018229
# 6 0.003962 0.005895 -0.006117 0.001161 0.018229 0.032155
#
#
# Mechanical properties :
#
#
# Convention : Reuss Voigt Hill
#
# Bulk Modulus (GPa) = 26.49880 67.16539 46.83209
# Shear Modulus (GPa) = 15.51334 30.87738 23.19536
#
# Velocity S-wave (km/s) = 2.72024 3.83773 3.32625
# Velocity P-wave (km/s) = 4.74404 7.18852 6.09019
#
# Compressibility (1/GPa) = 0.03773756
#
# Stress axis : x y z
#
# Youngs Moduli (GPa) = 27.33834 105.87085 57.77618
#
# Poissons Ratio (x) = 0.46251 0.08377
# Poissons Ratio (y) = 0.11943 0.40322
# Poissons Ratio (z) = 0.03964 0.73887
#
# Static dielectric constant tensor:
#      x y z
#    x 1.762210 -0.008130 0.009510 
#    y -0.008130 1.798160 0.013230 
#    z 0.009510 0.013230 1.737420 
# 
# From -- ./inp_files/157254.got.cif
#   From: 2010.05.17/outbox.cif.g08.bks.cpg/sg2_79_cif.got.tgz:157254.got - 2010.06.03 11:33:40.
