data_PCOD9037236
_publ_section_title
;
Structure prediction by ZEFSAII (Michael W. Deem and Ramdas Pophale) SiO2 
 PCOD9037236
Probable space group: P -1
;
_chemical_formula_sum "Si O2"
_cell_formula_units_Z 16
_cell_length_a 23.199347
_cell_length_b 5.246275
_cell_length_c 5.534296
_cell_angle_alpha 84.984095
_cell_angle_beta 72.867863
_cell_angle_gamma 68.597131
_cell_volume 599.148886
_symmetry_space_group_name_H-M "P -1"
_symmetry_group_IT_number 2
_symmetry_cell_setting 'triclinic'
loop_
_space_group_symop_operation_xyz
x,y,z
-x,-y,-z
loop_
_atom_site_type_symbol
_atom_site_label
_atom_site_fract_x
_atom_site_fract_y
_atom_site_fract_z
Si Si1 0.602481 0.534946 0.023322
Si Si2 0.522392 0.201048 0.611731
Si Si3 0.921418 0.207501 0.331128
Si Si4 0.832542 0.751673 0.222609
Si Si5 0.766157 0.197194 0.588541
Si Si6 0.941002 0.867223 0.832820
Si Si7 0.271294 0.727259 0.858654
Si Si8 0.355650 0.999066 0.271300
O O1 0.529100 0.732924 0.112334
O O2 0.652348 0.404233 0.191350
O O3 0.601721 0.266280 0.912725
O O4 0.640202 0.717133 0.842845
O O5 0.500000 0.500000 0.500000
O O6 0.599289 0.063470 0.544536
O O7 0.500000 0.000000 0.500000
O O8 0.855258 0.461478 0.350211
O O9 0.982963 0.311740 0.264538
O O10 0.925410 0.050204 0.593571
O O11 0.933376 0.042280 0.076129
O O12 0.829414 0.959984 0.432273
O O13 0.765058 0.940695 0.160879
O O14 0.888324 0.727008 0.959177
O O15 0.743270 0.391083 0.365478
O O16 0.712379 0.043671 0.667343
O O17 0.763299 0.313686 0.849536
#
# Coordination Sequence:
#
# PCOD9037236 Si02
#       8
#     2   2   2   2   2   2   2   2
#     4  11  23  44  67  96 138 184 236 293 361 429
#     4  12  24  40  68 102 136 182 237 296 361 428
#     4  10  23  40  63  99 134 175 228 285 346 414
#     4  10  23  42  70  91 138 178 238 268 370 395
#     4   9  22  41  61  96 130 171 232 277 347 416
#     4  10  23  40  63  99 134 175 228 285 346 414
#     4   9  22  41  61  96 130 171 232 277 347 416
#     4  11  23  44  67  96 138 184 236 293 361 429
#
# _framework density 26.704546000000001
#
# number of rings (size 3 to 8) (size 9 to 14) (size 15 to 20)
#    0.750    1.000    0.000    3.375    3.500    3.000 
#    4.500    3.750    0.000    0.000    0.000    0.000 
#    0.000    0.000    0.000    0.000    0.000    0.000 
#
# Total GULP energy -89139.840820 kJ/mol
# GULP energy per Si atom -5571.240051 kJ/mol
# Density = 2.664377 g / cm^3
# Si number density = 26.704546 Si / 1000 Ang^3
#
#
#
# Elastic Constant Matrix: (Units=GPa)
#
#
# Indices 1 2 3 4 5 6 
#
# 1 114.1935 17.4403 21.1256 -26.4790 -2.6242 -18.7377
# 2 17.4403 94.9444 24.0877 -27.2253 23.5060 -36.2179
# 3 21.1256 24.0877 150.7850 -6.3006 6.1845 -3.0357
# 4 -26.4790 -27.2253 -6.3006 38.1685 -12.9239 13.7996
# 5 -2.6242 23.5060 6.1845 -12.9239 10.4307 30.3091
# 6 -18.7377 -36.2179 -3.0357 13.7996 30.3091 -12.1686
#
#
#
# Elastic Compliance Matrix: (Units=1/GPa)
#
#
# Indices 1 2 3 4 5 6 
#
# 1 0.011581 0.000685 -0.001504 0.008902 0.004929 0.002878
# 2 0.000685 0.010831 -0.001677 0.011718 0.005849 -0.005015
# 3 -0.001504 -0.001677 0.007109 -0.001508 -0.001675 -0.000347
# 4 0.008902 0.011718 -0.001508 0.039336 0.004361 0.007263
# 5 0.004929 0.005849 -0.001675 0.004361 0.017892 0.024928
# 6 0.002878 -0.005015 -0.000347 0.007263 0.024928 -0.001272
#
#
# Mechanical properties :
#
#
# Convention : Reuss Voigt Hill
#
# Bulk Modulus (GPa) = 40.77081 53.91447 47.34264
# Shear Modulus (GPa) = 50.68661 27.10408 38.89535
#
# Velocity S-wave (km/s) = 4.36139 3.18930 3.82056
# Velocity P-wave (km/s) = 6.37674 5.81337 6.10156
#
# Compressibility (1/GPa) = 0.02452735
#
# Stress axis : x y z
#
# Youngs Moduli (GPa) = 86.35133 92.32720 140.65977
#
# Poissons Ratio (x) = -0.06322 0.21157
# Poissons Ratio (y) = -0.05913 0.23595
# Poissons Ratio (z) = 0.12988 0.15487
#
# Static dielectric constant tensor:
#      x y z
#    x 2.122720 -0.124520 -0.098290 
#    y -0.124520 1.997360 0.007980 
#    z -0.098290 0.007980 2.287030 
# 
# From -- ./inp_files/120942.got.cif
#   From: 2010.05.17/outbox.cif.g08.bks.cpg/sg2_61_cif.got.tgz:120942.got - 2010.06.03 11:33:40.
