data_PCOD9037972
_publ_section_title
;
Structure prediction by ZEFSAII (Michael W. Deem and Ramdas Pophale) SiO2 
 PCOD9037972
Probable space group: P -1
;
_chemical_formula_sum "Si O2"
_cell_formula_units_Z 14
_cell_length_a 19.181646
_cell_length_b 11.302311
_cell_length_c 13.962858
_cell_angle_alpha 46.981420
_cell_angle_beta 158.501361
_cell_angle_gamma 145.500087
_cell_volume 573.860001
_symmetry_space_group_name_H-M "P -1"
_symmetry_group_IT_number 2
_symmetry_cell_setting 'triclinic'
loop_
_space_group_symop_operation_xyz
x,y,z
-x,-y,-z
loop_
_atom_site_type_symbol
_atom_site_label
_atom_site_fract_x
_atom_site_fract_y
_atom_site_fract_z
Si Si1 0.315348 0.701610 0.763128
Si Si2 0.440893 0.310977 0.383218
Si Si3 0.827522 0.605100 0.865995
Si Si4 0.822594 0.039013 0.027365
Si Si5 0.707492 0.129968 0.561673
Si Si6 0.901698 0.126437 0.296835
Si Si7 0.476182 0.539296 0.815043
O O1 0.293619 0.787160 0.588776
O O2 0.000000 0.500000 0.500000
O O3 0.418838 0.578593 0.968186
O O4 0.586159 0.950354 0.021455
O O5 0.681337 0.406475 0.710890
O O6 0.339289 0.409347 0.255256
O O7 0.499974 0.396391 0.302583
O O8 0.253523 0.039984 0.295950
O O9 0.941565 0.816900 0.826969
O O10 0.065920 0.662158 0.195128
O O11 0.590298 0.013043 0.703104
O O12 0.680619 0.781170 0.996487
O O13 0.904817 0.155211 0.170661
O O14 0.163753 0.372854 0.538830
O O15 0.000000 0.000000 0.500000
#
# Coordination Sequence:
#
# PCOD9037972 Si02
#       7
#     2   2   2   2   2   2   2
#     4  10  23  41  65  94 129 172 216 267 330 383
#     4  11  24  40  68  94 132 173 211 273 321 389
#     4  11  23  40  64  98 130 168 221 258 333 387
#     4  11  23  39  68  98 126 173 222 263 322 395
#     4  11  24  41  63  97 131 165 216 272 321 384
#     4   9  21  41  63  93 129 168 221 260 318 387
#     4  11  22  42  71  93 133 177 216 266 329 385
#
# _framework density 24.396193
#
# number of rings (size 3 to 8) (size 9 to 14) (size 15 to 20)
#    0.000    1.429    2.857    1.714    2.000    8.000 
#    0.000    1.429    0.000    9.429    0.000    0.000 
#    0.000    0.000    0.000    0.000    0.000    0.000 
#
# Total GULP energy -78067.860720 kJ/mol
# GULP energy per Si atom -5576.275766 kJ/mol
# Density = 2.434067 g / cm^3
# Si number density = 24.396193 Si / 1000 Ang^3
#
#
#
# Elastic Constant Matrix: (Units=GPa)
#
#
# Indices 1 2 3 4 5 6 
#
# 1 71.0687 21.5696 31.0308 1.3880 -4.7975 18.6668
# 2 21.5696 102.9746 35.3688 2.6761 5.6492 8.5764
# 3 31.0308 35.3688 147.3965 13.4270 -6.8262 14.4540
# 4 1.3880 2.6761 13.4270 53.3582 10.4576 0.4913
# 5 -4.7975 5.6492 -6.8262 10.4576 42.8232 5.5261
# 6 18.6668 8.5764 14.4540 0.4913 5.5261 32.9585
#
#
#
# Elastic Compliance Matrix: (Units=1/GPa)
#
#
# Indices 1 2 3 4 5 6 
#
# 1 0.018495 -0.002517 -0.002175 -0.000381 0.003366 -0.009425
# 2 -0.002517 0.011140 -0.002283 0.000519 -0.002229 -0.000106
# 3 -0.002175 -0.002283 0.008319 -0.002340 0.002234 -0.002162
# 4 -0.000381 0.000519 -0.002340 0.020414 -0.005696 0.001758
# 5 0.003366 -0.002229 0.002234 -0.005696 0.026633 -0.006687
# 6 -0.009425 -0.000106 -0.002162 0.001758 -0.006687 0.037750
#
#
# Mechanical properties :
#
#
# Convention : Reuss Voigt Hill
#
# Bulk Modulus (GPa) = 41.66055 55.26424 48.46239
# Shear Modulus (GPa) = 34.55372 41.39271 37.97321
#
# Velocity S-wave (km/s) = 3.76753 4.12355 3.94956
# Velocity P-wave (km/s) = 6.00329 6.73599 6.38017
#
# Compressibility (1/GPa) = 0.02400352
#
# Stress axis : x y z
#
# Youngs Moduli (GPa) = 54.06990 89.76494 120.20870
#
# Poissons Ratio (x) = 0.22592 0.26144
# Poissons Ratio (y) = 0.13608 0.27449
# Poissons Ratio (z) = 0.11759 0.20497
#
# Static dielectric constant tensor:
#      x y z
#    x 1.967960 0.005950 0.029370 
#    y 0.005950 2.004540 0.068770 
#    z 0.029370 0.068770 2.055650 
# 
# From -- ./inp_files/476817.got.cif
#   From: 2010.05.17/outbox.cif.g08.bks.cpg/sg2_239_cif.got.tgz:476817.got - 2010.06.03 11:33:40.
