data_PCOD9037574
_publ_section_title
;
Structure prediction by ZEFSAII (Michael W. Deem and Ramdas Pophale) SiO2 
 PCOD9037574
Probable space group: P -1
;
_chemical_formula_sum "Si O2"
_cell_formula_units_Z 16
_cell_length_a 13.673286
_cell_length_b 8.624108
_cell_length_c 20.584415
_cell_angle_alpha 77.224591
_cell_angle_beta 20.280338
_cell_angle_gamma 86.580482
_cell_volume 737.954287
_symmetry_space_group_name_H-M "P -1"
_symmetry_group_IT_number 2
_symmetry_cell_setting 'triclinic'
loop_
_space_group_symop_operation_xyz
x,y,z
-x,-y,-z
loop_
_atom_site_type_symbol
_atom_site_label
_atom_site_fract_x
_atom_site_fract_y
_atom_site_fract_z
Si Si1 0.983206 0.645778 0.158216
Si Si2 0.406191 0.716201 0.189021
Si Si3 0.231843 0.993502 0.545426
Si Si4 0.757885 0.104610 0.908466
Si Si5 0.747343 0.444846 0.566269
Si Si6 0.623075 0.321829 0.508871
Si Si7 0.315217 0.638534 0.826167
Si Si8 0.382742 0.301138 0.067622
O O1 0.831120 0.473787 0.314671
O O2 0.712607 0.673724 0.285621
O O3 0.135471 0.808601 0.096609
O O4 0.227329 0.634651 0.956540
O O5 0.426607 0.694768 0.254896
O O6 0.088207 0.563596 0.372807
O O7 0.656312 0.695731 0.986676
O O8 0.464308 0.914691 0.118674
O O9 0.372634 0.862156 0.496834
O O10 0.947888 0.855818 0.689219
O O11 0.522392 0.159581 0.318096
O O12 0.040979 0.073955 0.701837
O O13 0.640638 0.231139 0.931360
O O14 0.741408 0.369886 0.505136
O O15 0.572810 0.568735 0.659725
O O16 0.000000 0.500000 0.000000
O O17 0.500000 0.500000 0.000000
#
# Coordination Sequence:
#
# PCOD9037574 Si02
#       8
#     2   2   2   2   2   2   2   2
#     4  11  26  45  69  99 135 186 230 284 342 408
#     4  10  23  40  69 102 133 184 219 286 345 406
#     4  11  25  43  72 101 135 184 228 286 342 404
#     4  11  24  43  70 100 142 173 231 280 343 413
#     4  11  23  45  69  97 143 175 232 282 345 407
#     4  11  25  47  70  95 136 184 237 279 337 407
#     4  12  26  45  68  99 140 185 226 287 344 399
#     4  11  22  43  73 104 139 181 225 282 347 413
#
# _framework density 21.681560999999999
#
# number of rings (size 3 to 8) (size 9 to 14) (size 15 to 20)
#    0.000    1.000    1.250    6.000    8.750    2.000 
#    0.000    1.250    0.000    0.000    0.000    0.000 
#    0.000    0.000    0.000    0.000    0.000    0.000 
#
# Total GULP energy -89288.899995 kJ/mol
# GULP energy per Si atom -5580.556250 kJ/mol
# Density = 2.163221 g / cm^3
# Si number density = 21.681561 Si / 1000 Ang^3
#
#
#
# Elastic Constant Matrix: (Units=GPa)
#
#
# Indices 1 2 3 4 5 6 
#
# 1 92.0633 39.2131 19.9010 -9.7015 15.5075 8.6997
# 2 39.2131 146.1388 32.6803 -5.0409 18.9275 1.0793
# 3 19.9010 32.6803 68.1649 -16.4960 14.1314 6.7391
# 4 -9.7015 -5.0409 -16.4960 40.3242 -1.3189 -5.6805
# 5 15.5075 18.9275 14.1314 -1.3189 29.9339 -0.3279
# 6 8.6997 1.0793 6.7391 -5.6805 -0.3279 34.1542
#
#
#
# Elastic Compliance Matrix: (Units=1/GPa)
#
#
# Indices 1 2 3 4 5 6 
#
# 1 0.013500 -0.002714 -0.000877 0.001985 -0.004808 -0.002896
# 2 -0.002714 0.008555 -0.003050 -0.000794 -0.002589 0.000866
# 3 -0.000877 -0.003050 0.019676 0.006891 -0.006629 -0.002480
# 4 0.001985 -0.000794 0.006891 0.028315 -0.002500 0.002845
# 5 -0.004808 -0.002589 -0.006629 -0.002500 0.040583 0.002588
# 6 -0.002896 0.000866 -0.002480 0.002845 0.002588 0.030977
#
#
# Mechanical properties :
#
#
# Convention : Reuss Voigt Hill
#
# Bulk Modulus (GPa) = 35.15060 54.43952 44.79506
# Shear Modulus (GPa) = 30.41922 35.18728 32.80325
#
# Velocity S-wave (km/s) = 3.74973 4.03291 3.89389
# Velocity P-wave (km/s) = 5.91563 6.84463 6.39702
#
# Compressibility (1/GPa) = 0.02844901
#
# Stress axis : x y z
#
# Youngs Moduli (GPa) = 74.07233 116.89639 50.82419
#
# Poissons Ratio (x) = 0.31723 0.04457
# Poissons Ratio (y) = 0.20102 0.15502
# Poissons Ratio (z) = 0.06496 0.35654
#
# Static dielectric constant tensor:
#      x y z
#    x 1.830210 -0.011950 -0.000470 
#    y -0.011950 1.800000 -0.021210 
#    z -0.000470 -0.021210 1.890250 
# 
# From -- ./inp_files/597370.got.cif
#   From: 2010.05.17/outbox.cif.g08.bks.cpg/sg2_299_cif.got.tgz:597370.got - 2010.06.03 11:33:40.
