data_PCOD9037025
_publ_section_title
;
Structure prediction by ZEFSAII (Michael W. Deem and Ramdas Pophale) SiO2 
 PCOD9037025
Probable space group: P -1
;
_chemical_formula_sum "Si O2"
_cell_formula_units_Z 16
_cell_length_a 5.522032
_cell_length_b 13.658928
_cell_length_c 9.532119
_cell_angle_alpha 97.916454
_cell_angle_beta 87.449792
_cell_angle_gamma 110.197566
_cell_volume 668.315882
_symmetry_space_group_name_H-M "P -1"
_symmetry_group_IT_number 2
_symmetry_cell_setting 'triclinic'
loop_
_space_group_symop_operation_xyz
x,y,z
-x,-y,-z
loop_
_atom_site_type_symbol
_atom_site_label
_atom_site_fract_x
_atom_site_fract_y
_atom_site_fract_z
Si Si1 0.069941 0.824376 0.344094
Si Si2 0.887659 0.624567 0.681579
Si Si3 0.164700 0.619661 0.242039
Si Si4 0.212978 0.415692 0.998552
Si Si5 0.669781 0.775849 0.145865
Si Si6 0.273537 0.835771 0.631145
Si Si7 0.504908 0.959602 0.146467
Si Si8 0.395748 0.634364 0.531603
O O1 0.056156 0.703295 0.336348
O O2 0.182756 0.874090 0.496964
O O3 0.252188 0.884978 0.223262
O O4 0.782865 0.810977 0.304940
O O5 0.629097 0.606812 0.592064
O O6 0.028333 0.751457 0.697226
O O7 0.120541 0.587172 0.610494
O O8 0.844479 0.586316 0.834824
O O9 0.385979 0.691753 0.147753
O O10 0.327236 0.596044 0.364282
O O11 0.945794 0.558775 0.122814
O O12 0.184146 0.294174 0.943541
O O13 0.500000 0.500000 0.000000
O O14 0.673845 0.884195 0.105302
O O15 0.441739 0.760192 0.574767
O O16 0.395500 0.936703 0.741451
O O17 0.500000 0.000000 0.000000
#
# Coordination Sequence:
#
# PCOD9037025 Si02
#       8
#     2   2   2   2   2   2   2   2
#     4   9  19  39  59  90 129 173 221 268 328 394
#     4  10  23  41  70 101 135 183 229 281 342 403
#     4   9  20  41  68  96 128 174 223 279 346 404
#     4  11  26  45  68  98 132 176 230 288 350 415
#     4  10  23  39  69  87 133 172 226 275 343 398
#     4   9  21  37  63  92 137 174 224 270 330 401
#     4  11  24  35  57  99 132 176 220 269 329 401
#     4   9  21  41  70  97 139 178 225 277 340 403
#
# _framework density 23.940774999999999
#
# number of rings (size 3 to 8) (size 9 to 14) (size 15 to 20)
#    0.750    1.500    0.000    1.125   10.500    2.500 
#    0.000    1.250    0.000    0.000    0.000    0.000 
#    0.000    0.000    0.000    0.000    0.000    0.000 
#
# Total GULP energy -89160.364981 kJ/mol
# GULP energy per Si atom -5572.522811 kJ/mol
# Density = 2.388628 g / cm^3
# Si number density = 23.940775 Si / 1000 Ang^3
#
#
#
# Elastic Constant Matrix: (Units=GPa)
#
#
# Indices 1 2 3 4 5 6 
#
# 1 102.0671 55.0577 70.8533 -9.9213 39.5335 2.5564
# 2 55.0577 103.4978 72.2625 8.7662 19.3069 -5.7533
# 3 70.8533 72.2625 197.5447 6.5207 24.1456 0.2020
# 4 -9.9213 8.7662 6.5207 51.6377 0.1661 6.9688
# 5 39.5335 19.3069 24.1456 0.1661 47.1548 -6.2077
# 6 2.5564 -5.7533 0.2020 6.9688 -6.2077 44.7661
#
#
#
# Elastic Compliance Matrix: (Units=1/GPa)
#
#
# Indices 1 2 3 4 5 6 
#
# 1 0.023465 -0.007814 -0.003927 0.007128 -0.015217 -0.005546
# 2 -0.007814 0.016279 -0.003261 -0.004333 0.002033 0.003509
# 3 -0.003927 -0.003261 0.007612 -0.001172 0.000742 0.000056
# 4 0.007128 -0.004333 -0.001172 0.022312 -0.004343 -0.005034
# 5 -0.015217 0.002033 0.000742 -0.004343 0.033619 0.006465
# 6 -0.005546 0.003509 0.000056 -0.005034 0.006465 0.024786
#
#
# Mechanical properties :
#
#
# Convention : Reuss Voigt Hill
#
# Bulk Modulus (GPa) = 57.63651 88.82854 73.23252
# Shear Modulus (GPa) = 30.51387 42.37414 36.44400
#
# Velocity S-wave (km/s) = 3.57397 4.21165 3.90584
# Velocity P-wave (km/s) = 6.41544 7.79966 7.14117
#
# Compressibility (1/GPa) = 0.01735011
#
# Stress axis : x y z
#
# Youngs Moduli (GPa) = 42.61739 61.43041 131.37633
#
# Poissons Ratio (x) = 0.48000 0.51597
# Poissons Ratio (y) = 0.33300 0.42845
# Poissons Ratio (z) = 0.16738 0.20034
#
# Static dielectric constant tensor:
#      x y z
#    x 1.996250 -0.022130 -0.027930 
#    y -0.022130 1.997900 -0.003340 
#    z -0.027930 -0.003340 1.921250 
# 
# From -- ./inp_files/135367.got.cif
#   From: 2010.05.17/outbox.cif.g08.bks.cpg/sg2_68_cif.got.tgz:135367.got - 2010.06.03 11:33:40.
