data_PCOD9037388
_publ_section_title
;
Structure prediction by ZEFSAII (Michael W. Deem and Ramdas Pophale) SiO2 
 PCOD9037388
Probable space group: P -1
;
_chemical_formula_sum "Si O2"
_cell_formula_units_Z 14
_cell_length_a 27.847704
_cell_length_b 9.512327
_cell_length_c 5.107850
_cell_angle_alpha 136.294202
_cell_angle_beta 52.042515
_cell_angle_gamma 144.976781
_cell_volume 535.636291
_symmetry_space_group_name_H-M "P -1"
_symmetry_group_IT_number 2
_symmetry_cell_setting 'triclinic'
loop_
_space_group_symop_operation_xyz
x,y,z
-x,-y,-z
loop_
_atom_site_type_symbol
_atom_site_label
_atom_site_fract_x
_atom_site_fract_y
_atom_site_fract_z
Si Si1 0.298996 0.606394 0.567084
Si Si2 0.750052 0.200825 0.404331
Si Si3 0.444117 0.817320 0.692108
Si Si4 0.673171 0.696984 0.325568
Si Si5 0.989289 0.791935 0.957631
Si Si6 0.820848 0.791993 0.190552
Si Si7 0.923447 0.479790 0.263296
O O1 0.294685 0.813814 0.721894
O O2 0.358401 0.741937 0.806026
O O3 0.204935 0.320485 0.576172
O O4 0.335269 0.509814 0.133131
O O5 0.828479 0.225726 0.150943
O O6 0.686439 0.934474 0.445000
O O7 0.795445 0.513500 0.774571
O O8 0.403826 0.505421 0.485874
O O9 0.500000 0.000000 0.500000
O O10 0.500000 0.000000 0.000000
O O11 0.758290 0.825893 0.358918
O O12 0.924691 0.521058 0.625179
O O13 0.085039 0.935450 0.826761
O O14 0.952811 0.716347 0.268341
O O15 0.000000 0.000000 0.000000
O O16 0.000000 0.500000 0.000000
#
# Coordination Sequence:
#
# PCOD9037388 Si02
#       7
#     2   2   2   2   2   2   2
#     4  10  23  43  72 100 136 184 222 279 343 410
#     4  11  24  43  66 102 139 179 238 284 338 412
#     4  11  22  46  77 104 141 176 217 275 344 415
#     4  10  23  43  71 102 135 184 222 278 344 411
#     4  12  24  43  65  91 133 184 235 286 352 386
#     4  10  23  40  66  92 140 184 235 286 340 406
#     4  12  27  43  65  98 136 183 237 297 341 395
#
# _framework density 26.137138
#
# number of rings (size 3 to 8) (size 9 to 14) (size 15 to 20)
#    0.000    1.143    2.857    2.571    6.000    2.286 
#    0.000    1.429    0.000    0.000    0.000    0.000 
#    0.000    0.000    0.000    0.000    0.000    0.000 
#
# Total GULP energy -78128.718430 kJ/mol
# GULP energy per Si atom -5580.622745 kJ/mol
# Density = 2.607765 g / cm^3
# Si number density = 26.137138 Si / 1000 Ang^3
#
#
#
# Elastic Constant Matrix: (Units=GPa)
#
#
# Indices 1 2 3 4 5 6 
#
# 1 127.8544 59.9380 32.0438 27.4341 21.3494 -20.4857
# 2 59.9380 212.4768 21.1151 -7.7763 11.7389 -36.8139
# 3 32.0438 21.1151 52.1243 -0.4198 13.8944 -4.3142
# 4 27.4341 -7.7763 -0.4198 37.4853 -7.7975 -4.8228
# 5 21.3494 11.7389 13.8944 -7.7975 38.1347 6.0515
# 6 -20.4857 -36.8139 -4.3142 -4.8228 6.0515 50.2274
#
#
#
# Elastic Compliance Matrix: (Units=1/GPa)
#
#
# Indices 1 2 3 4 5 6 
#
# 1 0.015845 -0.003326 -0.005813 -0.013816 -0.009077 0.003293
# 2 -0.003326 0.006465 -0.000302 0.004309 0.000270 0.003737
# 3 -0.005813 -0.000302 0.024230 0.003511 -0.004828 0.000408
# 4 -0.013816 0.004309 0.003511 0.040522 0.013399 0.000101
# 5 -0.009077 0.000270 -0.004828 0.013399 0.036842 -0.007071
# 6 0.003293 0.003737 0.000408 0.000101 -0.007071 0.024888
#
#
# Mechanical properties :
#
#
# Convention : Reuss Voigt Hill
#
# Bulk Modulus (GPa) = 36.15616 68.73880 52.44748
# Shear Modulus (GPa) = 28.26569 43.79337 36.02953
#
# Velocity S-wave (km/s) = 3.29209 4.09776 3.71682
# Velocity P-wave (km/s) = 5.32107 6.98177 6.20721
#
# Compressibility (1/GPa) = 0.02765781
#
# Stress axis : x y z
#
# Youngs Moduli (GPa) = 63.11090 154.68135 41.27157
#
# Poissons Ratio (x) = 0.51444 0.23991
# Poissons Ratio (y) = 0.20989 0.01247
# Poissons Ratio (z) = 0.36686 0.04675
#
# Static dielectric constant tensor:
#      x y z
#    x 2.213910 -0.148480 -0.146070 
#    y -0.148480 2.280980 0.162410 
#    z -0.146070 0.162410 2.424870 
# 
# From -- ./inp_files/105959.got.cif
#   From: 2010.05.17/outbox.cif.g08.bks.cpg/sg2_53_cif.got.tgz:105959.got - 2010.06.03 11:33:40.
