data_PCOD9037823
_publ_section_title
;
Structure prediction by ZEFSAII (Michael W. Deem and Ramdas Pophale) SiO2 
 PCOD9037823
Probable space group: P -1
;
_chemical_formula_sum "Si O2"
_cell_formula_units_Z 14
_cell_length_a 11.777892
_cell_length_b 11.319597
_cell_length_c 9.142711
_cell_angle_alpha 64.644867
_cell_angle_beta 143.035181
_cell_angle_gamma 130.884658
_cell_volume 541.972300
_symmetry_space_group_name_H-M "P -1"
_symmetry_group_IT_number 2
_symmetry_cell_setting 'triclinic'
loop_
_space_group_symop_operation_xyz
x,y,z
-x,-y,-z
loop_
_atom_site_type_symbol
_atom_site_label
_atom_site_fract_x
_atom_site_fract_y
_atom_site_fract_z
Si Si1 0.990998 0.298329 0.772115
Si Si2 0.311560 0.758731 0.145037
Si Si3 0.715100 0.942017 0.647810
Si Si4 0.195939 0.419858 0.231212
Si Si5 0.417810 0.656470 0.701895
Si Si6 0.734210 0.817676 0.446408
Si Si7 0.256986 0.314111 0.748349
O O1 0.798828 0.332860 0.529125
O O2 0.110552 0.310744 0.735105
O O3 0.864391 0.112917 0.781305
O O4 0.149629 0.400879 0.018077
O O5 0.475371 0.900545 0.351771
O O6 0.258339 0.593030 0.245325
O O7 0.493679 0.801426 0.181100
O O8 0.059274 0.712981 0.889972
O O9 0.624406 0.797974 0.742412
O O10 0.838772 0.932272 0.635016
O O11 0.336129 0.349659 0.463805
O O12 0.341719 0.481154 0.669853
O O13 0.527164 0.675207 0.963854
O O14 0.848408 0.823890 0.408434
#
# Coordination Sequence:
#
# PCOD9037823 Si02
#       7
#     2   2   2   2   2   2   2
#     4  12  25  44  68 104 132 171 220 280 327 394
#     4   9  22  38  62 100 123 172 221 272 316 380
#     4  10  23  46  69  95 135 172 225 271 328 383
#     4  11  21  37  73  94 128 171 233 271 317 377
#     4  11  24  45  66  98 136 172 222 276 326 393
#     4  10  23  41  63  94 137 169 222 267 323 397
#     4  11  27  40  67  99 136 180 213 267 343 387
#
# _framework density 25.831579000000001
#
# number of rings (size 3 to 8) (size 9 to 14) (size 15 to 20)
#    0.857    0.571    1.429    3.000    8.000    4.000 
#    0.000    0.714    0.000    0.000    0.000    0.000 
#    0.000    0.000    0.000    0.000    0.000    0.000 
#
# Total GULP energy -78179.824450 kJ/mol
# GULP energy per Si atom -5584.273175 kJ/mol
# Density = 2.577279 g / cm^3
# Si number density = 25.831579 Si / 1000 Ang^3
#
#
#
# Elastic Constant Matrix: (Units=GPa)
#
#
# Indices 1 2 3 4 5 6 
#
# 1 153.5025 6.0168 41.1594 -17.8937 -3.9653 -14.3522
# 2 6.0168 80.3288 7.7572 6.7471 -18.0825 -1.9265
# 3 41.1594 7.7572 65.7428 -1.2951 3.8761 -14.4851
# 4 -17.8937 6.7471 -1.2951 27.4667 -0.4309 -6.3982
# 5 -3.9653 -18.0825 3.8761 -0.4309 29.0362 5.5984
# 6 -14.3522 -1.9265 -14.4851 -6.3982 5.5984 32.1104
#
#
#
# Elastic Compliance Matrix: (Units=1/GPa)
#
#
# Indices 1 2 3 4 5 6 
#
# 1 0.008851 -0.000401 -0.004817 0.006311 0.001153 0.002815
# 2 -0.000401 0.015481 -0.003053 -0.004842 0.010584 -0.003438
# 3 -0.004817 -0.003053 0.020848 0.000435 -0.006949 0.008367
# 4 0.006311 -0.004842 0.000435 0.044529 -0.003919 0.012282
# 5 0.001153 0.010584 -0.006949 -0.003919 0.044073 -0.010449
# 6 0.002815 -0.003438 0.008367 0.012282 -0.010449 0.040238
#
#
# Mechanical properties :
#
#
# Convention : Reuss Voigt Hill
#
# Bulk Modulus (GPa) = 34.91770 45.49343 40.20557
# Shear Modulus (GPa) = 24.98672 34.03203 29.50938
#
# Velocity S-wave (km/s) = 3.11351 3.63362 3.38357
# Velocity P-wave (km/s) = 5.14510 5.93751 5.55545
#
# Compressibility (1/GPa) = 0.02863877
#
# Stress axis : x y z
#
# Youngs Moduli (GPa) = 112.98680 64.59728 47.96511
#
# Poissons Ratio (x) = 0.02589 0.23105
# Poissons Ratio (y) = 0.04528 0.14641
# Poissons Ratio (z) = 0.54427 0.19718
#
# Static dielectric constant tensor:
#      x y z
#    x 2.087790 0.072890 0.028670 
#    y 0.072890 2.021410 0.040500 
#    z 0.028670 0.040500 2.004460 
# 
# From -- ./inp_files/257773.got.cif
#   From: 2010.05.17/outbox.cif.g08.bks.cpg/sg2_129_cif.got.tgz:257773.got - 2010.06.03 11:33:40.
