data_PCOD9037661
_publ_section_title
;
Structure prediction by ZEFSAII (Michael W. Deem and Ramdas Pophale) SiO2 
 PCOD9037661
Probable space group: P -1
;
_chemical_formula_sum "Si O2"
_cell_formula_units_Z 16
_cell_length_a 16.323613
_cell_length_b 18.527719
_cell_length_c 8.701574
_cell_angle_alpha 139.369544
_cell_angle_beta 142.820471
_cell_angle_gamma 24.442755
_cell_volume 652.107335
_symmetry_space_group_name_H-M "P -1"
_symmetry_group_IT_number 2
_symmetry_cell_setting 'triclinic'
loop_
_space_group_symop_operation_xyz
x,y,z
-x,-y,-z
loop_
_atom_site_type_symbol
_atom_site_label
_atom_site_fract_x
_atom_site_fract_y
_atom_site_fract_z
Si Si1 0.430559 0.127052 0.885364
Si Si2 0.782745 0.746207 0.687253
Si Si3 0.329145 0.539090 0.665952
Si Si4 0.042106 0.347855 0.865064
Si Si5 0.185001 0.536004 0.764909
Si Si6 0.877622 0.101156 0.138576
Si Si7 0.488866 0.722552 0.938550
Si Si8 0.683018 0.166186 0.461229
O O1 0.238030 0.192866 0.794968
O O2 0.377933 0.256113 0.891123
O O3 0.563850 0.951230 0.709975
O O4 0.570811 0.114987 0.195754
O O5 0.762259 0.626751 0.454922
O O6 0.938284 0.693832 0.702952
O O7 0.897124 0.698434 0.943423
O O8 0.241927 0.570380 0.757041
O O9 0.281652 0.695208 0.805245
O O10 0.554895 0.332130 0.648521
O O11 0.173812 0.576919 0.375083
O O12 0.000000 0.500000 0.000000
O O13 0.337500 0.465257 0.023488
O O14 0.706738 0.122491 0.987866
O O15 0.071376 0.999528 0.385172
O O16 0.000000 0.000000 0.000000
O O17 0.362914 0.758761 0.658321
#
# Coordination Sequence:
#
# PCOD9037661 Si02
#       8
#     2   2   2   2   2   2   2   2
#     4  10  23  40  71  99 135 177 227 285 337 414
#     4  11  23  39  66 101 142 180 222 280 345 414
#     4  12  26  44  74 100 141 184 225 286 347 405
#     4  12  20  42  69 100 137 176 225 275 344 416
#     4  11  24  41  65 101 143 182 223 278 349 416
#     4  12  28  47  71 101 136 182 236 288 342 405
#     4  10  25  46  67  98 137 178 235 281 334 410
#     4  10  23  48  70 101 131 177 234 284 342 406
#
# _framework density 24.535837999999998
#
# number of rings (size 3 to 8) (size 9 to 14) (size 15 to 20)
#    0.750    0.250    2.500    3.750    3.500    5.000 
#    0.000    0.000    0.000    0.000    0.000    0.000 
#    0.000    0.000    0.000    0.000    0.000    0.000 
#
# Total GULP energy -89472.312922 kJ/mol
# GULP energy per Si atom -5592.019558 kJ/mol
# Density = 2.447999 g / cm^3
# Si number density = 24.535838 Si / 1000 Ang^3
#
#
#
# Elastic Constant Matrix: (Units=GPa)
#
#
# Indices 1 2 3 4 5 6 
#
# 1 80.0900 36.9333 16.9504 1.0039 -18.8694 -8.7641
# 2 36.9333 114.8286 17.9365 16.2170 -2.1406 -16.2391
# 3 16.9504 17.9365 55.3734 -4.4942 -15.4770 5.8658
# 4 1.0039 16.2170 -4.4942 47.4167 6.2806 -9.5967
# 5 -18.8694 -2.1406 -15.4770 6.2806 30.6938 -1.1259
# 6 -8.7641 -16.2391 5.8658 -9.5967 -1.1259 41.4098
#
#
#
# Elastic Compliance Matrix: (Units=1/GPa)
#
#
# Indices 1 2 3 4 5 6 
#
# 1 0.017637 -0.005028 -0.001219 0.000386 0.009882 0.002292
# 2 -0.005028 0.011771 -0.003837 -0.003166 -0.003438 0.003268
# 3 -0.001219 -0.003837 0.023105 0.001273 0.010209 -0.004463
# 4 0.000386 -0.003166 0.001273 0.023634 -0.004030 0.004027
# 5 0.009882 -0.003438 0.010209 -0.004030 0.044372 -0.000430
# 6 0.002292 0.003268 -0.004463 0.004027 -0.000430 0.027469
#
#
# Mechanical properties :
#
#
# Convention : Reuss Voigt Hill
#
# Bulk Modulus (GPa) = 30.91946 43.77028 37.34487
# Shear Modulus (GPa) = 27.94239 35.80217 31.87228
#
# Velocity S-wave (km/s) = 3.37833 3.82406 3.60809
# Velocity P-wave (km/s) = 5.27699 6.11359 5.71063
#
# Compressibility (1/GPa) = 0.03234209
#
# Stress axis : x y z
#
# Youngs Moduli (GPa) = 56.69871 84.95714 43.28042
#
# Poissons Ratio (x) = 0.42720 0.05278
# Poissons Ratio (y) = 0.28511 0.16609
# Poissons Ratio (z) = 0.06914 0.32602
#
# Static dielectric constant tensor:
#      x y z
#    x 1.951280 -0.010730 0.010370 
#    y -0.010730 1.934520 -0.006590 
#    z 0.010370 -0.006590 1.993120 
# 
# From -- ./inp_files/338159.got.cif
#   From: 2010.05.17/outbox.cif.g08.bks.cpg/sg2_170_cif.got.tgz:338159.got - 2010.06.03 11:33:40.
