data_PCOD9037129
_publ_section_title
;
Structure prediction by ZEFSAII (Michael W. Deem and Ramdas Pophale) SiO2 
 PCOD9037129
Probable space group: P -1
;
_chemical_formula_sum "Si O2"
_cell_formula_units_Z 14
_cell_length_a 8.652452
_cell_length_b 29.657479
_cell_length_c 29.405085
_cell_angle_alpha 10.012969
_cell_angle_beta 150.454295
_cell_angle_gamma 148.469000
_cell_volume 646.119750
_symmetry_space_group_name_H-M "P -1"
_symmetry_group_IT_number 2
_symmetry_cell_setting 'triclinic'
loop_
_space_group_symop_operation_xyz
x,y,z
-x,-y,-z
loop_
_atom_site_type_symbol
_atom_site_label
_atom_site_fract_x
_atom_site_fract_y
_atom_site_fract_z
Si Si1 0.977104 0.783984 0.671636
Si Si2 0.510283 0.566424 0.085918
Si Si3 0.420110 0.202169 0.031192
Si Si4 0.284572 0.758748 0.681936
Si Si5 0.742830 0.106501 0.992095
Si Si6 0.227173 0.404186 0.430019
Si Si7 0.656886 0.686410 0.551532
O O1 0.059551 0.818731 0.606988
O O2 0.625302 0.695547 0.670157
O O3 0.277701 0.603243 0.946673
O O4 0.000000 0.000000 0.500000
O O5 0.875615 0.533627 0.202191
O O6 0.445475 0.756890 0.923527
O O7 0.510510 0.946480 0.279146
O O8 0.540105 0.443261 0.792552
O O9 0.051365 0.189357 0.961288
O O10 0.035597 0.717286 0.619806
O O11 0.500000 0.000000 0.500000
O O12 0.500000 0.500000 0.000000
O O13 0.807840 0.864976 0.283854
O O14 0.500000 0.000000 0.000000
O O15 0.623276 0.369148 0.727026
O O16 0.403975 0.350042 0.481457
#
# Coordination Sequence:
#
# PCOD9037129 Si02
#       7
#     2   2   2   2   2   2   2
#     4  11  24  38  62  90 130 173 237 274 314 366
#     4  10  23  40  61  93 125 181 224 274 315 386
#     4  11  23  43  69  94 132 177 218 273 333 396
#     4  12  27  41  60  89 135 181 224 278 322 368
#     4  11  25  48  75 102 129 167 219 273 339 415
#     4  11  25  43  71  98 136 171 219 269 339 398
#     4  12  24  43  65  99 135 177 222 266 338 391
#
# _framework density 21.667808999999998
#
# number of rings (size 3 to 8) (size 9 to 14) (size 15 to 20)
#    0.000    0.857    1.429    5.571   10.000    0.000 
#    0.000    4.286    0.000    0.000    0.000    0.000 
#    0.000    0.000    0.000    0.000    0.000    0.000 
#
# Total GULP energy -78067.742190 kJ/mol
# GULP energy per Si atom -5576.267299 kJ/mol
# Density = 2.161849 g / cm^3
# Si number density = 21.667809 Si / 1000 Ang^3
#
#
#
# Elastic Constant Matrix: (Units=GPa)
#
#
# Indices 1 2 3 4 5 6 
#
# 1 107.8697 25.9124 34.8665 -18.0149 14.8282 -29.5080
# 2 25.9124 98.3117 10.3844 -31.8704 -2.0044 -11.8456
# 3 34.8665 10.3844 118.7528 -37.4372 7.4178 -9.3177
# 4 -18.0149 -31.8704 -37.4372 39.0016 -5.6442 2.9123
# 5 14.8282 -2.0044 7.4178 -5.6442 41.6201 -11.9761
# 6 -29.5080 -11.8456 -9.3177 2.9123 -11.9761 24.9668
#
#
#
# Elastic Compliance Matrix: (Units=1/GPa)
#
#
# Indices 1 2 3 4 5 6 
#
# 1 0.015138 -0.000776 -0.002111 0.003119 0.000092 0.016416
# 2 -0.000776 0.017085 0.004950 0.018433 0.005451 0.009501
# 3 -0.002111 0.004950 0.014005 0.016484 0.001901 0.004069
# 4 0.003119 0.018433 0.016484 0.058111 0.009416 0.016322
# 5 0.000092 0.005451 0.001901 0.009416 0.029999 0.016696
# 6 0.016416 0.009501 0.004069 0.016322 0.016696 0.071586
#
#
# Mechanical properties :
#
#
# Convention : Reuss Voigt Hill
#
# Bulk Modulus (GPa) = 19.85940 51.91787 35.88863
# Shear Modulus (GPa) = 22.87467 38.03576 30.45522
#
# Velocity S-wave (km/s) = 3.25268 4.19430 3.75314
# Velocity P-wave (km/s) = 4.82616 6.88978 5.94815
#
# Compressibility (1/GPa) = 0.05035399
#
# Stress axis : x y z
#
# Youngs Moduli (GPa) = 66.05853 58.53105 71.40232
#
# Poissons Ratio (x) = 0.04542 0.15074
# Poissons Ratio (y) = 0.05126 -0.35344
# Poissons Ratio (z) = 0.13946 -0.28973
#
# Static dielectric constant tensor:
#      x y z
#    x 1.790000 -0.016750 -0.048240 
#    y -0.016750 1.840210 0.058680 
#    z -0.048240 0.058680 1.924420 
# 
# From -- ./inp_files/56894.got.cif
#   From: 2010.05.17/outbox.cif.g08.bks.cpg/sg2_29_cif.got.tgz:56894.got - 2010.06.03 11:33:40.
