data_PCOD9037948
_publ_section_title
;
Structure prediction by ZEFSAII (Michael W. Deem and Ramdas Pophale) SiO2 
 PCOD9037948
Probable space group: P -1
;
_chemical_formula_sum "Si O2"
_cell_formula_units_Z 14
_cell_length_a 4.776069
_cell_length_b 8.373634
_cell_length_c 16.837812
_cell_angle_alpha 80.971833
_cell_angle_beta 130.446520
_cell_angle_gamma 90.347734
_cell_volume 501.990931
_symmetry_space_group_name_H-M "P -1"
_symmetry_group_IT_number 2
_symmetry_cell_setting 'triclinic'
loop_
_space_group_symop_operation_xyz
x,y,z
-x,-y,-z
loop_
_atom_site_type_symbol
_atom_site_label
_atom_site_fract_x
_atom_site_fract_y
_atom_site_fract_z
Si Si1 0.533071 0.581572 0.319164
Si Si2 0.281964 0.349276 0.489910
Si Si3 0.906335 0.897925 0.086279
Si Si4 0.576460 0.648618 0.944314
Si Si5 0.048527 0.927799 0.603635
Si Si6 0.725613 0.864678 0.231121
Si Si7 0.773275 0.682646 0.796585
O O1 0.557587 0.697067 0.390553
O O2 0.649704 0.686710 0.259680
O O3 0.208243 0.476203 0.244830
O O4 0.861430 0.434941 0.408718
O O5 0.500000 0.500000 0.500000
O O6 0.262075 0.197735 0.439956
O O7 0.925926 0.847961 0.185555
O O8 0.301666 0.959925 0.136009
O O9 0.869373 0.747487 0.033055
O O10 0.500000 0.000000 0.000000
O O11 0.694713 0.623183 0.876464
O O12 0.165403 0.750385 0.858393
O O13 0.500000 0.500000 0.000000
O O14 0.446076 0.818957 0.698795
O O15 0.049850 0.055473 0.665252
O O16 0.000000 0.000000 0.500000
#
# Coordination Sequence:
#
# PCOD9037948 Si02
#       7
#     2   2   2   2   2   2   2
#     4  10  23  41  65 103 138 183 234 289 348 417
#     4  10  23  44  70  97 144 189 234 292 348 412
#     4  12  26  46  70  99 144 182 235 296 361 418
#     4  12  24  46  72 105 136 186 238 304 360 421
#     4  11  24  47  70 107 150 192 240 290 354 433
#     4  12  25  45  72 105 137 190 237 289 354 432
#     4  11  25  42  72 106 143 184 241 291 359 430
#
# _framework density 27.888950000000001
#
# number of rings (size 3 to 8) (size 9 to 14) (size 15 to 20)
#    0.000    0.857    1.429    5.143    6.000    0.000 
#    5.143    3.571    0.000    0.000    0.000    0.000 
#    0.000    0.000    0.000    0.000    0.000    0.000 
#
# Total GULP energy -78470.579366 kJ/mol
# GULP energy per Si atom -5605.041383 kJ/mol
# Density = 2.782547 g / cm^3
# Si number density = 27.888950 Si / 1000 Ang^3
#
#
#
# Elastic Constant Matrix: (Units=GPa)
#
#
# Indices 1 2 3 4 5 6 
#
# 1 128.6745 21.0893 49.8945 13.7185 -10.1065 5.0239
# 2 21.0893 112.8934 67.3864 38.7078 -14.9953 2.4629
# 3 49.8945 67.3864 187.5031 22.1793 5.3389 -1.6649
# 4 13.7185 38.7078 22.1793 72.1106 3.0623 5.9890
# 5 -10.1065 -14.9953 5.3389 3.0623 48.5392 -3.3168
# 6 5.0239 2.4629 -1.6649 5.9890 -3.3168 42.4957
#
#
#
# Elastic Compliance Matrix: (Units=1/GPa)
#
#
# Indices 1 2 3 4 5 6 
#
# 1 0.009013 0.000607 -0.002538 -0.001291 0.002368 -0.000833
# 2 0.000607 0.014670 -0.004790 -0.006780 0.005632 0.000285
# 3 -0.002538 -0.004790 0.007728 0.000753 -0.002868 0.000550
# 4 -0.001291 -0.006780 0.000753 0.017865 -0.003726 -0.002233
# 5 0.002368 0.005632 -0.002868 -0.003726 0.023498 0.001640
# 6 -0.000833 0.000285 0.000550 -0.002233 0.001640 0.024078
#
#
# Mechanical properties :
#
#
# Convention : Reuss Voigt Hill
#
# Bulk Modulus (GPa) = 55.65543 78.42351 67.03947
# Shear Modulus (GPa) = 42.99904 52.00914 47.50409
#
# Velocity S-wave (km/s) = 3.93083 4.32309 4.13162
# Velocity P-wave (km/s) = 6.37192 7.28696 6.84475
#
# Compressibility (1/GPa) = 0.01796770
#
# Stress axis : x y z
#
# Youngs Moduli (GPa) = 110.95675 68.16656 129.40786
#
# Poissons Ratio (x) = -0.04137 0.32850
# Poissons Ratio (y) = -0.06734 0.61981
# Poissons Ratio (z) = 0.28166 0.32649
#
# Static dielectric constant tensor:
#      x y z
#    x 2.193860 -0.061700 0.005650 
#    y -0.061700 2.295850 -0.101590 
#    z 0.005650 -0.101590 2.221430 
# 
# From -- ./inp_files/548068.got.cif
#   From: 2010.05.17/outbox.cif.g08.bks.cpg/sg2_275_cif.got.tgz:548068.got - 2010.06.03 11:33:40.
