data_PCOD9037149
_publ_section_title
;
Structure prediction by ZEFSAII (Michael W. Deem and Ramdas Pophale) SiO2 
 PCOD9037149
Probable space group: P -1
;
_chemical_formula_sum "Si O2"
_cell_formula_units_Z 16
_cell_length_a 7.551481
_cell_length_b 19.871448
_cell_length_c 5.583854
_cell_angle_alpha 104.684227
_cell_angle_beta 62.907716
_cell_angle_gamma 128.775294
_cell_volume 580.953801
_symmetry_space_group_name_H-M "P -1"
_symmetry_group_IT_number 2
_symmetry_cell_setting 'triclinic'
loop_
_space_group_symop_operation_xyz
x,y,z
-x,-y,-z
loop_
_atom_site_type_symbol
_atom_site_label
_atom_site_fract_x
_atom_site_fract_y
_atom_site_fract_z
Si Si1 0.251527 0.494582 0.176109
Si Si2 0.320832 0.887845 0.295061
Si Si3 0.760926 0.516605 0.326553
Si Si4 0.313258 0.036387 0.469586
Si Si5 0.206246 0.096875 0.164019
Si Si6 0.999871 0.292212 0.507419
Si Si7 0.292435 0.678816 0.573153
Si Si8 0.417598 0.283771 0.069087
O O1 0.241522 0.529204 0.471478
O O2 0.999443 0.399112 0.266400
O O3 0.500000 0.500000 0.000000
O O4 0.228594 0.524698 0.959432
O O5 0.275396 0.954816 0.280223
O O6 0.091246 0.787636 0.332642
O O7 0.418079 0.916505 0.535268
O O8 0.558375 0.899132 0.056229
O O9 0.500000 0.500000 0.500000
O O10 0.941421 0.621224 0.321898
O O11 0.080472 0.982868 0.745080
O O12 0.259319 0.096321 0.416475
O O13 0.245739 0.179453 0.090567
O O14 0.243400 0.314407 0.247052
O O15 0.772192 0.258163 0.437523
O O16 0.428543 0.696815 0.758886
O O17 0.443611 0.682048 0.244277
#
# Coordination Sequence:
#
# PCOD9037149 Si02
#       8
#     2   2   2   2   2   2   2   2
#     4   9  18  36  68  98 126 179 223 267 347 412
#     4  11  21  41  62  93 122 179 222 286 341 414
#     4   9  19  37  67  98 133 178 221 273 344 404
#     4  10  23  40  62  90 129 169 231 278 356 401
#     4  11  22  40  61  89 131 173 222 288 343 406
#     4  11  23  43  69 101 140 183 238 287 346 419
#     4  11  24  44  69  98 144 181 224 293 345 405
#     4  12  26  43  67 107 136 183 238 282 348 418
#
# _framework density 27.540914999999998
#
# number of rings (size 3 to 8) (size 9 to 14) (size 15 to 20)
#    0.000    1.500    2.500    3.000    0.000    3.000 
#    2.250    0.000    0.000   40.500    0.000    0.000 
#    0.000    0.000    0.000    0.000    0.000    0.000 
#
# Total GULP energy -89219.306427 kJ/mol
# GULP energy per Si atom -5576.206652 kJ/mol
# Density = 2.747823 g / cm^3
# Si number density = 27.540915 Si / 1000 Ang^3
#
#
#
# Elastic Constant Matrix: (Units=GPa)
#
#
# Indices 1 2 3 4 5 6 
#
# 1 117.4455 3.6424 34.5461 0.6760 -11.1750 -5.8991
# 2 3.6424 100.3903 52.7263 -37.4466 7.1687 -16.0833
# 3 34.5461 52.7263 188.2987 -13.2881 14.3794 -6.4525
# 4 0.6760 -37.4466 -13.2881 28.5205 -3.8121 -6.3655
# 5 -11.1750 7.1687 14.3794 -3.8121 64.3313 -2.5661
# 6 -5.8991 -16.0833 -6.4525 -6.3655 -2.5661 45.3620
#
#
#
# Elastic Compliance Matrix: (Units=1/GPa)
#
#
# Indices 1 2 3 4 5 6 
#
# 1 0.009370 0.001339 -0.002111 0.001206 0.002089 0.001680
# 2 0.001339 0.030893 -0.005478 0.041762 0.001138 0.016273
# 3 -0.002111 -0.005478 0.006970 -0.004555 -0.001662 -0.001958
# 4 0.001206 0.041762 -0.004555 0.094373 0.003273 0.027744
# 5 0.002089 0.001138 -0.001662 0.003273 0.016419 0.001827
# 6 0.001680 0.016273 -0.001958 0.027744 0.001827 0.031751
#
#
# Mechanical properties :
#
#
# Convention : Reuss Voigt Hill
#
# Bulk Modulus (GPa) = 28.79131 65.32936 47.06034
# Shear Modulus (GPa) = 23.38034 48.65742 36.01888
#
# Velocity S-wave (km/s) = 2.91680 4.20781 3.62032
# Velocity P-wave (km/s) = 4.67123 6.88331 5.88219
#
# Compressibility (1/GPa) = 0.03473270
#
# Stress axis : x y z
#
# Youngs Moduli (GPa) = 106.72196 32.36977 143.46444
#
# Poissons Ratio (x) = -0.04333 0.30281
# Poissons Ratio (y) = -0.14286 0.78594
# Poissons Ratio (z) = 0.22526 0.17733
#
# Static dielectric constant tensor:
#      x y z
#    x 2.160040 -0.003170 0.139920 
#    y -0.003170 2.258450 0.044000 
#    z 0.139920 0.044000 2.348250 
# 
# From -- ./inp_files/54966.got.cif
#   From: 2010.05.17/outbox.cif.g08.bks.cpg/sg2_28_cif.got.tgz:54966.got - 2010.06.03 11:33:40.
