data_PCOD9037252
_publ_section_title
;
Structure prediction by ZEFSAII (Michael W. Deem and Ramdas Pophale) SiO2 
 PCOD9037252
Probable space group: P -1
;
_chemical_formula_sum "Si O2"
_cell_formula_units_Z 16
_cell_length_a 10.558827
_cell_length_b 9.062755
_cell_length_c 13.174795
_cell_angle_alpha 110.252388
_cell_angle_beta 36.638915
_cell_angle_gamma 125.580010
_cell_volume 592.669698
_symmetry_space_group_name_H-M "P -1"
_symmetry_group_IT_number 2
_symmetry_cell_setting 'triclinic'
loop_
_space_group_symop_operation_xyz
x,y,z
-x,-y,-z
loop_
_atom_site_type_symbol
_atom_site_label
_atom_site_fract_x
_atom_site_fract_y
_atom_site_fract_z
Si Si1 0.298251 0.800727 0.314132
Si Si2 0.635854 0.856274 0.775653
Si Si3 0.207072 0.219772 0.014604
Si Si4 0.570087 0.353746 0.457475
Si Si5 0.947089 0.399980 0.900945
Si Si6 0.469052 0.517095 0.280473
Si Si7 0.051234 0.070524 0.735634
Si Si8 0.085795 0.405690 0.315742
O O1 0.112278 0.603459 0.327785
O O2 0.165922 0.751780 0.499337
O O3 0.315487 0.970789 0.282610
O O4 0.572702 0.826625 0.139584
O O5 0.621979 0.692637 0.676966
O O6 0.162158 0.063276 0.242634
O O7 0.347438 0.728315 0.971596
O O8 0.192856 0.347863 0.141099
O O9 0.254245 0.337784 0.910258
O O10 0.975763 0.025059 0.160504
O O11 0.500000 0.500000 0.500000
O O12 0.846468 0.426705 0.258757
O O13 0.569693 0.373548 0.582207
O O14 0.333239 0.151991 0.533676
O O15 0.019195 0.243928 0.815239
O O16 0.000000 0.500000 0.000000
O O17 0.295257 0.467856 0.283187
#
# Coordination Sequence:
#
# PCOD9037252 Si02
#       8
#     2   2   2   2   2   2   2   2
#     4  10  23  40  64 106 149 181 241 297 359 425
#     4  12  24  42  77 114 136 185 253 304 356 424
#     4  11  23  46  68 103 151 187 245 294 370 433
#     4  10  25  47  66 100 149 191 232 294 377 432
#     4  11  25  46  67 100 150 185 232 305 369 421
#     4  11  24  44  73 102 145 195 232 299 376 430
#     4  11  24  43  72 104 141 190 244 300 351 440
#     4  10  23  42  68 105 153 193 225 305 374 431
#
# _framework density 26.996486999999998
#
# number of rings (size 3 to 8) (size 9 to 14) (size 15 to 20)
#    0.000    1.250    2.500    3.375    3.500    4.000 
#    4.500    0.000    0.000    1.500    0.000    0.000 
#    0.000    0.000    0.000    0.000    0.000    0.000 
#
# Total GULP energy -89390.284297 kJ/mol
# GULP energy per Si atom -5586.892769 kJ/mol
# Density = 2.693504 g / cm^3
# Si number density = 26.996487 Si / 1000 Ang^3
#
#
#
# Elastic Constant Matrix: (Units=GPa)
#
#
# Indices 1 2 3 4 5 6 
#
# 1 115.4023 50.8853 60.7615 -13.8629 -8.3991 16.2554
# 2 50.8853 185.4198 55.0735 -32.0842 5.4860 9.5034
# 3 60.7615 55.0735 202.6833 -31.4924 15.5916 30.5980
# 4 -13.8629 -32.0842 -31.4924 55.2371 12.9803 2.9883
# 5 -8.3991 5.4860 15.5916 12.9803 40.6116 -4.0471
# 6 16.2554 9.5034 30.5980 2.9883 -4.0471 47.9127
#
#
#
# Elastic Compliance Matrix: (Units=1/GPa)
#
#
# Indices 1 2 3 4 5 6 
#
# 1 0.011804 -0.002594 -0.003236 -0.001365 0.004374 -0.000969
# 2 -0.002594 0.006972 -0.000140 0.004026 -0.002801 -0.000901
# 3 -0.003236 -0.000140 0.007927 0.005258 -0.005849 -0.004759
# 4 -0.001365 0.004026 0.005258 0.026227 -0.011858 -0.006331
# 5 0.004374 -0.002801 -0.005849 -0.011858 0.032570 0.006298
# 6 -0.000969 -0.000901 -0.004759 -0.006331 0.006298 0.025345
#
#
# Mechanical properties :
#
#
# Convention : Reuss Voigt Hill
#
# Bulk Modulus (GPa) = 67.73254 92.99399 80.36327
# Shear Modulus (GPa) = 39.15269 51.20461 45.17865
#
# Velocity S-wave (km/s) = 3.81240 4.35985 4.09528
# Velocity P-wave (km/s) = 6.67256 7.73731 7.22457
#
# Compressibility (1/GPa) = 0.01476395
#
# Stress axis : x y z
#
# Youngs Moduli (GPa) = 84.71834 143.42417 126.14866
#
# Poissons Ratio (x) = 0.37205 0.40820
# Poissons Ratio (y) = 0.21976 0.01762
# Poissons Ratio (z) = 0.27414 0.02004
#
# Static dielectric constant tensor:
#      x y z
#    x 2.191080 -0.063870 -0.060200 
#    y -0.063870 2.213660 -0.006680 
#    z -0.060200 -0.006680 2.195010 
# 
# From -- ./inp_files/529968.got.cif
#   From: 2010.05.17/outbox.cif.g08.bks.cpg/sg2_265_cif.got.tgz:529968.got - 2010.06.03 11:33:40.
