data_PCOD9037288
_publ_section_title
;
Structure prediction by ZEFSAII (Michael W. Deem and Ramdas Pophale) SiO2 
 PCOD9037288
Probable space group: P -1
;
_chemical_formula_sum "Si O2"
_cell_formula_units_Z 14
_cell_length_a 16.394663
_cell_length_b 9.143677
_cell_length_c 8.529546
_cell_angle_alpha 48.727302
_cell_angle_beta 85.116083
_cell_angle_gamma 120.286926
_cell_volume 634.992616
_symmetry_space_group_name_H-M "P -1"
_symmetry_group_IT_number 2
_symmetry_cell_setting 'triclinic'
loop_
_space_group_symop_operation_xyz
x,y,z
-x,-y,-z
loop_
_atom_site_type_symbol
_atom_site_label
_atom_site_fract_x
_atom_site_fract_y
_atom_site_fract_z
Si Si1 0.887556 0.291649 0.542571
Si Si2 0.327700 0.809684 0.557551
Si Si3 0.235148 0.089531 0.416458
Si Si4 0.855312 0.761507 0.222695
Si Si5 0.596571 0.235603 0.088333
Si Si6 0.892863 0.216483 0.026112
Si Si7 0.236031 0.689268 0.202518
O O1 0.776286 0.191412 0.728538
O O2 0.000000 0.500000 0.500000
O O3 0.839046 0.013347 0.662532
O O4 0.961998 0.527393 0.219777
O O5 0.226304 0.495014 0.710130
O O6 0.355557 0.772731 0.750802
O O7 0.294393 0.979081 0.463216
O O8 0.451891 0.010381 0.292427
O O9 0.143317 0.908733 0.705898
O O10 0.333430 0.434629 0.180152
O O11 0.831167 0.617633 0.496802
O O12 0.828490 0.941609 0.118541
O O13 0.000000 0.000000 0.000000
O O14 0.636617 0.159214 0.997350
O O15 0.838019 0.328779 0.908596
#
# Coordination Sequence:
#
# PCOD9037288 Si02
#       7
#     2   2   2   2   2   2   2
#     4  10  23  40  64  98 138 169 216 276 324 389
#     4  11  26  46  66  97 133 173 224 276 319 394
#     4  12  22  44  68  94 131 179 219 270 332 390
#     4  12  24  43  70  98 132 175 215 271 339 388
#     4  11  26  45  67  95 133 177 225 267 326 389
#     4  11  23  40  64  99 135 172 217 268 334 389
#     4  11  22  43  63  98 136 164 224 268 319 396
#
# _framework density 22.047501
#
# number of rings (size 3 to 8) (size 9 to 14) (size 15 to 20)
#    0.000    0.857    5.714    0.857    4.000    0.571 
#    0.000    4.286    0.000    0.000    0.000    0.000 
#    0.000    0.000    0.000    0.000    0.000    0.000 
#
# Total GULP energy -78067.580782 kJ/mol
# GULP energy per Si atom -5576.255770 kJ/mol
# Density = 2.199732 g / cm^3
# Si number density = 22.047501 Si / 1000 Ang^3
#
#
#
# Elastic Constant Matrix: (Units=GPa)
#
#
# Indices 1 2 3 4 5 6 
#
# 1 88.6815 30.9626 36.9293 4.5992 -9.3659 -15.5801
# 2 30.9626 90.3883 38.9235 4.1072 -23.5767 -13.3434
# 3 36.9293 38.9235 125.7479 18.4879 -20.5376 -10.6806
# 4 4.5992 4.1072 18.4879 38.1157 -11.3072 -6.0899
# 5 -9.3659 -23.5767 -20.5376 -11.3072 46.7111 8.1690
# 6 -15.5801 -13.3434 -10.6806 -6.0899 8.1690 34.9025
#
#
#
# Elastic Compliance Matrix: (Units=1/GPa)
#
#
# Indices 1 2 3 4 5 6 
#
# 1 0.014335 -0.003134 -0.003058 0.000609 -0.000698 0.004535
# 2 -0.003134 0.015209 -0.002954 0.002319 0.005866 0.002543
# 3 -0.003058 -0.002954 0.010595 -0.004019 0.001640 -0.000338
# 4 0.000609 0.002319 -0.004019 0.030303 0.006203 0.003764
# 5 -0.000698 0.005866 0.001640 0.006203 0.026939 -0.002790
# 6 0.004535 0.002543 -0.000338 0.003764 -0.002790 0.032854
#
#
# Mechanical properties :
#
#
# Convention : Reuss Voigt Hill
#
# Bulk Modulus (GPa) = 45.77305 57.60537 51.68921
# Shear Modulus (GPa) = 32.08991 37.14602 34.61796
#
# Velocity S-wave (km/s) = 3.81923 4.10911 3.96682
# Velocity P-wave (km/s) = 6.34467 6.97836 6.66905
#
# Compressibility (1/GPa) = 0.02184692
#
# Stress axis : x y z
#
# Youngs Moduli (GPa) = 69.75717 65.74959 94.38288
#
# Poissons Ratio (x) = 0.20605 0.28865
# Poissons Ratio (y) = 0.21861 0.27884
# Poissons Ratio (z) = 0.21333 0.19424
#
# Static dielectric constant tensor:
#      x y z
#    x 1.905530 0.019480 0.051560 
#    y 0.019480 1.875960 0.048320 
#    z 0.051560 0.048320 1.806970 
# 
# From -- ./inp_files/328421.got.cif
#   From: 2010.05.17/outbox.cif.g08.bks.cpg/sg2_165_cif.got.tgz:328421.got - 2010.06.03 11:33:40.
