data_PCOD9037718
_publ_section_title
;
Structure prediction by ZEFSAII (Michael W. Deem and Ramdas Pophale) SiO2 
 PCOD9037718
Probable space group: P -1
;
_chemical_formula_sum "Si O2"
_cell_formula_units_Z 12
_cell_length_a 6.527607
_cell_length_b 10.642385
_cell_length_c 10.085474
_cell_angle_alpha 78.068794
_cell_angle_beta 69.525482
_cell_angle_gamma 126.357503
_cell_volume 441.858252
_symmetry_space_group_name_H-M "P -1"
_symmetry_group_IT_number 2
_symmetry_cell_setting 'triclinic'
loop_
_space_group_symop_operation_xyz
x,y,z
-x,-y,-z
loop_
_atom_site_type_symbol
_atom_site_label
_atom_site_fract_x
_atom_site_fract_y
_atom_site_fract_z
Si Si1 0.144431 0.812862 0.578030
Si Si2 0.438155 0.587910 0.178231
Si Si3 0.419938 0.315835 0.585951
Si Si4 0.510385 0.677005 0.724497
Si Si5 0.796204 0.169698 0.746447
Si Si6 0.637251 0.231852 0.018608
O O1 0.158849 0.776389 0.428105
O O2 0.914097 0.608914 0.742073
O O3 0.892329 0.825177 0.632243
O O4 0.500000 0.000000 0.500000
O O5 0.441910 0.654196 0.308405
O O6 0.603616 0.518845 0.176146
O O7 0.574855 0.743499 0.006303
O O8 0.500000 0.500000 0.500000
O O9 0.041827 0.158141 0.719579
O O10 0.512524 0.292932 0.431095
O O11 0.329583 0.693352 0.860489
O O12 0.462053 0.956359 0.884856
O O13 0.843163 0.293462 0.824524
#
# Coordination Sequence:
#
# PCOD9037718 Si02
#       6
#     2   2   2   2   2   2
#     4   9  20  43  65  90 122 164 216 253 304 378
#     4   9  20  40  71  88 124 158 220 252 309 374
#     4   9  17  42  65  91 118 170 209 252 307 375
#     4   8  19  39  69  87 125 162 213 253 308 376
#     4  10  23  41  61  89 139 160 206 260 311 375
#     4  11  22  42  59 100 128 163 205 260 324 353
#
# _framework density 27.158031000000001
#
# number of rings (size 3 to 8) (size 9 to 14) (size 15 to 20)
#    1.000    1.667    1.667    0.500    0.000    4.000 
#   12.000    5.833    0.000    0.000    0.000    0.000 
#    0.000    0.000    0.000    0.000    0.000    0.000 
#
# Total GULP energy -66836.617589 kJ/mol
# GULP energy per Si atom -5569.718132 kJ/mol
# Density = 2.709622 g / cm^3
# Si number density = 27.158031 Si / 1000 Ang^3
#
#
#
# Elastic Constant Matrix: (Units=GPa)
#
#
# Indices 1 2 3 4 5 6 
#
# 1 43.6583 35.9156 2.4705 26.0905 -1.0135 8.3623
# 2 35.9156 112.9457 52.2662 50.1488 -14.4059 -7.1903
# 3 2.4705 52.2662 110.3171 61.3511 8.4584 -6.7830
# 4 26.0905 50.1488 61.3511 67.3619 -6.4708 1.0064
# 5 -1.0135 -14.4059 8.4584 -6.4708 50.2039 4.7746
# 6 8.3623 -7.1903 -6.7830 1.0064 4.7746 53.9944
#
#
#
# Elastic Compliance Matrix: (Units=1/GPa)
#
#
# Indices 1 2 3 4 5 6 
#
# 1 0.057053 -0.016944 0.026714 -0.034890 -0.012136 -0.006013
# 2 -0.016944 0.019024 -0.010281 0.002373 0.006849 0.003216
# 3 0.026714 -0.010281 0.033422 -0.034341 -0.012510 0.000438
# 4 -0.034890 0.002373 -0.034341 0.059176 0.013474 -0.000889
# 5 -0.012136 0.006849 -0.012510 0.013474 0.025607 -0.001295
# 6 -0.006013 0.003216 0.000438 -0.000889 -0.001295 0.020066
#
#
# Mechanical properties :
#
#
# Convention : Reuss Voigt Hill
#
# Bulk Modulus (GPa) = 9.21853 49.80287 29.51070
# Shear Modulus (GPa) = 19.87865 46.06330 32.97097
#
# Velocity S-wave (km/s) = 2.70841 4.12287 3.48809
# Velocity P-wave (km/s) = 3.63076 6.40640 5.20694
#
# Compressibility (1/GPa) = 0.10847721
#
# Stress axis : x y z
#
# Youngs Moduli (GPa) = 17.52766 52.56574 29.92084
#
# Poissons Ratio (x) = 0.89065 -0.79931
# Poissons Ratio (y) = 0.29698 0.30762
# Poissons Ratio (z) = -0.46824 0.54043
#
# Static dielectric constant tensor:
#      x y z
#    x 2.235470 0.050140 -0.105190 
#    y 0.050140 2.226820 -0.099270 
#    z -0.105190 -0.099270 2.162470 
# 
# From -- ./inp_files/390186.got.cif
#   From: 2010.05.17/outbox.cif.g08.bks.cpg/sg2_196_cif.got.tgz:390186.got - 2010.06.03 11:33:40.
