data_PCOD9037415
_publ_section_title
;
Structure prediction by ZEFSAII (Michael W. Deem and Ramdas Pophale) SiO2 
 PCOD9037415
Probable space group: P -1
;
_chemical_formula_sum "Si O2"
_cell_formula_units_Z 12
_cell_length_a 12.841848
_cell_length_b 9.942122
_cell_length_c 8.376603
_cell_angle_alpha 86.824587
_cell_angle_beta 104.292249
_cell_angle_gamma 33.847532
_cell_volume 505.613492
_symmetry_space_group_name_H-M "P -1"
_symmetry_group_IT_number 2
_symmetry_cell_setting 'triclinic'
loop_
_space_group_symop_operation_xyz
x,y,z
-x,-y,-z
loop_
_atom_site_type_symbol
_atom_site_label
_atom_site_fract_x
_atom_site_fract_y
_atom_site_fract_z
Si Si1 0.481163 0.900769 0.373763
Si Si2 0.422984 0.785531 0.854834
Si Si3 0.126711 0.224525 0.970701
Si Si4 0.210353 0.292548 0.701107
Si Si5 0.665253 0.207768 0.518207
Si Si6 0.925605 0.209469 0.063687
O O1 0.672904 0.703493 0.324944
O O2 0.461851 0.787478 0.475108
O O3 0.500000 0.000000 0.500000
O O4 0.261241 0.138796 0.172061
O O5 0.320889 0.813311 0.667276
O O6 0.279495 0.948279 0.950358
O O7 0.394894 0.973564 0.778616
O O8 0.672348 0.471442 0.999957
O O9 0.115916 0.361034 0.834658
O O10 0.936694 0.335427 0.954676
O O11 0.000000 0.500000 0.500000
O O12 0.500000 0.500000 0.500000
O O13 0.898928 0.964046 0.714051
O O14 0.000000 0.000000 0.000000
#
# Coordination Sequence:
#
# PCOD9037415 Si02
#       6
#     2   2   2   2   2   2
#     4  11  21  43  69  97 135 185 225 289 343 411
#     4  10  23  45  67  98 141 176 231 283 347 400
#     4   9  24  43  65 101 137 174 236 280 344 416
#     4  10  23  40  66  97 139 172 231 281 343 402
#     4  11  23  42  70 103 135 180 237 280 342 417
#     4  11  23  43  71  96 140 187 227 283 351 409
#
# _framework density 23.733544999999999
#
# number of rings (size 3 to 8) (size 9 to 14) (size 15 to 20)
#    1.000    0.667    3.333    0.500    2.333    2.000 
#    0.000    3.333    0.000    0.000    0.000    0.000 
#    0.000    0.000    0.000    0.000    0.000    0.000 
#
# Total GULP energy -66972.860791 kJ/mol
# GULP energy per Si atom -5581.071733 kJ/mol
# Density = 2.367953 g / cm^3
# Si number density = 23.733545 Si / 1000 Ang^3
#
#
#
# Elastic Constant Matrix: (Units=GPa)
#
#
# Indices 1 2 3 4 5 6 
#
# 1 71.0633 11.6658 33.5533 8.2314 8.7848 7.3262
# 2 11.6658 116.7642 51.2041 5.7864 8.2234 -4.3932
# 3 33.5533 51.2041 109.8510 11.8871 13.5446 6.5823
# 4 8.2314 5.7864 11.8871 38.3877 -1.5713 10.6669
# 5 8.7848 8.2234 13.5446 -1.5713 28.8677 -0.2089
# 6 7.3262 -4.3932 6.5823 10.6669 -0.2089 35.5688
#
#
#
# Elastic Compliance Matrix: (Units=1/GPa)
#
#
# Indices 1 2 3 4 5 6 
#
# 1 0.017048 0.000639 -0.004786 -0.001843 -0.003240 -0.002013
# 2 0.000639 0.011011 -0.005270 -0.000886 -0.000889 0.002464
# 3 -0.004786 -0.005270 0.013800 -0.002159 -0.003647 -0.001593
# 4 -0.001843 -0.000886 -0.002159 0.029666 0.003382 -0.008207
# 5 -0.003240 -0.000889 -0.003647 0.003382 0.037778 0.000440
# 6 -0.002013 0.002464 -0.001593 -0.008207 0.000440 0.031592
#
#
# Mechanical properties :
#
#
# Convention : Reuss Voigt Hill
#
# Bulk Modulus (GPa) = 43.42854 54.50278 48.96566
# Shear Modulus (GPa) = 29.86802 33.98183 31.92493
#
# Velocity S-wave (km/s) = 3.55134 3.78803 3.67159
# Velocity P-wave (km/s) = 5.92910 6.49203 6.21694
#
# Compressibility (1/GPa) = 0.02302633
#
# Stress axis : x y z
#
# Youngs Moduli (GPa) = 58.65741 90.82240 72.46368
#
# Poissons Ratio (x) = -0.05805 0.34679
# Poissons Ratio (y) = -0.03749 0.38186
# Poissons Ratio (z) = 0.28071 0.47860
#
# Static dielectric constant tensor:
#      x y z
#    x 1.931320 0.014340 -0.053300 
#    y 0.014340 1.972340 0.023100 
#    z -0.053300 0.023100 1.906730 
# 
# From -- ./inp_files/244143.got.cif
#   From: 2010.05.17/outbox.cif.g08.bks.cpg/sg2_123_cif.got.tgz:244143.got - 2010.06.03 11:33:40.
