data_PCOD9037715
_publ_section_title
;
Structure prediction by ZEFSAII (Michael W. Deem and Ramdas Pophale) SiO2 
 PCOD9037715
Probable space group: P -1
;
_chemical_formula_sum "Si O2"
_cell_formula_units_Z 14
_cell_length_a 5.529792
_cell_length_b 16.074541
_cell_length_c 8.248852
_cell_angle_alpha 121.424704
_cell_angle_beta 112.193588
_cell_angle_gamma 96.191874
_cell_volume 534.486031
_symmetry_space_group_name_H-M "P -1"
_symmetry_group_IT_number 2
_symmetry_cell_setting 'triclinic'
loop_
_space_group_symop_operation_xyz
x,y,z
-x,-y,-z
loop_
_atom_site_type_symbol
_atom_site_label
_atom_site_fract_x
_atom_site_fract_y
_atom_site_fract_z
Si Si1 0.519977 0.339282 0.065045
Si Si2 0.688014 0.561306 0.464119
Si Si3 0.118661 0.915206 0.682583
Si Si4 0.090507 0.794442 0.236054
Si Si5 0.323171 0.565249 0.103245
Si Si6 0.593111 0.956444 0.639887
Si Si7 0.823257 0.216624 0.128283
O O1 0.717879 0.459260 0.286979
O O2 0.185756 0.315254 0.944734
O O3 0.541745 0.243622 0.076410
O O4 0.642980 0.342165 0.919708
O O5 0.500000 0.500000 0.500000
O O6 0.496567 0.603915 0.349054
O O7 0.950082 0.662892 0.682228
O O8 0.915189 0.972159 0.745728
O O9 0.129864 0.839030 0.754253
O O10 0.441523 0.986463 0.784048
O O11 0.990053 0.860501 0.418196
O O12 0.136087 0.823016 0.083120
O O13 0.397818 0.830557 0.439708
O O14 0.500000 0.500000 0.000000
O O15 0.000000 0.500000 0.000000
O O16 0.500000 0.000000 0.500000
#
# Coordination Sequence:
#
# PCOD9037715 Si02
#       7
#     2   2   2   2   2   2   2
#     4  11  23  42  63  95 136 189 240 290 345 397
#     4  11  22  40  61  94 131 190 241 290 331 399
#     4  10  25  45  74 106 139 182 225 282 354 419
#     4  10  24  41  72  99 145 173 232 286 355 399
#     4  10  23  41  61  86 124 173 237 290 341 387
#     4  10  23  50  80 104 139 180 225 281 357 435
#     4  12  24  43  66 101 146 182 239 287 347 411
#
# _framework density 26.193390999999998
#
# number of rings (size 3 to 8) (size 9 to 14) (size 15 to 20)
#    0.857    0.571    1.429    3.429    4.000    1.143 
#    2.571    1.429    0.000    0.000    0.000    0.000 
#    0.000    0.000    0.000    0.000    0.000    0.000 
#
# Total GULP energy -77965.786128 kJ/mol
# GULP energy per Si atom -5568.984723 kJ/mol
# Density = 2.613377 g / cm^3
# Si number density = 26.193391 Si / 1000 Ang^3
#
#
#
# Elastic Constant Matrix: (Units=GPa)
#
#
# Indices 1 2 3 4 5 6 
#
# 1 140.9294 41.2975 22.2635 -17.9882 14.1722 13.3855
# 2 41.2975 101.5761 19.7936 -41.6145 -1.2094 -3.3431
# 3 22.2635 19.7936 108.0857 -5.1725 -6.8539 -5.7431
# 4 -17.9882 -41.6145 -5.1725 60.1724 1.8823 -4.2645
# 5 14.1722 -1.2094 -6.8539 1.8823 23.2717 -6.3499
# 6 13.3855 -3.3431 -5.7431 -4.2645 -6.3499 48.5817
#
#
#
# Elastic Compliance Matrix: (Units=1/GPa)
#
#
# Indices 1 2 3 4 5 6 
#
# 1 0.009716 -0.003752 -0.002032 0.000084 -0.007862 -0.004196
# 2 -0.003752 0.015787 -0.001301 0.009823 0.002799 0.003194
# 3 -0.002032 -0.001301 0.010309 -0.000612 0.004875 0.002272
# 4 0.000084 0.009823 -0.000612 0.023594 -0.000939 0.002529
# 5 -0.007862 0.002799 0.004875 -0.000939 0.052050 0.009656
# 6 -0.004196 0.003194 0.002272 0.002529 0.009656 0.023712
#
#
# Mechanical properties :
#
#
# Convention : Reuss Voigt Hill
#
# Bulk Modulus (GPa) = 46.20358 57.47781 51.84070
# Shear Modulus (GPa) = 31.93850 44.22091 38.07971
#
# Velocity S-wave (km/s) = 3.49569 4.11329 3.81700
# Velocity P-wave (km/s) = 5.82845 6.67459 6.26582
#
# Compressibility (1/GPa) = 0.02164334
#
# Stress axis : x y z
#
# Youngs Moduli (GPa) = 102.92459 63.34503 97.00032
#
# Poissons Ratio (x) = 0.23764 0.19707
# Poissons Ratio (y) = 0.38613 0.12619
# Poissons Ratio (z) = 0.20911 0.08241
#
# Static dielectric constant tensor:
#      x y z
#    x 2.651510 -0.378100 -1.153430 
#    y -0.378100 2.354490 0.479990 
#    z -1.153430 0.479990 4.709210 
# 
# From -- ./inp_files/136817.got.cif
#   From: 2010.05.17/outbox.cif.g08.bks.cpg/sg2_69_cif.got.tgz:136817.got - 2010.06.03 11:33:40.
