data_PCOD9037555
_publ_section_title
;
Structure prediction by ZEFSAII (Michael W. Deem and Ramdas Pophale) SiO2 
 PCOD9037555
Probable space group: P -1
;
_chemical_formula_sum "Si O2"
_cell_formula_units_Z 12
_cell_length_a 15.152738
_cell_length_b 9.300798
_cell_length_c 6.872473
_cell_angle_alpha 103.592280
_cell_angle_beta 104.857222
_cell_angle_gamma 34.812543
_cell_volume 533.928939
_symmetry_space_group_name_H-M "P -1"
_symmetry_group_IT_number 2
_symmetry_cell_setting 'triclinic'
loop_
_space_group_symop_operation_xyz
x,y,z
-x,-y,-z
loop_
_atom_site_type_symbol
_atom_site_label
_atom_site_fract_x
_atom_site_fract_y
_atom_site_fract_z
Si Si1 0.174090 0.977249 0.616757
Si Si2 0.956628 0.387979 0.944087
Si Si3 0.010379 0.865210 0.788956
Si Si4 0.346226 0.517599 0.810890
Si Si5 0.447075 0.740141 0.495598
Si Si6 0.607495 0.731677 0.882423
O O1 0.110095 0.957492 0.399135
O O2 0.032111 0.218974 0.740891
O O3 0.282199 0.757085 0.770439
O O4 0.274079 0.968728 0.556981
O O5 0.776178 0.581552 0.904945
O O6 0.000000 0.500000 0.000000
O O7 0.022092 0.237672 0.136976
O O8 0.185594 0.633760 0.726958
O O9 0.000000 0.000000 0.000000
O O10 0.506236 0.291279 0.710280
O O11 0.382302 0.425698 0.020872
O O12 0.500000 0.500000 0.500000
O O13 0.541303 0.746191 0.656345
O O14 0.500000 0.000000 0.000000
#
# Coordination Sequence:
#
# PCOD9037555 Si02
#       6
#     2   2   2   2   2   2
#     4  11  23  40  68 102 136 166 230 278 338 398
#     4  11  25  43  70 100 136 179 223 281 340 400
#     4  11  23  40  70  99 129 173 227 281 334 392
#     4  10  23  40  68  97 132 176 222 277 333 393
#     4  10  24  39  65  99 135 172 220 274 335 398
#     4  11  25  45  67  95 140 181 225 272 342 406
#
# _framework density 22.474899000000001
#
# number of rings (size 3 to 8) (size 9 to 14) (size 15 to 20)
#    0.000    1.333    1.667    2.500    9.333    6.667 
#    0.000    0.000    0.000    0.000    0.000    0.000 
#    0.000    0.000    0.000    0.000    0.000    0.000 
#
# Total GULP energy -66898.273346 kJ/mol
# GULP energy per Si atom -5574.856112 kJ/mol
# Density = 2.242375 g / cm^3
# Si number density = 22.474899 Si / 1000 Ang^3
#
#
#
# Elastic Constant Matrix: (Units=GPa)
#
#
# Indices 1 2 3 4 5 6 
#
# 1 131.5727 27.1578 47.1610 14.8744 -36.3885 -8.3470
# 2 27.1578 65.0077 28.9471 17.6054 -10.7766 -13.5956
# 3 47.1610 28.9471 56.5366 20.1783 -10.9065 -13.1671
# 4 14.8744 17.6054 20.1783 24.8555 -8.2092 -8.1771
# 5 -36.3885 -10.7766 -10.9065 -8.2092 44.7897 16.0709
# 6 -8.3470 -13.5956 -13.1671 -8.1771 16.0709 40.2992
#
#
#
# Elastic Compliance Matrix: (Units=1/GPa)
#
#
# Indices 1 2 3 4 5 6 
#
# 1 0.014328 -0.000921 -0.011810 0.003696 0.010950 -0.004818
# 2 -0.000921 0.021647 -0.006555 -0.008345 0.000185 0.003203
# 3 -0.011810 -0.006555 0.037904 -0.019408 -0.008004 0.006981
# 4 0.003696 -0.008345 -0.019408 0.062539 0.007223 0.001419
# 5 0.010950 0.000185 -0.008004 0.007223 0.035264 -0.012882
# 6 -0.004818 0.003203 0.006981 0.001419 -0.012882 0.032603
#
#
# Mechanical properties :
#
#
# Convention : Reuss Voigt Hill
#
# Bulk Modulus (GPa) = 28.32252 51.07209 39.69730
# Shear Modulus (GPa) = 19.63659 31.97894 25.80776
#
# Velocity S-wave (km/s) = 2.95907 3.77619 3.39232
# Velocity P-wave (km/s) = 4.92991 6.46423 5.74849
#
# Compressibility (1/GPa) = 0.03530759
#
# Stress axis : x y z
#
# Youngs Moduli (GPa) = 69.79174 46.19569 26.38244
#
# Poissons Ratio (x) = 0.04252 0.31158
# Poissons Ratio (y) = 0.06425 0.17295
# Poissons Ratio (z) = 0.82424 0.30283
#
# Static dielectric constant tensor:
#      x y z
#    x 1.823790 -0.016960 -0.011660 
#    y -0.016960 1.909060 -0.007800 
#    z -0.011660 -0.007800 1.824080 
# 
# From -- ./inp_files/38158.got.cif
#   From: 2010.05.17/outbox.cif.g08.bks.cpg/sg2_20_cif.got.tgz:38158.got - 2010.06.03 11:33:40.
