data_PCOD9037348
_publ_section_title
;
Structure prediction by ZEFSAII (Michael W. Deem and Ramdas Pophale) SiO2 
 PCOD9037348
Probable space group: P -1
;
_chemical_formula_sum "Si O2"
_cell_formula_units_Z 14
_cell_length_a 6.415205
_cell_length_b 17.660883
_cell_length_c 9.267158
_cell_angle_alpha 41.037207
_cell_angle_beta 108.683820
_cell_angle_gamma 127.876352
_cell_volume 523.075112
_symmetry_space_group_name_H-M "P -1"
_symmetry_group_IT_number 2
_symmetry_cell_setting 'triclinic'
loop_
_space_group_symop_operation_xyz
x,y,z
-x,-y,-z
loop_
_atom_site_type_symbol
_atom_site_label
_atom_site_fract_x
_atom_site_fract_y
_atom_site_fract_z
Si Si1 0.456902 0.290451 0.496127
Si Si2 0.893035 0.805013 0.854745
Si Si3 0.269192 0.636926 0.940000
Si Si4 0.998665 0.575074 0.249083
Si Si5 0.857323 0.136016 0.460983
Si Si6 0.154710 0.153535 0.894056
Si Si7 0.660079 0.107648 0.748832
O O1 0.696282 0.455469 0.287115
O O2 0.425265 0.253241 0.714781
O O3 0.542543 0.197470 0.575564
O O4 0.162953 0.236132 0.451081
O O5 0.578049 0.696213 0.885184
O O6 0.091697 0.907594 0.620220
O O7 0.007643 0.715865 0.056773
O O8 0.866717 0.867805 0.908319
O O9 0.242347 0.766224 0.734204
O O10 0.000000 0.500000 0.000000
O O11 0.221934 0.597060 0.155623
O O12 0.000000 0.500000 0.500000
O O13 0.666688 0.042676 0.690261
O O14 0.970286 0.206813 0.734517
O O15 0.000000 0.000000 0.000000
O O16 0.500000 0.000000 0.000000
#
# Coordination Sequence:
#
# PCOD9037348 Si02
#       7
#     2   2   2   2   2   2   2
#     4  11  22  41  68  95 134 176 225 277 336 403
#     4  11  24  42  66 100 143 174 222 283 333 403
#     4  11  22  40  65  98 141 183 218 267 338 407
#     4  11  23  38  63 103 137 173 222 277 337 400
#     4  10  23  40  65  97 132 174 224 274 340 397
#     4  11  24  44  67  94 130 179 230 280 338 393
#     4  11  22  42  70  94 126 178 234 277 331 400
#
# _framework density 26.764800999999999
#
# number of rings (size 3 to 8) (size 9 to 14) (size 15 to 20)
#    0.000    1.143    1.429    5.143    0.000    8.000 
#    0.000    3.571    0.000    0.000    0.000    0.000 
#    0.000    0.000    0.000    0.000    0.000    0.000 
#
# Total GULP energy -78330.424208 kJ/mol
# GULP energy per Si atom -5595.030301 kJ/mol
# Density = 2.670388 g / cm^3
# Si number density = 26.764801 Si / 1000 Ang^3
#
#
#
# Elastic Constant Matrix: (Units=GPa)
#
#
# Indices 1 2 3 4 5 6 
#
# 1 130.0504 30.7087 53.2905 21.1493 -24.6868 -14.5976
# 2 30.7087 96.9022 34.0642 27.4424 -28.2917 -8.4356
# 3 53.2905 34.0642 144.9496 41.8823 -37.3046 -33.7536
# 4 21.1493 27.4424 41.8823 45.7771 -10.0852 -8.8936
# 5 -24.6868 -28.2917 -37.3046 -10.0852 70.1508 20.2341
# 6 -14.5976 -8.4356 -33.7536 -8.8936 20.2341 51.8412
#
#
#
# Elastic Compliance Matrix: (Units=1/GPa)
#
#
# Indices 1 2 3 4 5 6 
#
# 1 0.009468 -0.001499 -0.002532 -0.000863 0.001213 0.000152
# 2 -0.001499 0.013941 0.000258 -0.007098 0.004487 -0.000954
# 3 -0.002532 0.000258 0.012067 -0.008462 0.003110 0.004521
# 4 -0.000863 -0.007098 -0.008462 0.033611 -0.002823 -0.000040
# 5 0.001213 0.004487 0.003110 -0.002823 0.019141 -0.004859
# 6 0.000152 -0.000954 0.004521 -0.000040 -0.004859 0.024010
#
#
# Mechanical properties :
#
#
# Convention : Reuss Voigt Hill
#
# Bulk Modulus (GPa) = 35.80128 67.55877 51.68003
# Shear Modulus (GPa) = 38.73140 50.47640 44.60390
#
# Velocity S-wave (km/s) = 3.80821 4.34743 4.08672
# Velocity P-wave (km/s) = 5.72205 7.10610 6.45130
#
# Compressibility (1/GPa) = 0.02793196
#
# Stress axis : x y z
#
# Youngs Moduli (GPa) = 105.61462 71.73091 82.86917
#
# Poissons Ratio (x) = 0.10751 0.20981
# Poissons Ratio (y) = 0.15829 -0.02140
# Poissons Ratio (z) = 0.26740 -0.01853
#
# Static dielectric constant tensor:
#      x y z
#    x 2.077960 0.008710 -0.028330 
#    y 0.008710 2.167850 0.062150 
#    z -0.028330 0.062150 2.117950 
# 
# From -- ./inp_files/138596.got.cif
#   From: 2010.05.17/outbox.cif.g08.bks.cpg/sg2_70_cif.got.tgz:138596.got - 2010.06.03 11:33:40.
