data_PCOD9037953
_publ_section_title
;
Structure prediction by ZEFSAII (Michael W. Deem and Ramdas Pophale) SiO2 
 PCOD9037953
Probable space group: P -1
;
_chemical_formula_sum "Si O2"
_cell_formula_units_Z 14
_cell_length_a 12.534521
_cell_length_b 4.981772
_cell_length_c 13.606057
_cell_angle_alpha 80.170950
_cell_angle_beta 44.774042
_cell_angle_gamma 76.343405
_cell_volume 581.473255
_symmetry_space_group_name_H-M "P -1"
_symmetry_group_IT_number 2
_symmetry_cell_setting 'triclinic'
loop_
_space_group_symop_operation_xyz
x,y,z
-x,-y,-z
loop_
_atom_site_type_symbol
_atom_site_label
_atom_site_fract_x
_atom_site_fract_y
_atom_site_fract_z
Si Si1 0.813930 0.051164 0.341691
Si Si2 0.696267 0.751248 0.109371
Si Si3 0.882045 0.869923 0.518399
Si Si4 0.859673 0.272649 0.925573
Si Si5 0.649687 0.632691 0.368704
Si Si6 0.174784 0.524376 0.274729
Si Si7 0.539260 0.265941 0.905429
O O1 0.815959 0.055902 0.459031
O O2 0.686794 0.869367 0.402822
O O3 0.972433 0.892872 0.200037
O O4 0.782300 0.364176 0.306318
O O5 0.830522 0.485900 0.020999
O O6 0.646170 0.757168 0.254368
O O7 0.556293 0.694995 0.134730
O O8 0.754178 0.035000 0.022643
O O9 0.994470 0.621273 0.405044
O O10 0.774557 0.733044 0.670536
O O11 0.000000 0.000000 0.500000
O O12 0.813164 0.478799 0.850017
O O13 0.500000 0.500000 0.500000
O O14 0.279717 0.742772 0.226952
O O15 0.500000 0.500000 0.000000
O O16 0.500000 0.000000 0.000000
#
# Coordination Sequence:
#
# PCOD9037953 Si02
#       7
#     2   2   2   2   2   2   2
#     4  11  27  47  74 103 138 187 237 290 349 406
#     4  12  25  45  71 102 140 188 233 288 349 413
#     4  10  25  41  73 104 139 187 231 285 354 412
#     4  11  24  44  75 104 140 173 239 293 346 419
#     4  12  29  51  70 100 143 185 239 289 343 423
#     4  10  23  41  65 105 146 173 230 283 349 421
#     4  12  24  41  67 104 140 182 221 280 362 411
#
# _framework density 24.076774
#
# number of rings (size 3 to 8) (size 9 to 14) (size 15 to 20)
#    0.000    0.857    2.857    2.143   14.000    3.429 
#    0.000    0.000    0.000    0.000    0.000    0.000 
#    0.000    0.000    0.000    0.000    0.000    0.000 
#
# Total GULP energy -78286.240315 kJ/mol
# GULP energy per Si atom -5591.874308 kJ/mol
# Density = 2.402197 g / cm^3
# Si number density = 24.076774 Si / 1000 Ang^3
#
#
#
# Elastic Constant Matrix: (Units=GPa)
#
#
# Indices 1 2 3 4 5 6 
#
# 1 91.3252 6.1357 42.3962 -10.0091 22.3996 15.3710
# 2 6.1357 85.5586 18.5944 -6.3490 11.8413 21.3187
# 3 42.3962 18.5944 131.5504 -25.6304 15.4748 12.9981
# 4 -10.0091 -6.3490 -25.6304 34.5585 -1.0076 -6.3865
# 5 22.3996 11.8413 15.4748 -1.0076 44.2548 -0.1414
# 6 15.3710 21.3187 12.9981 -6.3865 -0.1414 43.0227
#
#
#
# Elastic Compliance Matrix: (Units=1/GPa)
#
#
# Indices 1 2 3 4 5 6 
#
# 1 0.015202 0.002038 -0.003683 0.000878 -0.006949 -0.005221
# 2 0.002038 0.014318 -0.001283 0.000785 -0.004419 -0.007333
# 3 -0.003683 -0.001283 0.010374 0.006308 -0.001277 -0.000250
# 4 0.000878 0.000785 0.006308 0.034414 -0.002069 0.002493
# 5 -0.006949 -0.004419 -0.001277 -0.002069 0.027711 0.004842
# 6 -0.005221 -0.007333 -0.000250 0.002493 0.004842 0.029204
#
#
# Mechanical properties :
#
#
# Convention : Reuss Voigt Hill
#
# Bulk Modulus (GPa) = 29.37946 49.18743 39.28345
# Shear Modulus (GPa) = 33.68703 40.45438 37.07071
#
# Velocity S-wave (km/s) = 3.74458 4.10350 3.92814
# Velocity P-wave (km/s) = 5.56100 6.55175 6.07660
#
# Compressibility (1/GPa) = 0.03403738
#
# Stress axis : x y z
#
# Youngs Moduli (GPa) = 65.78052 69.84340 96.39517
#
# Poissons Ratio (x) = -0.14234 0.35502
# Poissons Ratio (y) = -0.13406 0.12370
# Poissons Ratio (z) = 0.24227 0.08962
#
# Static dielectric constant tensor:
#      x y z
#    x 1.947120 -0.068840 -0.022350 
#    y -0.068840 1.945010 0.066170 
#    z -0.022350 0.066170 1.984530 
# 
# From -- ./inp_files/409028.got.cif
#   From: 2010.05.17/outbox.cif.g08.bks.cpg/sg2_205_cif.got.tgz:409028.got - 2010.06.03 11:33:40.
