data_PCOD9037210
_publ_section_title
;
Structure prediction by ZEFSAII (Michael W. Deem and Ramdas Pophale) SiO2 
 PCOD9037210
Probable space group: P -1
;
_chemical_formula_sum "Si O2"
_cell_formula_units_Z 14
_cell_length_a 8.437205
_cell_length_b 11.188328
_cell_length_c 6.958892
_cell_angle_alpha 113.925670
_cell_angle_beta 70.001981
_cell_angle_gamma 116.934142
_cell_volume 525.131860
_symmetry_space_group_name_H-M "P -1"
_symmetry_group_IT_number 2
_symmetry_cell_setting 'triclinic'
loop_
_space_group_symop_operation_xyz
x,y,z
-x,-y,-z
loop_
_atom_site_type_symbol
_atom_site_label
_atom_site_fract_x
_atom_site_fract_y
_atom_site_fract_z
Si Si1 0.783088 0.610730 0.198304
Si Si2 0.371176 0.712031 0.853266
Si Si3 0.736821 0.360464 0.589751
Si Si4 0.127768 0.343957 0.385394
Si Si5 0.601859 0.780804 0.125470
Si Si6 0.136046 0.859185 0.197949
Si Si7 0.082873 0.952406 0.709758
O O1 0.733117 0.444581 0.116123
O O2 0.769523 0.652739 0.454808
O O3 0.669984 0.676347 0.153978
O O4 0.989985 0.701646 0.123811
O O5 0.337979 0.690483 0.626186
O O6 0.567890 0.748880 0.893169
O O7 0.310292 0.840883 0.023413
O O8 0.754984 0.522781 0.701144
O O9 0.598260 0.256643 0.726040
O O10 0.942153 0.369839 0.534616
O O11 0.036219 0.191695 0.230145
O O12 0.734056 0.939107 0.208616
O O13 0.137071 0.904814 0.450054
O O14 0.051880 0.964503 0.207877
#
# Coordination Sequence:
#
# PCOD9037210 Si02
#       7
#     2   2   2   2   2   2   2
#     4   9  19  36  62  92 117 157 207 248 299 355
#     4  11  22  37  60  92 125 158 200 251 303 361
#     4  10  23  40  63  94 119 156 207 251 300 356
#     4   9  19  40  62  86 120 156 206 250 287 356
#     4  11  22  39  64  90 126 161 193 250 311 360
#     4   9  18  35  60  85 115 161 209 244 288 360
#     4   9  19  38  62  87 117 163 204 240 303 363
#
# _framework density 26.659972
#
# number of rings (size 3 to 8) (size 9 to 14) (size 15 to 20)
#    0.000    2.286    0.000    3.429    0.000    6.857 
#    0.000    6.429    0.000    0.000    0.000    3.000 
#    0.000    0.000    0.000    0.000    0.000    0.000 
#
# Total GULP energy -78380.914946 kJ/mol
# GULP energy per Si atom -5598.636782 kJ/mol
# Density = 2.659929 g / cm^3
# Si number density = 26.659972 Si / 1000 Ang^3
#
#
#
# Elastic Constant Matrix: (Units=GPa)
#
#
# Indices 1 2 3 4 5 6 
#
# 1 88.0504 27.6984 57.2617 9.9965 22.3872 3.3594
# 2 27.6984 140.6994 56.2041 29.2770 5.7989 14.8279
# 3 57.2617 56.2041 141.0582 24.0644 16.7539 0.1429
# 4 9.9965 29.2770 24.0644 40.0321 0.0872 0.8283
# 5 22.3872 5.7989 16.7539 0.0872 38.6599 1.5494
# 6 3.3594 14.8279 0.1429 0.8283 1.5494 36.0132
#
#
#
# Elastic Compliance Matrix: (Units=1/GPa)
#
#
# Indices 1 2 3 4 5 6 
#
# 1 0.017295 -0.000585 -0.005857 -0.000333 -0.007347 -0.001026
# 2 -0.000585 0.009842 -0.002808 -0.005284 0.000246 -0.003876
# 3 -0.005857 -0.002808 0.011283 -0.003300 -0.001140 0.001783
# 4 -0.000333 -0.005284 -0.003300 0.030877 0.002289 0.001411
# 5 -0.007347 0.000246 -0.001140 0.002289 0.030605 -0.000781
# 6 -0.001026 -0.003876 0.001783 0.001411 -0.000781 0.029453
#
#
# Mechanical properties :
#
#
# Convention : Reuss Voigt Hill
#
# Bulk Modulus (GPa) = 50.20202 72.45960 61.33081
# Shear Modulus (GPa) = 32.36342 38.18396 35.27369
#
# Velocity S-wave (km/s) = 3.48793 3.78862 3.64138
# Velocity P-wave (km/s) = 5.92387 6.81002 6.38235
#
# Compressibility (1/GPa) = 0.01991952
#
# Stress axis : x y z
#
# Youngs Moduli (GPa) = 57.81882 101.60539 88.63225
#
# Poissons Ratio (x) = 0.05942 0.51916
# Poissons Ratio (y) = 0.03381 0.24888
# Poissons Ratio (z) = 0.33867 0.28531
#
# Static dielectric constant tensor:
#      x y z
#    x 2.115350 -0.019700 -0.025380 
#    y -0.019700 2.043620 -0.031090 
#    z -0.025380 -0.031090 2.093600 
# 
# From -- ./inp_files/189887.got.cif
#   From: 2010.05.17/outbox.cif.g08.bks.cpg/sg2_95_cif.got.tgz:189887.got - 2010.06.03 11:33:40.
