data_PCOD9037144
_publ_section_title
;
Structure prediction by ZEFSAII (Michael W. Deem and Ramdas Pophale) SiO2 
 PCOD9037144
Probable space group: P -1
;
_chemical_formula_sum "Si O2"
_cell_formula_units_Z 14
_cell_length_a 11.698466
_cell_length_b 26.545114
_cell_length_c 5.052574
_cell_angle_alpha 104.567433
_cell_angle_beta 101.775836
_cell_angle_gamma 20.050788
_cell_volume 518.191058
_symmetry_space_group_name_H-M "P -1"
_symmetry_group_IT_number 2
_symmetry_cell_setting 'triclinic'
loop_
_space_group_symop_operation_xyz
x,y,z
-x,-y,-z
loop_
_atom_site_type_symbol
_atom_site_label
_atom_site_fract_x
_atom_site_fract_y
_atom_site_fract_z
Si Si1 0.780338 0.276767 0.532310
Si Si2 0.207988 0.518622 0.201460
Si Si3 0.601772 0.264101 0.804883
Si Si4 0.217925 0.981224 0.079505
Si Si5 0.488528 0.814286 0.460810
Si Si6 0.283586 0.622109 0.770814
Si Si7 0.690613 0.875718 0.086961
O O1 0.385129 0.442479 0.476305
O O2 0.808019 0.213071 0.626205
O O3 0.871837 0.258477 0.257619
O O4 0.019966 0.217962 0.721303
O O5 0.403195 0.481737 0.068166
O O6 0.828093 0.689418 0.305733
O O7 0.298545 0.426481 0.983391
O O8 0.489908 0.256980 0.615824
O O9 0.853237 0.147137 0.011307
O O10 0.406307 0.873548 0.782454
O O11 0.211307 0.948530 0.293392
O O12 0.425270 0.948053 0.190003
O O13 0.500000 0.500000 0.500000
O O14 0.946452 0.735124 0.842289
O O15 0.500000 0.000000 0.000000
#
# Coordination Sequence:
#
# PCOD9037144 Si02
#       7
#     2   2   2   2   2   2   2
#     4  10  24  42  74 101 147 188 247 292 370 432
#     4  10  25  45  70 107 140 194 246 292 365 440
#     4  12  25  51  73 104 146 198 247 304 359 441
#     4  12  30  47  75 112 149 190 248 301 375 427
#     4  12  30  49  76 109 147 195 246 311 362 428
#     4  10  23  40  62 101 144 179 228 297 359 422
#     4  12  24  43  68 104 142 190 234 294 360 444
#
# _framework density 27.017060000000001
#
# number of rings (size 3 to 8) (size 9 to 14) (size 15 to 20)
#    0.857    0.000    2.857    2.143   10.000    1.714 
#    0.000    0.000    0.000    0.000    0.000    0.000 
#    0.000    0.000    0.000    0.000    0.000    0.000 
#
# Total GULP energy -78064.043112 kJ/mol
# GULP energy per Si atom -5576.003079 kJ/mol
# Density = 2.695557 g / cm^3
# Si number density = 27.017060 Si / 1000 Ang^3
#
#
#
# Elastic Constant Matrix: (Units=GPa)
#
#
# Indices 1 2 3 4 5 6 
#
# 1 74.1043 -14.3957 -1.3841 0.1248 8.6403 8.6506
# 2 -14.3957 101.3278 14.1330 14.6446 0.1740 5.6238
# 3 -1.3841 14.1330 91.5877 3.3279 0.1153 14.7928
# 4 0.1248 14.6446 3.3279 48.4191 5.5628 -2.7925
# 5 8.6403 0.1740 0.1153 5.5628 29.4091 5.7386
# 6 8.6506 5.6238 14.7928 -2.7925 5.7386 48.1796
#
#
#
# Elastic Compliance Matrix: (Units=1/GPa)
#
#
# Indices 1 2 3 4 5 6 
#
# 1 0.014676 0.002258 0.000311 -0.000461 -0.003736 -0.002576
# 2 0.002258 0.010935 -0.001290 -0.003334 0.000201 -0.001503
# 3 0.000311 -0.001290 0.011734 -0.000709 0.000713 -0.003634
# 4 -0.000461 -0.003334 -0.000709 0.022382 -0.004570 0.002531
# 5 -0.003736 0.000201 0.000713 -0.004570 0.036784 -0.004218
# 6 -0.002576 -0.001503 -0.003634 0.002531 -0.004218 0.023158
#
#
# Mechanical properties :
#
#
# Convention : Reuss Voigt Hill
#
# Bulk Modulus (GPa) = 25.06099 29.30291 27.18195
# Shear Modulus (GPa) = 38.33994 43.11266 40.72630
#
# Velocity S-wave (km/s) = 3.77118 3.99903 3.88677
# Velocity P-wave (km/s) = 5.31588 5.67385 5.49778
#
# Compressibility (1/GPa) = 0.03990265
#
# Stress axis : x y z
#
# Youngs Moduli (GPa) = 68.13841 91.45336 85.22235
#
# Poissons Ratio (x) = -0.20648 -0.02649
# Poissons Ratio (y) = -0.15384 0.10990
# Poissons Ratio (z) = -0.02118 0.11793
#
# Static dielectric constant tensor:
#      x y z
#    x 2.500060 0.132160 -0.146580 
#    y 0.132160 2.257990 -0.028900 
#    z -0.146580 -0.028900 2.488610 
# 
# From -- ./inp_files/85084.got.cif
#   From: 2010.05.17/outbox.cif.g08.bks.cpg/sg2_43_cif.got.tgz:85084.got - 2010.06.03 11:33:40.
