data_PCOD9037128
_publ_section_title
;
Structure prediction by ZEFSAII (Michael W. Deem and Ramdas Pophale) SiO2 
 PCOD9037128
Probable space group: P -1
;
_chemical_formula_sum "Si O2"
_cell_formula_units_Z 13
_cell_length_a 12.176608
_cell_length_b 9.640775
_cell_length_c 9.417348
_cell_angle_alpha 122.988930
_cell_angle_beta 146.503207
_cell_angle_gamma 51.059162
_cell_volume 474.019972
_symmetry_space_group_name_H-M "P -1"
_symmetry_group_IT_number 2
_symmetry_cell_setting 'triclinic'
loop_
_space_group_symop_operation_xyz
x,y,z
-x,-y,-z
loop_
_atom_site_type_symbol
_atom_site_label
_atom_site_fract_x
_atom_site_fract_y
_atom_site_fract_z
Si Si1 0.681621 0.152516 0.787485
Si Si2 0.798996 0.779800 0.363864
Si Si3 0.000000 0.000000 0.500000
Si Si4 0.308498 0.377714 0.345125
Si Si5 0.338086 0.931957 0.979094
Si Si6 0.039348 0.266709 0.175513
Si Si7 0.494580 0.337371 0.210893
O O1 0.460293 0.201949 0.497096
O O2 0.827044 0.945874 0.817557
O O3 0.643675 0.189546 0.933854
O O4 0.798741 0.273702 0.915839
O O5 0.949691 0.854832 0.481123
O O6 0.896107 0.700994 0.576673
O O7 0.566918 0.947631 0.227251
O O8 0.695208 0.654597 0.099508
O O9 0.106881 0.082817 0.798599
O O10 0.082752 0.387418 0.168418
O O11 0.386907 0.343048 0.249827
O O12 0.378394 0.532073 0.568786
O O13 0.313485 0.843408 0.749046
#
# Coordination Sequence:
#
# PCOD9037128 Si02
#       7
#     2   2   1   2   2   2   2
#     4  11  24  39  64  97 124 160 206 254 311 365
#     4  10  23  40  61  93 123 164 201 250 310 363
#     4  12  22  36  66  94 132 154 200 264 304 366
#     4  11  22  46  63  85 130 164 205 259 302 365
#     4  10  23  40  61  93 123 164 201 250 310 363
#     4  11  24  39  64  97 124 160 206 254 311 365
#     4   9  25  43  63  91 120 170 209 248 309 363
#
# _framework density 27.425004999999999
#
# number of rings (size 3 to 8) (size 9 to 14) (size 15 to 20)
#    0.923    0.615    3.077    0.923    4.308    2.462 
#    2.769    3.077    0.000    0.000    0.000    0.000 
#    0.000    0.000    0.000    0.000    0.000    0.000 
#
# Total GULP energy -72454.919511 kJ/mol
# GULP energy per Si atom -5573.455347 kJ/mol
# Density = 2.736258 g / cm^3
# Si number density = 27.425005 Si / 1000 Ang^3
#
#
#
# Elastic Constant Matrix: (Units=GPa)
#
#
# Indices 1 2 3 4 5 6 
#
# 1 187.7822 44.9626 51.7105 27.2302 14.3087 51.4728
# 2 44.9626 69.0604 10.6005 28.4269 -7.2301 -0.9172
# 3 51.7105 10.6005 83.1687 9.9014 4.9917 -0.1034
# 4 27.2302 28.4269 9.9014 54.7995 2.6394 6.2625
# 5 14.3087 -7.2301 4.9917 2.6394 65.3851 12.6005
# 6 51.4728 -0.9172 -0.1034 6.2625 12.6005 42.6039
#
#
#
# Elastic Compliance Matrix: (Units=1/GPa)
#
#
# Indices 1 2 3 4 5 6 
#
# 1 0.014259 -0.008669 -0.007875 0.000843 -0.000136 -0.017517
# 2 -0.008669 0.024287 0.003395 -0.010372 0.002468 0.011799
# 3 -0.007875 0.003395 0.016803 -0.002003 -0.001077 0.010241
# 4 0.000843 -0.010372 -0.002003 0.024139 -0.001303 -0.004409
# 5 -0.000136 0.002468 -0.001077 -0.001303 0.016599 -0.004503
# 6 -0.017517 0.011799 0.010241 -0.004409 -0.004503 0.046894
#
#
# Mechanical properties :
#
#
# Convention : Reuss Voigt Hill
#
# Bulk Modulus (GPa) = 34.41912 61.61762 48.01837
# Shear Modulus (GPa) = 27.93898 48.07353 38.00626
#
# Velocity S-wave (km/s) = 3.19524 4.19132 3.72671
# Velocity P-wave (km/s) = 5.11764 6.77785 6.00539
#
# Compressibility (1/GPa) = 0.02905362
#
# Stress axis : x y z
#
# Youngs Moduli (GPa) = 70.13050 41.17398 59.51352
#
# Poissons Ratio (x) = 0.35692 0.46865
# Poissons Ratio (y) = 0.60793 -0.20208
# Poissons Ratio (z) = 0.55226 -0.13980
#
# Static dielectric constant tensor:
#      x y z
#    x 2.704210 -0.705970 0.520810 
#    y -0.705970 2.832990 -0.543500 
#    z 0.520810 -0.543500 2.719270 
# 
# From -- ./inp_files/250124.got.cif
#   From: 2010.05.17/outbox.cif.g08.bks.cpg/sg2_126_cif.got.tgz:250124.got - 2010.06.03 11:33:40.
