data_PCOD9037591
_publ_section_title
;
Structure prediction by ZEFSAII (Michael W. Deem and Ramdas Pophale) SiO2 
 PCOD9037591
Probable space group: P -1
;
_chemical_formula_sum "Si O2"
_cell_formula_units_Z 16
_cell_length_a 8.451458
_cell_length_b 21.302211
_cell_length_c 5.874502
_cell_angle_alpha 100.549096
_cell_angle_beta 120.995508
_cell_angle_gamma 50.683223
_cell_volume 684.842616
_symmetry_space_group_name_H-M "P -1"
_symmetry_group_IT_number 2
_symmetry_cell_setting 'triclinic'
loop_
_space_group_symop_operation_xyz
x,y,z
-x,-y,-z
loop_
_atom_site_type_symbol
_atom_site_label
_atom_site_fract_x
_atom_site_fract_y
_atom_site_fract_z
Si Si1 0.239003 0.586230 0.050890
Si Si2 0.736705 0.675767 0.942350
Si Si3 0.938413 0.280185 0.375061
Si Si4 0.483270 0.174643 0.865211
Si Si5 0.864730 0.530213 0.174440
Si Si6 0.881404 0.175396 0.960737
Si Si7 0.394320 0.000402 0.168361
Si Si8 0.412113 0.661906 0.443186
O O1 0.284806 0.502514 0.976175
O O2 0.010481 0.636338 0.087764
O O3 0.130760 0.649254 0.804012
O O4 0.447051 0.585728 0.300938
O O5 0.643913 0.653658 0.648815
O O6 0.555426 0.775029 0.900365
O O7 0.725693 0.628581 0.114965
O O8 0.208953 0.234460 0.619073
O O9 0.718492 0.326886 0.414900
O O10 0.946360 0.205806 0.241664
O O11 0.667275 0.174448 0.852568
O O12 0.576239 0.082353 0.879379
O O13 0.000000 0.500000 0.500000
O O14 0.000000 0.500000 0.000000
O O15 0.783739 0.250574 0.766840
O O16 0.120041 0.084972 0.013220
O O17 0.500000 0.000000 0.500000
O O18 0.500000 0.000000 0.000000
#
# Coordination Sequence:
#
# PCOD9037591 Si02
#       8
#     2   2   2   2   2   2   2   2
#     4  10  23  40  69  94 139 187 224 289 352 398
#     4  11  23  42  71 101 135 182 239 281 345 422
#     4  11  21  41  67  96 139 175 235 283 346 414
#     4  12  23  43  73  97 135 189 226 287 355 408
#     4  10  23  44  68 102 141 182 234 287 343 412
#     4  11  25  44  67 102 138 181 234 288 342 421
#     4  12  28  48  73 105 142 182 230 290 349 414
#     4  11  23  41  68 103 136 180 238 286 342 418
#
# _framework density 23.363032
#
# number of rings (size 3 to 8) (size 9 to 14) (size 15 to 20)
#    0.000    1.000    3.750    2.625    3.500    2.500 
#    0.000    2.500    0.000    0.000    0.000    0.000 
#    0.000    0.000    0.000    0.000    0.000    0.000 
#
# Total GULP energy -89311.326138 kJ/mol
# GULP energy per Si atom -5581.957884 kJ/mol
# Density = 2.330986 g / cm^3
# Si number density = 23.363032 Si / 1000 Ang^3
#
#
#
# Elastic Constant Matrix: (Units=GPa)
#
#
# Indices 1 2 3 4 5 6 
#
# 1 97.5943 62.1958 43.7940 5.9627 -3.6743 20.4760
# 2 62.1958 158.0903 26.1904 25.3600 -7.4811 6.9176
# 3 43.7940 26.1904 90.5650 16.2424 9.3444 -1.1807
# 4 5.9627 25.3600 16.2424 27.8982 1.5850 9.8395
# 5 -3.6743 -7.4811 9.3444 1.5850 34.8404 2.1860
# 6 20.4760 6.9176 -1.1807 9.8395 2.1860 48.4976
#
#
#
# Elastic Compliance Matrix: (Units=1/GPa)
#
#
# Indices 1 2 3 4 5 6 
#
# 1 0.022372 -0.008376 -0.011295 0.013209 0.003703 -0.011373
# 2 -0.008376 0.010804 0.002917 -0.011304 0.000897 0.004319
# 3 -0.011295 0.002917 0.018767 -0.013610 -0.005470 0.007818
# 4 0.013209 -0.011304 -0.013610 0.056755 0.001029 -0.015857
# 5 0.003703 0.000897 -0.005470 0.001029 0.030921 -0.003427
# 6 -0.011373 0.004319 0.007818 -0.015857 -0.003427 0.028367
#
#
# Mechanical properties :
#
#
# Convention : Reuss Voigt Hill
#
# Bulk Modulus (GPa) = 54.24628 67.84555 61.04592
# Shear Modulus (GPa) = 24.08016 36.51853 30.29934
#
# Velocity S-wave (km/s) = 3.21393 3.95788 3.60515
# Velocity P-wave (km/s) = 6.08619 7.07030 6.59662
#
# Compressibility (1/GPa) = 0.01843444
#
# Stress axis : x y z
#
# Youngs Moduli (GPa) = 44.69967 92.55473 53.28393
#
# Poissons Ratio (x) = 0.77527 0.60185
# Poissons Ratio (y) = 0.37442 -0.15543
# Poissons Ratio (z) = 0.50489 -0.26998
#
# Static dielectric constant tensor:
#      x y z
#    x 1.867080 -0.014550 -0.032950 
#    y -0.014550 1.896520 0.081860 
#    z -0.032950 0.081860 2.079310 
# 
# From -- ./inp_files/53333.got.cif
#   From: 2010.05.17/outbox.cif.g08.bks.cpg/sg2_27_cif.got.tgz:53333.got - 2010.06.03 11:33:40.
