data_PCOD9037368
_publ_section_title
;
Structure prediction by ZEFSAII (Michael W. Deem and Ramdas Pophale) SiO2 
 PCOD9037368
Probable space group: P -1
;
_chemical_formula_sum "Si O2"
_cell_formula_units_Z 14
_cell_length_a 5.391976
_cell_length_b 17.976521
_cell_length_c 10.190162
_cell_angle_alpha 125.938478
_cell_angle_beta 66.165643
_cell_angle_gamma 79.046021
_cell_volume 597.547821
_symmetry_space_group_name_H-M "P -1"
_symmetry_group_IT_number 2
_symmetry_cell_setting 'triclinic'
loop_
_space_group_symop_operation_xyz
x,y,z
-x,-y,-z
loop_
_atom_site_type_symbol
_atom_site_label
_atom_site_fract_x
_atom_site_fract_y
_atom_site_fract_z
Si Si1 0.574004 0.280297 0.456934
Si Si2 0.682465 0.162461 0.934509
Si Si3 0.632787 0.876024 0.289043
Si Si4 0.179362 0.053339 0.209953
Si Si5 0.836833 0.615441 0.573666
Si Si6 0.648403 0.398432 0.765108
Si Si7 0.778293 0.812229 0.464034
O O1 0.477792 0.350246 0.417009
O O2 0.426427 0.373167 0.699603
O O3 0.403541 0.214368 0.417383
O O4 0.929139 0.174249 0.318896
O O5 0.563423 0.137013 0.797945
O O6 0.975145 0.180749 0.878462
O O7 0.861410 0.047848 0.866469
O O8 0.346303 0.272411 0.180564
O O9 0.615723 0.821405 0.370553
O O10 0.500000 0.000000 0.500000
O O11 0.239177 0.081553 0.371785
O O12 0.500000 0.000000 0.000000
O O13 0.000000 0.500000 0.500000
O O14 0.119364 0.599507 0.396061
O O15 0.850026 0.293664 0.712740
O O16 0.500000 0.500000 0.000000
#
# Coordination Sequence:
#
# PCOD9037368 Si02
#       7
#     2   2   2   2   2   2   2
#     4  10  23  44  71  98 145 180 247 302 372 443
#     4  12  28  45  74 109 152 199 246 310 380 444
#     4  12  26  44  71 110 153 195 244 302 380 451
#     4  11  23  41  70 102 140 185 243 299 378 449
#     4  11  28  48  70 107 144 196 253 310 374 446
#     4  10  24  44  72 103 136 190 250 306 366 438
#     4  10  23  40  66 101 138 186 236 299 363 449
#
# _framework density 23.429086000000002
#
# number of rings (size 3 to 8) (size 9 to 14) (size 15 to 20)
#    0.000    1.143    1.429    3.857   10.000    5.143 
#    0.000    0.000    0.000    0.000    0.000    0.000 
#    0.000    0.000    0.000    0.000    0.000    0.000 
#
# Total GULP energy -77983.880370 kJ/mol
# GULP energy per Si atom -5570.277169 kJ/mol
# Density = 2.337576 g / cm^3
# Si number density = 23.429086 Si / 1000 Ang^3
#
#
#
# Elastic Constant Matrix: (Units=GPa)
#
#
# Indices 1 2 3 4 5 6 
#
# 1 72.4258 19.1762 18.2097 0.2363 8.9213 -16.6759
# 2 19.1762 128.2415 36.8227 0.3649 8.3377 -20.2237
# 3 18.2097 36.8227 134.7590 16.0923 17.5735 -5.6386
# 4 0.2363 0.3649 16.0923 25.7975 6.2741 5.4338
# 5 8.9213 8.3377 17.5735 6.2741 32.4285 -14.2926
# 6 -16.6759 -20.2237 -5.6386 5.4338 -14.2926 41.3559
#
#
#
# Elastic Compliance Matrix: (Units=1/GPa)
#
#
# Indices 1 2 3 4 5 6 
#
# 1 0.015803 -0.001026 -0.001502 -0.000112 -0.000878 0.005377
# 2 -0.001026 0.009207 -0.002361 0.000273 0.000927 0.004051
# 3 -0.001502 -0.002361 0.009240 -0.004601 -0.003599 -0.001140
# 4 -0.000112 0.000273 -0.004601 0.046571 -0.011196 -0.010527
# 5 -0.000878 0.000927 -0.003599 -0.011196 0.041800 0.015526
# 6 0.005377 0.004051 -0.001140 -0.010527 0.015526 0.034923
#
#
# Mechanical properties :
#
#
# Convention : Reuss Voigt Hill
#
# Bulk Modulus (GPa) = 40.86502 53.76037 47.31269
# Shear Modulus (GPa) = 28.49326 37.33091 32.91208
#
# Velocity S-wave (km/s) = 3.49112 3.99602 3.75207
# Velocity P-wave (km/s) = 5.80779 6.65483 6.24568
#
# Compressibility (1/GPa) = 0.02447081
#
# Stress axis : x y z
#
# Youngs Moduli (GPa) = 63.27828 108.61249 108.22607
#
# Poissons Ratio (x) = 0.11148 0.16256
# Poissons Ratio (y) = 0.06495 0.25554
# Poissons Ratio (z) = 0.09505 0.25645
#
# Static dielectric constant tensor:
#      x y z
#    x 2.026860 -0.038160 -0.038750 
#    y -0.038160 1.997100 -0.027140 
#    z -0.038750 -0.027140 1.902150 
# 
# From -- ./inp_files/107160.got.cif
#   From: 2010.05.17/outbox.cif.g08.bks.cpg/sg2_54_cif.got.tgz:107160.got - 2010.06.03 11:33:40.
