data_PCOD9037443
_publ_section_title
;
Structure prediction by ZEFSAII (Michael W. Deem and Ramdas Pophale) SiO2 
 PCOD9037443
Probable space group: P -1
;
_chemical_formula_sum "Si O2"
_cell_formula_units_Z 16
_cell_length_a 8.598760
_cell_length_b 16.804608
_cell_length_c 20.737370
_cell_angle_alpha 159.832791
_cell_angle_beta 41.304890
_cell_angle_gamma 137.840690
_cell_volume 673.254842
_symmetry_space_group_name_H-M "P -1"
_symmetry_group_IT_number 2
_symmetry_cell_setting 'triclinic'
loop_
_space_group_symop_operation_xyz
x,y,z
-x,-y,-z
loop_
_atom_site_type_symbol
_atom_site_label
_atom_site_fract_x
_atom_site_fract_y
_atom_site_fract_z
Si Si1 0.469038 0.431960 0.883667
Si Si2 0.265111 0.248360 0.127203
Si Si3 0.950206 0.948892 0.266204
Si Si4 0.485238 0.591022 0.644986
Si Si5 0.620320 0.285865 0.481594
Si Si6 0.970360 0.488868 0.698403
Si Si7 0.351058 0.860001 0.174052
Si Si8 0.898799 0.937388 0.825111
O O1 0.727464 0.466363 0.796791
O O2 0.315977 0.175961 0.730555
O O3 0.500000 0.500000 0.000000
O O4 0.326022 0.612371 0.028943
O O5 0.408511 0.504463 0.300237
O O6 0.052653 0.332672 0.216826
O O7 0.179501 0.092049 0.097300
O O8 0.425354 0.129097 0.936927
O O9 0.129616 0.886995 0.218177
O O10 0.002186 0.878183 0.122228
O O11 0.981359 0.229605 0.472585
O O12 0.500000 0.500000 0.500000
O O13 0.606886 0.419395 0.520671
O O14 0.648802 0.834070 0.790474
O O15 0.205583 0.578922 0.735192
O O16 0.875430 0.205772 0.351458
O O17 0.422610 0.057000 0.357148
#
# Coordination Sequence:
#
# PCOD9037443 Si02
#       8
#     2   2   2   2   2   2   2   2
#     4  11  27  47  69  96 137 182 235 293 338 401
#     4  10  23  40  67 103 138 182 222 279 349 412
#     4  12  23  45  69  99 139 180 233 280 342 409
#     4  11  18  35  65 101 137 172 224 277 343 409
#     4  11  20  39  64  96 137 179 221 271 343 410
#     4  11  22  43  72 100 134 184 227 281 350 408
#     4  11  25  45  69 100 139 182 228 295 341 400
#     4  11  22  37  70 102 142 183 219 282 345 421
#
# _framework density 23.765148
#
# number of rings (size 3 to 8) (size 9 to 14) (size 15 to 20)
#    0.000    1.000    3.750    3.750    0.000    3.000 
#    0.000    3.125    0.000    0.000    0.000    0.000 
#    0.000    0.000    0.000    0.000    0.000    0.000 
#
# Total GULP energy -89374.443032 kJ/mol
# GULP energy per Si atom -5585.902689 kJ/mol
# Density = 2.371106 g / cm^3
# Si number density = 23.765148 Si / 1000 Ang^3
#
#
#
# Elastic Constant Matrix: (Units=GPa)
#
#
# Indices 1 2 3 4 5 6 
#
# 1 163.9196 54.4491 40.8707 -7.4807 -16.3252 2.3344
# 2 54.4491 86.7268 10.0867 7.1355 5.2764 8.2507
# 3 40.8707 10.0867 56.7758 -6.5847 18.3251 3.8140
# 4 -7.4807 7.1355 -6.5847 23.5517 6.2333 4.8778
# 5 -16.3252 5.2764 18.3251 6.2333 33.6869 2.8851
# 6 2.3344 8.2507 3.8140 4.8778 2.8851 47.2016
#
#
#
# Elastic Compliance Matrix: (Units=1/GPa)
#
#
# Indices 1 2 3 4 5 6 
#
# 1 0.013508 -0.007824 -0.013488 -0.001360 0.015275 0.000996
# 2 -0.007824 0.016851 0.005066 -0.003530 -0.008354 -0.002093
# 3 -0.013488 0.005066 0.037899 0.013346 -0.030175 -0.002816
# 4 -0.001360 -0.003530 0.013346 0.052216 -0.016619 -0.004774
# 5 0.015275 -0.008354 -0.030175 -0.016619 0.057772 0.001329
# 6 0.000996 -0.002093 -0.002816 -0.004774 0.001329 0.022142
#
#
# Mechanical properties :
#
#
# Convention : Reuss Voigt Hill
#
# Bulk Modulus (GPa) = 27.95993 57.58168 42.77081
# Shear Modulus (GPa) = 20.42463 34.35575 27.39019
#
# Velocity S-wave (km/s) = 2.93479 3.80628 3.39859
# Velocity P-wave (km/s) = 4.82438 6.60296 5.78246
#
# Compressibility (1/GPa) = 0.03576546
#
# Stress axis : x y z
#
# Youngs Moduli (GPa) = 74.03250 59.34373 26.38572
#
# Poissons Ratio (x) = 0.46430 0.35590
# Poissons Ratio (y) = 0.57922 -0.13367
# Poissons Ratio (z) = 0.99858 -0.30064
#
# Static dielectric constant tensor:
#      x y z
#    x 1.910930 0.022180 0.061020 
#    y 0.022180 1.890550 -0.001100 
#    z 0.061020 -0.001100 2.048400 
# 
# From -- ./inp_files/608406.got.cif
#   From: 2010.05.17/outbox.cif.g08.bks.cpg/sg2_305_cif.got.tgz:608406.got - 2010.06.03 11:33:40.
