data_PCOD9037999
_publ_section_title
;
Structure prediction by ZEFSAII (Michael W. Deem and Ramdas Pophale) SiO2 
 PCOD9037999
Probable space group: P -1
;
_chemical_formula_sum "Si O2"
_cell_formula_units_Z 16
_cell_length_a 10.919539
_cell_length_b 8.752973
_cell_length_c 8.709112
_cell_angle_alpha 76.747949
_cell_angle_beta 111.025698
_cell_angle_gamma 88.776985
_cell_volume 751.359492
_symmetry_space_group_name_H-M "P -1"
_symmetry_group_IT_number 2
_symmetry_cell_setting 'triclinic'
loop_
_space_group_symop_operation_xyz
x,y,z
-x,-y,-z
loop_
_atom_site_type_symbol
_atom_site_label
_atom_site_fract_x
_atom_site_fract_y
_atom_site_fract_z
Si Si1 0.216034 0.034429 0.158750
Si Si2 0.939531 0.519041 0.134023
Si Si3 0.453926 0.759785 0.955285
Si Si4 0.049953 0.336119 0.472324
Si Si5 0.478538 0.079093 0.754347
Si Si6 0.995385 0.835548 0.219106
Si Si7 0.700758 0.723100 0.605610
Si Si8 0.655398 0.529287 0.906890
O O1 0.235250 0.171808 0.259947
O O2 0.364360 0.968492 0.190234
O O3 0.127097 0.084473 0.956532
O O4 0.126722 0.916668 0.230772
O O5 0.014247 0.657247 0.205693
O O6 0.961051 0.356681 0.275402
O O7 0.785626 0.572119 0.041179
O O8 0.000000 0.500000 0.000000
O O9 0.538336 0.814165 0.124480
O O10 0.353949 0.653241 0.016516
O O11 0.535481 0.641166 0.901655
O O12 0.413670 0.919663 0.804833
O O13 0.037542 0.189985 0.611677
O O14 0.195926 0.329655 0.470249
O O15 0.000000 0.500000 0.500000
O O16 0.416925 0.169376 0.557000
O O17 0.662073 0.574871 0.720640
#
# Coordination Sequence:
#
# PCOD9037999 Si02
#       8
#     2   2   2   2   2   2   2   2
#     4  11  23  43  67  95 135 175 216 274 337 400
#     4  11  20  40  66  91 129 172 217 271 335 392
#     4  10  25  43  66  99 128 181 222 275 331 396
#     4  10  24  39  64  96 127 173 221 276 328 395
#     4  11  25  43  69  98 138 176 220 275 341 391
#     4  10  23  41  65  96 131 168 222 268 332 398
#     4  12  24  42  69  96 136 177 223 278 334 397
#     4  11  23  44  68  96 134 177 227 271 335 396
#
# _framework density 21.294733000000001
#
# number of rings (size 3 to 8) (size 9 to 14) (size 15 to 20)
#    0.000    1.250    3.750    0.375    8.750    2.000 
#    2.250    0.000    0.000    0.000    0.000    0.000 
#    0.000    0.000    0.000    0.000    0.000    0.000 
#
# Total GULP energy -89232.512674 kJ/mol
# GULP energy per Si atom -5577.032042 kJ/mol
# Density = 2.124627 g / cm^3
# Si number density = 21.294733 Si / 1000 Ang^3
#
#
#
# Elastic Constant Matrix: (Units=GPa)
#
#
# Indices 1 2 3 4 5 6 
#
# 1 80.7921 41.2149 67.6156 -28.6519 -28.4224 13.4620
# 2 41.2149 48.3206 10.3631 -10.6141 -7.0435 12.9021
# 3 67.6156 10.3631 135.3050 -30.0390 -23.8377 8.2856
# 4 -28.6519 -10.6141 -30.0390 26.8130 4.0560 -9.8365
# 5 -28.4224 -7.0435 -23.8377 4.0560 37.9073 -3.8444
# 6 13.4620 12.9021 8.2856 -9.8365 -3.8444 30.3070
#
#
#
# Elastic Compliance Matrix: (Units=1/GPa)
#
#
# Indices 1 2 3 4 5 6 
#
# 1 0.091049 -0.060120 -0.025273 0.043504 0.037660 0.010957
# 2 -0.060120 0.064452 0.017517 -0.021451 -0.021331 -0.015191
# 3 -0.025273 0.017517 0.018022 0.000193 -0.004552 -0.001673
# 4 0.043504 -0.021451 0.000193 0.078813 0.022162 0.018146
# 5 0.037660 -0.021331 -0.004552 0.022162 0.046093 0.006637
# 6 0.010957 -0.015191 -0.001673 0.018146 0.006637 0.041784
#
#
# Mechanical properties :
#
#
# Convention : Reuss Voigt Hill
#
# Bulk Modulus (GPa) = 26.47484 55.86721 41.17103
# Shear Modulus (GPa) = 10.23427 28.68707 19.46067
#
# Velocity S-wave (km/s) = 2.19464 3.67433 3.02631
# Velocity P-wave (km/s) = 4.34528 6.65531 5.62026
#
# Compressibility (1/GPa) = 0.03777171
#
# Stress axis : x y z
#
# Youngs Moduli (GPa) = 10.98313 15.51537 55.48771
#
# Poissons Ratio (x) = 0.93278 1.40233
# Poissons Ratio (y) = 0.66030 -0.97197
# Poissons Ratio (z) = 0.27757 -0.27178
#
# Static dielectric constant tensor:
#      x y z
#    x 1.795820 -0.009020 0.008090 
#    y -0.009020 1.798320 -0.017240 
#    z 0.008090 -0.017240 1.838460 
# 
# From -- ./inp_files/237860.got.cif
#   From: 2010.05.17/outbox.cif.g08.bks.cpg/sg2_119_cif.got.tgz:237860.got - 2010.06.03 11:33:40.
