data_PCOD9037938
_publ_section_title
;
Structure prediction by ZEFSAII (Michael W. Deem and Ramdas Pophale) SiO2 
 PCOD9037938
Probable space group: P -1
;
_chemical_formula_sum "Si O2"
_cell_formula_units_Z 14
_cell_length_a 8.235192
_cell_length_b 6.090025
_cell_length_c 25.278752
_cell_angle_alpha 117.432841
_cell_angle_beta 147.668983
_cell_angle_gamma 59.628923
_cell_volume 583.438773
_symmetry_space_group_name_H-M "P -1"
_symmetry_group_IT_number 2
_symmetry_cell_setting 'triclinic'
loop_
_space_group_symop_operation_xyz
x,y,z
-x,-y,-z
loop_
_atom_site_type_symbol
_atom_site_label
_atom_site_fract_x
_atom_site_fract_y
_atom_site_fract_z
Si Si1 0.882246 0.419040 0.376940
Si Si2 0.237679 0.430268 0.749190
Si Si3 0.745942 0.252140 0.437173
Si Si4 0.271234 0.230510 0.932421
Si Si5 0.158033 0.036225 0.267755
Si Si6 0.769333 0.109680 0.614267
Si Si7 0.296660 0.753256 0.049303
O O1 0.693739 0.586887 0.296551
O O2 0.780628 0.368339 0.402134
O O3 0.192251 0.528820 0.482520
O O4 0.946638 0.138913 0.340167
O O5 0.514115 0.288511 0.847951
O O6 0.134247 0.724028 0.772875
O O7 0.921534 0.326935 0.657760
O O8 0.427327 0.168154 0.339580
O O9 0.000000 0.000000 0.500000
O O10 0.446438 0.237784 0.924942
O O11 0.203233 0.494000 0.975776
O O12 0.959851 0.141314 0.824950
O O13 0.500000 0.000000 0.000000
O O14 0.289985 0.869014 0.337339
O O15 0.500000 0.000000 0.500000
O O16 0.000000 0.000000 0.000000
#
# Coordination Sequence:
#
# PCOD9037938 Si02
#       7
#     2   2   2   2   2   2   2
#     4  10  23  41  64  99 145 188 243 293 359 449
#     4  11  22  44  71 103 140 191 256 300 378 460
#     4  11  23  44  63 104 153 190 244 305 370 444
#     4  11  24  52  76 110 147 195 255 320 387 465
#     4  11  23  42  73 102 143 196 241 305 383 445
#     4  11  21  39  68  99 138 186 236 298 362 443
#     4  11  26  51  79 110 149 194 257 326 387 454
#
# _framework density 23.995663
#
# number of rings (size 3 to 8) (size 9 to 14) (size 15 to 20)
#    0.000    1.143    2.857    3.429    0.000    4.000 
#    7.714    0.000    0.000    0.000    0.000    0.000 
#    0.000    0.000    0.000    0.000    0.000    0.000 
#
# Total GULP energy -78165.462238 kJ/mol
# GULP energy per Si atom -5583.247303 kJ/mol
# Density = 2.394105 g / cm^3
# Si number density = 23.995663 Si / 1000 Ang^3
#
#
#
# Elastic Constant Matrix: (Units=GPa)
#
#
# Indices 1 2 3 4 5 6 
#
# 1 100.9279 50.6287 81.3532 -10.2876 -18.0363 22.5150
# 2 50.6287 147.3622 72.8778 12.5312 -1.3234 -7.8208
# 3 81.3532 72.8778 189.4339 -0.4207 -21.0642 8.5017
# 4 -10.2876 12.5312 -0.4207 49.8500 8.3574 -3.5604
# 5 -18.0363 -1.3234 -21.0642 8.3574 36.6167 -13.6495
# 6 22.5150 -7.8208 8.5017 -3.5604 -13.6495 34.8806
#
#
#
# Elastic Compliance Matrix: (Units=1/GPa)
#
#
# Indices 1 2 3 4 5 6 
#
# 1 0.020970 -0.005072 -0.006398 0.004528 0.000838 -0.012323
# 2 -0.005072 0.010075 -0.002010 -0.003115 -0.000531 0.005497
# 3 -0.006398 -0.002010 0.009036 -0.001088 0.003198 0.002617
# 4 0.004528 -0.003115 -0.001088 0.022347 -0.004694 -0.002912
# 5 0.000838 -0.000531 0.003198 -0.004694 0.035005 0.011780
# 6 -0.012323 0.005497 0.002617 -0.002912 0.011780 0.041531
#
#
# Mechanical properties :
#
#
# Convention : Reuss Voigt Hill
#
# Bulk Modulus (GPa) = 76.22221 94.16037 85.19129
# Shear Modulus (GPa) = 29.36036 39.79376 34.57706
#
# Velocity S-wave (km/s) = 3.50175 4.07673 3.80013
# Velocity P-wave (km/s) = 6.94144 7.84126 7.40503
#
# Compressibility (1/GPa) = 0.01311954
#
# Stress axis : x y z
#
# Youngs Moduli (GPa) = 47.68745 99.25979 110.67310
#
# Poissons Ratio (x) = 0.50344 0.70809
# Poissons Ratio (y) = 0.24187 0.22248
# Poissons Ratio (z) = 0.30511 0.19954
#
# Static dielectric constant tensor:
#      x y z
#    x 2.019650 -0.003200 -0.019930 
#    y -0.003200 2.001300 -0.077930 
#    z -0.019930 -0.077930 1.912540 
# 
# From -- ./inp_files/98105.got.cif
#   From: 2010.05.17/outbox.cif.g08.bks.cpg/sg2_50_cif.got.tgz:98105.got - 2010.06.03 11:33:40.
