data_PCOD9037106
_publ_section_title
;
Structure prediction by ZEFSAII (Michael W. Deem and Ramdas Pophale) SiO2 
 PCOD9037106
Probable space group: P -1
;
_chemical_formula_sum "Si O2"
_cell_formula_units_Z 16
_cell_length_a 8.451185
_cell_length_b 5.477700
_cell_length_c 19.194497
_cell_angle_alpha 67.214993
_cell_angle_beta 107.355072
_cell_angle_gamma 77.333865
_cell_volume 723.136285
_symmetry_space_group_name_H-M "P -1"
_symmetry_group_IT_number 2
_symmetry_cell_setting 'triclinic'
loop_
_space_group_symop_operation_xyz
x,y,z
-x,-y,-z
loop_
_atom_site_type_symbol
_atom_site_label
_atom_site_fract_x
_atom_site_fract_y
_atom_site_fract_z
Si Si1 0.067069 0.616588 0.820729
Si Si2 0.795138 0.315128 0.872385
Si Si3 0.484141 0.320867 0.448672
Si Si4 0.146358 0.735554 0.510834
Si Si5 0.624169 0.459323 0.239764
Si Si6 0.932016 0.266240 0.045371
Si Si7 0.231253 0.225166 0.670778
Si Si8 0.117259 0.773125 0.336649
O O1 0.238342 0.497363 0.804549
O O2 0.159021 0.653622 0.901231
O O3 0.930672 0.462170 0.843807
O O4 0.934891 0.918462 0.737755
O O5 0.584842 0.460994 0.814438
O O6 0.819812 0.238510 0.967248
O O7 0.888151 0.005387 0.884995
O O8 0.500000 0.500000 0.500000
O O9 0.663897 0.269302 0.437575
O O10 0.300777 0.521675 0.366113
O O11 0.500000 0.000000 0.500000
O O12 0.164419 0.419259 0.571381
O O13 0.129817 0.792247 0.420149
O O14 0.000000 0.000000 0.500000
O O15 0.635800 0.665808 0.281260
O O16 0.701540 0.112133 0.298058
O O17 0.000000 0.500000 0.000000
O O18 0.053671 0.310397 0.686186
#
# Coordination Sequence:
#
# PCOD9037106 Si02
#       8
#     2   2   2   2   2   2   2   2
#     4  10  23  43  69 102 138 181 226 284 347 406
#     4  10  23  44  74  99 141 180 224 282 347 418
#     4  10  23  40  60  93 125 171 227 273 336 401
#     4  11  22  42  68  95 135 183 231 286 342 397
#     4  11  27  44  70 105 141 180 236 281 342 412
#     4   9  21  44  70 105 136 177 226 277 346 418
#     4  11  25  44  65 100 136 180 235 285 341 400
#     4  10  23  43  66  94 138 177 230 287 339 408
#
# _framework density 22.125843
#
# number of rings (size 3 to 8) (size 9 to 14) (size 15 to 20)
#    0.000    1.750    0.000    2.625    8.750    5.500 
#    2.250    5.625    0.000    0.000    0.000    0.000 
#    0.000    0.000    0.000    0.000    0.000    0.000 
#
# Total GULP energy -89152.775264 kJ/mol
# GULP energy per Si atom -5572.048454 kJ/mol
# Density = 2.207548 g / cm^3
# Si number density = 22.125843 Si / 1000 Ang^3
#
#
#
# Elastic Constant Matrix: (Units=GPa)
#
#
# Indices 1 2 3 4 5 6 
#
# 1 130.3986 27.5347 45.3081 -19.7826 15.0295 -8.5615
# 2 27.5347 75.0222 32.0894 -0.6918 -6.1207 4.0513
# 3 45.3081 32.0894 99.7082 -9.6903 -10.5252 -8.6764
# 4 -19.7826 -0.6918 -9.6903 44.6585 -3.1599 -0.5737
# 5 15.0295 -6.1207 -10.5252 -3.1599 40.1312 -1.8452
# 6 -8.5615 4.0513 -8.6764 -0.5737 -1.8452 16.8338
#
#
#
# Elastic Compliance Matrix: (Units=1/GPa)
#
#
# Indices 1 2 3 4 5 6 
#
# 1 0.011070 -0.002984 -0.003917 0.003693 -0.005159 0.003890
# 2 -0.002984 0.017057 -0.004825 -0.002071 0.001924 -0.007969
# 3 -0.003917 -0.004825 0.014718 0.001838 0.005075 0.007374
# 4 0.003693 -0.002071 0.001838 0.024514 0.000909 0.004259
# 5 -0.005159 0.001924 0.005075 0.000909 0.028671 0.002702
# 6 0.003890 -0.007969 0.007374 0.004259 0.002702 0.067542
#
#
# Mechanical properties :
#
#
# Convention : Reuss Voigt Hill
#
# Bulk Modulus (GPa) = 51.56744 57.22150 54.39447
# Shear Modulus (GPa) = 25.84137 33.67115 29.75626
#
# Velocity S-wave (km/s) = 3.42120 3.90526 3.67122
# Velocity P-wave (km/s) = 6.24205 6.80094 6.52748
#
# Compressibility (1/GPa) = 0.01939208
#
# Stress axis : x y z
#
# Youngs Moduli (GPa) = 90.33269 58.62786 67.94420
#
# Poissons Ratio (x) = 0.17497 0.26614
# Poissons Ratio (y) = 0.26959 0.32782
# Poissons Ratio (z) = 0.35384 0.28287
#
# Static dielectric constant tensor:
#      x y z
#    x 1.980200 0.002590 -0.050670 
#    y 0.002590 1.829700 0.063590 
#    z -0.050670 0.063590 1.883910 
# 
# From -- ./inp_files/585115.got.cif
#   From: 2010.05.17/outbox.cif.g08.bks.cpg/sg2_293_cif.got.tgz:585115.got - 2010.06.03 11:33:40.
