data_PCOD9037855
_publ_section_title
;
Structure prediction by ZEFSAII (Michael W. Deem and Ramdas Pophale) SiO2 
 PCOD9037855
Probable space group: P -1
;
_chemical_formula_sum "Si O2"
_cell_formula_units_Z 16
_cell_length_a 9.178085
_cell_length_b 15.167050
_cell_length_c 11.855202
_cell_angle_alpha 149.295795
_cell_angle_beta 108.618075
_cell_angle_gamma 82.101808
_cell_volume 765.835623
_symmetry_space_group_name_H-M "P -1"
_symmetry_group_IT_number 2
_symmetry_cell_setting 'triclinic'
loop_
_space_group_symop_operation_xyz
x,y,z
-x,-y,-z
loop_
_atom_site_type_symbol
_atom_site_label
_atom_site_fract_x
_atom_site_fract_y
_atom_site_fract_z
Si Si1 0.237654 0.509165 0.772822
Si Si2 0.843416 0.839203 0.793161
Si Si3 0.380327 0.326332 0.984061
Si Si4 0.607606 0.041606 0.454979
Si Si5 0.367842 0.523091 0.403652
Si Si6 0.180108 0.546056 0.046842
Si Si7 0.045246 0.406364 0.297911
Si Si8 0.519418 0.916870 0.787369
O O1 0.193556 0.328998 0.487857
O O2 0.426841 0.606570 0.914723
O O3 0.123428 0.636565 0.854555
O O4 0.185912 0.457055 0.829251
O O5 0.873886 0.747489 0.816503
O O6 0.705441 0.933512 0.848948
O O7 0.000000 0.000000 0.000000
O O8 0.346213 0.347909 0.129673
O O9 0.292703 0.458263 0.050758
O O10 0.314334 0.122502 0.704755
O O11 0.730524 0.240674 0.709028
O O12 0.529631 0.027940 0.290684
O O13 0.500000 0.000000 0.500000
O O14 0.500000 0.500000 0.500000
O O15 0.197199 0.540314 0.422313
O O16 0.439945 0.703239 0.548157
O O17 0.000000 0.500000 0.000000
O O18 0.000000 0.500000 0.500000
O O19 0.500000 0.000000 0.000000
#
# Coordination Sequence:
#
# PCOD9037855 Si02
#       8
#     2   2   2   2   2   2   2   2
#     4  11  23  45  71  98 141 199 243 310 376 453
#     4  11  25  41  66 104 150 189 244 312 378 448
#     4  12  25  47  77 104 148 197 255 309 381 451
#     4  12  28  48  80 115 149 204 264 310 378 468
#     4  12  21  44  71 100 149 195 244 311 382 439
#     4  12  27  50  76 109 151 199 253 318 385 456
#     4  10  23  41  64 100 140 191 243 299 377 447
#     4  12  27  44  73 110 149 196 254 312 381 451
#
# _framework density 20.892212000000001
#
# number of rings (size 3 to 8) (size 9 to 14) (size 15 to 20)
#    0.000    0.500    5.000    2.625    7.000    0.500 
#    0.000    0.000    0.000    0.000    0.000    0.000 
#    0.000    0.000    0.000    0.000    0.000    0.000 
#
# Total GULP energy -89068.918444 kJ/mol
# GULP energy per Si atom -5566.807403 kJ/mol
# Density = 2.084466 g / cm^3
# Si number density = 20.892212 Si / 1000 Ang^3
#
#
#
# Elastic Constant Matrix: (Units=GPa)
#
#
# Indices 1 2 3 4 5 6 
#
# 1 157.1192 39.7753 37.6181 -9.1170 14.2858 4.5494
# 2 39.7753 100.2473 33.3402 -13.7935 6.3455 2.9945
# 3 37.6181 33.3402 95.0384 12.6240 -8.7574 -0.5862
# 4 -9.1170 -13.7935 12.6240 35.6230 11.5302 2.8589
# 5 14.2858 6.3455 -8.7574 11.5302 37.8103 -5.6961
# 6 4.5494 2.9945 -0.5862 2.8589 -5.6961 33.6309
#
#
#
# Elastic Compliance Matrix: (Units=1/GPa)
#
#
# Indices 1 2 3 4 5 6 
#
# 1 0.008629 -0.000581 -0.004613 0.005934 -0.006462 -0.002795
# 2 -0.000581 0.014641 -0.007075 0.010810 -0.007711 -0.003573
# 3 -0.004613 -0.007075 0.017938 -0.014647 0.012288 0.004893
# 4 0.005934 0.010810 -0.014647 0.047342 -0.023393 -0.010007
# 5 -0.006462 -0.007711 0.012288 -0.023393 0.041797 0.010843
# 6 -0.002795 -0.003573 0.004893 -0.010007 0.010843 0.033203
#
#
# Mechanical properties :
#
#
# Convention : Reuss Voigt Hill
#
# Bulk Modulus (GPa) = 59.98344 63.76356 61.87350
# Shear Modulus (GPa) = 25.82083 37.52426 31.67254
#
# Velocity S-wave (km/s) = 3.51936 4.24263 3.89781
# Velocity P-wave (km/s) = 6.72962 7.38826 7.06662
#
# Compressibility (1/GPa) = 0.01667127
#
# Stress axis : x y z
#
# Youngs Moduli (GPa) = 115.89236 68.30141 55.74823
#
# Poissons Ratio (x) = 0.03966 0.25714
# Poissons Ratio (y) = 0.06729 0.39441
# Poissons Ratio (z) = 0.53456 0.48323
#
# Static dielectric constant tensor:
#      x y z
#    x 1.864230 -0.000950 -0.112930 
#    y -0.000950 1.667950 0.052040 
#    z -0.112930 0.052040 1.830510 
# 
# From -- ./inp_files/272841.got.cif
#   From: 2010.05.17/outbox.cif.g08.bks.cpg/sg2_137_cif.got.tgz:272841.got - 2010.06.03 11:33:40.
