data_PCOD9037612
_publ_section_title
;
Structure prediction by ZEFSAII (Michael W. Deem and Ramdas Pophale) SiO2 
 PCOD9037612
Probable space group: P -1
;
_chemical_formula_sum "Si O2"
_cell_formula_units_Z 16
_cell_length_a 13.320086
_cell_length_b 9.318157
_cell_length_c 13.859757
_cell_angle_alpha 119.438125
_cell_angle_beta 146.064353
_cell_angle_gamma 83.818052
_cell_volume 658.039927
_symmetry_space_group_name_H-M "P -1"
_symmetry_group_IT_number 2
_symmetry_cell_setting 'triclinic'
loop_
_space_group_symop_operation_xyz
x,y,z
-x,-y,-z
loop_
_atom_site_type_symbol
_atom_site_label
_atom_site_fract_x
_atom_site_fract_y
_atom_site_fract_z
Si Si1 0.820284 0.329853 0.876184
Si Si2 0.298827 0.101621 0.326876
Si Si3 0.798346 0.883364 0.104182
Si Si4 0.560939 0.682106 0.678755
Si Si5 0.839933 0.705204 0.564101
Si Si6 0.081252 0.544773 0.334041
Si Si7 0.470286 0.346850 0.006543
Si Si8 0.451657 0.975427 0.840235
O O1 0.563617 0.217258 0.600818
O O2 0.840059 0.142624 0.840362
O O3 0.000000 0.500000 0.000000
O O4 0.879938 0.446459 0.065072
O O5 0.289900 0.122437 0.211414
O O6 0.231547 0.218776 0.378440
O O7 0.713371 0.704452 0.898218
O O8 0.750050 0.807392 0.150346
O O9 0.040593 0.101306 0.350625
O O10 0.630295 0.933185 0.941948
O O11 0.500000 0.500000 0.500000
O O12 0.308084 0.606283 0.479510
O O13 0.978857 0.629129 0.693622
O O14 0.647959 0.498273 0.282529
O O15 0.193307 0.771805 0.544517
O O16 0.500000 0.500000 0.000000
O O17 0.503331 0.191512 0.926606
O O18 0.500000 0.000000 0.000000
#
# Coordination Sequence:
#
# PCOD9037612 Si02
#       8
#     2   2   2   2   2   2   2   2
#     4  11  25  42  62  95 143 187 224 268 346 400
#     4  11  25  42  65 100 144 180 222 281 331 407
#     4  10  23  40  70 103 130 176 236 275 336 416
#     4  11  19  38  69  96 134 175 223 276 322 396
#     4  12  24  43  71 101 131 179 235 276 341 409
#     4  11  21  40  72  99 127 184 233 274 336 406
#     4  11  24  47  68  99 139 172 223 296 352 396
#     4   9  19  45  70  93 133 170 228 289 332 405
#
# _framework density 24.314633000000001
#
# number of rings (size 3 to 8) (size 9 to 14) (size 15 to 20)
#    0.000    1.250    6.250    0.750    1.750    4.000 
#    4.500    0.000    0.000    0.000    0.000    0.000 
#    0.000    0.000    0.000    0.000    0.000    0.000 
#
# Total GULP energy -89314.111417 kJ/mol
# GULP energy per Si atom -5582.131964 kJ/mol
# Density = 2.425929 g / cm^3
# Si number density = 24.314633 Si / 1000 Ang^3
#
#
#
# Elastic Constant Matrix: (Units=GPa)
#
#
# Indices 1 2 3 4 5 6 
#
# 1 54.1044 27.6372 18.1835 7.0843 4.7802 26.0956
# 2 27.6372 132.3681 24.0320 26.7257 -0.0368 27.1816
# 3 18.1835 24.0320 107.0895 17.9033 -14.9886 5.5700
# 4 7.0843 26.7257 17.9033 43.4769 9.2735 1.9950
# 5 4.7802 -0.0368 -14.9886 9.2735 36.4863 8.1445
# 6 26.0956 27.1816 5.5700 1.9950 8.1445 40.5587
#
#
#
# Elastic Compliance Matrix: (Units=1/GPa)
#
#
# Indices 1 2 3 4 5 6 
#
# 1 0.028852 -0.001736 -0.003646 -0.001095 -0.001299 -0.016585
# 2 -0.001736 0.010555 -0.000212 -0.006515 0.003202 -0.006251
# 3 -0.003646 -0.000212 0.011920 -0.005637 0.006863 -0.000251
# 4 -0.001095 -0.006515 -0.005637 0.031700 -0.011718 0.006638
# 5 -0.001299 0.003202 0.006863 -0.011718 0.035337 -0.008772
# 6 -0.016585 -0.006251 -0.000251 0.006638 -0.008772 0.040985
#
#
# Mechanical properties :
#
#
# Convention : Reuss Voigt Hill
#
# Bulk Modulus (GPa) = 24.91155 48.14082 36.52618
# Shear Modulus (GPa) = 27.18638 39.01834 33.10236
#
# Velocity S-wave (km/s) = 3.34744 4.01025 3.69374
# Velocity P-wave (km/s) = 5.02078 6.42533 5.76598
#
# Compressibility (1/GPa) = 0.04014203
#
# Stress axis : x y z
#
# Youngs Moduli (GPa) = 34.65967 94.73891 83.88925
#
# Poissons Ratio (x) = 0.16444 0.30583
# Poissons Ratio (y) = 0.06016 0.01775
# Poissons Ratio (z) = 0.12635 0.02004
#
# Static dielectric constant tensor:
#      x y z
#    x -7.885130 3.083790 6.371340 
#    y 3.083790 1.136000 -1.972020 
#    z 6.371340 -1.972020 -2.153670 
# 
# From -- ./inp_files/528985.got.cif
#   From: 2010.05.17/outbox.cif.g08.bks.cpg/sg2_265_cif.got.tgz:528985.got - 2010.06.03 11:33:40.
