data_PCOD9037698
_publ_section_title
;
Structure prediction by ZEFSAII (Michael W. Deem and Ramdas Pophale) SiO2 
 PCOD9037698
Probable space group: P -1
;
_chemical_formula_sum "Si O2"
_cell_formula_units_Z 16
_cell_length_a 11.588978
_cell_length_b 19.843098
_cell_length_c 7.131565
_cell_angle_alpha 139.113359
_cell_angle_beta 74.580924
_cell_angle_gamma 137.631437
_cell_volume 541.234629
_symmetry_space_group_name_H-M "P -1"
_symmetry_group_IT_number 2
_symmetry_cell_setting 'triclinic'
loop_
_space_group_symop_operation_xyz
x,y,z
-x,-y,-z
loop_
_atom_site_type_symbol
_atom_site_label
_atom_site_fract_x
_atom_site_fract_y
_atom_site_fract_z
Si Si1 0.745038 0.732510 0.917901
Si Si2 0.811828 0.601406 0.357353
Si Si3 0.106088 0.733223 0.953836
Si Si4 0.730532 0.597574 0.964478
Si Si5 0.498162 0.192495 0.715180
Si Si6 0.574145 0.199973 0.135546
Si Si7 0.262194 0.160591 0.188929
Si Si8 0.792927 0.237671 0.587827
O O1 0.500000 0.500000 0.500000
O O2 0.881405 0.748509 0.766704
O O3 0.800526 0.752986 0.152480
O O4 0.748160 0.842515 0.041664
O O5 0.007387 0.659548 0.410055
O O6 0.820896 0.647539 0.237233
O O7 0.570380 0.363938 0.993992
O O8 0.182656 0.684110 0.710985
O O9 0.145722 0.734091 0.159037
O O10 0.266976 0.951683 0.293073
O O11 0.846040 0.588299 0.772501
O O12 0.455813 0.386963 0.635921
O O13 0.562020 0.217517 0.956382
O O14 0.686712 0.270963 0.669682
O O15 0.417984 0.991614 0.823873
O O16 0.407099 0.169886 0.222478
O O17 0.000000 0.000000 0.000000
#
# Coordination Sequence:
#
# PCOD9037698 Si02
#       8
#     2   2   2   2   2   2   2   2
#     4  10  23  41  59  84 122 163 200 241 293 350
#     4  11  20  36  62  88 119 156 198 250 296 343
#     4   8  17  34  59  90 122 151 191 247 306 362
#     4  10  23  41  62  90 122 153 198 251 302 356
#     4   9  16  30  57  89 119 155 196 238 297 367
#     4   9  17  35  59  86 121 159 195 244 302 352
#     4  11  23  39  60  85 118 161 208 245 286 354
#     4   8  16  31  55  88 123 155 189 239 305 363
#
# _framework density 29.562042999999999
#
# number of rings (size 3 to 8) (size 9 to 14) (size 15 to 20)
#    0.000    2.500    0.000    4.125    0.000    3.500 
#    0.000    2.500    0.000   18.000    0.000    0.000 
#    0.000    0.000    0.000    0.000    0.000    0.000 
#
# Total GULP energy -89218.581943 kJ/mol
# GULP energy per Si atom -5576.161371 kJ/mol
# Density = 2.949476 g / cm^3
# Si number density = 29.562043 Si / 1000 Ang^3
#
#
#
# Elastic Constant Matrix: (Units=GPa)
#
#
# Indices 1 2 3 4 5 6 
#
# 1 194.2970 39.6757 30.7260 6.5907 7.8603 5.8243
# 2 39.6757 95.4499 -0.8088 17.7002 19.6286 16.1685
# 3 30.7260 -0.8088 87.8041 17.6928 7.3833 0.4836
# 4 6.5907 17.7002 17.6928 37.4632 0.0319 20.8381
# 5 7.8603 19.6286 7.3833 0.0319 50.6419 1.1292
# 6 5.8243 16.1685 0.4836 20.8381 1.1292 76.8095
#
#
#
# Elastic Compliance Matrix: (Units=1/GPa)
#
#
# Indices 1 2 3 4 5 6 
#
# 1 0.006074 -0.002923 -0.002535 0.001671 0.000565 -0.000291
# 2 -0.002923 0.014337 0.003095 -0.007296 -0.005533 -0.000755
# 3 -0.002535 0.003095 0.014319 -0.008826 -0.002930 0.001888
# 4 0.001671 -0.007296 -0.008826 0.039135 0.004036 -0.009212
# 5 0.000565 -0.005533 -0.002930 0.004036 0.022234 -0.000282
# 6 -0.000291 -0.000755 0.001888 -0.009212 -0.000282 0.015692
#
#
# Mechanical properties :
#
#
# Convention : Reuss Voigt Hill
#
# Bulk Modulus (GPa) = 33.33046 57.41519 45.37282
# Shear Modulus (GPa) = 39.52010 53.51348 46.51679
#
# Velocity S-wave (km/s) = 3.66027 4.25927 3.97108
# Velocity P-wave (km/s) = 5.40024 6.60701 6.03387
#
# Compressibility (1/GPa) = 0.03000259
#
# Stress axis : x y z
#
# Youngs Moduli (GPa) = 164.64465 69.75158 69.83661
#
# Poissons Ratio (x) = 0.20388 0.17704
# Poissons Ratio (y) = 0.48125 -0.21611
# Poissons Ratio (z) = 0.41737 -0.21585
#
# Static dielectric constant tensor:
#      x y z
#    x 2.413580 0.121870 -0.071570 
#    y 0.121870 2.555440 -0.069770 
#    z -0.071570 -0.069770 2.320020 
# 
# From -- ./inp_files/285200.got.cif
#   From: 2010.05.17/outbox.cif.g08.bks.cpg/sg2_143_cif.got.tgz:285200.got - 2010.06.03 11:33:40.
