data_PCOD9037624
_publ_section_title
;
Structure prediction by ZEFSAII (Michael W. Deem and Ramdas Pophale) SiO2 
 PCOD9037624
Probable space group: P -1
;
_chemical_formula_sum "Si O2"
_cell_formula_units_Z 14
_cell_length_a 9.100301
_cell_length_b 12.793082
_cell_length_c 7.752020
_cell_angle_alpha 74.918502
_cell_angle_beta 107.250515
_cell_angle_gamma 49.410028
_cell_volume 511.020938
_symmetry_space_group_name_H-M "P -1"
_symmetry_group_IT_number 2
_symmetry_cell_setting 'triclinic'
loop_
_space_group_symop_operation_xyz
x,y,z
-x,-y,-z
loop_
_atom_site_type_symbol
_atom_site_label
_atom_site_fract_x
_atom_site_fract_y
_atom_site_fract_z
Si Si1 0.539129 0.257635 0.513905
Si Si2 0.877468 0.104853 0.167283
Si Si3 0.015598 0.636358 0.431165
Si Si4 0.999808 0.244649 0.977774
Si Si5 0.104320 0.359930 0.237253
Si Si6 0.535504 0.135895 0.870446
Si Si7 0.329305 0.644012 0.728357
O O1 0.396438 0.231257 0.401921
O O2 0.452354 0.291205 0.667204
O O3 0.495114 0.384495 0.324383
O O4 0.840179 0.085632 0.694389
O O5 0.847951 0.174390 0.311756
O O6 0.686404 0.110445 0.086239
O O7 0.831248 0.231686 0.963265
O O8 0.075113 0.627700 0.251894
O O9 0.018527 0.559946 0.646867
O O10 0.711655 0.797561 0.232342
O O11 0.160313 0.657152 0.556053
O O12 0.054835 0.272354 0.168099
O O13 0.257218 0.047052 0.082114
O O14 0.000000 0.500000 0.000000
O O15 0.500000 0.500000 0.000000
#
# Coordination Sequence:
#
# PCOD9037624 Si02
#       7
#     2   2   2   2   2   2   2
#     4  10  23  40  70  93 140 179 230 276 349 394
#     4  11  23  44  70 100 140 177 233 287 338 411
#     4  11  24  44  70  99 134 180 230 276 348 399
#     4  11  23  42  73  99 141 174 231 288 338 407
#     4  11  25  45  66 105 143 182 228 284 343 413
#     4  10  23  43  69 104 134 173 237 285 338 407
#     4  12  25  44  67 102 140 184 229 284 344 413
#
# _framework density 27.396138000000001
#
# number of rings (size 3 to 8) (size 9 to 14) (size 15 to 20)
#    0.000    1.143    1.429    5.143    4.000    2.286 
#    5.143    1.429    0.000    0.000    0.000    0.000 
#    0.000    0.000    0.000    0.000    0.000    0.000 
#
# Total GULP energy -78156.704793 kJ/mol
# GULP energy per Si atom -5582.621771 kJ/mol
# Density = 2.733378 g / cm^3
# Si number density = 27.396138 Si / 1000 Ang^3
#
#
#
# Elastic Constant Matrix: (Units=GPa)
#
#
# Indices 1 2 3 4 5 6 
#
# 1 184.2465 49.5771 62.8765 15.7888 22.6019 -29.3220
# 2 49.5771 44.0279 23.8095 20.3825 -10.4949 -13.8265
# 3 62.8765 23.8095 132.6771 15.6427 -6.2524 1.8980
# 4 15.7888 20.3825 15.6427 22.9521 12.5555 -17.8044
# 5 22.6019 -10.4949 -6.2524 12.5555 86.4681 19.8126
# 6 -29.3220 -13.8265 1.8980 -17.8044 19.8126 39.9506
#
#
#
# Elastic Compliance Matrix: (Units=1/GPa)
#
#
# Indices 1 2 3 4 5 6 
#
# 1 -0.004604 0.021512 0.005682 -0.051714 0.018215 -0.028285
# 2 0.021512 -0.022990 -0.020771 0.099316 -0.041178 0.073502
# 3 0.005682 -0.020771 0.004045 0.031498 -0.012149 0.016852
# 4 -0.051714 0.099316 0.031498 -0.164742 0.078700 -0.117529
# 5 0.018215 -0.041178 -0.012149 0.078700 -0.020834 0.045101
# 6 -0.028285 0.073502 0.016852 -0.117529 0.045101 -0.045836
#
#
# Mechanical properties :
#
#
# Convention : Reuss Voigt Hill
#
# Bulk Modulus (GPa) = -93.43724 70.38641 -11.52542
# Shear Modulus (GPa) = -18.42461 44.85339 13.21439
#
# Velocity S-wave (km/s) = -2.59612 4.05064 2.19862
# Velocity P-wave (km/s) = 6.57012 6.90107 1.49303
#
# Compressibility (1/GPa) = -0.01070237
#
# Stress axis : x y z
#
# Youngs Moduli (GPa) = -217.18776 -43.49802 247.23864
#
# Poissons Ratio (x) = 0.93575 -1.40473
# Poissons Ratio (y) = 4.67225 5.13534
# Poissons Ratio (z) = 1.23399 -0.90349
#
# Static dielectric constant tensor:
#      x y z
#    x 2.147590 -0.011410 -0.095360 
#    y -0.011410 2.229300 -0.120150 
#    z -0.095360 -0.120150 2.252470 
# 
# From -- ./inp_files/200881.got.cif
#   From: 2010.05.17/outbox.cif.g08.bks.cpg/sg2_101_cif.got.tgz:200881.got - 2010.06.03 11:33:40.
