data_PCOD9037802
_publ_section_title
;
Structure prediction by ZEFSAII (Michael W. Deem and Ramdas Pophale) SiO2 
 PCOD9037802
Probable space group: P -1
;
_chemical_formula_sum "Si O2"
_cell_formula_units_Z 16
_cell_length_a 16.275688
_cell_length_b 13.438622
_cell_length_c 9.803180
_cell_angle_alpha 65.456832
_cell_angle_beta 102.688459
_cell_angle_gamma 157.371282
_cell_volume 663.246457
_symmetry_space_group_name_H-M "P -1"
_symmetry_group_IT_number 2
_symmetry_cell_setting 'triclinic'
loop_
_space_group_symop_operation_xyz
x,y,z
-x,-y,-z
loop_
_atom_site_type_symbol
_atom_site_label
_atom_site_fract_x
_atom_site_fract_y
_atom_site_fract_z
Si Si1 0.260376 0.213748 0.346028
Si Si2 0.724621 0.538070 0.664915
Si Si3 0.820883 0.441604 0.932704
Si Si4 0.872361 0.170117 0.920731
Si Si5 0.501899 0.273416 0.448484
Si Si6 0.323089 0.864315 0.193746
Si Si7 0.251090 0.761687 0.534596
Si Si8 0.028524 0.925541 0.137678
O O1 0.356397 0.446461 0.304475
O O2 0.414488 0.293011 0.391762
O O3 0.994277 0.879536 0.506498
O O4 0.207925 0.155931 0.199212
O O5 0.760053 0.480292 0.811940
O O6 0.549816 0.303173 0.607073
O O7 0.835011 0.371259 0.856655
O O8 0.047472 0.726111 0.952518
O O9 0.584700 0.128686 0.117367
O O10 0.071260 0.476006 0.727248
O O11 0.871970 0.047373 0.939060
O O12 0.644934 0.966831 0.912845
O O13 0.760284 0.571808 0.298166
O O14 0.311939 0.959018 0.491461
O O15 0.204099 0.698112 0.390940
O O16 0.500000 0.000000 0.500000
O O17 0.000000 0.000000 0.000000
#
# Coordination Sequence:
#
# PCOD9037802 Si02
#       8
#     2   2   2   2   2   2   2   2
#     4  10  23  41  63  93 121 165 215 256 311 370
#     4  10  23  41  63  90 128 162 208 261 309 371
#     4  11  24  41  62  91 131 165 205 259 314 370
#     4  12  25  42  65  94 128 168 210 258 315 374
#     4  11  23  40  66  93 122 166 211 258 314 371
#     4  11  25  40  62  95 127 166 209 254 315 375
#     4  12  22  42  67  92 129 166 210 260 311 374
#     4  11  24  41  64  92 126 162 212 262 309 371
#
# _framework density 24.123763
#
# number of rings (size 3 to 8) (size 9 to 14) (size 15 to 20)
#    0.000    1.000    2.500    3.375    5.250    2.500 
#    0.000    0.000    0.000    0.000    0.000    0.000 
#    0.000    0.000    0.000    0.000    0.000    0.000 
#
# Total GULP energy -89607.589220 kJ/mol
# GULP energy per Si atom -5600.474326 kJ/mol
# Density = 2.406886 g / cm^3
# Si number density = 24.123763 Si / 1000 Ang^3
#
#
#
# Elastic Constant Matrix: (Units=GPa)
#
#
# Indices 1 2 3 4 5 6 
#
# 1 139.7671 2.6547 20.9570 14.6990 6.0446 -15.9582
# 2 2.6547 62.0382 31.7377 23.0261 -7.2965 -11.0649
# 3 20.9570 31.7377 112.5551 25.5598 7.2009 -9.1793
# 4 14.6990 23.0261 25.5598 37.9472 4.6088 1.6622
# 5 6.0446 -7.2965 7.2009 4.6088 45.0763 4.5015
# 6 -15.9582 -11.0649 -9.1793 1.6622 4.5015 40.4583
#
#
#
# Elastic Compliance Matrix: (Units=1/GPa)
#
#
# Indices 1 2 3 4 5 6 
#
# 1 0.008127 0.002200 -0.000878 -0.003990 -0.000568 0.003835
# 2 0.002200 0.025280 -0.004040 -0.014407 0.005229 0.006875
# 3 -0.000878 -0.004040 0.011538 -0.004801 -0.002048 0.001592
# 4 -0.003990 -0.014407 -0.004801 0.040752 -0.004419 -0.007786
# 5 -0.000568 0.005229 -0.002048 -0.004419 0.024061 -0.001754
# 6 0.003835 0.006875 0.001592 -0.007786 -0.001754 0.028986
#
#
# Mechanical properties :
#
#
# Convention : Reuss Voigt Hill
#
# Bulk Modulus (GPa) = 25.31143 47.22879 36.27011
# Shear Modulus (GPa) = 31.77609 41.96375 36.86992
#
# Velocity S-wave (km/s) = 3.63328 4.17528 3.91367
# Velocity P-wave (km/s) = 5.30246 6.54707 5.95736
#
# Compressibility (1/GPa) = 0.03950785
#
# Stress axis : x y z
#
# Youngs Moduli (GPa) = 123.05068 39.55644 86.66748
#
# Poissons Ratio (x) = -0.08701 0.07611
# Poissons Ratio (y) = -0.27066 0.35016
# Poissons Ratio (z) = 0.10806 0.15982
#
# Static dielectric constant tensor:
#      x y z
#    x 1.940020 0.042950 -0.031420 
#    y 0.042950 1.964170 -0.033140 
#    z -0.031420 -0.033140 1.920320 
# 
# From -- ./inp_files/307361.got.cif
#   From: 2010.05.17/outbox.cif.g08.bks.cpg/sg2_154_cif.got.tgz:307361.got - 2010.06.03 11:33:40.
