data_PCOD9037936
_publ_section_title
;
Structure prediction by ZEFSAII (Michael W. Deem and Ramdas Pophale) SiO2 
 PCOD9037936
Probable space group: P -1
;
_chemical_formula_sum "Si O2"
_cell_formula_units_Z 16
_cell_length_a 13.078148
_cell_length_b 9.856700
_cell_length_c 8.384087
_cell_angle_alpha 72.762606
_cell_angle_beta 54.111975
_cell_angle_gamma 105.054561
_cell_volume 692.748564
_symmetry_space_group_name_H-M "P -1"
_symmetry_group_IT_number 2
_symmetry_cell_setting 'triclinic'
loop_
_space_group_symop_operation_xyz
x,y,z
-x,-y,-z
loop_
_atom_site_type_symbol
_atom_site_label
_atom_site_fract_x
_atom_site_fract_y
_atom_site_fract_z
Si Si1 0.897187 0.059860 0.507957
Si Si2 0.273200 0.804421 0.931540
Si Si3 0.082140 0.143778 0.006959
Si Si4 0.571516 0.391940 0.166784
Si Si5 0.605875 0.815218 0.291057
Si Si6 0.944651 0.573533 0.160368
Si Si7 0.871391 0.337456 0.576059
Si Si8 0.416055 0.274364 0.000658
O O1 0.939618 0.234371 0.487237
O O2 0.724921 0.913093 0.753945
O O3 0.000000 0.000000 0.500000
O O4 0.945753 0.094215 0.269669
O O5 0.323329 0.679689 0.871684
O O6 0.375540 0.007530 0.737264
O O7 0.102276 0.721905 0.050998
O O8 0.262643 0.783202 0.139803
O O9 0.225999 0.138791 0.924361
O O10 0.139905 0.336511 0.841686
O O11 0.000000 0.000000 0.000000
O O12 0.454632 0.306085 0.454303
O O13 0.633552 0.592313 0.035140
O O14 0.512677 0.337260 0.055742
O O15 0.521396 0.741025 0.223203
O O16 0.839772 0.417365 0.428937
O O17 0.000000 0.500000 0.000000
O O18 0.000000 0.500000 0.500000
#
# Coordination Sequence:
#
# PCOD9037936 Si02
#       8
#     2   2   2   2   2   2   2   2
#     4  12  23  42  71  99 137 178 223 295 352 416
#     4  11  24  46  68  98 141 183 235 285 345 419
#     4  12  24  41  69 105 141 174 227 291 358 423
#     4  11  28  48  70 101 143 191 241 289 334 421
#     4  12  24  48  71 103 139 186 238 287 348 419
#     4  11  24  40  66 107 138 178 224 286 361 413
#     4  10  23  41  64  99 140 172 224 281 352 418
#     4  11  26  47  70 102 139 186 243 281 356 411
#
# _framework density 23.096402999999999
#
# number of rings (size 3 to 8) (size 9 to 14) (size 15 to 20)
#    0.000    0.750    5.000    1.500    7.000    2.500 
#    2.250    0.000    0.000    0.000    0.000    0.000 
#    0.000    0.000    0.000    0.000    0.000    0.000 
#
# Total GULP energy -89315.734932 kJ/mol
# GULP energy per Si atom -5582.233433 kJ/mol
# Density = 2.304383 g / cm^3
# Si number density = 23.096403 Si / 1000 Ang^3
#
#
#
# Elastic Constant Matrix: (Units=GPa)
#
#
# Indices 1 2 3 4 5 6 
#
# 1 48.7671 22.3791 11.2808 -1.6281 5.5417 -3.2255
# 2 22.3791 163.8092 29.0983 -0.7933 7.4335 -6.7306
# 3 11.2808 29.0983 90.1192 3.2801 29.5204 1.4479
# 4 -1.6281 -0.7933 3.2801 37.3778 -6.0358 12.1990
# 5 5.5417 7.4335 29.5204 -6.0358 30.5577 1.2666
# 6 -3.2255 -6.7306 1.4479 12.1990 1.2666 41.6340
#
#
#
# Elastic Compliance Matrix: (Units=1/GPa)
#
#
# Indices 1 2 3 4 5 6 
#
# 1 0.022370 -0.002679 -0.001238 0.000229 -0.002219 0.001343
# 2 -0.002679 0.006858 -0.002195 0.000065 0.000913 0.000931
# 3 -0.001238 -0.002195 0.017835 -0.004762 -0.017447 0.000855
# 4 0.000229 0.000065 -0.004762 0.032126 0.011285 -0.009563
# 5 -0.002219 0.000913 -0.017447 0.011285 0.052168 -0.004311
# 6 0.001343 0.000931 0.000855 -0.009563 -0.004311 0.027177
#
#
# Mechanical properties :
#
#
# Convention : Reuss Voigt Hill
#
# Bulk Modulus (GPa) = 28.70426 47.57910 38.14168
# Shear Modulus (GPa) = 27.41661 37.90973 32.66317
#
# Velocity S-wave (km/s) = 3.44910 4.05578 3.76468
# Velocity P-wave (km/s) = 5.32135 6.52513 5.95374
#
# Compressibility (1/GPa) = 0.03483803
#
# Stress axis : x y z
#
# Youngs Moduli (GPa) = 44.70236 145.82016 56.06996
#
# Poissons Ratio (x) = 0.39068 0.06942
# Poissons Ratio (y) = 0.11977 0.12308
# Poissons Ratio (z) = 0.05534 0.32010
#
# Static dielectric constant tensor:
#      x y z
#    x 1.891350 0.023460 -0.007650 
#    y 0.023460 1.836750 0.050840 
#    z -0.007650 0.050840 1.802560 
# 
# From -- ./inp_files/262087.got.cif
#   From: 2010.05.17/outbox.cif.g08.bks.cpg/sg2_132_cif.got.tgz:262087.got - 2010.06.03 11:33:40.
