data_PCOD9037340
_publ_section_title
;
Structure prediction by ZEFSAII (Michael W. Deem and Ramdas Pophale) SiO2 
 PCOD9037340
Probable space group: P -1
;
_chemical_formula_sum "Si O2"
_cell_formula_units_Z 16
_cell_length_a 18.340346
_cell_length_b 6.823114
_cell_length_c 8.354991
_cell_angle_alpha 119.470070
_cell_angle_beta 58.239247
_cell_angle_gamma 113.973148
_cell_volume 758.456112
_symmetry_space_group_name_H-M "P -1"
_symmetry_group_IT_number 2
_symmetry_cell_setting 'triclinic'
loop_
_space_group_symop_operation_xyz
x,y,z
-x,-y,-z
loop_
_atom_site_type_symbol
_atom_site_label
_atom_site_fract_x
_atom_site_fract_y
_atom_site_fract_z
Si Si1 0.728062 0.857648 0.765463
Si Si2 0.121973 0.126684 0.858809
Si Si3 0.595960 0.451326 0.903591
Si Si4 0.917338 0.826558 0.458137
Si Si5 0.453160 0.006168 0.389287
Si Si6 0.975239 0.374015 0.148828
Si Si7 0.315006 0.308480 0.613829
Si Si8 0.375389 0.763130 0.882251
O O1 0.670150 0.668703 0.867391
O O2 0.830442 0.864862 0.662783
O O3 0.702353 0.776870 0.581586
O O4 0.697892 0.093900 0.932039
O O5 0.095787 0.124199 0.697424
O O6 0.225424 0.221369 0.780105
O O7 0.091918 0.872331 0.866194
O O8 0.064878 0.298666 0.072220
O O9 0.604152 0.235617 0.695850
O O10 0.500000 0.500000 0.000000
O O11 0.605578 0.380295 0.045058
O O12 0.933861 0.568395 0.361614
O O13 0.000000 0.000000 0.500000
O O14 0.393820 0.195235 0.537454
O O15 0.533022 0.072035 0.199247
O O16 0.500000 0.000000 0.500000
O O17 0.000000 0.500000 0.000000
O O18 0.343316 0.582140 0.706070
#
# Coordination Sequence:
#
# PCOD9037340 Si02
#       8
#     2   2   2   2   2   2   2   2
#     4  11  25  45  66 100 133 176 222 271 333 391
#     4   9  21  42  65  93 126 169 213 265 326 384
#     4  12  23  43  69  96 135 176 216 277 328 387
#     4  10  23  40  65  96 129 166 216 268 325 394
#     4  12  24  43  68  96 135 178 220 266 331 390
#     4   9  19  41  63  91 125 163 211 259 326 382
#     4  11  24  43  68  95 133 174 223 270 321 395
#     4  12  25  45  65  99 136 172 221 273 325 392
#
# _framework density 21.095486999999999
#
# number of rings (size 3 to 8) (size 9 to 14) (size 15 to 20)
#    0.000    1.250    2.500    3.000    3.500    0.500 
#    9.000    0.000    0.000    0.000    0.000    0.000 
#    0.000    0.000    0.000    0.000    0.000    0.000 
#
# Total GULP energy -89440.400382 kJ/mol
# GULP energy per Si atom -5590.025024 kJ/mol
# Density = 2.104747 g / cm^3
# Si number density = 21.095487 Si / 1000 Ang^3
#
#
#
# Elastic Constant Matrix: (Units=GPa)
#
#
# Indices 1 2 3 4 5 6 
#
# 1 90.9440 27.3697 44.5972 5.4797 -31.7590 4.4668
# 2 27.3697 103.4598 24.9508 8.4890 -20.4961 -11.0482
# 3 44.5972 24.9508 80.0962 25.9091 -32.3285 -11.6310
# 4 5.4797 8.4890 25.9091 49.5702 1.5778 -1.9335
# 5 -31.7590 -20.4961 -32.3285 1.5778 42.9446 1.0401
# 6 4.4668 -11.0482 -11.6310 -1.9335 1.0401 21.2902
#
#
#
# Elastic Compliance Matrix: (Units=1/GPa)
#
#
# Indices 1 2 3 4 5 6 
#
# 1 0.019071 -0.003010 -0.010275 0.003181 0.005085 -0.011136
# 2 -0.003010 0.011962 0.001695 -0.002465 0.004672 0.007313
# 3 -0.010275 0.001695 0.032989 -0.016247 0.018189 0.018694
# 4 0.003181 -0.002465 -0.016247 0.028818 -0.011929 -0.007623
# 5 0.005085 0.004672 0.018189 -0.011929 0.043211 0.008100
# 6 -0.011136 0.007313 0.018694 -0.007623 0.008100 0.062226
#
#
# Mechanical properties :
#
#
# Convention : Reuss Voigt Hill
#
# Bulk Modulus (GPa) = 24.48419 52.03727 38.26073
# Shear Modulus (GPa) = 21.27005 34.59981 27.93493
#
# Velocity S-wave (km/s) = 3.17878 4.05427 3.64292
# Velocity P-wave (km/s) = 5.01043 6.82914 5.98922
#
# Compressibility (1/GPa) = 0.04084268
#
# Stress axis : x y z
#
# Youngs Moduli (GPa) = 52.43456 83.59825 30.31269
#
# Poissons Ratio (x) = 0.25164 0.31146
# Poissons Ratio (y) = 0.15783 -0.05138
# Poissons Ratio (z) = 0.53876 -0.14170
#
# Static dielectric constant tensor:
#      x y z
#    x 1.740580 0.000940 0.022850 
#    y 0.000940 1.745550 -0.010510 
#    z 0.022850 -0.010510 1.807500 
# 
# From -- ./inp_files/324092.got.cif
#   From: 2010.05.17/outbox.cif.g08.bks.cpg/sg2_163_cif.got.tgz:324092.got - 2010.06.03 11:33:40.
