data_PCOD9037234
_publ_section_title
;
Structure prediction by ZEFSAII (Michael W. Deem and Ramdas Pophale) SiO2 
 PCOD9037234
Probable space group: P -1
;
_chemical_formula_sum "Si O2"
_cell_formula_units_Z 12
_cell_length_a 9.104060
_cell_length_b 8.298499
_cell_length_c 12.128412
_cell_angle_alpha 62.055927
_cell_angle_beta 45.824136
_cell_angle_gamma 49.204922
_cell_volume 497.366067
_symmetry_space_group_name_H-M "P -1"
_symmetry_group_IT_number 2
_symmetry_cell_setting 'triclinic'
loop_
_space_group_symop_operation_xyz
x,y,z
-x,-y,-z
loop_
_atom_site_type_symbol
_atom_site_label
_atom_site_fract_x
_atom_site_fract_y
_atom_site_fract_z
Si Si1 0.457394 0.295496 0.953932
Si Si2 0.714834 0.980474 0.731443
Si Si3 0.067459 0.366181 0.869888
Si Si4 0.810484 0.271583 0.324427
Si Si5 0.541501 0.856339 0.418432
Si Si6 0.104225 0.989801 0.068036
O O1 0.216682 0.522859 0.003050
O O2 0.352558 0.163664 0.111965
O O3 0.678931 0.238339 0.936887
O O4 0.591227 0.198427 0.798547
O O5 0.613917 0.011961 0.650399
O O6 0.004044 0.848999 0.633240
O O7 0.155805 0.532539 0.787740
O O8 0.182223 0.265815 0.723987
O O9 0.182878 0.167386 0.956794
O O10 0.547532 0.310891 0.464921
O O11 0.914410 0.093867 0.230631
O O12 0.500000 0.000000 0.500000
O O13 0.000000 0.000000 0.000000
#
# Coordination Sequence:
#
# PCOD9037234 Si02
#       6
#     2   2   2   2   2   2
#     4   9  20  39  66 101 119 169 222 262 317 376
#     4   9  19  39  67  91 132 167 216 266 311 387
#     4  11  23  41  69  91 129 172 222 263 308 396
#     4  10  23  40  63  99 125 174 224 251 322 392
#     4  12  24  40  65  97 137 172 207 270 333 374
#     4  11  22  40  68  96 134 166 208 279 324 369
#
# _framework density 24.127098
#
# number of rings (size 3 to 8) (size 9 to 14) (size 15 to 20)
#    0.000    1.667    1.667    3.500    2.333    0.667 
#    0.000    3.333    3.667    0.000    0.000    0.000 
#    0.000    0.000    0.000    0.000    0.000    0.000 
#
# Total GULP energy -66960.852531 kJ/mol
# GULP energy per Si atom -5580.071044 kJ/mol
# Density = 2.407218 g / cm^3
# Si number density = 24.127098 Si / 1000 Ang^3
#
#
#
# Elastic Constant Matrix: (Units=GPa)
#
#
# Indices 1 2 3 4 5 6 
#
# 1 141.4097 37.1456 30.7144 9.5989 36.8266 -12.9245
# 2 37.1456 78.0729 7.2059 9.4598 8.8508 -12.5103
# 3 30.7144 7.2059 63.2800 14.4159 8.1733 3.0659
# 4 9.5989 9.4598 14.4159 43.0479 3.7551 -3.7140
# 5 36.8266 8.8508 8.1733 3.7551 49.6158 2.4810
# 6 -12.9245 -12.5103 3.0659 -3.7140 2.4810 44.9683
#
#
#
# Elastic Compliance Matrix: (Units=1/GPa)
#
#
# Indices 1 2 3 4 5 6 
#
# 1 0.011014 -0.003666 -0.004312 0.000653 -0.007004 0.002880
# 2 -0.003666 0.015287 0.000455 -0.002434 -0.000045 0.002970
# 3 -0.004312 0.000455 0.019258 -0.005889 0.000540 -0.002942
# 4 0.000653 -0.002434 -0.005889 0.025873 -0.001144 0.002112
# 5 -0.007004 -0.000045 0.000540 -0.001144 0.025538 -0.003566
# 6 0.002880 0.002970 -0.002942 0.002112 -0.003566 0.024464
#
#
# Mechanical properties :
#
#
# Convention : Reuss Voigt Hill
#
# Bulk Modulus (GPa) = 32.77292 48.09936 40.43614
# Shear Modulus (GPa) = 34.09458 41.37286 37.73372
#
# Velocity S-wave (km/s) = 3.76323 4.14549 3.95898
# Velocity P-wave (km/s) = 5.70048 6.54924 6.13955
#
# Compressibility (1/GPa) = 0.03051300
#
# Stress axis : x y z
#
# Youngs Moduli (GPa) = 90.79155 65.41670 51.92566
#
# Poissons Ratio (x) = 0.23981 0.22392
# Poissons Ratio (y) = 0.33284 -0.02363
# Poissons Ratio (z) = 0.39151 -0.02977
#
# Static dielectric constant tensor:
#      x y z
#    x 2.011930 0.018800 -0.042160 
#    y 0.018800 1.998290 0.027000 
#    z -0.042160 0.027000 2.002810 
# 
# From -- ./inp_files/158285.got.cif
#   From: 2010.05.17/outbox.cif.g08.bks.cpg/sg2_80_cif.got.tgz:158285.got - 2010.06.03 11:33:40.
