data_PCOD9037185
_publ_section_title
;
Structure prediction by ZEFSAII (Michael W. Deem and Ramdas Pophale) SiO2 
 PCOD9037185
Probable space group: P -1
;
_chemical_formula_sum "Si O2"
_cell_formula_units_Z 16
_cell_length_a 11.462223
_cell_length_b 14.334578
_cell_length_c 14.732907
_cell_angle_alpha 31.225179
_cell_angle_beta 41.529089
_cell_angle_gamma 59.791530
_cell_volume 763.021869
_symmetry_space_group_name_H-M "P -1"
_symmetry_group_IT_number 2
_symmetry_cell_setting 'triclinic'
loop_
_space_group_symop_operation_xyz
x,y,z
-x,-y,-z
loop_
_atom_site_type_symbol
_atom_site_label
_atom_site_fract_x
_atom_site_fract_y
_atom_site_fract_z
Si Si1 0.446403 0.216102 0.812610
Si Si2 0.683352 0.154613 0.891101
Si Si3 0.322274 0.555376 0.669335
Si Si4 0.237975 0.115525 0.516683
Si Si5 0.931157 0.346320 0.004173
Si Si6 0.539409 0.372498 0.271062
Si Si7 0.944196 0.573742 0.633989
Si Si8 0.540521 0.264691 0.055875
O O1 0.535263 0.173279 0.888014
O O2 0.374190 0.381397 0.743850
O O3 0.607555 0.283353 0.584471
O O4 0.284249 0.031348 0.012076
O O5 0.585066 0.134977 0.061771
O O6 0.883931 0.341326 0.609226
O O7 0.438635 0.636047 0.626601
O O8 0.093019 0.454491 0.894752
O O9 0.357169 0.208882 0.462124
O O10 0.118146 0.247267 0.453242
O O11 0.115112 0.883723 0.787965
O O12 0.396418 0.153852 0.312532
O O13 0.729904 0.359656 0.130923
O O14 0.009223 0.473961 0.761669
O O15 0.535865 0.582841 0.073192
O O16 0.747917 0.403639 0.857262
#
# Coordination Sequence:
#
# PCOD9037185 Si02
#       8
#     2   2   2   2   2   2   2   2
#     4  10  23  40  63  85 129 173 208 264 320 387
#     4  11  22  41  64  93 124 170 216 259 323 380
#     4  11  23  42  62  93 130 166 217 265 321 378
#     4  11  24  42  68  96 134 165 215 266 319 384
#     4  12  23  40  67  95 129 171 211 268 320 375
#     4  11  22  42  64  94 127 173 208 262 325 381
#     4  11  22  42  65  95 130 165 214 269 316 376
#     4  11  22  42  66  94 130 171 207 266 322 384
#
# _framework density 20.969252999999998
#
# number of rings (size 3 to 8) (size 9 to 14) (size 15 to 20)
#    0.000    1.000    5.000    2.625    1.750    0.000 
#    0.000    0.625    0.000    6.000    0.000    0.000 
#    0.000    0.000    0.000    0.000    0.000    0.000 
#
# Total GULP energy -89309.514386 kJ/mol
# GULP energy per Si atom -5581.844649 kJ/mol
# Density = 2.092153 g / cm^3
# Si number density = 20.969253 Si / 1000 Ang^3
#
#
#
# Elastic Constant Matrix: (Units=GPa)
#
#
# Indices 1 2 3 4 5 6 
#
# 1 80.5052 24.8089 43.9629 -2.0552 7.4292 19.5150
# 2 24.8089 78.4229 31.5333 3.7826 6.7039 19.1368
# 3 43.9629 31.5333 89.1240 -7.4528 -8.8038 15.2464
# 4 -2.0552 3.7826 -7.4528 10.3645 -3.5293 0.6990
# 5 7.4292 6.7039 -8.8038 -3.5293 18.6293 6.7449
# 6 19.5150 19.1368 15.2464 0.6990 6.7449 26.8834
#
#
#
# Elastic Compliance Matrix: (Units=1/GPa)
#
#
# Indices 1 2 3 4 5 6 
#
# 1 0.021060 0.001221 -0.012109 -0.009513 -0.014397 -0.005430
# 2 0.001221 0.019470 -0.009286 -0.017632 -0.013150 -0.005722
# 3 -0.012109 -0.009286 0.027638 0.031809 0.030420 -0.008733
# 4 -0.009513 -0.017632 0.031809 0.145102 0.058860 -0.017123
# 5 -0.014397 -0.013150 0.030420 0.058860 0.098230 -0.023616
# 6 -0.005430 -0.005722 -0.008733 -0.017123 -0.023616 0.056536
#
#
# Mechanical properties :
#
#
# Convention : Reuss Voigt Hill
#
# Bulk Modulus (GPa) = 35.94537 49.85137 42.89837
# Shear Modulus (GPa) = 11.97160 21.02524 16.49842
#
# Velocity S-wave (km/s) = 2.39197 3.16993 2.80802
# Velocity P-wave (km/s) = 4.98075 6.10108 5.56915
#
# Compressibility (1/GPa) = 0.02781999
#
# Stress axis : x y z
#
# Youngs Moduli (GPa) = 47.48356 51.36217 36.18227
#
# Poissons Ratio (x) = -0.06273 0.43814
# Poissons Ratio (y) = -0.05800 0.33598
# Poissons Ratio (z) = 0.57499 0.47694
#
# Static dielectric constant tensor:
#      x y z
#    x 1.761640 -0.002150 0.006840 
#    y -0.002150 1.770800 -0.030010 
#    z 0.006840 -0.030010 1.789110 
# 
# From -- ./inp_files/260377.got.cif
#   From: 2010.05.17/outbox.cif.g08.bks.cpg/sg2_131_cif.got.tgz:260377.got - 2010.06.03 11:33:40.
