data_PCOD9037438
_publ_section_title
;
Structure prediction by ZEFSAII (Michael W. Deem and Ramdas Pophale) SiO2 
 PCOD9037438
Probable space group: P -1
;
_chemical_formula_sum "Si O2"
_cell_formula_units_Z 14
_cell_length_a 11.126743
_cell_length_b 8.787902
_cell_length_c 21.011600
_cell_angle_alpha 140.639321
_cell_angle_beta 25.265170
_cell_angle_gamma 139.681845
_cell_volume 540.726077
_symmetry_space_group_name_H-M "P -1"
_symmetry_group_IT_number 2
_symmetry_cell_setting 'triclinic'
loop_
_space_group_symop_operation_xyz
x,y,z
-x,-y,-z
loop_
_atom_site_type_symbol
_atom_site_label
_atom_site_fract_x
_atom_site_fract_y
_atom_site_fract_z
Si Si1 0.815723 0.255834 0.692420
Si Si2 0.832790 0.680880 0.102691
Si Si3 0.043408 0.289047 0.722129
Si Si4 0.137591 0.974085 0.691254
Si Si5 0.167549 0.456173 0.468872
Si Si6 0.652775 0.211838 0.195339
Si Si7 0.442906 0.321931 0.074676
O O1 0.052365 0.240291 0.627662
O O2 0.721029 0.511004 0.834108
O O3 0.957029 0.287420 0.565847
O O4 0.541300 0.028215 0.756745
O O5 0.591566 0.508284 0.119563
O O6 0.720721 0.845385 0.261539
O O7 0.079769 0.840234 0.989832
O O8 0.000000 0.500000 0.000000
O O9 0.206426 0.566035 0.752587
O O10 0.146462 0.106335 0.662164
O O11 0.701452 0.250054 0.890046
O O12 0.799076 0.895261 0.849196
O O13 0.243198 0.724297 0.552958
O O14 0.437116 0.330053 0.292616
O O15 0.000000 0.500000 0.500000
#
# Coordination Sequence:
#
# PCOD9037438 Si02
#       7
#     2   2   2   2   2   2   2
#     4  11  25  42  68  96 136 181 223 277 342 397
#     4  11  23  41  71 106 134 177 226 273 338 391
#     4  11  23  39  66 104 133 178 221 276 346 393
#     4  11  23  42  72 100 136 178 230 278 330 401
#     4  11  27  47  71  98 132 184 232 276 342 403
#     4  11  25  45  69  98 145 174 224 284 329 402
#     4  10  23  40  67 101 141 176 226 276 333 398
#
# _framework density 25.891114000000002
#
# number of rings (size 3 to 8) (size 9 to 14) (size 15 to 20)
#    0.000    1.143    2.857    3.000    6.000    6.857 
#    0.000    2.857    0.000    0.000    0.000    0.000 
#    0.000    0.000    0.000    0.000    0.000    0.000 
#
# Total GULP energy -78545.321195 kJ/mol
# GULP energy per Si atom -5610.380085 kJ/mol
# Density = 2.583218 g / cm^3
# Si number density = 25.891114 Si / 1000 Ang^3
#
#
#
# Elastic Constant Matrix: (Units=GPa)
#
#
# Indices 1 2 3 4 5 6 
#
# 1 113.6696 42.5975 24.5383 -19.8257 25.8896 -4.0949
# 2 42.5975 130.0105 19.4963 -13.5464 23.9813 -12.9508
# 3 24.5383 19.4963 81.8039 -5.5415 5.9284 2.3840
# 4 -19.8257 -13.5464 -5.5415 54.2026 0.0233 -0.2928
# 5 25.8896 23.9813 5.9284 0.0233 31.8493 -6.5954
# 6 -4.0949 -12.9508 2.3840 -0.2928 -6.5954 31.1700
#
#
#
# Elastic Compliance Matrix: (Units=1/GPa)
#
#
# Indices 1 2 3 4 5 6 
#
# 1 0.012624 -0.001855 -0.002440 0.003905 -0.008559 -0.000700
# 2 -0.001855 0.009915 -0.001410 0.001674 -0.005092 0.002922
# 3 -0.002440 -0.001410 0.013342 0.000109 0.000170 -0.001890
# 4 0.003905 0.001674 0.000109 0.020311 -0.004373 0.000466
# 5 -0.008559 -0.005092 0.000170 -0.004373 0.043380 0.005885
# 6 -0.000700 0.002922 -0.001890 0.000466 0.005885 0.034598
#
#
# Mechanical properties :
#
#
# Convention : Reuss Voigt Hill
#
# Bulk Modulus (GPa) = 40.85888 55.41646 48.13767
# Shear Modulus (GPa) = 32.52293 39.36784 35.94538
#
# Velocity S-wave (km/s) = 3.54806 3.90361 3.73007
# Velocity P-wave (km/s) = 5.70966 6.46279 6.09786
#
# Compressibility (1/GPa) = 0.02447449
#
# Stress axis : x y z
#
# Youngs Moduli (GPa) = 79.21180 100.85263 74.94960
#
# Poissons Ratio (x) = 0.18703 0.18285
# Poissons Ratio (y) = 0.14690 0.10565
# Poissons Ratio (z) = 0.19325 0.14216
#
# Static dielectric constant tensor:
#      x y z
#    x 2.021420 -0.006040 -0.005220 
#    y -0.006040 2.044480 -0.022190 
#    z -0.005220 -0.022190 2.053430 
# 
# From -- ./inp_files/593809.got.cif
#   From: 2010.05.17/outbox.cif.g08.bks.cpg/sg2_297_cif.got.tgz:593809.got - 2010.06.03 11:33:40.
