data_PCOD9037058
_publ_section_title
;
Structure prediction by ZEFSAII (Michael W. Deem and Ramdas Pophale) SiO2 
 PCOD9037058
Probable space group: P -1
;
_chemical_formula_sum "Si O2"
_cell_formula_units_Z 10
_cell_length_a 5.021102
_cell_length_b 14.642544
_cell_length_c 8.449142
_cell_angle_alpha 41.805693
_cell_angle_beta 112.619835
_cell_angle_gamma 90.532015
_cell_volume 341.190397
_symmetry_space_group_name_H-M "P -1"
_symmetry_group_IT_number 2
_symmetry_cell_setting 'triclinic'
loop_
_space_group_symop_operation_xyz
x,y,z
-x,-y,-z
loop_
_atom_site_type_symbol
_atom_site_label
_atom_site_fract_x
_atom_site_fract_y
_atom_site_fract_z
Si Si1 0.584375 0.417445 0.899259
Si Si2 0.828471 0.916189 0.287058
Si Si3 0.872314 0.343435 0.719230
Si Si4 0.497064 0.724696 0.519215
Si Si5 0.559892 0.115670 0.249942
O O1 0.806907 0.382252 0.838363
O O2 0.226864 0.518806 0.608470
O O3 0.615208 0.550983 0.832923
O O4 0.604236 0.254972 0.161663
O O5 0.776232 0.775269 0.529718
O O6 0.158076 0.850187 0.350384
O O7 0.817110 0.023073 0.292749
O O8 0.500000 0.000000 0.000000
O O9 0.608230 0.287659 0.669447
O O10 0.224197 0.207858 0.959456
O O11 0.500000 0.000000 0.500000
#
# Coordination Sequence:
#
# PCOD9037058 Si02
#       5
#     2   2   2   2   2
#     4   9  21  40  68  96 121 181 226 272 315 403
#     4  12  23  41  66 102 133 168 225 281 330 378
#     4   9  20  38  71  93 124 170 236 261 324 387
#     4  10  23  39  71  96 126 170 231 279 315 384
#     4  12  26  40  63  99 140 173 210 277 345 399
#
# _framework density 29.309149000000001
#
# number of rings (size 3 to 8) (size 9 to 14) (size 15 to 20)
#    1.200    0.400    2.000    2.400    5.600    0.800 
#    0.000    2.000    0.000    0.000    0.000    0.000 
#    0.000    0.000    0.000    0.000    0.000    0.000 
#
# Total GULP energy -56037.177426 kJ/mol
# GULP energy per Si atom -5603.717743 kJ/mol
# Density = 2.924244 g / cm^3
# Si number density = 29.309149 Si / 1000 Ang^3
#
#
#
# Elastic Constant Matrix: (Units=GPa)
#
#
# Indices 1 2 3 4 5 6 
#
# 1 127.9255 23.7598 30.0596 -29.4032 -8.3723 0.0237
# 2 23.7598 138.0310 31.5727 -40.4252 -1.7837 3.8989
# 3 30.0596 31.5727 193.8068 -36.1979 -29.5215 -4.6447
# 4 -29.4032 -40.4252 -36.1979 54.6275 6.1899 0.8966
# 5 -8.3723 -1.7837 -29.5215 6.1899 52.6187 -7.8418
# 6 0.0237 3.8989 -4.6447 0.8966 -7.8418 53.5061
#
#
#
# Elastic Compliance Matrix: (Units=1/GPa)
#
#
# Indices 1 2 3 4 5 6 
#
# 1 0.008996 -0.000163 -0.000458 0.004344 0.000657 -0.000008
# 2 -0.000163 0.009333 -0.000405 0.006664 -0.000863 -0.000953
# 3 -0.000458 -0.000405 0.006445 0.003336 0.003288 0.001015
# 4 0.004344 0.006664 0.003336 0.027866 -0.000602 -0.000753
# 5 0.000657 -0.000863 0.003288 -0.000602 0.021519 0.003512
# 6 -0.000008 -0.000953 0.001015 -0.000753 0.003512 0.019374
#
#
# Mechanical properties :
#
#
# Convention : Reuss Voigt Hill
#
# Bulk Modulus (GPa) = 44.00691 70.06083 57.03387
# Shear Modulus (GPa) = 48.46908 57.10854 52.78881
#
# Velocity S-wave (km/s) = 4.07101 4.41896 4.24855
# Velocity P-wave (km/s) = 6.09465 7.07052 6.60064
#
# Compressibility (1/GPa) = 0.02272370
#
# Stress axis : x y z
#
# Youngs Moduli (GPa) = 111.15656 107.14877 155.16201
#
# Poissons Ratio (x) = 0.01745 0.07099
# Poissons Ratio (y) = 0.01811 0.06280
# Poissons Ratio (z) = 0.05086 0.04336
#
# Static dielectric constant tensor:
#      x y z
#    x 2.257980 0.076600 -0.069350 
#    y 0.076600 2.273650 -0.040760 
#    z -0.069350 -0.040760 2.512710 
# 
# From -- ./inp_files/30280.got.cif
#   From: 2010.05.17/outbox.cif.g08.bks.cpg/sg2_16_cif.got.tgz:30280.got - 2010.06.03 11:33:40.
