data_PCOD9037934
_publ_section_title
;
Structure prediction by ZEFSAII (Michael W. Deem and Ramdas Pophale) SiO2 
 PCOD9037934
Probable space group: P -1
;
_chemical_formula_sum "Si O2"
_cell_formula_units_Z 14
_cell_length_a 11.259414
_cell_length_b 11.304375
_cell_length_c 6.391706
_cell_angle_alpha 54.758419
_cell_angle_beta 108.089093
_cell_angle_gamma 118.531353
_cell_volume 583.057259
_symmetry_space_group_name_H-M "P -1"
_symmetry_group_IT_number 2
_symmetry_cell_setting 'triclinic'
loop_
_space_group_symop_operation_xyz
x,y,z
-x,-y,-z
loop_
_atom_site_type_symbol
_atom_site_label
_atom_site_fract_x
_atom_site_fract_y
_atom_site_fract_z
Si Si1 0.402797 0.073755 0.492512
Si Si2 0.799001 0.331010 0.465975
Si Si3 0.770742 0.883541 0.024999
Si Si4 0.772013 0.140151 0.014299
Si Si5 0.489510 0.322983 0.637825
Si Si6 0.091592 0.345321 0.549576
Si Si7 0.229551 0.587990 0.079753
O O1 0.467842 0.243849 0.475119
O O2 0.500000 0.000000 0.500000
O O3 0.331180 0.955819 0.765534
O O4 0.285993 0.082486 0.261801
O O5 0.846176 0.493367 0.451078
O O6 0.738316 0.368719 0.185608
O O7 0.932329 0.299362 0.508872
O O8 0.717594 0.187193 0.719578
O O9 0.633637 0.786190 0.176698
O O10 0.859595 0.779118 0.189437
O O11 0.843471 0.032462 0.065818
O O12 0.855801 0.310090 0.987385
O O13 0.500000 0.500000 0.500000
O O14 0.629246 0.335360 0.802675
O O15 0.157065 0.407886 0.293040
#
# Coordination Sequence:
#
# PCOD9037934 Si02
#       7
#     2   2   2   2   2   2   2
#     4  11  24  43  66  95 136 184 215 264 338 402
#     4  10  23  43  67  91 129 177 218 273 335 378
#     4  11  23  41  66  96 136 169 214 275 331 381
#     4  10  23  42  63  95 127 170 227 268 314 405
#     4  11  24  40  62 103 136 160 220 272 325 401
#     4  10  23  41  64  99 128 166 228 274 321 397
#     4  11  21  41  67  91 132 174 213 267 334 392
#
# _framework density 24.011364
#
# number of rings (size 3 to 8) (size 9 to 14) (size 15 to 20)
#    0.000    1.429    1.429    3.000    2.000    6.857 
#    0.000    3.571    0.000    0.000    0.000    0.000 
#    0.000    0.000    0.000    0.000    0.000    0.000 
#
# Total GULP energy -78088.725572 kJ/mol
# GULP energy per Si atom -5577.766112 kJ/mol
# Density = 2.395671 g / cm^3
# Si number density = 24.011364 Si / 1000 Ang^3
#
#
#
# Elastic Constant Matrix: (Units=GPa)
#
#
# Indices 1 2 3 4 5 6 
#
# 1 88.6810 14.6941 57.2897 1.9744 3.8950 -13.6412
# 2 14.6941 88.4871 56.8329 1.5420 1.5620 -21.8529
# 3 57.2897 56.8329 179.6142 0.5313 -10.4726 -22.2444
# 4 1.9744 1.5420 0.5313 38.4867 -1.5014 4.8266
# 5 3.8950 1.5620 -10.4726 -1.5014 42.2406 -4.8017
# 6 -13.6412 -21.8529 -22.2444 4.8266 -4.8017 24.4459
#
#
#
# Elastic Compliance Matrix: (Units=1/GPa)
#
#
# Indices 1 2 3 4 5 6 
#
# 1 0.015099 0.002126 -0.004889 -0.001599 -0.002082 0.005784
# 2 0.002126 0.017028 -0.004530 -0.002336 -0.000596 0.012630
# 3 -0.004889 -0.004530 0.008982 0.000182 0.003075 0.001964
# 4 -0.001599 -0.002336 0.000182 0.027187 0.000322 -0.008119
# 5 -0.002082 -0.000596 0.003075 0.000322 0.025346 0.006018
# 6 0.005784 0.012630 0.001964 -0.008119 0.006018 0.059997
#
#
# Mechanical properties :
#
#
# Convention : Reuss Voigt Hill
#
# Bulk Modulus (GPa) = 37.70251 68.26841 52.98546
# Shear Modulus (GPa) = 28.23810 36.23235 32.23522
#
# Velocity S-wave (km/s) = 3.43305 3.88876 3.66799
# Velocity P-wave (km/s) = 5.60807 6.97543 6.32879
#
# Compressibility (1/GPa) = 0.02652343
#
# Stress axis : x y z
#
# Youngs Moduli (GPa) = 66.22811 58.72784 111.33246
#
# Poissons Ratio (x) = -0.12484 0.54431
# Poissons Ratio (y) = -0.14078 0.50428
# Poissons Ratio (z) = 0.32380 0.26601
#
# Static dielectric constant tensor:
#      x y z
#    x 1.986950 -0.049770 -0.016960 
#    y -0.049770 2.017580 -0.023250 
#    z -0.016960 -0.023250 1.972990 
# 
# From -- ./inp_files/68231.got.cif
#   From: 2010.05.17/outbox.cif.g08.bks.cpg/sg2_35_cif.got.tgz:68231.got - 2010.06.03 11:33:40.
