data_PCOD9037162
_publ_section_title
;
Structure prediction by ZEFSAII (Michael W. Deem and Ramdas Pophale) SiO2 
 PCOD9037162
Probable space group: P -1
;
_chemical_formula_sum "Si O2"
_cell_formula_units_Z 16
_cell_length_a 9.797315
_cell_length_b 15.064720
_cell_length_c 11.639947
_cell_angle_alpha 102.354416
_cell_angle_beta 68.228377
_cell_angle_gamma 151.926080
_cell_volume 725.156831
_symmetry_space_group_name_H-M "P -1"
_symmetry_group_IT_number 2
_symmetry_cell_setting 'triclinic'
loop_
_space_group_symop_operation_xyz
x,y,z
-x,-y,-z
loop_
_atom_site_type_symbol
_atom_site_label
_atom_site_fract_x
_atom_site_fract_y
_atom_site_fract_z
Si Si1 0.852548 0.872534 0.119971
Si Si2 0.736935 0.238971 0.441542
Si Si3 0.203228 0.337650 0.393203
Si Si4 0.759567 0.348744 0.701679
Si Si5 0.079384 0.474473 0.866416
Si Si6 0.201569 0.121784 0.309120
Si Si7 0.857985 0.097769 0.632165
Si Si8 0.883652 0.709492 0.169722
O O1 0.504301 0.720173 0.209052
O O2 0.881660 0.779558 0.086386
O O3 0.053904 0.014408 0.204682
O O4 0.000000 0.000000 0.000000
O O5 0.655866 0.226767 0.594281
O O6 0.963016 0.274984 0.389687
O O7 0.932587 0.429442 0.378736
O O8 0.443961 0.058837 0.399521
O O9 0.135585 0.192857 0.362064
O O10 0.551885 0.546501 0.294921
O O11 0.129221 0.306361 0.543245
O O12 0.841603 0.346762 0.796841
O O13 0.421630 0.682315 0.762633
O O14 0.100493 0.386621 0.891522
O O15 0.000000 0.500000 0.000000
O O16 0.075357 0.973434 0.391721
O O17 0.842289 0.122091 0.775238
#
# Coordination Sequence:
#
# PCOD9037162 Si02
#       8
#     2   2   2   2   2   2   2   2
#     4  11  23  46  67  93 128 176 225 279 318 383
#     4  11  23  40  64  99 139 170 208 270 331 399
#     4  11  21  39  62  96 131 173 209 264 327 402
#     4  11  23  42  66  97 134 174 213 267 340 384
#     4  11  23  46  67  93 130 176 222 274 323 385
#     4  10  23  40  62  94 129 169 224 259 325 390
#     4  11  21  39  64  97 134 170 210 265 326 398
#     4  10  24  42  66  97 130 170 226 265 332 391
#
# _framework density 22.064191999999998
#
# number of rings (size 3 to 8) (size 9 to 14) (size 15 to 20)
#    0.000    1.250    2.500    3.375    0.000    3.000 
#    2.250    8.750    0.000    0.000    0.000    0.000 
#    0.000    0.000    0.000    0.000    0.000    0.000 
#
# Total GULP energy -89358.439101 kJ/mol
# GULP energy per Si atom -5584.902444 kJ/mol
# Density = 2.201397 g / cm^3
# Si number density = 22.064192 Si / 1000 Ang^3
#
#
#
# Elastic Constant Matrix: (Units=GPa)
#
#
# Indices 1 2 3 4 5 6 
#
# 1 93.7257 -24.2145 18.6746 -67.2809 18.4645 21.9292
# 2 -24.2145 14.6123 -19.8671 -63.3808 8.3937 27.1450
# 3 18.6746 -19.8671 48.0378 -41.7644 7.3810 15.8471
# 4 -67.2809 -63.3808 -41.7644 -74.0902 -9.5113 31.7705
# 5 18.4645 8.3937 7.3810 -9.5113 38.7234 -1.5317
# 6 21.9292 27.1450 15.8471 31.7705 -1.5317 33.9507
#
#
#
# Elastic Compliance Matrix: (Units=1/GPa)
#
#
# Indices 1 2 3 4 5 6 
#
# 1 0.010144 -0.002485 -0.006813 -0.002462 -0.003575 0.000757
# 2 -0.002485 0.017216 -0.000939 -0.011698 -0.005281 -0.001013
# 3 -0.006813 -0.000939 0.019796 -0.004122 -0.001346 -0.000293
# 4 -0.002462 -0.011698 -0.004122 0.004242 0.005900 0.009164
# 5 -0.003575 -0.005281 -0.001346 0.005900 0.030498 0.003014
# 6 0.000757 -0.001013 -0.000293 0.009164 0.003014 0.021472
#
#
# Mechanical properties :
#
#
# Convention : Reuss Voigt Hill
#
# Bulk Modulus (GPa) = 37.47573 11.72911 24.60242
# Shear Modulus (GPa) = 37.66858 11.83563 24.75211
#
# Velocity S-wave (km/s) = 4.13634 2.31858 3.35300
# Velocity P-wave (km/s) = 6.31143 3.53486 5.11514
#
# Compressibility (1/GPa) = 0.02668394
#
# Stress axis : x y z
#
# Youngs Moduli (GPa) = 98.57704 58.08532 50.51436
#
# Poissons Ratio (x) = 0.14435 0.34413
# Poissons Ratio (y) = 0.24498 0.04741
# Poissons Ratio (z) = 0.67157 0.05452
#
# Static dielectric constant tensor:
#      x y z
#    x 1.817080 -0.015320 -0.004410 
#    y -0.015320 1.803730 0.012050 
#    z -0.004410 0.012050 1.774280 
# 
# From -- ./inp_files/307910.got.cif
#   From: 2010.05.17/outbox.cif.g08.bks.cpg/sg2_154_cif.got.tgz:307910.got - 2010.06.03 11:33:40.
