data_PCOD9037116
_publ_section_title
;
Structure prediction by ZEFSAII (Michael W. Deem and Ramdas Pophale) SiO2 
 PCOD9037116
Probable space group: P -1
;
_chemical_formula_sum "Si O2"
_cell_formula_units_Z 16
_cell_length_a 13.793374
_cell_length_b 12.792485
_cell_length_c 5.382154
_cell_angle_alpha 92.318998
_cell_angle_beta 89.579727
_cell_angle_gamma 121.028899
_cell_volume 813.027922
_symmetry_space_group_name_H-M "P -1"
_symmetry_group_IT_number 2
_symmetry_cell_setting 'triclinic'
loop_
_space_group_symop_operation_xyz
x,y,z
-x,-y,-z
loop_
_atom_site_type_symbol
_atom_site_label
_atom_site_fract_x
_atom_site_fract_y
_atom_site_fract_z
Si Si1 0.822637 0.001430 0.525016
Si Si2 0.873598 0.384873 0.483445
Si Si3 0.136350 0.095376 0.989452
Si Si4 0.006067 0.265149 0.532066
Si Si5 0.852799 0.653631 0.969832
Si Si6 0.490822 0.866440 0.996948
Si Si7 0.583043 0.943416 0.502831
Si Si8 0.252974 0.617771 0.014489
O O1 0.819599 0.938769 0.259445
O O2 0.717815 0.025587 0.539669
O O3 0.948535 0.120692 0.544187
O O4 0.813125 0.924064 0.760332
O O5 0.899028 0.276957 0.468427
O O6 0.812041 0.381756 0.737010
O O7 0.000000 0.500000 0.500000
O O8 0.810175 0.386329 0.239087
O O9 0.168223 0.235227 0.983672
O O10 0.000000 0.000000 0.000000
O O11 0.061046 0.325607 0.801696
O O12 0.090844 0.322815 0.303385
O O13 0.752858 0.512388 0.981168
O O14 0.539075 0.856977 0.733258
O O15 0.561906 0.875844 0.236570
O O16 0.368780 0.747254 0.020813
O O17 0.500000 0.000000 0.000000
O O18 0.500000 0.000000 0.500000
#
# Coordination Sequence:
#
# PCOD9037116 Si02
#       8
#     2   2   2   2   2   2   2   2
#     4  12  24  40  67  94 130 170 201 269 323 353
#     4  12  23  37  57  91 133 166 205 241 315 406
#     4  12  23  41  64  95 132 169 212 254 307 378
#     4  12  23  35  60  93 130 169 201 252 311 389
#     4  12  23  40  59  90 130 169 212 245 309 383
#     4  10  23  40  61  86 117 158 210 260 307 368
#     4  10  23  43  62  93 123 158 212 268 316 373
#     4  12  24  40  60  86 127 175 202 260 319 365
#
# _framework density 19.67952
#
# number of rings (size 3 to 8) (size 9 to 14) (size 15 to 20)
#    0.000    0.500    5.000    3.750    7.000    0.000 
#    0.000    0.000    0.000    4.500    0.000    0.000 
#    0.000    0.000    0.000    0.000    0.000    0.000 
#
# Total GULP energy -89211.478944 kJ/mol
# GULP energy per Si atom -5575.717434 kJ/mol
# Density = 1.963473 g / cm^3
# Si number density = 19.679520 Si / 1000 Ang^3
#
#
#
# Elastic Constant Matrix: (Units=GPa)
#
#
# Indices 1 2 3 4 5 6 
#
# 1 63.6999 25.8322 17.4429 -9.2281 3.1758 12.0587
# 2 25.8322 133.2617 13.0462 -19.4017 1.7503 16.2022
# 3 17.4429 13.0462 148.0238 -26.3753 6.3026 12.6252
# 4 -9.2281 -19.4017 -26.3753 19.3329 1.0683 -1.9138
# 5 3.1758 1.7503 6.3026 1.0683 29.2671 2.1647
# 6 12.0587 16.2022 12.6252 -1.9138 2.1647 38.0626
#
#
#
# Elastic Compliance Matrix: (Units=1/GPa)
#
#
# Indices 1 2 3 4 5 6 
#
# 1 0.018436 -0.002162 -0.000554 0.005532 -0.001631 -0.004366
# 2 -0.002162 0.009744 0.001624 0.010671 -0.000835 -0.003418
# 3 -0.000554 0.001624 0.009564 0.014266 -0.002408 -0.002834
# 4 0.005532 0.010671 0.014266 0.084286 -0.006914 -0.006396
# 5 -0.001631 -0.000835 -0.002408 -0.006914 0.035216 -0.000680
# 6 -0.004366 -0.003418 -0.002834 -0.006396 -0.000680 0.029768
#
#
# Mechanical properties :
#
#
# Convention : Reuss Voigt Hill
#
# Bulk Modulus (GPa) = 28.12112 50.84756 39.48434
# Shear Modulus (GPa) = 24.86924 36.57679 30.72301
#
# Velocity S-wave (km/s) = 3.55873 4.31585 3.95545
# Velocity P-wave (km/s) = 5.58629 7.12245 6.40062
#
# Compressibility (1/GPa) = 0.03556047
#
# Stress axis : x y z
#
# Youngs Moduli (GPa) = 54.24063 102.62601 104.55891
#
# Poissons Ratio (x) = 0.22186 0.05797
# Poissons Ratio (y) = 0.11726 -0.16984
# Poissons Ratio (z) = 0.03007 -0.16670
#
# Static dielectric constant tensor:
#      x y z
#    x 1.697430 -0.040810 0.005040 
#    y -0.040810 1.732770 -0.000410 
#    z 0.005040 -0.000410 1.698950 
# 
# From -- ./inp_files/70603.got.cif
#   From: 2010.05.17/outbox.cif.g08.bks.cpg/sg2_36_cif.got.tgz:70603.got - 2010.06.03 11:33:40.
