data_PCOD9037923
_publ_section_title
;
Structure prediction by ZEFSAII (Michael W. Deem and Ramdas Pophale) SiO2 
 PCOD9037923
Probable space group: P -1
;
_chemical_formula_sum "Si O2"
_cell_formula_units_Z 16
_cell_length_a 10.502567
_cell_length_b 20.198078
_cell_length_c 8.048844
_cell_angle_alpha 53.674401
_cell_angle_beta 32.727002
_cell_angle_gamma 48.841397
_cell_volume 691.837786
_symmetry_space_group_name_H-M "P -1"
_symmetry_group_IT_number 2
_symmetry_cell_setting 'triclinic'
loop_
_space_group_symop_operation_xyz
x,y,z
-x,-y,-z
loop_
_atom_site_type_symbol
_atom_site_label
_atom_site_fract_x
_atom_site_fract_y
_atom_site_fract_z
Si Si1 0.097271 0.889587 0.383994
Si Si2 0.160808 0.905483 0.676379
Si Si3 0.568025 0.748567 0.925810
Si Si4 0.316813 0.465923 0.357683
Si Si5 0.190705 0.430889 0.207802
Si Si6 0.875100 0.750061 0.903700
Si Si7 0.339196 0.579568 0.675613
Si Si8 0.265936 0.183176 0.684509
O O1 0.209754 0.889565 0.446715
O O2 0.891847 0.844773 0.704301
O O3 0.299836 0.826739 0.126922
O O4 0.975568 0.989429 0.308370
O O5 0.434719 0.872450 0.516472
O O6 0.948190 0.862559 0.018685
O O7 0.594174 0.650097 0.992166
O O8 0.689089 0.737879 0.990382
O O9 0.723186 0.774125 0.570089
O O10 0.218744 0.419225 0.391203
O O11 0.467795 0.404637 0.429496
O O12 0.098548 0.552907 0.542058
O O13 0.500000 0.500000 0.000000
O O14 0.191466 0.526144 0.014440
O O15 0.142735 0.671440 0.694776
O O16 0.816895 0.752593 0.159349
O O17 0.500000 0.500000 0.500000
#
# Coordination Sequence:
#
# PCOD9037923 Si02
#       8
#     2   2   2   2   2   2   2   2
#     4  10  24  45  76 100 144 186 233 303 356 441
#     4  10  24  50  77 106 147 191 238 289 384 433
#     4  12  26  43  69 105 142 181 246 298 356 425
#     4   9  21  40  63  89 127 184 228 282 343 413
#     4  10  23  41  64  97 133 183 231 287 350 416
#     4  11  26  45  66 105 141 183 243 301 358 422
#     4  11  23  42  66  95 136 187 233 286 356 423
#     4  11  27  46  75 110 143 191 237 302 363 438
#
# _framework density 23.126809999999999
#
# number of rings (size 3 to 8) (size 9 to 14) (size 15 to 20)
#    0.000    1.500    1.250    1.500    8.750    8.500 
#    0.000    0.000    0.000    0.000    0.000    0.000 
#    0.000    0.000    0.000    0.000    0.000    0.000 
#
# Total GULP energy -89261.221565 kJ/mol
# GULP energy per Si atom -5578.826348 kJ/mol
# Density = 2.307417 g / cm^3
# Si number density = 23.126810 Si / 1000 Ang^3
#
#
#
# Elastic Constant Matrix: (Units=GPa)
#
#
# Indices 1 2 3 4 5 6 
#
# 1 52.7309 27.3133 15.1476 4.9163 -10.4467 -1.5667
# 2 27.3133 101.5904 38.4279 0.4673 -4.2299 5.6883
# 3 15.1476 38.4279 113.1575 3.9834 7.9238 2.1159
# 4 4.9163 0.4673 3.9834 41.2603 -3.2683 1.7567
# 5 -10.4467 -4.2299 7.9238 -3.2683 29.6347 11.5285
# 6 -1.5667 5.6883 2.1159 1.7567 11.5285 26.8052
#
#
#
# Elastic Compliance Matrix: (Units=1/GPa)
#
#
# Indices 1 2 3 4 5 6 
#
# 1 0.024094 -0.005359 -0.001905 -0.001935 0.008318 -0.000755
# 2 -0.005359 0.013089 -0.003887 0.001254 0.002728 -0.004039
# 3 -0.001905 -0.003887 0.010772 -0.001261 -0.005074 0.002128
# 4 -0.001935 0.001254 -0.001261 0.025048 0.004016 -0.003648
# 5 0.008318 0.002728 -0.005074 0.004016 0.046654 -0.020021
# 6 -0.000755 -0.004039 0.002128 -0.003648 -0.020021 0.046801
#
#
# Mechanical properties :
#
#
# Convention : Reuss Voigt Hill
#
# Bulk Modulus (GPa) = 38.98546 47.69517 43.34031
# Shear Modulus (GPa) = 25.34066 31.97936 28.66001
#
# Velocity S-wave (km/s) = 3.31377 3.72261 3.52412
# Velocity P-wave (km/s) = 5.61563 6.25661 5.94477
#
# Compressibility (1/GPa) = 0.02565059
#
# Stress axis : x y z
#
# Youngs Moduli (GPa) = 41.50480 76.40177 92.83121
#
# Poissons Ratio (x) = 0.40947 0.17688
# Poissons Ratio (y) = 0.22244 0.36084
# Poissons Ratio (z) = 0.07908 0.29698
#
# Static dielectric constant tensor:
#      x y z
#    x 2.008730 0.009100 -0.143270 
#    y 0.009100 1.854870 -0.006740 
#    z -0.143270 -0.006740 2.109910 
# 
# From -- ./inp_files/47343.got.cif
#   From: 2010.05.17/outbox.cif.g08.bks.cpg/sg2_24_cif.got.tgz:47343.got - 2010.06.03 11:33:40.
