data_PCOD9037860
_publ_section_title
;
Structure prediction by ZEFSAII (Michael W. Deem and Ramdas Pophale) SiO2 
 PCOD9037860
Probable space group: P -1
;
_chemical_formula_sum "Si O2"
_cell_formula_units_Z 14
_cell_length_a 12.370234
_cell_length_b 15.484165
_cell_length_c 4.985609
_cell_angle_alpha 96.175715
_cell_angle_beta 99.628742
_cell_angle_gamma 33.979816
_cell_volume 525.367377
_symmetry_space_group_name_H-M "P -1"
_symmetry_group_IT_number 2
_symmetry_cell_setting 'triclinic'
loop_
_space_group_symop_operation_xyz
x,y,z
-x,-y,-z
loop_
_atom_site_type_symbol
_atom_site_label
_atom_site_fract_x
_atom_site_fract_y
_atom_site_fract_z
Si Si1 0.902719 0.377751 0.241991
Si Si2 0.696921 0.878153 0.362346
Si Si3 0.899648 0.987982 0.616538
Si Si4 0.916428 0.198453 0.844854
Si Si5 0.719648 0.671263 0.257325
Si Si6 0.475536 0.834600 0.734821
Si Si7 0.501489 0.434811 0.728478
O O1 0.891427 0.313438 0.979565
O O2 0.888564 0.490867 0.223342
O O3 0.689945 0.499592 0.337879
O O4 0.113670 0.228764 0.415055
O O5 0.743354 0.755786 0.200997
O O6 0.500000 0.000000 0.500000
O O7 0.636846 0.000494 0.200732
O O8 0.681031 0.120590 0.469495
O O9 0.000000 0.000000 0.500000
O O10 0.937854 0.942303 0.927158
O O11 0.020686 0.834978 0.447336
O O12 0.727086 0.258290 0.791131
O O13 0.651796 0.724504 0.555808
O O14 0.548536 0.749669 0.015890
O O15 0.500000 0.500000 0.500000
O O16 0.500000 0.500000 0.000000
#
# Coordination Sequence:
#
# PCOD9037860 Si02
#       7
#     2   2   2   2   2   2   2
#     4  11  24  46  76 108 148 191 237 301 368 426
#     4  10  23  49  75 105 143 192 248 300 361 428
#     4  12  26  42  74 102 146 186 245 287 355 433
#     4  11  24  45  69 107 142 190 235 293 356 432
#     4  11  26  46  72 107 142 187 246 301 355 428
#     4  11  25  47  72 103 145 193 237 299 363 425
#     4  10  23  41  64 101 142 182 227 281 349 428
#
# _framework density 26.648019000000001
#
# number of rings (size 3 to 8) (size 9 to 14) (size 15 to 20)
#    0.000    1.143    1.429    3.857    6.000    3.429 
#    0.000    3.571    0.000    0.000    0.000    0.000 
#    0.000    0.000    0.000    0.000    0.000    0.000 
#
# Total GULP energy -78215.843891 kJ/mol
# GULP energy per Si atom -5586.845992 kJ/mol
# Density = 2.658737 g / cm^3
# Si number density = 26.648019 Si / 1000 Ang^3
#
#
#
# Elastic Constant Matrix: (Units=GPa)
#
#
# Indices 1 2 3 4 5 6 
#
# 1 93.3540 43.0687 21.2956 -10.7610 19.9656 7.4488
# 2 43.0687 108.7895 23.9697 -18.8996 8.6118 8.1505
# 3 21.2956 23.9697 115.2305 -18.6487 -1.4810 -15.8152
# 4 -10.7610 -18.8996 -18.6487 43.9592 -2.0309 14.4836
# 5 19.9656 8.6118 -1.4810 -2.0309 39.3537 -6.5133
# 6 7.4488 8.1505 -15.8152 14.4836 -6.5133 59.4013
#
#
#
# Elastic Compliance Matrix: (Units=1/GPa)
#
#
# Indices 1 2 3 4 5 6 
#
# 1 0.015247 -0.004491 -0.002142 0.001560 -0.007256 -0.003042
# 2 -0.004491 0.012298 -0.001381 0.004444 -0.000674 -0.002650
# 3 -0.002142 -0.001381 0.010165 0.002365 0.002365 0.002847
# 4 0.001560 0.004444 0.002365 0.028367 -0.001410 -0.007247
# 5 -0.007256 -0.000674 0.002365 -0.001410 0.030129 0.005280
# 6 -0.003042 -0.002650 0.002847 -0.007247 0.005280 0.020684
#
#
# Mechanical properties :
#
#
# Convention : Reuss Voigt Hill
#
# Bulk Modulus (GPa) = 46.12080 54.89353 50.50716
# Shear Modulus (GPa) = 35.67719 43.81216 39.74468
#
# Velocity S-wave (km/s) = 3.66297 4.05916 3.86614
# Velocity P-wave (km/s) = 5.93589 6.52788 6.23891
#
# Compressibility (1/GPa) = 0.02168219
#
# Stress axis : x y z
#
# Youngs Moduli (GPa) = 65.58778 81.31292 98.37275
#
# Poissons Ratio (x) = 0.36516 0.21070
# Poissons Ratio (y) = 0.29454 0.13589
# Poissons Ratio (z) = 0.14048 0.11232
#
# Static dielectric constant tensor:
#      x y z
#    x 2.175460 0.029010 0.067030 
#    y 0.029010 2.408730 0.102280 
#    z 0.067030 0.102280 2.028790 
# 
# From -- ./inp_files/99832.got.cif
#   From: 2010.05.17/outbox.cif.g08.bks.cpg/sg2_50_cif.got.tgz:99832.got - 2010.06.03 11:33:40.
