data_PCOD9037945
_publ_section_title
;
Structure prediction by ZEFSAII (Michael W. Deem and Ramdas Pophale) SiO2 
 PCOD9037945
Probable space group: P -1
;
_chemical_formula_sum "Si O2"
_cell_formula_units_Z 14
_cell_length_a 7.832549
_cell_length_b 10.371390
_cell_length_c 9.228154
_cell_angle_alpha 42.821755
_cell_angle_beta 90.000418
_cell_angle_gamma 87.410379
_cell_volume 508.420508
_symmetry_space_group_name_H-M "P -1"
_symmetry_group_IT_number 2
_symmetry_cell_setting 'triclinic'
loop_
_space_group_symop_operation_xyz
x,y,z
-x,-y,-z
loop_
_atom_site_type_symbol
_atom_site_label
_atom_site_fract_x
_atom_site_fract_y
_atom_site_fract_z
Si Si1 0.165464 0.511849 0.173972
Si Si2 0.838234 0.933013 0.474421
Si Si3 0.439967 0.017549 0.153222
Si Si4 0.944842 0.033573 0.807751
Si Si5 0.607450 0.256674 0.198617
Si Si6 0.132058 0.527730 0.608086
Si Si7 0.500270 0.589037 0.625977
O O1 0.174208 0.288399 0.324662
O O2 0.311868 0.519963 0.293764
O O3 0.974112 0.562365 0.187404
O O4 0.227497 0.635147 0.941702
O O5 0.878635 0.996059 0.257960
O O6 0.678219 0.057076 0.433016
O O7 0.000000 0.000000 0.500000
O O8 0.513321 0.181882 0.118168
O O9 0.235189 0.059293 0.128827
O O10 0.497812 0.804138 0.388151
O O11 0.500000 0.000000 0.000000
O O12 0.886210 0.244051 0.575174
O O13 0.000000 0.000000 0.000000
O O14 0.524434 0.382808 0.223478
O O15 0.336971 0.485917 0.648291
O O16 0.000000 0.500000 0.500000
#
# Coordination Sequence:
#
# PCOD9037945 Si02
#       7
#     2   2   2   2   2   2   2
#     4  11  26  45  72 105 141 182 242 284 356 420
#     4  11  24  44  72  99 139 184 228 293 347 412
#     4  11  24  42  72 102 137 187 237 283 353 426
#     4  10  23  41  65 101 133 177 234 279 349 421
#     4  12  25  46  74 102 140 188 230 292 352 416
#     4  10  25  44  68 101 143 182 229 296 351 414
#     4  11  25  48  69 102 145 181 240 292 346 423
#
# _framework density 27.536261
#
# number of rings (size 3 to 8) (size 9 to 14) (size 15 to 20)
#    0.000    1.143    1.429    4.286   10.000    4.000 
#    0.000    0.000    0.000    0.000    0.000    0.000 
#    0.000    0.000    0.000    0.000    0.000    0.000 
#
# Total GULP energy -78354.137064 kJ/mol
# GULP energy per Si atom -5596.724076 kJ/mol
# Density = 2.747359 g / cm^3
# Si number density = 27.536261 Si / 1000 Ang^3
#
#
#
# Elastic Constant Matrix: (Units=GPa)
#
#
# Indices 1 2 3 4 5 6 
#
# 1 142.9456 38.4175 12.9169 -20.6126 -5.7332 30.3468
# 2 38.4175 106.1530 28.3748 10.9040 -19.0567 27.4484
# 3 12.9169 28.3748 136.4400 9.7818 -25.9863 5.3673
# 4 -20.6126 10.9040 9.7818 37.1428 5.6303 8.1556
# 5 -5.7332 -19.0567 -25.9863 5.6303 51.6000 -9.2086
# 6 30.3468 27.4484 5.3673 8.1556 -9.2086 53.3217
#
#
#
# Elastic Compliance Matrix: (Units=1/GPa)
#
#
# Indices 1 2 3 4 5 6 
#
# 1 0.010399 -0.003295 -0.001205 0.008757 -0.002677 -0.005902
# 2 -0.003295 0.012981 -0.001156 -0.005207 0.003837 -0.003231
# 3 -0.001205 -0.001156 0.008750 -0.003711 0.004564 0.001756
# 4 0.008757 -0.005207 -0.003711 0.037597 -0.008556 -0.009158
# 5 -0.002677 0.003837 0.004564 -0.008556 0.024559 0.004639
# 6 -0.005902 -0.003231 0.001756 -0.009158 0.004639 0.025802
#
#
# Mechanical properties :
#
#
# Convention : Reuss Voigt Hill
#
# Bulk Modulus (GPa) = 48.03727 60.55078 54.29402
# Shear Modulus (GPa) = 36.14291 48.80153 42.47222
#
# Velocity S-wave (km/s) = 3.62685 4.21439 3.93161
# Velocity P-wave (km/s) = 5.91792 6.76156 6.35376
#
# Compressibility (1/GPa) = 0.02081717
#
# Stress axis : x y z
#
# Youngs Moduli (GPa) = 96.16675 77.03331 114.28605
#
# Poissons Ratio (x) = 0.25385 0.13768
# Poissons Ratio (y) = 0.31690 0.13216
# Poissons Ratio (z) = 0.11585 0.08908
#
# Static dielectric constant tensor:
#      x y z
#    x 2.261210 -0.029200 -0.051740 
#    y -0.029200 2.145650 0.060680 
#    z -0.051740 0.060680 2.206040 
# 
# From -- ./inp_files/184277.got.cif
#   From: 2010.05.17/outbox.cif.g08.bks.cpg/sg2_93_cif.got.tgz:184277.got - 2010.06.03 11:33:40.
