data_PCOD9037781
_publ_section_title
;
Structure prediction by ZEFSAII (Michael W. Deem and Ramdas Pophale) SiO2 
 PCOD9037781
Probable space group: P -1
;
_chemical_formula_sum "Si O2"
_cell_formula_units_Z 16
_cell_length_a 5.070224
_cell_length_b 9.712075
_cell_length_c 14.746293
_cell_angle_alpha 77.393416
_cell_angle_beta 89.639712
_cell_angle_gamma 110.556175
_cell_volume 660.778811
_symmetry_space_group_name_H-M "P -1"
_symmetry_group_IT_number 2
_symmetry_cell_setting 'triclinic'
loop_
_space_group_symop_operation_xyz
x,y,z
-x,-y,-z
loop_
_atom_site_type_symbol
_atom_site_label
_atom_site_fract_x
_atom_site_fract_y
_atom_site_fract_z
Si Si1 0.405503 0.539588 0.091123
Si Si2 0.794473 0.387261 0.192654
Si Si3 0.344059 0.289644 0.481681
Si Si4 0.157875 0.525857 0.344231
Si Si5 0.524799 0.044403 0.253454
Si Si6 0.039089 0.218396 0.666558
Si Si7 0.594247 0.780854 0.181792
Si Si8 0.737221 0.135845 0.430342
O O1 0.583356 0.477374 0.170224
O O2 0.518805 0.718776 0.089545
O O3 0.069278 0.456675 0.117529
O O4 0.500000 0.500000 0.000000
O O5 0.591512 0.215227 0.195446
O O6 0.944027 0.413328 0.287695
O O7 0.313917 0.443674 0.420347
O O8 0.299407 0.240656 0.594544
O O9 0.615681 0.266470 0.442536
O O10 0.050312 0.172958 0.459266
O O11 0.361489 0.651884 0.258735
O O12 0.026725 0.632928 0.382172
O O13 0.730561 0.086395 0.333485
O O14 0.585875 0.941380 0.190436
O O15 0.224170 0.939712 0.312957
O O16 0.122863 0.224595 0.771431
O O17 0.500000 0.000000 0.500000
#
# Coordination Sequence:
#
# PCOD9037781 Si02
#       8
#     2   2   2   2   2   2   2   2
#     4  11  25  50  78 103 134 170 216 274 343 420
#     4  11  24  44  74 105 132 175 224 272 333 408
#     4  12  26  38  65  91 135 186 243 282 322 381
#     4  10  23  41  62  98 133 181 236 281 328 394
#     4  11  25  40  68  96 138 180 226 276 331 396
#     4  11  23  41  63  93 142 184 227 285 339 378
#     4  10  24  43  67  98 135 180 220 278 344 400
#     4  12  25  42  59  93 134 188 235 281 329 380
#
# _framework density 24.213849
#
# number of rings (size 3 to 8) (size 9 to 14) (size 15 to 20)
#    0.000    1.000    3.750    1.875   10.500    0.500 
#    0.000    1.250    0.000    0.000    0.000    0.000 
#    0.000    0.000    0.000    0.000    0.000    0.000 
#
# Total GULP energy -89309.208911 kJ/mol
# GULP energy per Si atom -5581.825557 kJ/mol
# Density = 2.415874 g / cm^3
# Si number density = 24.213849 Si / 1000 Ang^3
#
#
#
# Elastic Constant Matrix: (Units=GPa)
#
#
# Indices 1 2 3 4 5 6 
#
# 1 59.6899 44.5938 16.7185 5.9742 -6.0517 -12.7047
# 2 44.5938 154.7655 10.8572 12.3319 -3.4665 10.5121
# 3 16.7185 10.8572 41.5022 28.1913 -9.0449 3.4045
# 4 5.9742 12.3319 28.1913 35.3535 -3.4993 4.4899
# 5 -6.0517 -3.4665 -9.0449 -3.4993 26.6335 4.3114
# 6 -12.7047 10.5121 3.4045 4.4899 4.3114 48.5514
#
#
#
# Elastic Compliance Matrix: (Units=1/GPa)
#
#
# Indices 1 2 3 4 5 6 
#
# 1 0.029235 -0.008733 -0.018059 0.011182 -0.000750 0.009840
# 2 -0.008733 0.009347 0.005279 -0.005351 0.001014 -0.004274
# 3 -0.018059 0.005279 0.068252 -0.050889 0.014244 -0.007213
# 4 0.011182 -0.005351 -0.050889 0.067914 -0.006835 0.001980
# 5 -0.000750 0.001014 0.014244 -0.006835 0.042181 -0.004528
# 6 0.009840 -0.004274 -0.007213 0.001980 -0.004528 0.024822
#
#
# Mechanical properties :
#
#
# Convention : Reuss Voigt Hill
#
# Bulk Modulus (GPa) = 15.67177 44.47741 30.07459
# Shear Modulus (GPa) = 16.33748 34.36021 25.34885
#
# Velocity S-wave (km/s) = 2.60035 3.77109 3.23905
# Velocity P-wave (km/s) = 3.93726 6.11310 5.14159
#
# Compressibility (1/GPa) = 0.06380899
#
# Stress axis : x y z
#
# Youngs Moduli (GPa) = 34.20601 106.98931 14.65151
#
# Poissons Ratio (x) = 0.93433 0.26459
# Poissons Ratio (y) = 0.29872 -0.07735
# Poissons Ratio (z) = 0.61771 -0.56482
#
# Static dielectric constant tensor:
#      x y z
#    x 1.964210 -0.029410 0.021020 
#    y -0.029410 2.110530 0.041510 
#    z 0.021020 0.041510 1.964430 
# 
# From -- ./inp_files/39760.got.cif
#   From: 2010.05.17/outbox.cif.g08.bks.cpg/sg2_20_cif.got.tgz:39760.got - 2010.06.03 11:33:40.
