data_PCOD9037320
_publ_section_title
;
Structure prediction by ZEFSAII (Michael W. Deem and Ramdas Pophale) SiO2 
 PCOD9037320
Probable space group: P -1
;
_chemical_formula_sum "Si O2"
_cell_formula_units_Z 16
_cell_length_a 11.381875
_cell_length_b 13.320083
_cell_length_c 15.128206
_cell_angle_alpha 138.627019
_cell_angle_beta 138.159789
_cell_angle_gamma 31.007384
_cell_volume 745.199767
_symmetry_space_group_name_H-M "P -1"
_symmetry_group_IT_number 2
_symmetry_cell_setting 'triclinic'
loop_
_space_group_symop_operation_xyz
x,y,z
-x,-y,-z
loop_
_atom_site_type_symbol
_atom_site_label
_atom_site_fract_x
_atom_site_fract_y
_atom_site_fract_z
Si Si1 0.765026 0.652689 0.028503
Si Si2 0.216003 0.793317 0.536697
Si Si3 0.727531 0.132013 0.183996
Si Si4 0.442387 0.247258 0.426188
Si Si5 0.195017 0.693336 0.081539
Si Si6 0.045867 0.604602 0.776944
Si Si7 0.159139 0.225272 0.672847
Si Si8 0.314586 0.515681 0.699898
O O1 0.519387 0.807866 0.939570
O O2 0.765315 0.494877 0.977790
O O3 0.786824 0.771085 0.191811
O O4 0.000000 0.500000 0.000000
O O5 0.262041 0.842368 0.689115
O O6 0.437469 0.695463 0.531651
O O7 0.105271 0.691852 0.423855
O O8 0.000000 0.000000 0.500000
O O9 0.718133 0.298566 0.237705
O O10 0.963804 0.905884 0.135847
O O11 0.337932 0.388028 0.547092
O O12 0.232858 0.269155 0.279606
O O13 0.654517 0.007128 0.410834
O O14 0.439513 0.636286 0.205380
O O15 0.139997 0.688372 0.945218
O O16 0.171689 0.374226 0.724810
O O17 0.102548 0.604884 0.707552
#
# Coordination Sequence:
#
# PCOD9037320 Si02
#       8
#     2   2   2   2   2   2   2   2
#     4  10  24  38  63  97 134 163 210 255 313 387
#     4  10  23  40  65  92 128 164 211 254 316 389
#     4  11  24  42  67  96 129 171 210 257 326 375
#     4  11  24  40  63  91 127 165 212 261 320 375
#     4  10  23  42  64  93 128 170 209 261 320 373
#     4  11  24  42  64  93 126 166 219 262 314 371
#     4  10  23  42  62  94 129 167 206 264 320 376
#     4  11  25  42  64  95 124 167 222 264 306 379
#
# _framework density 21.470752000000001
#
# number of rings (size 3 to 8) (size 9 to 14) (size 15 to 20)
#    0.000    1.500    0.000    3.750   10.500    3.500 
#    0.000    0.000    0.000    0.000    0.000    0.000 
#    0.000    0.000    0.000    0.000    0.000    0.000 
#
# Total GULP energy -89445.335129 kJ/mol
# GULP energy per Si atom -5590.333446 kJ/mol
# Density = 2.142188 g / cm^3
# Si number density = 21.470752 Si / 1000 Ang^3
#
#
#
# Elastic Constant Matrix: (Units=GPa)
#
#
# Indices 1 2 3 4 5 6 
#
# 1 11.3097 35.4892 -13.5322 96.8656 -46.0054 3.0139
# 2 35.4892 52.7351 46.3300 -84.1744 23.2043 -11.5571
# 3 -13.5322 46.3300 80.1525 41.5549 -34.2100 -0.3555
# 4 96.8656 -84.1744 41.5549 -141.3968 38.7171 -11.1774
# 5 -46.0054 23.2043 -34.2100 38.7171 17.9546 0.0625
# 6 3.0139 -11.5571 -0.3555 -11.1774 0.0625 22.6298
#
#
#
# Elastic Compliance Matrix: (Units=1/GPa)
#
#
# Indices 1 2 3 4 5 6 
#
# 1 0.017558 0.004169 -0.000599 0.012222 0.012084 0.005785
# 2 0.004169 0.011401 -0.003076 -0.004888 0.000617 0.002803
# 3 -0.000599 -0.003076 0.014633 0.008668 0.011622 0.002988
# 4 0.012222 -0.004888 0.008668 0.013442 0.025155 0.002582
# 5 0.012084 0.000617 0.011622 0.025155 0.053724 0.011164
# 6 0.005785 0.002803 0.002988 0.002582 0.011164 0.046142
#
#
# Mechanical properties :
#
#
# Convention : Reuss Voigt Hill
#
# Bulk Modulus (GPa) = 22.43185 31.19679 26.81432
# Shear Modulus (GPa) = 29.27909 -15.10178 7.08866
#
# Velocity S-wave (km/s) = 3.69680 -2.65498 1.81899
# Velocity P-wave (km/s) = 5.35650 2.27220 4.11430
#
# Compressibility (1/GPa) = 0.04457947
#
# Stress axis : x y z
#
# Youngs Moduli (GPa) = 56.95548 87.71248 68.33846
#
# Poissons Ratio (x) = -0.36567 0.04090
# Poissons Ratio (y) = -0.23744 0.21024
# Poissons Ratio (z) = 0.03409 0.26984
#
# Static dielectric constant tensor:
#      x y z
#    x 1.772510 0.023600 0.028370 
#    y 0.023600 1.781640 -0.020490 
#    z 0.028370 -0.020490 1.785820 
# 
# From -- ./inp_files/521792.got.cif
#   From: 2010.05.17/outbox.cif.g08.bks.cpg/sg2_261_cif.got.tgz:521792.got - 2010.06.03 11:33:40.
