data_PCOD9037511
_publ_section_title
;
Structure prediction by ZEFSAII (Michael W. Deem and Ramdas Pophale) SiO2 
 PCOD9037511
Probable space group: P -1
;
_chemical_formula_sum "Si O2"
_cell_formula_units_Z 16
_cell_length_a 12.953041
_cell_length_b 9.334040
_cell_length_c 7.379189
_cell_angle_alpha 50.518080
_cell_angle_beta 87.904571
_cell_angle_gamma 101.848236
_cell_volume 657.233362
_symmetry_space_group_name_H-M "P -1"
_symmetry_group_IT_number 2
_symmetry_cell_setting 'triclinic'
loop_
_space_group_symop_operation_xyz
x,y,z
-x,-y,-z
loop_
_atom_site_type_symbol
_atom_site_label
_atom_site_fract_x
_atom_site_fract_y
_atom_site_fract_z
Si Si1 0.767192 0.189851 0.639319
Si Si2 0.681913 0.490079 0.972044
Si Si3 0.043629 0.007207 0.779712
Si Si4 0.456113 0.830555 0.496697
Si Si5 0.178299 0.173584 0.104104
Si Si6 0.824129 0.605341 0.411849
Si Si7 0.882525 0.329210 0.131115
Si Si8 0.404004 0.387676 0.470592
O O1 0.639076 0.149936 0.644708
O O2 0.815066 0.380466 0.605353
O O3 0.831613 0.243208 0.399995
O O4 0.784384 0.991814 0.867138
O O5 0.731931 0.711779 0.855867
O O6 0.609525 0.491489 0.802187
O O7 0.606836 0.364219 0.232770
O O8 0.786423 0.413999 0.996163
O O9 0.105398 0.851078 0.847892
O O10 0.936861 0.942470 0.716145
O O11 0.105369 0.236656 0.581318
O O12 0.000000 0.000000 0.000000
O O13 0.563599 0.803398 0.424342
O O14 0.500000 0.000000 0.500000
O O15 0.148902 0.331021 0.849629
O O16 0.707354 0.636457 0.405152
O O17 0.000000 0.500000 0.000000
O O18 0.500000 0.500000 0.500000
#
# Coordination Sequence:
#
# PCOD9037511 Si02
#       8
#     2   2   2   2   2   2   2   2
#     4  11  24  42  71  97 138 188 237 282 342 424
#     4  11  24  43  74 101 137 187 233 287 348 421
#     4  10  23  40  68 103 144 182 220 289 352 405
#     4  11  24  46  68  99 135 183 239 287 343 419
#     4  11  22  46  72 100 140 190 227 280 356 420
#     4  11  24  46  64 103 149 178 229 301 343 410
#     4  11  21  43  72 103 143 181 236 286 338 426
#     4  12  25  44  69  96 140 182 230 297 353 393
#
# _framework density 24.344474999999999
#
# number of rings (size 3 to 8) (size 9 to 14) (size 15 to 20)
#    0.000    1.000    5.000    1.875    5.250    5.000 
#    0.000    1.250    0.000    0.000    0.000    0.000 
#    0.000    0.000    0.000    0.000    0.000    0.000 
#
# Total GULP energy -89391.112404 kJ/mol
# GULP energy per Si atom -5586.944525 kJ/mol
# Density = 2.428907 g / cm^3
# Si number density = 24.344475 Si / 1000 Ang^3
#
#
#
# Elastic Constant Matrix: (Units=GPa)
#
#
# Indices 1 2 3 4 5 6 
#
# 1 88.6833 21.8025 3.6978 -16.8153 1.7118 -7.8010
# 2 21.8025 155.6570 16.8758 -39.4245 -1.0691 -16.4134
# 3 3.6978 16.8758 41.9192 -14.6719 9.4265 0.6363
# 4 -16.8153 -39.4245 -14.6719 38.8216 -8.8820 5.0832
# 5 1.7118 -1.0691 9.4265 -8.8820 34.8635 -1.6320
# 6 -7.8010 -16.4134 0.6363 5.0832 -1.6320 52.3779
#
#
#
# Elastic Compliance Matrix: (Units=1/GPa)
#
#
# Indices 1 2 3 4 5 6 
#
# 1 0.012430 -0.000350 0.000743 0.005281 0.000581 0.001238
# 2 -0.000350 0.009146 -0.001172 0.009121 0.003034 0.002038
# 3 0.000743 -0.001172 0.028666 0.008891 -0.005635 -0.001643
# 4 0.005281 0.009121 0.008891 0.042651 0.008467 -0.000339
# 5 0.000581 0.003034 -0.005635 0.008467 0.032489 0.001296
# 6 0.001238 0.002038 -0.001643 -0.000339 0.001296 0.020008
#
#
# Mechanical properties :
#
#
# Convention : Reuss Voigt Hill
#
# Bulk Modulus (GPa) = 20.54018 41.22353 30.88186
# Shear Modulus (GPa) = 30.64185 41.47148 36.05667
#
# Velocity S-wave (km/s) = 3.55163 4.13186 3.85268
# Velocity P-wave (km/s) = 5.02737 6.30343 5.70121
#
# Compressibility (1/GPa) = 0.04868506
#
# Stress axis : x y z
#
# Youngs Moduli (GPa) = 80.45043 109.33355 34.88489
#
# Poissons Ratio (x) = 0.03822 -0.02592
# Poissons Ratio (y) = 0.02812 0.04088
# Poissons Ratio (z) = -0.05977 0.12813
#
# Static dielectric constant tensor:
#      x y z
#    x 1.885640 0.148440 0.085280 
#    y 0.148440 1.513150 -0.356760 
#    z 0.085280 -0.356760 1.720790 
# 
# From -- ./inp_files/227689.got.cif
#   From: 2010.05.17/outbox.cif.g08.bks.cpg/sg2_114_cif.got.tgz:227689.got - 2010.06.03 11:33:40.
