data_PCOD9037328
_publ_section_title
;
Structure prediction by ZEFSAII (Michael W. Deem and Ramdas Pophale) SiO2 
 PCOD9037328
Probable space group: P -1
;
_chemical_formula_sum "Si O2"
_cell_formula_units_Z 13
_cell_length_a 7.433735
_cell_length_b 10.240428
_cell_length_c 12.210739
_cell_angle_alpha 47.345495
_cell_angle_beta 126.800272
_cell_angle_gamma 118.126574
_cell_volume 544.003056
_symmetry_space_group_name_H-M "P -1"
_symmetry_group_IT_number 2
_symmetry_cell_setting 'triclinic'
loop_
_space_group_symop_operation_xyz
x,y,z
-x,-y,-z
loop_
_atom_site_type_symbol
_atom_site_label
_atom_site_fract_x
_atom_site_fract_y
_atom_site_fract_z
Si Si1 0.457416 0.730857 0.572292
Si Si2 0.000000 0.500000 0.500000
Si Si3 0.003509 0.265837 0.839893
Si Si4 0.642000 0.988875 0.946013
Si Si5 0.821197 0.019861 0.539037
Si Si6 0.707998 0.568325 0.957750
Si Si7 0.203345 0.811457 0.786980
O O1 0.660842 0.855895 0.517630
O O2 0.277322 0.574824 0.551549
O O3 0.298250 0.880484 0.466857
O O4 0.596394 0.659557 0.764562
O O5 0.025812 0.437605 0.672800
O O6 0.752891 0.173933 0.828513
O O7 0.120283 0.306879 0.976159
O O8 0.146786 0.128332 0.904381
O O9 0.461108 0.886719 0.856543
O O10 0.500000 0.000000 0.000000
O O11 0.039727 0.940104 0.709981
O O12 0.863639 0.166902 0.376229
O O13 0.821464 0.390888 0.068267
O O14 0.500000 0.500000 0.000000
#
# Coordination Sequence:
#
# PCOD9037328 Si02
#       7
#     2   1   2   2   2   2   2
#     4  11  23  40  68  92 132 173 224 259 350 389
#     4  12  22  40  68 100 128 178 214 282 334 398
#     4  11  25  45  71  95 140 176 224 272 344 393
#     4  11  25  44  68 101 133 180 221 277 330 415
#     4  10  23  40  65  95 126 175 217 281 315 411
#     4  12  21  45  67  94 127 182 217 276 327 409
#     4  11  22  43  65  95 133 166 230 271 333 388
#
# _framework density 23.896926000000001
#
# number of rings (size 3 to 8) (size 9 to 14) (size 15 to 20)
#    0.000    0.923    4.615    0.923    4.308    3.077 
#    2.769    0.769    0.000    0.000    0.000    0.000 
#    0.000    0.000    0.000    0.000    0.000    0.000 
#
# Total GULP energy -72372.359341 kJ/mol
# GULP energy per Si atom -5567.104565 kJ/mol
# Density = 2.384254 g / cm^3
# Si number density = 23.896926 Si / 1000 Ang^3
#
#
#
# Elastic Constant Matrix: (Units=GPa)
#
#
# Indices 1 2 3 4 5 6 
#
# 1 91.3623 19.2753 30.9698 -7.5626 7.0411 20.3014
# 2 19.2753 80.6029 30.4058 4.9555 3.9987 20.8899
# 3 30.9698 30.4058 93.7062 -0.4026 5.1965 -3.4266
# 4 -7.5626 4.9555 -0.4026 28.7782 5.1214 -0.0533
# 5 7.0411 3.9987 5.1965 5.1214 32.9550 -3.5467
# 6 20.3014 20.8899 -3.4266 -0.0533 -3.5467 33.1975
#
#
#
# Elastic Compliance Matrix: (Units=1/GPa)
#
#
# Indices 1 2 3 4 5 6 
#
# 1 0.016011 0.001384 -0.005893 0.004693 -0.004655 -0.011761
# 2 0.001384 0.018379 -0.006782 -0.002474 -0.002513 -0.013384
# 3 -0.005893 -0.006782 0.015124 -0.000288 0.000766 0.009514
# 4 0.004693 -0.002474 -0.000288 0.037595 -0.006715 -0.002000
# 5 -0.004655 -0.002513 0.000766 -0.006715 0.033435 0.008068
# 6 -0.011761 -0.013384 0.009514 -0.002000 0.008068 0.047578
#
#
# Mechanical properties :
#
#
# Convention : Reuss Voigt Hill
#
# Bulk Modulus (GPa) = 37.12773 47.44147 42.28460
# Shear Modulus (GPa) = 25.03990 31.32084 28.18037
#
# Velocity S-wave (km/s) = 3.24053 3.62424 3.43774
# Velocity P-wave (km/s) = 5.43799 6.11630 5.78709
#
# Compressibility (1/GPa) = 0.02693404
#
# Stress axis : x y z
#
# Youngs Moduli (GPa) = 62.45542 54.40881 66.12005
#
# Poissons Ratio (x) = -0.07532 0.38963
# Poissons Ratio (y) = -0.08646 0.44843
# Poissons Ratio (z) = 0.36803 0.36900
#
# Static dielectric constant tensor:
#      x y z
#    x 1.979080 0.002580 0.018950 
#    y 0.002580 1.989500 -0.035090 
#    z 0.018950 -0.035090 1.950300 
# 
# From -- ./inp_files/497580.got.cif
#   From: 2010.05.17/outbox.cif.g08.bks.cpg/sg2_249_cif.got.tgz:497580.got - 2010.06.03 11:33:40.
