data_PCOD9037389
_publ_section_title
;
Structure prediction by ZEFSAII (Michael W. Deem and Ramdas Pophale) SiO2 
 PCOD9037389
Probable space group: P -1
;
_chemical_formula_sum "Si O2"
_cell_formula_units_Z 11
_cell_length_a 13.874449
_cell_length_b 8.803986
_cell_length_c 11.140515
_cell_angle_alpha 124.075822
_cell_angle_beta 30.286147
_cell_angle_gamma 138.722437
_cell_volume 436.375468
_symmetry_space_group_name_H-M "P -1"
_symmetry_group_IT_number 2
_symmetry_cell_setting 'triclinic'
loop_
_space_group_symop_operation_xyz
x,y,z
-x,-y,-z
loop_
_atom_site_type_symbol
_atom_site_label
_atom_site_fract_x
_atom_site_fract_y
_atom_site_fract_z
Si Si1 0.859015 0.105540 0.095060
Si Si2 0.000000 0.500000 0.500000
Si Si3 0.492230 0.793724 0.558823
Si Si4 0.493747 0.169605 0.995526
Si Si5 0.775557 0.754942 0.832363
Si Si6 0.422498 0.535420 0.747451
O O1 0.724678 0.190876 0.209653
O O2 0.723076 0.009273 0.327975
O O3 0.147708 0.321197 0.899646
O O4 0.818284 0.894372 0.970759
O O5 0.302232 0.726622 0.281760
O O6 0.047894 0.310465 0.400292
O O7 0.537132 0.751546 0.626571
O O8 0.424632 0.559280 0.461266
O O9 0.235365 0.087994 0.186101
O O10 0.605271 0.393852 0.062579
O O11 0.500000 0.000000 0.000000
O O12 0.500000 0.500000 0.000000
#
# Coordination Sequence:
#
# PCOD9037389 Si02
#       6
#     2   1   2   2   2   2
#     4  11  23  42  67  93 125 169 217 262 314 384
#     4  10  24  44  68  90 130 178 214 262 324 378
#     4  10  23  40  66  93 128 166 209 268 321 369
#     4  11  25  43  65  98 134 167 213 268 323 388
#     4  10  23  43  66  97 130 169 219 265 319 386
#     4  11  24  41  64  97 127 164 215 261 318 388
#
# _framework density 25.207650999999998
#
# number of rings (size 3 to 8) (size 9 to 14) (size 15 to 20)
#    0.000    1.455    0.000    4.364    0.000   15.273 
#    0.000    0.000    0.000    0.000    0.000    0.000 
#    0.000    0.000    0.000    0.000    0.000    0.000 
#
# Total GULP energy -61270.403616 kJ/mol
# GULP energy per Si atom -5570.036692 kJ/mol
# Density = 2.515028 g / cm^3
# Si number density = 25.207651 Si / 1000 Ang^3
#
#
#
# Elastic Constant Matrix: (Units=GPa)
#
#
# Indices 1 2 3 4 5 6 
#
# 1 103.6976 41.6725 49.8869 20.3204 -25.0168 -28.6540
# 2 41.6725 106.8964 42.1968 25.6741 -8.9548 -8.6230
# 3 49.8869 42.1968 59.1885 6.2874 -49.1304 -11.2810
# 4 20.3204 25.6741 6.2874 31.8446 -32.0068 -10.4443
# 5 -25.0168 -8.9548 -49.1304 -32.0068 46.2641 17.6285
# 6 -28.6540 -8.6230 -11.2810 -10.4443 17.6285 62.5974
#
#
#
# Elastic Compliance Matrix: (Units=1/GPa)
#
#
# Indices 1 2 3 4 5 6 
#
# 1 0.014195 -0.005849 -0.000164 0.006119 0.009025 0.004142
# 2 -0.005849 0.008174 0.007016 0.005864 0.010825 -0.002357
# 3 -0.000164 0.007016 -0.004977 -0.028638 -0.024651 0.002159
# 4 0.006119 0.005864 -0.028638 0.006498 -0.023854 0.006250
# 5 0.009025 0.010825 -0.024651 -0.023854 -0.014589 0.001309
# 6 0.004142 -0.002357 0.002159 0.006250 0.001309 0.018610
#
#
# Mechanical properties :
#
#
# Convention : Reuss Voigt Hill
#
# Bulk Modulus (GPa) = 51.55057 59.69944 55.62500
# Shear Modulus (GPa) = 154.46373 37.20964 95.83668
#
# Velocity S-wave (km/s) = 7.83642 3.84621 6.17264
# Velocity P-wave (km/s) = 10.11801 6.59233 8.53912
#
# Compressibility (1/GPa) = 0.01939843
#
# Stress axis : x y z
#
# Youngs Moduli (GPa) = 70.44542 122.34305 -200.91724
#
# Poissons Ratio (x) = 0.71557 -0.03289
# Poissons Ratio (y) = 0.41203 1.40960
# Poissons Ratio (z) = 0.01153 -0.85834
#
# Static dielectric constant tensor:
#      x y z
#    x 2.113190 -0.098710 0.076420 
#    y -0.098710 2.190250 0.147690 
#    z 0.076420 0.147690 2.147430 
# 
# From -- ./inp_files/377261.got.cif
#   From: 2010.05.17/outbox.cif.g08.bks.cpg/sg2_189_cif.got.tgz:377261.got - 2010.06.03 11:33:40.
