data_PCOD9037324
_publ_section_title
;
Structure prediction by ZEFSAII (Michael W. Deem and Ramdas Pophale) SiO2 
 PCOD9037324
Probable space group: P -1
;
_chemical_formula_sum "Si O2"
_cell_formula_units_Z 16
_cell_length_a 14.869568
_cell_length_b 8.399440
_cell_length_c 9.544506
_cell_angle_alpha 99.154184
_cell_angle_beta 67.165385
_cell_angle_gamma 53.504872
_cell_volume 751.021303
_symmetry_space_group_name_H-M "P -1"
_symmetry_group_IT_number 2
_symmetry_cell_setting 'triclinic'
loop_
_space_group_symop_operation_xyz
x,y,z
-x,-y,-z
loop_
_atom_site_type_symbol
_atom_site_label
_atom_site_fract_x
_atom_site_fract_y
_atom_site_fract_z
Si Si1 0.770363 0.777237 0.125372
Si Si2 0.416024 0.348259 0.151236
Si Si3 0.293589 0.889072 0.015105
Si Si4 0.039550 0.475622 0.762240
Si Si5 0.773032 0.897948 0.613206
Si Si6 0.859607 0.149208 0.514431
Si Si7 0.017252 0.074054 0.143172
Si Si8 0.484473 0.087710 0.799403
O O1 0.845250 0.713300 0.218500
O O2 0.637198 0.818436 0.220234
O O3 0.893879 0.568427 0.915271
O O4 0.721227 0.997945 0.106764
O O5 0.264849 0.584905 0.325361
O O6 0.467376 0.133026 0.180362
O O7 0.540276 0.333616 0.091889
O O8 0.416531 0.286386 0.983611
O O9 0.246583 0.057783 0.200447
O O10 0.179266 0.883147 0.075396
O O11 0.018370 0.693226 0.817396
O O12 0.097722 0.361414 0.559124
O O13 0.801005 0.041159 0.557399
O O14 0.628805 0.997376 0.653013
O O15 0.910042 0.126227 0.325145
O O16 0.000000 0.000000 0.500000
O O17 0.000000 0.000000 0.000000
#
# Coordination Sequence:
#
# PCOD9037324 Si02
#       8
#     2   2   2   2   2   2   2   2
#     4   9  20  37  65  94 116 168 210 259 310 368
#     4   9  20  40  64  94 127 162 213 259 322 368
#     4   9  20  42  65  93 126 164 207 264 311 380
#     4  10  23  40  65  93 125 166 213 267 307 379
#     4  11  23  40  61  99 125 163 214 258 317 370
#     4  12  26  42  62  96 130 168 211 266 311 381
#     4  11  25  44  63  91 131 169 213 259 324 370
#     4   9  19  38  67  92 125 167 206 265 312 378
#
# _framework density 21.304320000000001
#
# number of rings (size 3 to 8) (size 9 to 14) (size 15 to 20)
#    0.000    2.000    1.250    1.500    7.000    4.500 
#    2.250    0.625    0.000    0.000    0.000    0.000 
#    0.000    0.000    0.000    0.000    0.000    0.000 
#
# Total GULP energy -89342.951475 kJ/mol
# GULP energy per Si atom -5583.934467 kJ/mol
# Density = 2.125583 g / cm^3
# Si number density = 21.304320 Si / 1000 Ang^3
#
#
#
# Elastic Constant Matrix: (Units=GPa)
#
#
# Indices 1 2 3 4 5 6 
#
# 1 72.2299 10.7648 15.9404 12.5992 -20.7647 -1.8815
# 2 10.7648 54.2089 22.2739 -1.4785 1.0153 -4.7205
# 3 15.9404 22.2739 116.8875 13.4379 -3.5356 -3.4127
# 4 12.5992 -1.4785 13.4379 25.6343 2.2197 -9.3912
# 5 -20.7647 1.0153 -3.5356 2.2197 30.8502 -1.2115
# 6 -1.8815 -4.7205 -3.4127 -9.3912 -1.2115 30.7235
#
#
#
# Elastic Compliance Matrix: (Units=1/GPa)
#
#
# Indices 1 2 3 4 5 6 
#
# 1 0.021204 -0.005087 -0.000042 -0.013070 0.015262 -0.002881
# 2 -0.005087 0.022051 -0.004480 0.008368 -0.005071 0.004937
# 3 -0.000042 -0.004480 0.010138 -0.006209 0.001673 -0.001397
# 4 -0.013070 0.008368 -0.006209 0.056359 -0.013191 0.016503
# 5 0.015262 -0.005071 0.001673 -0.013191 0.043918 -0.001959
# 6 -0.002881 0.004937 -0.001397 0.016503 -0.001959 0.037942
#
#
# Mechanical properties :
#
#
# Convention : Reuss Voigt Hill
#
# Bulk Modulus (GPa) = 29.25971 37.92049 33.59010
# Shear Modulus (GPa) = 22.49995 30.39810 26.44902
#
# Velocity S-wave (km/s) = 3.25333 3.78147 3.52730
# Velocity P-wave (km/s) = 5.27979 6.07487 5.69123
#
# Compressibility (1/GPa) = 0.03417669
#
# Stress axis : x y z
#
# Youngs Moduli (GPa) = 47.15991 45.34953 98.63669
#
# Poissons Ratio (x) = 0.23067 0.00417
# Poissons Ratio (y) = 0.23988 0.44185
# Poissons Ratio (z) = 0.00200 0.20315
#
# Static dielectric constant tensor:
#      x y z
#    x 1.786600 0.004490 -0.020360 
#    y 0.004490 1.797720 0.010740 
#    z -0.020360 0.010740 1.772290 
# 
# From -- ./inp_files/298768.got.cif
#   From: 2010.05.17/outbox.cif.g08.bks.cpg/sg2_150_cif.got.tgz:298768.got - 2010.06.03 11:33:40.
