data_PCOD9037987
_publ_section_title
;
Structure prediction by ZEFSAII (Michael W. Deem and Ramdas Pophale) SiO2 
 PCOD9037987
Probable space group: P -1
;
_chemical_formula_sum "Si O2"
_cell_formula_units_Z 14
_cell_length_a 9.858099
_cell_length_b 7.510641
_cell_length_c 11.611422
_cell_angle_alpha 71.674080
_cell_angle_beta 124.467257
_cell_angle_gamma 131.630203
_cell_volume 527.137926
_symmetry_space_group_name_H-M "P -1"
_symmetry_group_IT_number 2
_symmetry_cell_setting 'triclinic'
loop_
_space_group_symop_operation_xyz
x,y,z
-x,-y,-z
loop_
_atom_site_type_symbol
_atom_site_label
_atom_site_fract_x
_atom_site_fract_y
_atom_site_fract_z
Si Si1 0.401335 0.532215 0.602495
Si Si2 0.207684 0.071430 0.938701
Si Si3 0.798935 0.990683 0.409369
Si Si4 0.547954 0.099268 0.854460
Si Si5 0.056261 0.290363 0.671569
Si Si6 0.756606 0.647129 0.886727
Si Si7 0.309116 0.799238 0.361933
O O1 0.371247 0.293448 0.604117
O O2 0.258402 0.493637 0.652039
O O3 0.640004 0.701754 0.726529
O O4 0.311178 0.583578 0.443045
O O5 0.279961 0.277865 0.024312
O O6 0.382323 0.036267 0.016941
O O7 0.131667 0.139293 0.780379
O O8 0.001204 0.823068 0.939580
O O9 0.702773 0.051360 0.252182
O O10 0.000000 0.000000 0.500000
O O11 0.865168 0.158348 0.515368
O O12 0.661072 0.371261 0.893872
O O13 0.623982 0.120008 0.753436
O O14 0.930179 0.298543 0.713085
O O15 0.500000 0.000000 0.500000
#
# Coordination Sequence:
#
# PCOD9037987 Si02
#       7
#     2   2   2   2   2   2   2
#     4  10  23  41  65  95 131 172 219 273 331 392
#     4  11  23  42  66  96 134 176 220 277 328 389
#     4   9  21  42  64  96 132 169 214 272 333 389
#     4  11  23  41  71  97 132 175 223 271 330 397
#     4  11  23  41  65  98 135 170 216 274 332 390
#     4  10  23  42  64  96 134 175 224 273 326 393
#     4  12  22  38  67 102 126 172 220 271 331 383
#
# _framework density 26.558516000000001
#
# number of rings (size 3 to 8) (size 9 to 14) (size 15 to 20)
#    0.000    1.429    1.429    4.286    2.000    1.714 
#    0.000    6.429    0.000    0.000    0.000    3.000 
#    0.000    0.000    0.000    0.000    0.000    0.000 
#
# Total GULP energy -78260.847840 kJ/mol
# GULP energy per Si atom -5590.060560 kJ/mol
# Density = 2.649807 g / cm^3
# Si number density = 26.558516 Si / 1000 Ang^3
#
#
#
# Elastic Constant Matrix: (Units=GPa)
#
#
# Indices 1 2 3 4 5 6 
#
# 1 121.6967 15.7646 39.1635 -3.1478 38.2820 7.7900
# 2 15.7646 64.8381 34.2935 -4.2445 2.7262 -14.3923
# 3 39.1635 34.2935 182.9253 -20.7440 25.6589 -13.2088
# 4 -3.1478 -4.2445 -20.7440 45.1399 -6.6166 -1.2234
# 5 38.2820 2.7262 25.6589 -6.6166 51.3067 -7.4862
# 6 7.7900 -14.3923 -13.2088 -1.2234 -7.4862 33.2582
#
#
#
# Elastic Compliance Matrix: (Units=1/GPa)
#
#
# Indices 1 2 3 4 5 6 
#
# 1 0.012672 -0.003700 -0.001365 -0.001740 -0.009880 -0.007400
# 2 -0.003700 0.019747 -0.002733 0.001274 0.004616 0.009412
# 3 -0.001365 -0.002733 0.006926 0.002621 -0.001729 0.001595
# 4 -0.001740 0.001274 0.002621 0.023976 0.003549 0.003681
# 5 -0.009880 0.004616 -0.001729 0.003549 0.029455 0.010386
# 6 -0.007400 0.009412 0.001595 0.003681 0.010386 0.038981
#
#
# Mechanical properties :
#
#
# Convention : Reuss Voigt Hill
#
# Bulk Modulus (GPa) = 42.10753 60.87813 51.49283
# Shear Modulus (GPa) = 32.20176 44.62353 38.41265
#
# Velocity S-wave (km/s) = 3.48585 4.10347 3.80720
# Velocity P-wave (km/s) = 5.66486 6.73968 6.22551
#
# Compressibility (1/GPa) = 0.02374872
#
# Stress axis : x y z
#
# Youngs Moduli (GPa) = 78.91135 50.64088 144.37697
#
# Poissons Ratio (x) = 0.18738 0.19711
# Poissons Ratio (y) = 0.29198 0.39460
# Poissons Ratio (z) = 0.10773 0.13841
#
# Static dielectric constant tensor:
#      x y z
#    x 2.258540 -0.095300 -0.062180 
#    y -0.095300 2.380100 -0.010670 
#    z -0.062180 -0.010670 2.175960 
# 
# From -- ./inp_files/515439.got.cif
#   From: 2010.05.17/outbox.cif.g08.bks.cpg/sg2_258_cif.got.tgz:515439.got - 2010.06.03 11:33:40.
