data_PCOD9037939
_publ_section_title
;
Structure prediction by ZEFSAII (Michael W. Deem and Ramdas Pophale) SiO2 
 PCOD9037939
Probable space group: P -1
;
_chemical_formula_sum "Si O2"
_cell_formula_units_Z 12
_cell_length_a 7.098181
_cell_length_b 11.669467
_cell_length_c 16.562192
_cell_angle_alpha 37.253928
_cell_angle_beta 38.130455
_cell_angle_gamma 60.521731
_cell_volume 478.681265
_symmetry_space_group_name_H-M "P -1"
_symmetry_group_IT_number 2
_symmetry_cell_setting 'triclinic'
loop_
_space_group_symop_operation_xyz
x,y,z
-x,-y,-z
loop_
_atom_site_type_symbol
_atom_site_label
_atom_site_fract_x
_atom_site_fract_y
_atom_site_fract_z
Si Si1 0.842391 0.177346 0.957874
Si Si2 0.508385 0.402357 0.638999
Si Si3 0.323496 0.876803 0.379385
Si Si4 0.382238 0.258938 0.338485
Si Si5 0.800647 0.000819 0.290456
Si Si6 0.511453 0.324992 0.856978
O O1 0.782693 0.253305 0.848292
O O2 0.120255 0.343318 0.820663
O O3 0.502609 0.106366 0.159653
O O4 0.000000 0.000000 0.000000
O O5 0.500000 0.500000 0.500000
O O6 0.651372 0.238051 0.647305
O O7 0.636161 0.433066 0.669117
O O8 0.946981 0.801436 0.570747
O O9 0.573416 0.862823 0.372828
O O10 0.640264 0.170543 0.265259
O O11 0.523267 0.497765 0.174515
O O12 0.256400 0.134286 0.534351
O O13 0.181109 0.125869 0.072988
#
# Coordination Sequence:
#
# PCOD9037939 Si02
#       6
#     2   2   2   2   2   2
#     4  10  23  41  65 100 135 179 226 278 345 411
#     4  11  24  41  67 103 136 176 231 282 349 419
#     4  11  22  43  66  95 138 177 224 283 341 406
#     4  11  25  43  69 102 132 184 234 277 344 411
#     4  11  24  45  69  97 139 181 232 284 338 410
#     4  12  24  44  71 100 143 180 225 291 346 406
#
# _framework density 25.068871999999999
#
# number of rings (size 3 to 8) (size 9 to 14) (size 15 to 20)
#    0.000    1.000    3.333    3.000    0.000    8.000 
#    0.000    0.833    0.000    0.000    0.000    0.000 
#    0.000    0.000    0.000    0.000    0.000    0.000 
#
# Total GULP energy -66912.149494 kJ/mol
# GULP energy per Si atom -5576.012458 kJ/mol
# Density = 2.501181 g / cm^3
# Si number density = 25.068872 Si / 1000 Ang^3
#
#
#
# Elastic Constant Matrix: (Units=GPa)
#
#
# Indices 1 2 3 4 5 6 
#
# 1 152.0493 25.5607 21.5894 5.6040 6.9107 -9.4150
# 2 25.5607 90.1699 -7.7281 -6.3898 -2.6348 -2.0179
# 3 21.5894 -7.7281 41.8934 2.5364 4.3966 -3.1549
# 4 5.6040 -6.3898 2.5364 20.9362 -4.1966 1.1374
# 5 6.9107 -2.6348 4.3966 -4.1966 56.5073 3.3924
# 6 -9.4150 -2.0179 -3.1549 1.1374 3.3924 36.0431
#
#
#
# Elastic Compliance Matrix: (Units=1/GPa)
#
#
# Indices 1 2 3 4 5 6 
#
# 1 0.007896 -0.002785 -0.004171 -0.002769 -0.001080 0.001730
# 2 -0.002785 0.012507 0.003379 0.004348 0.000981 0.000039
# 3 -0.004171 0.003379 0.027036 -0.001549 -0.001651 0.001670
# 4 -0.002769 0.004348 -0.001549 0.051090 0.004616 -0.002662
# 5 -0.001080 0.000981 -0.001651 0.004616 0.018481 -0.002257
# 6 0.001730 0.000039 0.001670 -0.002662 -0.002257 0.028641
#
#
# Mechanical properties :
#
#
# Convention : Reuss Voigt Hill
#
# Bulk Modulus (GPa) = 24.82362 40.32850 32.57606
# Shear Modulus (GPa) = 30.07827 39.01003 34.54415
#
# Velocity S-wave (km/s) = 3.46761 3.94904 3.71613
# Velocity P-wave (km/s) = 5.09471 6.07579 5.60675
#
# Compressibility (1/GPa) = 0.04028421
#
# Stress axis : x y z
#
# Youngs Moduli (GPa) = 126.65425 79.95648 36.98779
#
# Poissons Ratio (x) = 0.22265 0.15429
# Poissons Ratio (y) = 0.35269 -0.12498
# Poissons Ratio (z) = 0.52831 -0.27017
#
# Static dielectric constant tensor:
#      x y z
#    x 2.058840 -0.007280 -0.028380 
#    y -0.007280 2.020690 -0.100380 
#    z -0.028380 -0.100380 2.204110 
# 
# From -- ./inp_files/61264.got.cif
#   From: 2010.05.17/outbox.cif.g08.bks.cpg/sg2_31_cif.got.tgz:61264.got - 2010.06.03 11:33:40.
