data_PCOD9037733
_publ_section_title
;
Structure prediction by ZEFSAII (Michael W. Deem and Ramdas Pophale) SiO2 
 PCOD9037733
Probable space group: P -1
;
_chemical_formula_sum "Si O2"
_cell_formula_units_Z 12
_cell_length_a 11.375809
_cell_length_b 14.758963
_cell_length_c 6.438526
_cell_angle_alpha 50.782996
_cell_angle_beta 72.480867
_cell_angle_gamma 40.555309
_cell_volume 508.849305
_symmetry_space_group_name_H-M "P -1"
_symmetry_group_IT_number 2
_symmetry_cell_setting 'triclinic'
loop_
_space_group_symop_operation_xyz
x,y,z
-x,-y,-z
loop_
_atom_site_type_symbol
_atom_site_label
_atom_site_fract_x
_atom_site_fract_y
_atom_site_fract_z
Si Si1 0.578099 0.366135 0.345680
Si Si2 0.606018 0.989906 0.139635
Si Si3 0.028700 0.659276 0.819945
Si Si4 0.701542 0.724709 0.807197
Si Si5 0.789979 0.351823 0.624385
Si Si6 0.101442 0.061015 0.185463
O O1 0.682039 0.365035 0.474264
O O2 0.379389 0.464983 0.414830
O O3 0.748897 0.148817 0.518449
O O4 0.500000 0.500000 0.000000
O O5 0.472060 0.168570 0.097501
O O6 0.657502 0.847787 0.473005
O O7 0.500000 0.000000 0.000000
O O8 0.767927 0.948028 0.007590
O O9 0.866822 0.677481 0.910196
O O10 0.976168 0.809905 0.763098
O O11 0.067326 0.665089 0.551048
O O12 0.225004 0.449013 0.077186
O O13 0.917297 0.175071 0.964908
#
# Coordination Sequence:
#
# PCOD9037733 Si02
#       6
#     2   2   2   2   2   2
#     4  11  27  49  72  99 136 177 233 292 349 409
#     4  11  22  41  66  99 137 183 223 274 332 409
#     4  11  23  41  68  98 137 176 225 276 332 407
#     4  10  23  41  62 100 139 179 221 270 333 398
#     4  11  25  47  70 103 133 183 224 291 346 407
#     4  12  25  44  72 104 135 184 231 281 343 408
#
# _framework density 23.582618
#
# number of rings (size 3 to 8) (size 9 to 14) (size 15 to 20)
#    0.000    1.000    3.333    2.500    0.000   10.000 
#    0.000    0.000    0.000    0.000    0.000    0.000 
#    0.000    0.000    0.000    0.000    0.000    0.000 
#
# Total GULP energy -67012.710957 kJ/mol
# GULP energy per Si atom -5584.392580 kJ/mol
# Density = 2.352894 g / cm^3
# Si number density = 23.582618 Si / 1000 Ang^3
#
#
#
# Elastic Constant Matrix: (Units=GPa)
#
#
# Indices 1 2 3 4 5 6 
#
# 1 50.3700 26.7825 30.7806 -0.5717 12.6099 0.9088
# 2 26.7825 180.0004 80.2271 -19.9053 -4.8000 6.6973
# 3 30.7806 80.2271 142.4842 -21.3400 9.0159 -0.2058
# 4 -0.5717 -19.9053 -21.3400 42.9880 -11.1573 -14.7669
# 5 12.6099 -4.8000 9.0159 -11.1573 33.1487 4.2795
# 6 0.9088 6.6973 -0.2058 -14.7669 4.2795 33.1185
#
#
#
# Elastic Compliance Matrix: (Units=1/GPa)
#
#
# Indices 1 2 3 4 5 6 
#
# 1 0.027035 -0.003060 -0.004410 -0.006845 -0.011612 -0.001702
# 2 -0.003060 0.008158 -0.003816 0.002650 0.004401 -0.000977
# 3 -0.004410 -0.003816 0.010828 0.004396 -0.000729 0.003014
# 4 -0.006845 0.002650 0.004396 0.034197 0.011568 0.013432
# 5 -0.011612 0.004401 -0.000729 0.011568 0.039379 -0.000506
# 6 -0.001702 -0.000977 0.003014 0.013432 -0.000506 0.036512
#
#
# Mechanical properties :
#
#
# Convention : Reuss Voigt Hill
#
# Bulk Modulus (GPa) = 42.64409 72.04834 57.34622
# Shear Modulus (GPa) = 26.80977 37.52200 32.16588
#
# Velocity S-wave (km/s) = 3.37537 3.99317 3.69720
# Velocity P-wave (km/s) = 5.77174 7.20266 6.52653
#
# Compressibility (1/GPa) = 0.02344991
#
# Stress axis : x y z
#
# Youngs Moduli (GPa) = 36.98846 122.57612 92.35049
#
# Poissons Ratio (x) = 0.37512 0.40728
# Poissons Ratio (y) = 0.11320 0.35236
# Poissons Ratio (z) = 0.16313 0.46769
#
# Static dielectric constant tensor:
#      x y z
#    x 2.253880 0.085260 0.223200 
#    y 0.085260 1.974240 0.031000 
#    z 0.223200 0.031000 2.028610 
# 
# From -- ./inp_files/22244.got.cif
#   From: 2010.05.17/outbox.cif.g08.bks.cpg/sg2_12_cif.got.tgz:22244.got - 2010.06.03 11:33:40.
