data_PCOD9037826
_publ_section_title
;
Structure prediction by ZEFSAII (Michael W. Deem and Ramdas Pophale) SiO2 
 PCOD9037826
Probable space group: P -1
;
_chemical_formula_sum "Si O2"
_cell_formula_units_Z 16
_cell_length_a 8.289610
_cell_length_b 17.766816
_cell_length_c 8.732596
_cell_angle_alpha 54.630981
_cell_angle_beta 49.926921
_cell_angle_gamma 88.423920
_cell_volume 668.609589
_symmetry_space_group_name_H-M "P -1"
_symmetry_group_IT_number 2
_symmetry_cell_setting 'triclinic'
loop_
_space_group_symop_operation_xyz
x,y,z
-x,-y,-z
loop_
_atom_site_type_symbol
_atom_site_label
_atom_site_fract_x
_atom_site_fract_y
_atom_site_fract_z
Si Si1 0.611622 0.210768 0.778501
Si Si2 0.093307 0.366290 0.126279
Si Si3 0.300766 0.124500 0.520195
Si Si4 0.648439 0.444597 0.034924
Si Si5 0.523479 0.331994 0.947571
Si Si6 0.131341 0.774412 0.841863
Si Si7 0.733849 0.780047 0.284131
Si Si8 0.773936 0.005255 0.564519
O O1 0.885256 0.262756 0.478098
O O2 0.419845 0.201155 0.774891
O O3 0.638314 0.299472 0.781220
O O4 0.481273 0.093145 0.083058
O O5 0.975921 0.335093 0.065306
O O6 0.360714 0.378567 0.932887
O O7 0.147152 0.471093 0.067121
O O8 0.312864 0.213415 0.291773
O O9 0.594136 0.179945 0.316604
O O10 0.170589 0.126121 0.753725
O O11 0.224996 0.018981 0.588505
O O12 0.710005 0.408252 0.880126
O O13 0.458243 0.332966 0.374893
O O14 0.500000 0.500000 0.000000
O O15 0.171878 0.874439 0.592467
O O16 0.939137 0.763633 0.100157
O O17 0.000000 0.000000 0.500000
#
# Coordination Sequence:
#
# PCOD9037826 Si02
#       8
#     2   2   2   2   2   2   2   2
#     4  11  22  41  68  95 123 173 214 257 327 375
#     4  11  22  41  65  93 131 167 215 263 314 377
#     4  10  23  41  63  95 127 162 216 264 311 380
#     4   9  22  41  64  95 128 170 214 260 318 378
#     4   9  20  43  63  91 134 163 212 269 308 376
#     4  12  23  41  66  96 131 168 213 268 312 376
#     4  11  22  43  66  94 132 168 210 265 320 371
#     4  11  23  44  67  93 131 168 210 263 321 378
#
# _framework density 23.930260000000001
#
# number of rings (size 3 to 8) (size 9 to 14) (size 15 to 20)
#    0.000    1.500    3.750    1.125    0.000    8.500 
#    0.000    0.000    0.000    0.000    0.000    0.000 
#    0.000    0.000    0.000    0.000    0.000    0.000 
#
# Total GULP energy -89444.952515 kJ/mol
# GULP energy per Si atom -5590.309532 kJ/mol
# Density = 2.387579 g / cm^3
# Si number density = 23.930260 Si / 1000 Ang^3
#
#
#
# Elastic Constant Matrix: (Units=GPa)
#
#
# Indices 1 2 3 4 5 6 
#
# 1 78.0909 27.5180 0.2105 9.7422 -0.6382 14.7107
# 2 27.5180 155.6664 32.1293 17.0993 0.5731 44.0685
# 3 0.2105 32.1293 93.5818 17.6721 2.2778 4.6712
# 4 9.7422 17.0993 17.6721 37.4814 -1.7096 5.5782
# 5 -0.6382 0.5731 2.2778 -1.7096 30.3074 0.4100
# 6 14.7107 44.0685 4.6712 5.5782 0.4100 48.0128
#
#
#
# Elastic Compliance Matrix: (Units=1/GPa)
#
#
# Indices 1 2 3 4 5 6 
#
# 1 0.014283 -0.001719 0.001278 -0.003145 0.000094 -0.002558
# 2 -0.001719 0.009686 -0.002633 -0.001551 -0.000002 -0.007927
# 3 0.001278 -0.002633 0.012548 -0.005314 -0.001186 0.001432
# 4 -0.003145 -0.001551 -0.005314 0.030912 0.002116 -0.000705
# 5 0.000094 -0.000002 -0.001186 0.002116 0.033212 -0.000441
# 6 -0.002558 -0.007927 0.001432 -0.000705 -0.000441 0.028834
#
#
# Mechanical properties :
#
#
# Convention : Reuss Voigt Hill
#
# Bulk Modulus (GPa) = 32.93025 49.67272 41.30149
# Shear Modulus (GPa) = 34.30629 40.99243 37.64936
#
# Velocity S-wave (km/s) = 3.79039 4.14333 3.97078
# Velocity P-wave (km/s) = 5.73994 6.60998 6.19026
#
# Compressibility (1/GPa) = 0.03036721
#
# Stress axis : x y z
#
# Youngs Moduli (GPa) = 70.01322 103.24380 79.69492
#
# Poissons Ratio (x) = 0.17751 -0.10181
# Poissons Ratio (y) = 0.12037 0.20983
# Poissons Ratio (z) = -0.08944 0.27184
#
# Static dielectric constant tensor:
#      x y z
#    x 1.923400 0.008630 0.021590 
#    y 0.008630 1.957290 -0.012290 
#    z 0.021590 -0.012290 1.891990 
# 
# From -- ./inp_files/214225.got.cif
#   From: 2010.05.17/outbox.cif.g08.bks.cpg/sg2_108_cif.got.tgz:214225.got - 2010.06.03 11:33:40.
