data_PCOD9037099
_publ_section_title
;
Structure prediction by ZEFSAII (Michael W. Deem and Ramdas Pophale) SiO2 
 PCOD9037099
Probable space group: P -1
;
_chemical_formula_sum "Si O2"
_cell_formula_units_Z 14
_cell_length_a 17.958111
_cell_length_b 24.758262
_cell_length_c 6.740066
_cell_angle_alpha 44.605893
_cell_angle_beta 125.565987
_cell_angle_gamma 159.723668
_cell_volume 681.988165
_symmetry_space_group_name_H-M "P -1"
_symmetry_group_IT_number 2
_symmetry_cell_setting 'triclinic'
loop_
_space_group_symop_operation_xyz
x,y,z
-x,-y,-z
loop_
_atom_site_type_symbol
_atom_site_label
_atom_site_fract_x
_atom_site_fract_y
_atom_site_fract_z
Si Si1 0.470291 0.784564 0.896510
Si Si2 0.070678 0.480382 0.784728
Si Si3 0.367036 0.253281 0.887249
Si Si4 0.172796 0.470488 0.579034
Si Si5 0.071054 0.093788 0.162645
Si Si6 0.256942 0.855823 0.532731
Si Si7 0.343688 0.439511 0.789931
O O1 0.266460 0.659658 0.770791
O O2 0.667539 0.998786 0.677941
O O3 0.546639 0.767050 0.942172
O O4 0.351135 0.662802 0.232953
O O5 0.000000 0.500000 0.500000
O O6 0.150531 0.480536 0.743216
O O7 0.875030 0.289404 0.113895
O O8 0.536715 0.439920 0.542728
O O9 0.294057 0.227432 0.056389
O O10 0.138598 0.077474 0.861063
O O11 0.272450 0.461194 0.739128
O O12 0.927486 0.285992 0.563934
O O13 0.121808 0.220956 0.954099
O O14 0.000000 0.000000 0.500000
O O15 0.500000 0.000000 0.500000
O O16 0.500000 0.500000 0.000000
#
# Coordination Sequence:
#
# PCOD9037099 Si02
#       7
#     2   2   2   2   2   2   2
#     4  10  23  41  63  89 124 163 203 252 312 365
#     4  11  24  41  64  95 124 159 207 255 310 377
#     4  10  23  40  60  87 123 164 202 258 304 357
#     4  10  24  42  62  93 127 160 210 257 302 375
#     4  11  22  38  59  88 120 158 211 252 297 362
#     4  11  23  42  66  91 124 163 202 258 319 367
#     4  11  22  40  63  88 124 168 203 250 310 360
#
# _framework density 20.528217000000001
#
# number of rings (size 3 to 8) (size 9 to 14) (size 15 to 20)
#    0.000    1.429    1.429    3.000    2.000    6.857 
#    2.571    0.000    0.000    0.000    0.000    0.000 
#    0.000    0.000    0.000    0.000    0.000    0.000 
#
# Total GULP energy -78218.935163 kJ/mol
# GULP energy per Si atom -5587.066797 kJ/mol
# Density = 2.048149 g / cm^3
# Si number density = 20.528217 Si / 1000 Ang^3
#
#
#
# Elastic Constant Matrix: (Units=GPa)
#
#
# Indices 1 2 3 4 5 6 
#
# 1 70.8808 6.8014 42.6200 4.5055 -11.9791 1.3722
# 2 6.8014 62.1187 36.2761 -7.1058 1.0613 -8.5589
# 3 42.6200 36.2761 95.5110 -14.4919 4.9906 -11.6218
# 4 4.5055 -7.1058 -14.4919 30.4456 -4.6858 10.0006
# 5 -11.9791 1.0613 4.9906 -4.6858 36.8128 -0.9379
# 6 1.3722 -8.5589 -11.6218 10.0006 -0.9379 34.7857
#
#
#
# Elastic Compliance Matrix: (Units=1/GPa)
#
#
# Indices 1 2 3 4 5 6 
#
# 1 0.024319 0.004430 -0.014384 -0.007296 0.008748 -0.002341
# 2 0.004430 0.021733 -0.010214 -0.000785 0.002152 0.002044
# 3 -0.014384 -0.010214 0.022772 0.008625 -0.006299 0.003013
# 4 -0.007296 -0.000785 0.008625 0.040950 0.001469 -0.008757
# 5 0.008748 0.002152 -0.006299 0.001469 0.030951 -0.001508
# 6 -0.002341 0.002044 0.003013 -0.008757 -0.001508 0.032826
#
#
# Mechanical properties :
#
#
# Convention : Reuss Voigt Hill
#
# Bulk Modulus (GPa) = 35.10075 44.43395 39.76735
# Shear Modulus (GPa) = 22.38297 29.92971 26.15634
#
# Velocity S-wave (km/s) = 3.30563 3.82249 3.57342
# Velocity P-wave (km/s) = 5.63076 6.41671 6.03654
#
# Compressibility (1/GPa) = 0.02848942
#
# Stress axis : x y z
#
# Youngs Moduli (GPa) = 41.11952 46.01274 43.91269
#
# Poissons Ratio (x) = -0.20386 0.63163
# Poissons Ratio (y) = -0.18218 0.44854
# Poissons Ratio (z) = 0.59145 0.46999
#
# Static dielectric constant tensor:
#      x y z
#    x 1.775860 0.037140 -0.010480 
#    y 0.037140 1.741290 -0.000620 
#    z -0.010480 -0.000620 1.680980 
# 
# From -- ./inp_files/38306.got.cif
#   From: 2010.05.17/outbox.cif.g08.bks.cpg/sg2_20_cif.got.tgz:38306.got - 2010.06.03 11:33:40.
