data_PCOD9037690
_publ_section_title
;
Structure prediction by ZEFSAII (Michael W. Deem and Ramdas Pophale) SiO2 
 PCOD9037690
Probable space group: P -1
;
_chemical_formula_sum "Si O2"
_cell_formula_units_Z 12
_cell_length_a 11.148277
_cell_length_b 5.254702
_cell_length_c 21.460690
_cell_angle_alpha 82.814427
_cell_angle_beta 34.637415
_cell_angle_gamma 59.563069
_cell_volume 495.032628
_symmetry_space_group_name_H-M "P -1"
_symmetry_group_IT_number 2
_symmetry_cell_setting 'triclinic'
loop_
_space_group_symop_operation_xyz
x,y,z
-x,-y,-z
loop_
_atom_site_type_symbol
_atom_site_label
_atom_site_fract_x
_atom_site_fract_y
_atom_site_fract_z
Si Si1 0.807441 0.150277 0.640265
Si Si2 0.894473 0.309174 0.917117
Si Si3 0.168999 0.427840 0.194820
Si Si4 0.829628 0.450467 0.142319
Si Si5 0.143018 0.808843 0.635330
Si Si6 0.570837 0.206702 0.135498
O O1 0.506327 0.248518 0.750303
O O2 0.652945 0.548536 0.719841
O O3 0.000000 0.000000 0.500000
O O4 0.023554 0.879088 0.613089
O O5 0.750220 0.521899 0.907386
O O6 0.086780 0.380841 0.856927
O O7 0.631620 0.432634 0.070865
O O8 0.112789 0.866778 0.834154
O O9 0.442650 0.156500 0.134414
O O10 0.995261 0.313242 0.265585
O O11 0.972290 0.818411 0.301187
O O12 0.090192 0.182930 0.986136
O O13 0.500000 0.500000 0.500000
#
# Coordination Sequence:
#
# PCOD9037690 Si02
#       6
#     2   2   2   2   2   2
#     4  11  26  48  72 105 143 193 243 288 355 425
#     4  10  23  40  76 105 147 177 237 288 366 412
#     4  11  23  43  73 105 141 182 244 292 355 417
#     4  10  24  43  71 104 148 180 235 292 359 417
#     4  11  27  47  71  99 148 191 238 291 354 424
#     4   9  24  43  72 109 142 187 233 298 352 422
#
# _framework density 24.240825999999998
#
# number of rings (size 3 to 8) (size 9 to 14) (size 15 to 20)
#    1.000    0.667    0.000    2.500    9.333    4.000 
#    0.000    4.167    0.000    0.000    0.000    0.000 
#    0.000    0.000    0.000    0.000    0.000    0.000 
#
# Total GULP energy -67108.193897 kJ/mol
# GULP energy per Si atom -5592.349491 kJ/mol
# Density = 2.418565 g / cm^3
# Si number density = 24.240826 Si / 1000 Ang^3
#
#
#
# Elastic Constant Matrix: (Units=GPa)
#
#
# Indices 1 2 3 4 5 6 
#
# 1 104.5858 31.3356 50.5005 3.4676 -8.2921 -2.4452
# 2 31.3356 139.5319 32.0549 1.7444 -1.8155 10.1522
# 3 50.5005 32.0549 132.4219 18.8539 -8.9958 -18.5389
# 4 3.4676 1.7444 18.8539 21.3715 -5.7237 -4.7668
# 5 -8.2921 -1.8155 -8.9958 -5.7237 52.9689 -12.5419
# 6 -2.4452 10.1522 -18.5389 -4.7668 -12.5419 43.2696
#
#
#
# Elastic Compliance Matrix: (Units=1/GPa)
#
#
# Indices 1 2 3 4 5 6 
#
# 1 0.012297 -0.001711 -0.004569 0.002479 0.001309 -0.000209
# 2 -0.001711 0.008188 -0.001872 0.000307 -0.001000 -0.003076
# 3 -0.004569 -0.001872 0.011635 -0.007929 0.001456 0.004715
# 4 0.002479 0.000307 -0.007929 0.056058 0.006210 0.004647
# 5 0.001309 -0.001000 0.001456 0.006210 0.021850 0.007950
# 6 -0.000209 -0.003076 0.004715 0.004647 0.007950 0.028657
#
#
# Mechanical properties :
#
#
# Convention : Reuss Voigt Hill
#
# Bulk Modulus (GPa) = 63.22258 67.14684 65.18471
# Shear Modulus (GPa) = 31.19924 41.03190 36.11557
#
# Velocity S-wave (km/s) = 3.59144 4.11868 3.86407
# Velocity P-wave (km/s) = 6.58298 7.09775 6.84521
#
# Compressibility (1/GPa) = 0.01581713
#
# Stress axis : x y z
#
# Youngs Moduli (GPa) = 81.32169 122.12990 85.94866
#
# Poissons Ratio (x) = 0.20894 0.39267
# Poissons Ratio (y) = 0.13913 0.16088
# Poissons Ratio (z) = 0.37153 0.22861
#
# Static dielectric constant tensor:
#      x y z
#    x 1.963790 -0.011850 -0.017940 
#    y -0.011850 2.055610 -0.002040 
#    z -0.017940 -0.002040 1.920870 
# 
# From -- ./inp_files/609066.got.cif
#   From: 2010.05.17/outbox.cif.g08.bks.cpg/sg2_305_cif.got.tgz:609066.got - 2010.06.03 11:33:40.
