data_PCOD9037650
_publ_section_title
;
Structure prediction by ZEFSAII (Michael W. Deem and Ramdas Pophale) SiO2 
 PCOD9037650
Probable space group: P -1
;
_chemical_formula_sum "Si O2"
_cell_formula_units_Z 14
_cell_length_a 11.588755
_cell_length_b 12.012743
_cell_length_c 5.732573
_cell_angle_alpha 77.511903
_cell_angle_beta 52.324271
_cell_angle_gamma 70.056402
_cell_volume 593.727861
_symmetry_space_group_name_H-M "P -1"
_symmetry_group_IT_number 2
_symmetry_cell_setting 'triclinic'
loop_
_space_group_symop_operation_xyz
x,y,z
-x,-y,-z
loop_
_atom_site_type_symbol
_atom_site_label
_atom_site_fract_x
_atom_site_fract_y
_atom_site_fract_z
Si Si1 0.093095 0.206279 0.253577
Si Si2 0.148602 0.024824 0.913294
Si Si3 0.237335 0.802961 0.225466
Si Si4 0.339730 0.984739 0.285990
Si Si5 0.081910 0.467539 0.164663
Si Si6 0.516248 0.630148 0.713540
Si Si7 0.603701 0.585208 0.124389
O O1 0.203920 0.098607 0.310156
O O2 0.139825 0.325359 0.163927
O O3 0.914162 0.234836 0.516892
O O4 0.108182 0.157379 0.994866
O O5 0.304695 0.997724 0.595166
O O6 0.177104 0.928857 0.121664
O O7 0.000000 0.000000 0.000000
O O8 0.320807 0.853464 0.308728
O O9 0.354471 0.712142 0.960072
O O10 0.500000 0.000000 0.000000
O O11 0.000000 0.500000 0.500000
O O12 0.235752 0.506581 0.968903
O O13 0.000000 0.500000 0.000000
O O14 0.559611 0.660872 0.383919
O O15 0.514407 0.493151 0.739717
O O16 0.614488 0.636093 0.824703
#
# Coordination Sequence:
#
# PCOD9037650 Si02
#       7
#     2   2   2   2   2   2   2
#     4  11  25  43  70  99 142 186 236 300 358 431
#     4  11  21  42  70  96 139 185 234 293 356 439
#     4  11  23  40  67 104 130 185 241 282 362 442
#     4  11  25  42  67 104 139 177 234 294 359 423
#     4  12  28  46  72 106 145 192 249 295 367 437
#     4  10  23  40  71  95 138 184 236 295 365 418
#     4  10  23  45  63 100 139 182 237 304 349 426
#
# _framework density 23.579827000000002
#
# number of rings (size 3 to 8) (size 9 to 14) (size 15 to 20)
#    0.000    1.143    2.857    2.571    6.000    6.857 
#    0.000    0.000    0.000    0.000    0.000    0.000 
#    0.000    0.000    0.000    0.000    0.000    0.000 
#
# Total GULP energy -77957.468557 kJ/mol
# GULP energy per Si atom -5568.390611 kJ/mol
# Density = 2.352616 g / cm^3
# Si number density = 23.579827 Si / 1000 Ang^3
#
#
#
# Elastic Constant Matrix: (Units=GPa)
#
#
# Indices 1 2 3 4 5 6 
#
# 1 110.4090 6.3096 49.6608 10.0400 13.5555 -9.3686
# 2 6.3096 58.2236 1.8157 16.3717 13.2314 14.2994
# 3 49.6608 1.8157 141.1279 33.5131 3.1365 10.4363
# 4 10.0400 16.3717 33.5131 40.2861 3.7197 5.4677
# 5 13.5555 13.2314 3.1365 3.7197 49.0911 -0.1117
# 6 -9.3686 14.2994 10.4363 5.4677 -0.1117 28.6151
#
#
#
# Elastic Compliance Matrix: (Units=1/GPa)
#
#
# Indices 1 2 3 4 5 6 
#
# 1 0.012260 -0.002782 -0.005123 0.001616 -0.002415 0.006954
# 2 -0.002782 0.024706 0.004257 -0.010654 -0.005384 -0.012795
# 3 -0.005123 0.004257 0.011466 -0.009166 0.000215 -0.006234
# 4 0.001616 -0.010654 -0.009166 0.036034 0.000286 0.002312
# 5 -0.002415 -0.005384 0.000215 0.000286 0.022457 0.001855
# 6 0.006954 -0.012795 -0.006234 0.002312 0.001855 0.045456
#
#
# Mechanical properties :
#
#
# Convention : Reuss Voigt Hill
#
# Bulk Modulus (GPa) = 24.30950 47.25920 35.78435
# Shear Modulus (GPa) = 28.83710 40.39672 34.61691
#
# Velocity S-wave (km/s) = 3.50087 4.14356 3.83570
# Velocity P-wave (km/s) = 5.16462 6.55575 5.90132
#
# Compressibility (1/GPa) = 0.04113618
#
# Stress axis : x y z
#
# Youngs Moduli (GPa) = 81.56604 40.47650 87.21152
#
# Poissons Ratio (x) = 0.11262 0.44675
# Poissons Ratio (y) = 0.22695 -0.37127
# Poissons Ratio (z) = 0.41783 -0.17231
#
# Static dielectric constant tensor:
#      x y z
#    x 2.003410 0.020760 0.097820 
#    y 0.020760 1.876360 0.010540 
#    z 0.097820 0.010540 1.986980 
# 
# From -- ./inp_files/47829.got.cif
#   From: 2010.05.17/outbox.cif.g08.bks.cpg/sg2_24_cif.got.tgz:47829.got - 2010.06.03 11:33:40.
