data_PCOD9037857
_publ_section_title
;
Structure prediction by ZEFSAII (Michael W. Deem and Ramdas Pophale) SiO2 
 PCOD9037857
Probable space group: P -1
;
_chemical_formula_sum "Si O2"
_cell_formula_units_Z 16
_cell_length_a 9.736077
_cell_length_b 8.879385
_cell_length_c 15.865630
_cell_angle_alpha 38.155273
_cell_angle_beta 109.354821
_cell_angle_gamma 97.496681
_cell_volume 779.290905
_symmetry_space_group_name_H-M "P -1"
_symmetry_group_IT_number 2
_symmetry_cell_setting 'triclinic'
loop_
_space_group_symop_operation_xyz
x,y,z
-x,-y,-z
loop_
_atom_site_type_symbol
_atom_site_label
_atom_site_fract_x
_atom_site_fract_y
_atom_site_fract_z
Si Si1 0.996325 0.959290 0.646528
Si Si2 0.500484 0.155919 0.517744
Si Si3 0.514583 0.218982 0.025541
Si Si4 0.142392 0.811544 0.149927
Si Si5 0.161872 0.248143 0.442528
Si Si6 0.798646 0.939332 0.773220
Si Si7 0.530869 0.302054 0.798836
Si Si8 0.250630 0.530193 0.948283
O O1 0.126731 0.709466 0.788845
O O2 0.879582 0.915621 0.571092
O O3 0.914584 0.992392 0.704433
O O4 0.073053 0.178559 0.534879
O O5 0.340210 0.182018 0.517987
O O6 0.516578 0.433229 0.373414
O O7 0.500000 0.000000 0.500000
O O8 0.634425 0.025867 0.661961
O O9 0.487512 0.317388 0.881166
O O10 0.373147 0.346915 0.996821
O O11 0.658668 0.301614 0.054941
O O12 0.531103 0.921536 0.156780
O O13 0.113957 0.536987 0.279973
O O14 0.288695 0.779073 0.135295
O O15 0.184827 0.916810 0.201124
O O16 0.000000 0.000000 0.000000
O O17 0.821037 0.646887 0.928345
#
# Coordination Sequence:
#
# PCOD9037857 Si02
#       8
#     2   2   2   2   2   2   2   2
#     4  11  25  43  67  98 133 173 226 276 330 406
#     4  11  23  43  71  95 135 172 223 275 335 401
#     4  10  23  41  64 101 127 172 224 276 337 384
#     4  11  25  45  66  96 138 176 221 276 335 394
#     4  10  25  44  66  99 133 176 223 272 337 395
#     4  12  25  43  67 101 130 182 224 267 342 394
#     4  10  23  43  65  97 130 173 220 276 335 392
#     4  11  24  40  68  96 134 169 228 277 330 396
#
# _framework density 20.531485
#
# number of rings (size 3 to 8) (size 9 to 14) (size 15 to 20)
#    0.000    1.250    2.500    1.875    8.750    3.500 
#    2.250    0.000    0.000    0.000    0.000    0.000 
#    0.000    0.000    0.000    0.000    0.000    0.000 
#
# Total GULP energy -89520.409943 kJ/mol
# GULP energy per Si atom -5595.025621 kJ/mol
# Density = 2.048475 g / cm^3
# Si number density = 20.531485 Si / 1000 Ang^3
#
#
#
# Elastic Constant Matrix: (Units=GPa)
#
#
# Indices 1 2 3 4 5 6 
#
# 1 83.3730 29.6239 34.8590 -4.5031 -31.4167 -1.3450
# 2 29.6239 84.2092 22.7746 2.4688 -12.6809 9.4446
# 3 34.8590 22.7746 55.4182 -6.0836 -17.3174 1.0484
# 4 -4.5031 2.4688 -6.0836 30.7743 8.3124 -7.1705
# 5 -31.4167 -12.6809 -17.3174 8.3124 37.5917 -4.7870
# 6 -1.3450 9.4446 1.0484 -7.1705 -4.7870 17.9820
#
#
#
# Elastic Compliance Matrix: (Units=1/GPa)
#
#
# Indices 1 2 3 4 5 6 
#
# 1 0.022636 -0.004560 -0.007886 0.000107 0.014809 0.008533
# 2 -0.004560 0.015861 -0.004202 -0.005075 -0.000626 -0.010617
# 3 -0.007886 -0.004202 0.026223 0.004030 0.003516 0.002631
# 4 0.000107 -0.005075 0.004030 0.039252 -0.006357 0.016399
# 5 0.014809 -0.000626 0.003516 -0.006357 0.043087 0.010167
# 6 0.008533 -0.010617 0.002631 0.016399 0.010167 0.070918
#
#
# Mechanical properties :
#
#
# Convention : Reuss Voigt Hill
#
# Bulk Modulus (GPa) = 31.82299 44.16837 37.99568
# Shear Modulus (GPa) = 19.10228 26.31912 22.71070
#
# Velocity S-wave (km/s) = 3.05354 3.58423 3.32948
# Velocity P-wave (km/s) = 5.28823 6.21998 5.77294
#
# Compressibility (1/GPa) = 0.03142382
#
# Stress axis : x y z
#
# Youngs Moduli (GPa) = 44.17776 63.04737 38.13400
#
# Poissons Ratio (x) = 0.28751 0.30073
# Poissons Ratio (y) = 0.20146 0.16023
# Poissons Ratio (z) = 0.34840 0.26490
#
# Static dielectric constant tensor:
#      x y z
#    x 1.726980 0.006550 -0.007940 
#    y 0.006550 1.720470 0.003580 
#    z -0.007940 0.003580 1.712190 
# 
# From -- ./inp_files/190023.got.cif
#   From: 2010.05.17/outbox.cif.g08.bks.cpg/sg2_96_cif.got.tgz:190023.got - 2010.06.03 11:33:40.
