data_PCOD9037996
_publ_section_title
;
Structure prediction by ZEFSAII (Michael W. Deem and Ramdas Pophale) SiO2 
 PCOD9037996
Probable space group: P -1
;
_chemical_formula_sum "Si O2"
_cell_formula_units_Z 14
_cell_length_a 12.784241
_cell_length_b 18.127693
_cell_length_c 10.242274
_cell_angle_alpha 52.448694
_cell_angle_beta 114.807971
_cell_angle_gamma 158.247737
_cell_volume 604.523695
_symmetry_space_group_name_H-M "P -1"
_symmetry_group_IT_number 2
_symmetry_cell_setting 'triclinic'
loop_
_space_group_symop_operation_xyz
x,y,z
-x,-y,-z
loop_
_atom_site_type_symbol
_atom_site_label
_atom_site_fract_x
_atom_site_fract_y
_atom_site_fract_z
Si Si1 0.270719 0.040690 0.889790
Si Si2 0.438764 0.662683 0.025244
Si Si3 0.714813 0.519360 0.323102
Si Si4 0.255998 0.828343 0.748031
Si Si5 0.766939 0.070513 0.633613
Si Si6 0.341792 0.725782 0.377467
Si Si7 0.731599 0.668402 0.814429
O O1 0.357264 0.174997 0.908511
O O2 0.602645 0.251636 0.771861
O O3 0.082640 0.939497 0.774364
O O4 0.009874 0.771293 0.106515
O O5 0.335479 0.481233 0.127654
O O6 0.108181 0.471143 0.080971
O O7 0.644849 0.872537 0.796912
O O8 0.612526 0.335808 0.453459
O O9 0.408870 0.356122 0.322420
O O10 0.889470 0.661508 0.401723
O O11 0.506957 0.938316 0.718912
O O12 0.224790 0.877975 0.558707
O O13 0.411168 0.005164 0.753932
O O14 0.000000 0.500000 0.500000
O O15 0.500000 0.500000 0.000000
#
# Coordination Sequence:
#
# PCOD9037996 Si02
#       7
#     2   2   2   2   2   2   2
#     4  10  24  44  68  98 132 169 222 266 324 391
#     4  11  23  45  67  95 134 171 213 275 324 382
#     4  10  23  44  64  96 128 171 220 267 325 385
#     4  11  23  41  65  98 132 172 216 265 327 392
#     4  10  23  41  65  96 130 172 215 268 327 387
#     4  12  24  42  67  95 137 172 216 273 323 388
#     4  10  23  44  68  98 129 169 227 264 325 391
#
# _framework density 23.158729000000001
#
# number of rings (size 3 to 8) (size 9 to 14) (size 15 to 20)
#    0.000    1.429    2.857    1.286    6.000    6.286 
#    0.000    1.429    0.000    0.000    0.000    0.000 
#    0.000    0.000    0.000    0.000    0.000    0.000 
#
# Total GULP energy -78192.471155 kJ/mol
# GULP energy per Si atom -5585.176511 kJ/mol
# Density = 2.310602 g / cm^3
# Si number density = 23.158729 Si / 1000 Ang^3
#
#
#
# Elastic Constant Matrix: (Units=GPa)
#
#
# Indices 1 2 3 4 5 6 
#
# 1 74.6413 18.8339 8.1317 5.4368 1.1073 -2.5284
# 2 18.8339 99.7757 11.6662 1.4497 9.0851 -2.3942
# 3 8.1317 11.6662 51.5640 -6.6265 1.4479 -5.7365
# 4 5.4368 1.4497 -6.6265 28.9638 5.8093 0.4119
# 5 1.1073 9.0851 1.4479 5.8093 35.1006 2.8363
# 6 -2.5284 -2.3942 -5.7365 0.4119 2.8363 29.8139
#
#
#
# Elastic Compliance Matrix: (Units=1/GPa)
#
#
# Indices 1 2 3 4 5 6 
#
# 1 0.014501 -0.002501 -0.002092 -0.003237 0.000764 0.000599
# 2 -0.002501 0.010984 -0.001951 0.000013 -0.002731 0.000554
# 3 -0.002092 -0.001951 0.021360 0.005634 -0.001553 0.003846
# 4 -0.003237 0.000013 0.005634 0.037702 -0.006446 0.000903
# 5 0.000764 -0.002731 -0.001553 -0.006446 0.030568 -0.003272
# 6 0.000599 0.000554 0.003846 0.000903 -0.003272 0.034676
#
#
# Mechanical properties :
#
#
# Convention : Reuss Voigt Hill
#
# Bulk Modulus (GPa) = 29.62202 33.69383 31.65792
# Shear Modulus (GPa) = 28.71411 31.26561 29.98986
#
# Velocity S-wave (km/s) = 3.52502 3.67830 3.60247
# Velocity P-wave (km/s) = 5.42091 5.71144 5.56807
#
# Compressibility (1/GPa) = 0.03375867
#
# Stress axis : x y z
#
# Youngs Moduli (GPa) = 68.96054 91.03835 46.81621
#
# Poissons Ratio (x) = 0.22767 0.09793
# Poissons Ratio (y) = 0.17246 0.09133
# Poissons Ratio (z) = 0.14426 0.17760
#
# Static dielectric constant tensor:
#      x y z
#    x 1.876850 0.051140 -0.009720 
#    y 0.051140 1.935260 -0.015270 
#    z -0.009720 -0.015270 1.880190 
# 
# From -- ./inp_files/260960.got.cif
#   From: 2010.05.17/outbox.cif.g08.bks.cpg/sg2_131_cif.got.tgz:260960.got - 2010.06.03 11:33:40.
