data_PCOD9037344
_publ_section_title
;
Structure prediction by ZEFSAII (Michael W. Deem and Ramdas Pophale) SiO2 
 PCOD9037344
Probable space group: P -1
;
_chemical_formula_sum "Si O2"
_cell_formula_units_Z 14
_cell_length_a 14.852048
_cell_length_b 15.397709
_cell_length_c 6.393235
_cell_angle_alpha 70.876372
_cell_angle_beta 101.177554
_cell_angle_gamma 152.584630
_cell_volume 620.033522
_symmetry_space_group_name_H-M "P -1"
_symmetry_group_IT_number 2
_symmetry_cell_setting 'triclinic'
loop_
_space_group_symop_operation_xyz
x,y,z
-x,-y,-z
loop_
_atom_site_type_symbol
_atom_site_label
_atom_site_fract_x
_atom_site_fract_y
_atom_site_fract_z
Si Si1 0.914492 0.654940 0.579610
Si Si2 0.379197 0.264204 0.256805
Si Si3 0.670610 0.946303 0.302760
Si Si4 0.095327 0.913098 0.080934
Si Si5 0.538292 0.048168 0.718202
Si Si6 0.187089 0.641424 0.119810
Si Si7 0.254862 0.353646 0.175276
O O1 0.834061 0.481665 0.719036
O O2 0.780415 0.612740 0.667884
O O3 0.123665 0.846127 0.648612
O O4 0.964940 0.725967 0.308146
O O5 0.412924 0.216817 0.484258
O O6 0.316671 0.305253 0.298051
O O7 0.571742 0.451982 0.049677
O O8 0.200642 0.072497 0.172375
O O9 0.536016 0.915029 0.296542
O O10 0.730822 0.978100 0.066827
O O11 0.947131 0.827927 0.913639
O O12 0.766674 0.250590 0.745604
O O13 0.500000 0.000000 0.500000
O O14 0.387530 0.842500 0.920175
O O15 0.000000 0.500000 0.000000
#
# Coordination Sequence:
#
# PCOD9037344 Si02
#       7
#     2   2   2   2   2   2   2
#     4  10  23  42  68  95 133 174 225 272 333 399
#     4  10  23  40  65  96 136 169 221 272 326 398
#     4  10  23  44  65  99 132 174 220 276 333 398
#     4  10  23  40  66  91 135 176 217 269 330 392
#     4  11  27  45  71 100 135 175 224 280 346 402
#     4  11  25  47  68 101 134 173 226 282 337 408
#     4  10  23  41  63  99 130 174 221 269 330 396
#
# _framework density 22.579422000000001
#
# number of rings (size 3 to 8) (size 9 to 14) (size 15 to 20)
#    0.000    1.714    1.429    0.429    6.000   11.429 
#    0.000    2.857    0.000    0.000    0.000    0.000 
#    0.000    0.000    0.000    0.000    0.000    0.000 
#
# Total GULP energy -78275.634055 kJ/mol
# GULP energy per Si atom -5591.116718 kJ/mol
# Density = 2.252803 g / cm^3
# Si number density = 22.579422 Si / 1000 Ang^3
#
#
#
# Elastic Constant Matrix: (Units=GPa)
#
#
# Indices 1 2 3 4 5 6 
#
# 1 100.1688 23.9397 67.7741 -16.5809 4.0755 -6.0574
# 2 23.9397 107.3765 25.1661 0.3373 0.9242 -4.2628
# 3 67.7741 25.1661 131.6894 -2.9535 5.9020 -24.8174
# 4 -16.5809 0.3373 -2.9535 38.4577 -8.5667 8.6335
# 5 4.0755 0.9242 5.9020 -8.5667 18.9574 -2.6974
# 6 -6.0574 -4.2628 -24.8174 8.6335 -2.6974 24.6326
#
#
#
# Elastic Compliance Matrix: (Units=1/GPa)
#
#
# Indices 1 2 3 4 5 6 
#
# 1 0.019056 -0.002078 -0.011243 0.010284 0.002685 -0.010311
# 2 -0.002078 0.009979 -0.000671 -0.001317 -0.000288 0.000970
# 3 -0.011243 -0.000671 0.016562 -0.008113 -0.004067 0.016204
# 4 0.010284 -0.001317 -0.008113 0.036949 0.014626 -0.017222
# 5 0.002685 -0.000288 -0.004067 0.014626 0.059768 -0.002069
# 6 -0.010311 0.000970 0.016204 -0.017222 -0.002069 0.060364
#
#
# Mechanical properties :
#
#
# Convention : Reuss Voigt Hill
#
# Bulk Modulus (GPa) = 56.77972 63.66606 60.22289
# Shear Modulus (GPa) = 21.13855 31.23318 26.18587
#
# Velocity S-wave (km/s) = 3.06304 3.72325 3.40916
# Velocity P-wave (km/s) = 6.14092 6.83675 6.49816
#
# Compressibility (1/GPa) = 0.01761192
#
# Stress axis : x y z
#
# Youngs Moduli (GPa) = 52.47564 100.21219 60.37835
#
# Poissons Ratio (x) = 0.20827 0.67884
# Poissons Ratio (y) = 0.10906 0.04053
# Poissons Ratio (z) = 0.58999 0.06727
#
# Static dielectric constant tensor:
#      x y z
#    x 1.833110 0.036040 -0.006440 
#    y 0.036040 1.900390 0.040580 
#    z -0.006440 0.040580 1.870340 
# 
# From -- ./inp_files/97768.got.cif
#   From: 2010.05.17/outbox.cif.g08.bks.cpg/sg2_49_cif.got.tgz:97768.got - 2010.06.03 11:33:40.
