data_PCOD9037110
_publ_section_title
;
Structure prediction by ZEFSAII (Michael W. Deem and Ramdas Pophale) SiO2 
 PCOD9037110
Probable space group: P -1
;
_chemical_formula_sum "Si O2"
_cell_formula_units_Z 16
_cell_length_a 25.364186
_cell_length_b 17.043884
_cell_length_c 13.408796
_cell_angle_alpha 31.570405
_cell_angle_beta 159.201622
_cell_angle_gamma 159.937354
_cell_volume 689.677515
_symmetry_space_group_name_H-M "P -1"
_symmetry_group_IT_number 2
_symmetry_cell_setting 'triclinic'
loop_
_space_group_symop_operation_xyz
x,y,z
-x,-y,-z
loop_
_atom_site_type_symbol
_atom_site_label
_atom_site_fract_x
_atom_site_fract_y
_atom_site_fract_z
Si Si1 0.136140 0.689011 0.805771
Si Si2 0.901604 0.082608 0.356304
Si Si3 0.647440 0.752850 0.025590
Si Si4 0.851551 0.556763 0.755670
Si Si5 0.483173 0.422265 0.806893
Si Si6 0.648705 0.129464 0.305998
Si Si7 0.080001 0.372043 0.716263
Si Si8 0.488687 0.904912 0.477027
O O1 0.045638 0.754008 0.644447
O O2 0.026092 0.632151 0.565978
O O3 0.081719 0.490168 0.979869
O O4 0.416704 0.920054 0.059272
O O5 0.097629 0.111454 0.658283
O O6 0.928127 0.194017 0.177908
O O7 0.680181 0.815819 0.287163
O O8 0.525251 0.680581 0.993886
O O9 0.500000 0.500000 0.000000
O O10 0.646947 0.885320 0.804168
O O11 0.656097 0.530737 0.468581
O O12 0.736740 0.356500 0.686386
O O13 0.742754 0.622437 0.007022
O O14 0.764224 0.380847 0.221510
O O15 0.850830 0.166234 0.599321
O O16 0.576782 0.065383 0.364177
O O17 0.500000 0.000000 0.500000
#
# Coordination Sequence:
#
# PCOD9037110 Si02
#       8
#     2   2   2   2   2   2   2   2
#     4  11  23  41  67  96 128 174 220 272 332 384
#     4  11  22  38  62  94 136 175 213 266 334 393
#     4  11  20  37  62  94 132 171 213 262 329 394
#     4  10  23  40  60  99 141 165 216 276 332 387
#     4  11  22  41  63  95 133 179 211 266 329 391
#     4  10  24  44  65 101 127 172 227 272 319 396
#     4  11  23  43  72  88 133 178 225 269 321 384
#     4  11  23  39  67  99 136 166 218 273 336 391
#
# _framework density 23.199247
#
# number of rings (size 3 to 8) (size 9 to 14) (size 15 to 20)
#    0.000    1.250    3.750    3.750    3.500    2.000 
#    0.000    3.125    2.750    2.250    0.000    0.000 
#    0.000    0.000    0.000    0.000    0.000    0.000 
#
# Total GULP energy -89324.620651 kJ/mol
# GULP energy per Si atom -5582.788791 kJ/mol
# Density = 2.314644 g / cm^3
# Si number density = 23.199247 Si / 1000 Ang^3
#
#
#
# Elastic Constant Matrix: (Units=GPa)
#
#
# Indices 1 2 3 4 5 6 
#
# 1 90.7276 19.2293 30.6943 2.5988 21.8829 -2.6735
# 2 19.2293 68.5239 24.7582 5.6131 11.8288 -9.6777
# 3 30.6943 24.7582 88.6589 0.6901 19.5282 -4.7137
# 4 2.5988 5.6131 0.6901 36.5238 8.7463 9.1344
# 5 21.8829 11.8288 19.5282 8.7463 44.6984 3.8013
# 6 -2.6735 -9.6777 -4.7137 9.1344 3.8013 22.0150
#
#
#
# Elastic Compliance Matrix: (Units=1/GPa)
#
#
# Indices 1 2 3 4 5 6 
#
# 1 0.013668 -0.001740 -0.003090 0.000314 -0.005025 0.000971
# 2 -0.001740 0.018451 -0.003476 -0.004413 -0.002449 0.009409
# 3 -0.003090 -0.003476 0.014301 0.001127 -0.004156 0.001409
# 4 0.000314 -0.004413 0.001127 0.032741 -0.004656 -0.014441
# 5 -0.005025 -0.002449 -0.004156 -0.004656 0.028683 -0.005597
# 6 0.000971 0.009409 0.001409 -0.014441 -0.005597 0.056938
#
#
# Mechanical properties :
#
#
# Convention : Reuss Voigt Hill
#
# Bulk Modulus (GPa) = 33.54894 44.14158 38.84526
# Shear Modulus (GPa) = 26.13301 32.19600 29.16451
#
# Velocity S-wave (km/s) = 3.35992 3.72937 3.54945
# Velocity P-wave (km/s) = 5.43550 6.13292 5.79471
#
# Compressibility (1/GPa) = 0.02980720
#
# Stress axis : x y z
#
# Youngs Moduli (GPa) = 73.16482 54.19835 69.92472
#
# Poissons Ratio (x) = 0.09432 0.21607
# Poissons Ratio (y) = 0.12733 0.24305
# Poissons Ratio (z) = 0.22608 0.18839
#
# Static dielectric constant tensor:
#      x y z
#    x 1.908950 -0.017290 0.040960 
#    y -0.017290 1.936740 0.065360 
#    z 0.040960 0.065360 1.943870 
# 
# From -- ./inp_files/544281.got.cif
#   From: 2010.05.17/outbox.cif.g08.bks.cpg/sg2_273_cif.got.tgz:544281.got - 2010.06.03 11:33:40.
