data_PCOD9037776
_publ_section_title
;
Structure prediction by ZEFSAII (Michael W. Deem and Ramdas Pophale) SiO2 
 PCOD9037776
Probable space group: P -1
;
_chemical_formula_sum "Si O2"
_cell_formula_units_Z 14
_cell_length_a 21.246457
_cell_length_b 12.008156
_cell_length_c 9.627701
_cell_angle_alpha 145.298154
_cell_angle_beta 39.519986
_cell_angle_gamma 150.464047
_cell_volume 675.447850
_symmetry_space_group_name_H-M "P -1"
_symmetry_group_IT_number 2
_symmetry_cell_setting 'triclinic'
loop_
_space_group_symop_operation_xyz
x,y,z
-x,-y,-z
loop_
_atom_site_type_symbol
_atom_site_label
_atom_site_fract_x
_atom_site_fract_y
_atom_site_fract_z
Si Si1 0.176012 0.188328 0.691324
Si Si2 0.101984 0.138299 0.267208
Si Si3 0.449134 0.470891 0.211030
Si Si4 0.742994 0.043360 0.873292
Si Si5 0.488810 0.970003 0.656393
Si Si6 0.320698 0.477274 0.021131
Si Si7 0.906446 0.618966 0.193465
O O1 0.109067 0.301983 0.548765
O O2 0.240005 0.340552 0.879632
O O3 0.183979 0.372707 0.751730
O O4 0.240408 0.069024 0.406797
O O5 0.980271 0.044812 0.279728
O O6 0.230783 0.304436 0.127720
O O7 0.048291 0.865941 0.146092
O O8 0.550666 0.491812 0.160299
O O9 0.458455 0.708651 0.471652
O O10 0.307019 0.190755 0.177114
O O11 0.500000 0.500000 0.000000
O O12 0.869277 0.344089 0.978143
O O13 0.628191 0.052671 0.103798
O O14 0.500000 0.000000 0.500000
O O15 0.622557 0.231556 0.756600
#
# Coordination Sequence:
#
# PCOD9037776 Si02
#       7
#     2   2   2   2   2   2   2
#     4  10  23  41  62  98 128 172 205 256 318 372
#     4   9  21  42  65  92 129 164 218 255 306 379
#     4  11  24  39  64  97 123 159 211 263 316 373
#     4  11  22  39  68  87 133 161 214 258 314 375
#     4  11  22  40  63  95 121 166 210 263 319 365
#     4  11  23  41  67  92 134 165 208 262 315 369
#     4   9  21  40  64  94 124 166 210 257 314 359
#
# _framework density 20.726989
#
# number of rings (size 3 to 8) (size 9 to 14) (size 15 to 20)
#    0.857    0.857    2.857    2.143    2.000    4.000 
#    2.571    5.000    0.000    0.000    0.000    0.000 
#    0.000    0.000    0.000    0.000    0.000    0.000 
#
# Total GULP energy -78032.473103 kJ/mol
# GULP energy per Si atom -5573.748079 kJ/mol
# Density = 2.067981 g / cm^3
# Si number density = 20.726989 Si / 1000 Ang^3
#
#
#
# Elastic Constant Matrix: (Units=GPa)
#
#
# Indices 1 2 3 4 5 6 
#
# 1 82.3733 30.9160 42.3976 19.9332 11.5738 8.4736
# 2 30.9160 153.2991 75.0306 27.0093 -4.2435 -8.8567
# 3 42.3976 75.0306 130.6120 37.3778 2.0052 -5.0740
# 4 19.9332 27.0093 37.3778 37.9129 2.0427 -15.9733
# 5 11.5738 -4.2435 2.0052 2.0427 42.6406 11.1263
# 6 8.4736 -8.8567 -5.0740 -15.9733 11.1263 22.5726
#
#
#
# Elastic Compliance Matrix: (Units=1/GPa)
#
#
# Indices 1 2 3 4 5 6 
#
# 1 0.019295 -0.001387 -0.001735 -0.015732 0.000572 -0.019591
# 2 -0.001387 0.009347 -0.004778 -0.000194 0.000877 0.002544
# 3 -0.001735 -0.004778 0.014574 -0.013953 0.002317 -0.008964
# 4 -0.015732 -0.000194 -0.013953 0.076598 -0.015617 0.064595
# 5 0.000572 0.000877 0.002317 -0.015617 0.030683 -0.025526
# 6 -0.019591 0.002544 -0.008964 0.064595 -0.025526 0.108931
#
#
# Mechanical properties :
#
#
# Convention : Reuss Voigt Hill
#
# Bulk Modulus (GPa) = 36.47474 73.66365 55.06920
# Shear Modulus (GPa) = 17.58298 35.15458 26.36878
#
# Velocity S-wave (km/s) = 2.91574 4.12281 3.57065
# Velocity P-wave (km/s) = 5.38250 7.63417 6.60499
#
# Compressibility (1/GPa) = 0.02741623
#
# Stress axis : x y z
#
# Youngs Moduli (GPa) = 51.82729 106.98580 68.61757
#
# Poissons Ratio (x) = 0.14834 0.11903
# Poissons Ratio (y) = 0.07186 0.32788
# Poissons Ratio (z) = 0.08990 0.51122
#
# Static dielectric constant tensor:
#      x y z
#    x 1.780930 0.017020 -0.026960 
#    y 0.017020 1.793340 0.009490 
#    z -0.026960 0.009490 1.706630 
# 
# From -- ./inp_files/346446.got.cif
#   From: 2010.05.17/outbox.cif.g08.bks.cpg/sg2_174_cif.got.tgz:346446.got - 2010.06.03 11:33:40.
