data_PCOD9037988
_publ_section_title
;
Structure prediction by ZEFSAII (Michael W. Deem and Ramdas Pophale) SiO2 
 PCOD9037988
Probable space group: P -1
;
_chemical_formula_sum "Si O2"
_cell_formula_units_Z 14
_cell_length_a 5.178976
_cell_length_b 11.078144
_cell_length_c 9.301860
_cell_angle_alpha 89.471681
_cell_angle_beta 80.720962
_cell_angle_gamma 86.686486
_cell_volume 525.815877
_symmetry_space_group_name_H-M "P -1"
_symmetry_group_IT_number 2
_symmetry_cell_setting 'triclinic'
loop_
_space_group_symop_operation_xyz
x,y,z
-x,-y,-z
loop_
_atom_site_type_symbol
_atom_site_label
_atom_site_fract_x
_atom_site_fract_y
_atom_site_fract_z
Si Si1 0.933352 0.755387 0.547683
Si Si2 0.771517 0.482981 0.384181
Si Si3 0.868376 0.462327 0.866039
Si Si4 0.540565 0.127448 0.576930
Si Si5 0.959701 0.147048 0.155095
Si Si6 0.681942 0.924614 0.099844
Si Si7 0.436662 0.654407 0.875585
O O1 0.030803 0.614701 0.552409
O O2 0.168370 0.828146 0.459807
O O3 0.919278 0.814921 0.707154
O O4 0.661534 0.779218 0.489229
O O5 0.500000 0.500000 0.500000
O O6 0.693812 0.412739 0.246528
O O7 0.941321 0.580825 0.279670
O O8 0.719148 0.588897 0.835229
O O9 0.657897 0.373993 0.952106
O O10 0.000000 0.500000 0.000000
O O11 0.473048 0.119179 0.750217
O O12 0.500000 0.000000 0.500000
O O13 0.675594 0.212041 0.150864
O O14 0.900767 0.007192 0.150229
O O15 0.155754 0.175480 0.007992
O O16 0.500000 0.000000 0.000000
#
# Coordination Sequence:
#
# PCOD9037988 Si02
#       7
#     2   2   2   2   2   2   2
#     4  11  26  45  70 102 134 188 228 274 353 408
#     4  10  23  41  65  95 133 172 222 284 335 405
#     4   9  19  38  62  89 124 164 218 267 332 390
#     4  12  25  45  70 100 142 180 229 282 342 414
#     4  10  23  41  66  96 130 177 229 279 335 409
#     4  11  25  41  66  97 136 176 224 284 339 399
#     4   9  20  40  64  92 122 175 219 273 335 401
#
# _framework density 26.62529
#
# number of rings (size 3 to 8) (size 9 to 14) (size 15 to 20)
#    0.000    1.714    1.429    1.286    8.000    4.000 
#    7.714    0.000    0.000    0.000    0.000    0.000 
#    0.000    0.000    0.000    0.000    0.000    0.000 
#
# Total GULP energy -78285.625551 kJ/mol
# GULP energy per Si atom -5591.830396 kJ/mol
# Density = 2.656469 g / cm^3
# Si number density = 26.625290 Si / 1000 Ang^3
#
#
#
# Elastic Constant Matrix: (Units=GPa)
#
#
# Indices 1 2 3 4 5 6 
#
# 1 84.7233 -7.5981 34.7300 -13.0693 -10.3248 -26.9856
# 2 -7.5981 43.7383 19.4745 3.5997 -5.4299 -8.5099
# 3 34.7300 19.4745 222.2633 -6.1351 -36.6134 -2.7873
# 4 -13.0693 3.5997 -6.1351 29.2147 -0.4946 -0.8091
# 5 -10.3248 -5.4299 -36.6134 -0.4946 68.8829 -13.6336
# 6 -26.9856 -8.5099 -2.7873 -0.8091 -13.6336 48.3875
#
#
#
# Elastic Compliance Matrix: (Units=1/GPa)
#
#
# Indices 1 2 3 4 5 6 
#
# 1 0.019577 0.007108 -0.002488 0.007817 0.004908 0.013538
# 2 0.007108 0.027743 -0.002830 -0.000502 0.003665 0.009705
# 3 -0.002488 -0.002830 0.005486 0.000397 0.002133 -0.000962
# 4 0.007817 -0.000502 0.000397 0.038076 0.002746 0.005705
# 5 0.004908 0.003665 0.002133 0.002746 0.018426 0.008742
# 6 0.013538 0.009705 -0.000962 0.005705 0.008742 0.032427
#
#
# Mechanical properties :
#
#
# Convention : Reuss Voigt Hill
#
# Bulk Modulus (GPa) = 17.73461 49.32643 33.53052
# Shear Modulus (GPa) = 31.85773 49.57158 40.71465
#
# Velocity S-wave (km/s) = 3.46283 4.31957 3.91471
# Velocity P-wave (km/s) = 4.76062 6.59125 5.74927
#
# Compressibility (1/GPa) = 0.05638690
#
# Stress axis : x y z
#
# Youngs Moduli (GPa) = 51.08146 36.04559 182.28037
#
# Poissons Ratio (x) = -0.25623 0.45347
# Poissons Ratio (y) = -0.36311 0.51583
# Poissons Ratio (z) = 0.12708 0.10200
#
# Static dielectric constant tensor:
#      x y z
#    x 2.385290 0.113530 -0.054710 
#    y 0.113530 2.163610 -0.044060 
#    z -0.054710 -0.044060 2.094610 
# 
# From -- ./inp_files/48910.got.cif
#   From: 2010.05.17/outbox.cif.g08.bks.cpg/sg2_25_cif.got.tgz:48910.got - 2010.06.03 11:33:40.
