data_PCOD9037683
_publ_section_title
;
Structure prediction by ZEFSAII (Michael W. Deem and Ramdas Pophale) SiO2 
 PCOD9037683
Probable space group: P -1
;
_chemical_formula_sum "Si O2"
_cell_formula_units_Z 10
_cell_length_a 12.666477
_cell_length_b 10.276353
_cell_length_c 15.738473
_cell_angle_alpha 45.242897
_cell_angle_beta 162.711898
_cell_angle_gamma 134.134393
_cell_volume 429.488307
_symmetry_space_group_name_H-M "P -1"
_symmetry_group_IT_number 2
_symmetry_cell_setting 'triclinic'
loop_
_space_group_symop_operation_xyz
x,y,z
-x,-y,-z
loop_
_atom_site_type_symbol
_atom_site_label
_atom_site_fract_x
_atom_site_fract_y
_atom_site_fract_z
Si Si1 0.276052 0.982230 0.644071
Si Si2 0.076535 0.524646 0.147005
Si Si3 0.720453 0.868778 0.790863
Si Si4 0.295105 0.625968 0.721972
Si Si5 0.234534 0.861246 0.917026
O O1 0.200550 0.775186 0.649792
O O2 0.000000 0.000000 0.500000
O O3 0.166006 0.094288 0.427077
O O4 0.640827 0.076743 0.921568
O O5 0.500000 0.500000 0.500000
O O6 0.800387 0.347611 0.048168
O O7 0.000000 0.500000 0.000000
O O8 0.930600 0.711722 0.979651
O O9 0.490230 0.750624 0.740175
O O10 0.500000 0.000000 0.500000
O O11 0.000000 0.000000 0.000000
O O12 0.000000 0.500000 0.500000
O O13 0.500000 0.500000 0.000000
O O14 0.500000 0.000000 0.000000
#
# Coordination Sequence:
#
# PCOD9037683 Si02
#       5
#     2   2   2   2   2
#     4  10  23  40  74 104 146 182 248 308 386 432
#     4  12  28  48  78 109 150 205 264 309 378 466
#     4  12  30  53  75 112 164 207 251 319 400 463
#     4  12  28  48  78 111 150 200 261 320 385 455
#     4  10  23  43  73 105 143 185 253 314 373 434
#
# _framework density 23.283519999999999
#
# number of rings (size 3 to 8) (size 9 to 14) (size 15 to 20)
#    0.000    0.800    0.000    4.800   19.600    0.000 
#    0.000    0.000    0.000    0.000    0.000    0.000 
#    0.000    0.000    0.000    0.000    0.000    0.000 
#
# Total GULP energy -55707.687444 kJ/mol
# GULP energy per Si atom -5570.768744 kJ/mol
# Density = 2.323053 g / cm^3
# Si number density = 23.283520 Si / 1000 Ang^3
#
#
#
# Elastic Constant Matrix: (Units=GPa)
#
#
# Indices 1 2 3 4 5 6 
#
# 1 134.6274 92.4942 81.6043 4.5414 -4.9545 -11.4091
# 2 92.4942 269.0775 114.0038 10.9490 -2.7741 -28.4630
# 3 81.6043 114.0038 203.3558 11.1666 -63.9363 -26.2799
# 4 4.5414 10.9490 11.1666 59.3524 -10.3178 7.6154
# 5 -4.9545 -2.7741 -63.9363 -10.3178 52.8021 5.6840
# 6 -11.4091 -28.4630 -26.2799 7.6154 5.6840 74.1092
#
#
#
# Elastic Compliance Matrix: (Units=1/GPa)
#
#
# Indices 1 2 3 4 5 6 
#
# 1 0.011805 -0.001764 -0.005596 -0.000492 -0.005820 -0.000347
# 2 -0.001764 0.006251 -0.004268 -0.001300 -0.005384 0.001163
# 3 -0.005596 -0.004268 0.015282 0.001261 0.017848 0.001420
# 4 -0.000492 -0.001300 0.001261 0.018100 0.005206 -0.002387
# 5 -0.005820 -0.005384 0.017848 0.005206 0.040771 -0.000297
# 6 -0.000347 0.001163 0.001420 -0.002387 -0.000297 0.014658
#
#
# Mechanical properties :
#
#
# Convention : Reuss Voigt Hill
#
# Bulk Modulus (GPa) = 99.18450 131.47392 115.32921
# Shear Modulus (GPa) = 37.45790 58.51663 47.98726
#
# Velocity S-wave (km/s) = 4.01530 5.01864 4.54475
# Velocity P-wave (km/s) = 8.01174 9.49587 8.78520
#
# Compressibility (1/GPa) = 0.01008222
#
# Stress axis : x y z
#
# Youngs Moduli (GPa) = 84.71321 159.96584 65.43740
#
# Poissons Ratio (x) = 0.28211 0.36619
# Poissons Ratio (y) = 0.14940 0.27930
# Poissons Ratio (z) = 0.47406 0.68276
#
# Static dielectric constant tensor:
#      x y z
#    x 1.853050 0.009490 -0.020090 
#    y 0.009490 1.931690 -0.158760 
#    z -0.020090 -0.158760 2.033520 
# 
# From -- ./inp_files/511645.got.cif
#   From: 2010.05.17/outbox.cif.g08.bks.cpg/sg2_256_cif.got.tgz:511645.got - 2010.06.03 11:33:40.
