data_PCOD9037243
_publ_section_title
;
Structure prediction by ZEFSAII (Michael W. Deem and Ramdas Pophale) SiO2 
 PCOD9037243
Probable space group: P -1
;
_chemical_formula_sum "Si O2"
_cell_formula_units_Z 16
_cell_length_a 18.525292
_cell_length_b 11.680332
_cell_length_c 12.062300
_cell_angle_alpha 38.581821
_cell_angle_beta 148.515645
_cell_angle_gamma 153.038310
_cell_volume 615.459808
_symmetry_space_group_name_H-M "P -1"
_symmetry_group_IT_number 2
_symmetry_cell_setting 'triclinic'
loop_
_space_group_symop_operation_xyz
x,y,z
-x,-y,-z
loop_
_atom_site_type_symbol
_atom_site_label
_atom_site_fract_x
_atom_site_fract_y
_atom_site_fract_z
Si Si1 0.240735 0.310085 0.920163
Si Si2 0.853602 0.683951 0.442992
Si Si3 0.325201 0.703943 0.197008
Si Si4 0.032365 0.218816 0.032908
Si Si5 0.708014 0.176969 0.690824
Si Si6 0.714089 0.010898 0.250267
Si Si7 0.540766 0.489453 0.358492
Si Si8 0.173553 0.591929 0.731101
O O1 0.249675 0.310562 0.798432
O O2 0.288722 0.567676 0.816685
O O3 0.378922 0.341419 0.165671
O O4 0.018332 0.041612 0.851824
O O5 0.826159 0.440771 0.582177
O O6 0.736601 0.631847 0.438267
O O7 0.082235 0.900904 0.574811
O O8 0.281398 0.764657 0.209923
O O9 0.484654 0.701723 0.445408
O O10 0.334213 0.878676 0.988943
O O11 0.165435 0.417328 0.155006
O O12 0.820947 0.095911 0.879217
O O13 0.107905 0.389323 0.894182
O O14 0.500000 0.000000 0.500000
O O15 0.735222 0.151242 0.282216
O O16 0.560472 0.706259 0.277736
O O17 0.000000 0.500000 0.500000
#
# Coordination Sequence:
#
# PCOD9037243 Si02
#       8
#     2   2   2   2   2   2   2   2
#     4  12  25  43  67  99 136 172 226 281 330 393
#     4  11  22  42  65 101 132 175 224 265 338 405
#     4  10  23  40  64 100 136 173 220 264 334 407
#     4  11  22  41  67  95 128 177 224 271 326 394
#     4  11  22  37  64 101 137 171 212 275 342 389
#     4  11  23  44  71  97 131 181 223 275 331 398
#     4  11  26  41  66 104 140 171 216 281 346 391
#     4  11  23  46  69  94 125 178 235 267 325 402
#
# _framework density 25.996824
#
# number of rings (size 3 to 8) (size 9 to 14) (size 15 to 20)
#    0.000    1.000    3.750    3.750    5.250    0.500 
#    2.250    2.500    0.000    0.000    0.000    0.000 
#    0.000    0.000    0.000    0.000    0.000    0.000 
#
# Total GULP energy -89454.532473 kJ/mol
# GULP energy per Si atom -5590.908280 kJ/mol
# Density = 2.593765 g / cm^3
# Si number density = 25.996824 Si / 1000 Ang^3
#
#
#
# Elastic Constant Matrix: (Units=GPa)
#
#
# Indices 1 2 3 4 5 6 
#
# 1 81.1415 45.1799 40.0209 8.4232 -21.2413 -11.6663
# 2 45.1799 96.5468 28.4969 -1.3113 -12.5909 -23.9538
# 3 40.0209 28.4969 169.8981 10.7011 -21.4657 -4.4481
# 4 8.4232 -1.3113 10.7011 45.0205 2.3939 3.2360
# 5 -21.2413 -12.5909 -21.4657 2.3939 44.4738 0.2767
# 6 -11.6663 -23.9538 -4.4481 3.2360 0.2767 30.9135
#
#
#
# Elastic Compliance Matrix: (Units=1/GPa)
#
#
# Indices 1 2 3 4 5 6 
#
# 1 0.019972 -0.007409 -0.002349 -0.003870 0.006505 0.001805
# 2 -0.007409 0.016590 -0.000782 0.001316 0.000649 0.009803
# 3 -0.002349 -0.000782 0.006903 -0.001306 0.002061 -0.000381
# 4 -0.003870 0.001316 -0.001306 0.023685 -0.003362 -0.003078
# 5 0.006505 0.000649 0.002061 -0.003362 0.026931 0.003365
# 6 0.001805 0.009803 -0.000381 -0.003078 0.003365 0.040863
#
#
# Mechanical properties :
#
#
# Convention : Reuss Voigt Hill
#
# Bulk Modulus (GPa) = 44.67128 63.88687 54.27907
# Shear Modulus (GPa) = 30.58365 39.67413 35.12889
#
# Velocity S-wave (km/s) = 3.43364 3.91079 3.67996
# Velocity P-wave (km/s) = 5.73939 6.70974 6.24344
#
# Compressibility (1/GPa) = 0.02238575
#
# Stress axis : x y z
#
# Youngs Moduli (GPa) = 50.06926 60.27598 144.86303
#
# Poissons Ratio (x) = 0.44661 0.34029
# Poissons Ratio (y) = 0.37098 0.11323
# Poissons Ratio (z) = 0.11762 0.04711
#
# Static dielectric constant tensor:
#      x y z
#    x 2.126860 0.015990 0.079430 
#    y 0.015990 2.060280 -0.021020 
#    z 0.079430 -0.021020 2.039820 
# 
# From -- ./inp_files/189321.got.cif
#   From: 2010.05.17/outbox.cif.g08.bks.cpg/sg2_95_cif.got.tgz:189321.got - 2010.06.03 11:33:40.
