data_PCOD9037361
_publ_section_title
;
Structure prediction by ZEFSAII (Michael W. Deem and Ramdas Pophale) SiO2 
 PCOD9037361
Probable space group: P -1
;
_chemical_formula_sum "Si O2"
_cell_formula_units_Z 12
_cell_length_a 19.960873
_cell_length_b 13.957824
_cell_length_c 17.707454
_cell_angle_alpha 157.912378
_cell_angle_beta 161.031970
_cell_angle_gamma 21.598201
_cell_volume 542.166286
_symmetry_space_group_name_H-M "P -1"
_symmetry_group_IT_number 2
_symmetry_cell_setting 'triclinic'
loop_
_space_group_symop_operation_xyz
x,y,z
-x,-y,-z
loop_
_atom_site_type_symbol
_atom_site_label
_atom_site_fract_x
_atom_site_fract_y
_atom_site_fract_z
Si Si1 0.456033 0.372292 0.783187
Si Si2 0.632611 0.205511 0.134365
Si Si3 0.721093 0.560171 0.951439
Si Si4 0.744691 0.571951 0.809239
Si Si5 0.129293 0.961373 0.529815
Si Si6 0.114734 0.173833 0.204984
O O1 0.481256 0.573712 0.892369
O O2 0.218208 0.344206 0.493283
O O3 0.658723 0.057023 0.762511
O O4 0.500000 0.500000 0.000000
O O5 0.904041 0.109922 0.346197
O O6 0.514967 0.377927 0.211483
O O7 0.611227 0.908286 0.895364
O O8 0.733500 0.857208 0.184478
O O9 0.930522 0.357653 0.080021
O O10 0.756988 0.485127 0.846716
O O11 0.705190 0.344905 0.550224
O O12 0.000000 0.500000 0.000000
O O13 0.000000 0.000000 0.500000
O O14 0.000000 0.000000 0.000000
#
# Coordination Sequence:
#
# PCOD9037361 Si02
#       6
#     2   2   2   2   2   2
#     4  11  26  45  71  98 136 180 228 281 335 406
#     4  11  23  44  64 100 133 171 224 276 337 397
#     4  12  23  43  68  93 139 171 220 283 329 403
#     4  10  23  40  66 100 128 174 220 264 340 401
#     4  11  23  42  66  94 136 177 215 276 337 400
#     4  11  25  47  69  99 133 181 229 279 340 394
#
# _framework density 22.133431000000002
#
# number of rings (size 3 to 8) (size 9 to 14) (size 15 to 20)
#    0.000    1.000    6.667    0.500    4.667    1.333 
#    3.000    0.000    0.000    0.000    0.000    0.000 
#    0.000    0.000    0.000    0.000    0.000    0.000 
#
# Total GULP energy -66947.328027 kJ/mol
# GULP energy per Si atom -5578.944002 kJ/mol
# Density = 2.208305 g / cm^3
# Si number density = 22.133431 Si / 1000 Ang^3
#
#
#
# Elastic Constant Matrix: (Units=GPa)
#
#
# Indices 1 2 3 4 5 6 
#
# 1 154.7011 44.5466 63.2214 5.6032 -19.5725 6.8324
# 2 44.5466 117.9205 41.2089 -9.9453 -14.2207 5.0255
# 3 63.2214 41.2089 112.3100 -1.2558 -18.2118 5.2524
# 4 5.6032 -9.9453 -1.2558 37.6526 -11.0664 3.8659
# 5 -19.5725 -14.2207 -18.2118 -11.0664 37.7928 4.8701
# 6 6.8324 5.0255 5.2524 3.8659 4.8701 38.1938
#
#
#
# Elastic Compliance Matrix: (Units=1/GPa)
#
#
# Indices 1 2 3 4 5 6 
#
# 1 0.008958 -0.001835 -0.004067 -0.001362 0.001704 -0.000881
# 2 -0.001835 0.010807 -0.002241 0.004251 0.003496 -0.001662
# 3 -0.004067 -0.002241 0.012727 0.001717 0.003866 -0.001395
# 4 -0.001362 0.004251 0.001717 0.031939 0.011755 -0.005283
# 5 0.001704 0.003496 0.003866 0.011755 0.034856 -0.006931
# 6 -0.000881 -0.001662 -0.001395 -0.005283 -0.006931 0.028169
#
#
# Mechanical properties :
#
#
# Convention : Reuss Voigt Hill
#
# Bulk Modulus (GPa) = 61.70043 75.87613 68.78828
# Shear Modulus (GPa) = 33.52473 38.45814 35.99143
#
# Velocity S-wave (km/s) = 3.89609 4.17293 4.03688
# Velocity P-wave (km/s) = 6.94093 7.58771 7.27152
#
# Compressibility (1/GPa) = 0.01620734
#
# Stress axis : x y z
#
# Youngs Moduli (GPa) = 111.62702 92.53061 78.57320
#
# Poissons Ratio (x) = 0.16976 0.31959
# Poissons Ratio (y) = 0.20480 0.17605
# Poissons Ratio (z) = 0.45403 0.20732
#
# Static dielectric constant tensor:
#      x y z
#    x 1.905080 -0.017460 0.014450 
#    y -0.017460 1.869710 0.001080 
#    z 0.014450 0.001080 1.956570 
# 
# From -- ./inp_files/136994.got.cif
#   From: 2010.05.17/outbox.cif.g08.bks.cpg/sg2_69_cif.got.tgz:136994.got - 2010.06.03 11:33:40.
