data_PCOD9037419
_publ_section_title
;
Structure prediction by ZEFSAII (Michael W. Deem and Ramdas Pophale) SiO2 
 PCOD9037419
Probable space group: P -1
;
_chemical_formula_sum "Si O2"
_cell_formula_units_Z 16
_cell_length_a 21.064218
_cell_length_b 12.380344
_cell_length_c 18.646894
_cell_angle_alpha 30.582078
_cell_angle_beta 161.448255
_cell_angle_gamma 140.162613
_cell_volume 751.286776
_symmetry_space_group_name_H-M "P -1"
_symmetry_group_IT_number 2
_symmetry_cell_setting 'triclinic'
loop_
_space_group_symop_operation_xyz
x,y,z
-x,-y,-z
loop_
_atom_site_type_symbol
_atom_site_label
_atom_site_fract_x
_atom_site_fract_y
_atom_site_fract_z
Si Si1 0.520365 0.969688 0.838065
Si Si2 0.421396 0.837854 0.060457
Si Si3 0.476573 0.257231 0.321603
Si Si4 0.373127 0.556958 0.904341
Si Si5 0.204546 0.556064 0.362807
Si Si6 0.902850 0.364082 0.240230
Si Si7 0.957649 0.843596 0.336024
Si Si8 0.930404 0.732761 0.835019
O O1 0.601150 0.067220 0.938408
O O2 0.319001 0.160039 0.485368
O O3 0.446601 0.758120 0.903212
O O4 0.712749 0.883784 0.038775
O O5 0.609112 0.608805 0.389070
O O6 0.213333 0.791500 0.835415
O O7 0.500000 0.000000 0.000000
O O8 0.683163 0.310039 0.542216
O O9 0.500000 0.000000 0.500000
O O10 0.429506 0.353721 0.135711
O O11 0.278980 0.405553 0.070862
O O12 0.125283 0.672608 0.562466
O O13 0.500000 0.500000 0.000000
O O14 0.086383 0.413548 0.363461
O O15 0.040037 0.701890 0.047197
O O16 0.984367 0.260929 0.463415
O O17 0.996585 0.082180 0.235625
O O18 0.000000 0.500000 0.000000
#
# Coordination Sequence:
#
# PCOD9037419 Si02
#       8
#     2   2   2   2   2   2   2   2
#     4  11  23  40  65  93 130 179 224 269 329 398
#     4  11  21  36  64  95 131 172 219 269 328 398
#     4  10  23  44  69  98 131 168 224 281 341 402
#     4  10  23  44  68  97 129 167 226 285 331 400
#     4  11  24  42  64  97 136 172 220 277 331 397
#     4  10  23  40  66  99 129 174 224 274 336 400
#     4  10  23  42  64  94 130 172 224 272 331 395
#     4  11  24  41  60  95 141 177 219 269 327 394
#
# _framework density 21.296796000000001
#
# number of rings (size 3 to 8) (size 9 to 14) (size 15 to 20)
#    0.000    1.500    1.250    4.500    1.750    7.500 
#    0.000    3.750    0.000    0.000    0.000    0.000 
#    0.000    0.000    0.000    0.000    0.000    0.000 
#
# Total GULP energy -89489.632513 kJ/mol
# GULP energy per Si atom -5593.102032 kJ/mol
# Density = 2.124832 g / cm^3
# Si number density = 21.296796 Si / 1000 Ang^3
#
#
#
# Elastic Constant Matrix: (Units=GPa)
#
#
# Indices 1 2 3 4 5 6 
#
# 1 80.7581 21.7319 43.4336 -3.7967 18.3104 8.8503
# 2 21.7319 110.0316 43.1346 -10.1184 7.1217 15.0950
# 3 43.4336 43.1346 150.8819 -6.1641 15.5584 11.7819
# 4 -3.7967 -10.1184 -6.1641 35.9526 12.6491 -0.1157
# 5 18.3104 7.1217 15.5584 12.6491 27.9145 8.4951
# 6 8.8503 15.0950 11.7819 -0.1157 8.4951 25.5561
#
#
#
# Elastic Compliance Matrix: (Units=1/GPa)
#
#
# Indices 1 2 3 4 5 6 
#
# 1 0.017262 -0.000889 -0.003315 0.005056 -0.011517 -0.000073
# 2 -0.000889 0.011183 -0.002357 0.002903 -0.000767 -0.004942
# 3 -0.003315 -0.002357 0.008608 0.001316 -0.002431 -0.000614
# 4 0.005056 0.002903 0.001316 0.037457 -0.022892 0.003707
# 5 -0.011517 -0.000767 -0.002431 -0.022892 0.059678 -0.014379
# 6 -0.000073 -0.004942 -0.000614 0.003707 -0.014379 0.047153
#
#
# Mechanical properties :
#
#
# Convention : Reuss Voigt Hill
#
# Bulk Modulus (GPa) = 41.78916 62.03021 51.90968
# Shear Modulus (GPa) = 24.69853 33.44275 29.07064
#
# Velocity S-wave (km/s) = 3.40917 3.96702 3.69863
# Velocity P-wave (km/s) = 5.92971 7.08328 6.53201
#
# Compressibility (1/GPa) = 0.02392965
#
# Stress axis : x y z
#
# Youngs Moduli (GPa) = 57.93122 89.42378 116.16701
#
# Poissons Ratio (x) = 0.07953 0.38509
# Poissons Ratio (y) = 0.05152 0.27384
# Poissons Ratio (z) = 0.19204 0.21080
#
# Static dielectric constant tensor:
#      x y z
#    x 1.761650 0.001520 0.035920 
#    y 0.001520 1.786150 0.017100 
#    z 0.035920 0.017100 1.791090 
# 
# From -- ./inp_files/577924.got.cif
#   From: 2010.05.17/outbox.cif.g08.bks.cpg/sg2_289_cif.got.tgz:577924.got - 2010.06.03 11:33:40.
