data_PCOD9037546
_publ_section_title
;
Structure prediction by ZEFSAII (Michael W. Deem and Ramdas Pophale) SiO2 
 PCOD9037546
Probable space group: P -1
;
_chemical_formula_sum "Si O2"
_cell_formula_units_Z 14
_cell_length_a 11.868825
_cell_length_b 8.797041
_cell_length_c 7.141733
_cell_angle_alpha 71.436931
_cell_angle_beta 54.809461
_cell_angle_gamma 63.225709
_cell_volume 542.292974
_symmetry_space_group_name_H-M "P -1"
_symmetry_group_IT_number 2
_symmetry_cell_setting 'triclinic'
loop_
_space_group_symop_operation_xyz
x,y,z
-x,-y,-z
loop_
_atom_site_type_symbol
_atom_site_label
_atom_site_fract_x
_atom_site_fract_y
_atom_site_fract_z
Si Si1 0.260998 0.089247 0.169856
Si Si2 0.322311 0.387458 0.567298
Si Si3 0.185240 0.748978 0.024626
Si Si4 0.601156 0.637462 0.064190
Si Si5 0.938446 0.700543 0.031613
Si Si6 0.259089 0.752819 0.357004
Si Si7 0.568940 0.112581 0.266354
O O1 0.324183 0.228849 0.133763
O O2 0.117859 0.191647 0.145142
O O3 0.380749 0.985631 0.939030
O O4 0.240766 0.941332 0.376493
O O5 0.396627 0.351030 0.714577
O O6 0.203563 0.293607 0.713670
O O7 0.245543 0.592554 0.543753
O O8 0.446214 0.301682 0.329514
O O9 0.289695 0.551108 0.006605
O O10 0.282462 0.859148 0.818586
O O11 0.157882 0.790013 0.254649
O O12 0.048293 0.762430 0.022490
O O13 0.432051 0.676009 0.163689
O O14 0.000000 0.500000 0.000000
O O15 0.500000 0.000000 0.500000
#
# Coordination Sequence:
#
# PCOD9037546 Si02
#       7
#     2   2   2   2   2   2   2
#     4  10  23  40  68  96 133 169 217 275 323 380
#     4  11  23  40  71  92 132 170 221 265 323 387
#     4  11  24  39  71  91 136 174 211 268 333 383
#     4  11  20  40  66  95 123 179 215 261 324 386
#     4  11  22  45  69  92 130 180 222 252 327 403
#     4  11  24  39  62 102 133 163 221 274 329 372
#     4  11  21  40  63 104 124 160 224 272 314 375
#
# _framework density 25.816305
#
# number of rings (size 3 to 8) (size 9 to 14) (size 15 to 20)
#    0.000    1.143    7.143    1.286    2.000    2.857 
#    0.000    0.714    0.000    0.000    0.000    0.000 
#    0.000    0.000    0.000    0.000    0.000    0.000 
#
# Total GULP energy -78349.313920 kJ/mol
# GULP energy per Si atom -5596.379566 kJ/mol
# Density = 2.575755 g / cm^3
# Si number density = 25.816305 Si / 1000 Ang^3
#
#
#
# Elastic Constant Matrix: (Units=GPa)
#
#
# Indices 1 2 3 4 5 6 
#
# 1 135.5196 -1.9737 28.7267 -15.5629 -12.1013 9.4792
# 2 -1.9737 125.9760 20.0705 -36.6636 -1.2987 7.7627
# 3 28.7267 20.0705 67.7225 -17.7082 -6.7757 12.4041
# 4 -15.5629 -36.6636 -17.7082 50.8152 6.8492 -6.1579
# 5 -12.1013 -1.2987 -6.7757 6.8492 35.6538 -6.5618
# 6 9.4792 7.7627 12.4041 -6.1579 -6.5618 47.0452
#
#
#
# Elastic Compliance Matrix: (Units=1/GPa)
#
#
# Indices 1 2 3 4 5 6 
#
# 1 0.008515 0.001313 -0.003155 0.002141 0.001823 -0.000566
# 2 0.001313 0.010408 -0.001685 0.007378 -0.001045 -0.000718
# 3 -0.003155 -0.001685 0.018261 0.003645 0.001034 -0.003280
# 4 0.002141 0.007378 0.003645 0.027460 -0.003495 0.000497
# 5 0.001823 -0.001045 0.001034 -0.003495 0.030099 0.003273
# 6 -0.000566 -0.000718 -0.003280 0.000497 0.003273 0.022875
#
#
# Mechanical properties :
#
#
# Convention : Reuss Voigt Hill
#
# Bulk Modulus (GPa) = 33.19041 46.98498 40.08769
# Shear Modulus (GPa) = 37.11529 45.52915 41.32222
#
# Velocity S-wave (km/s) = 3.79577 4.20406 4.00512
# Velocity P-wave (km/s) = 5.66523 6.46566 6.07863
#
# Compressibility (1/GPa) = 0.03012919
#
# Stress axis : x y z
#
# Youngs Moduli (GPa) = 117.43675 96.08160 54.76110
#
# Poissons Ratio (x) = -0.12615 0.17278
# Poissons Ratio (y) = -0.15419 0.09229
# Poissons Ratio (z) = 0.37053 0.16193
#
# Static dielectric constant tensor:
#      x y z
#    x 2.025420 -0.019470 0.027010 
#    y -0.019470 2.076190 -0.015830 
#    z 0.027010 -0.015830 2.088070 
# 
# From -- ./inp_files/216316.got.cif
#   From: 2010.05.17/outbox.cif.g08.bks.cpg/sg2_109_cif.got.tgz:216316.got - 2010.06.03 11:33:40.
