data_PCOD9037475
_publ_section_title
;
Structure prediction by ZEFSAII (Michael W. Deem and Ramdas Pophale) SiO2 
 PCOD9037475
Probable space group: P -1
;
_chemical_formula_sum "Si O2"
_cell_formula_units_Z 16
_cell_length_a 16.723403
_cell_length_b 8.950710
_cell_length_c 8.649320
_cell_angle_alpha 113.740903
_cell_angle_beta 142.279653
_cell_angle_gamma 87.264204
_cell_volume 634.717227
_symmetry_space_group_name_H-M "P -1"
_symmetry_group_IT_number 2
_symmetry_cell_setting 'triclinic'
loop_
_space_group_symop_operation_xyz
x,y,z
-x,-y,-z
loop_
_atom_site_type_symbol
_atom_site_label
_atom_site_fract_x
_atom_site_fract_y
_atom_site_fract_z
Si Si1 0.221657 0.657264 0.426404
Si Si2 0.565812 0.014575 0.297124
Si Si3 0.828135 0.227621 0.040430
Si Si4 0.082367 0.900924 0.298685
Si Si5 0.256122 0.325161 0.242809
Si Si6 0.312859 0.245343 0.628332
Si Si7 0.283173 0.055633 0.972296
Si Si8 0.174123 0.476967 0.616322
O O1 0.365089 0.855252 0.692470
O O2 0.093526 0.711506 0.213127
O O3 0.243447 0.512263 0.292339
O O4 0.203081 0.589392 0.546013
O O5 0.426536 0.029483 0.153977
O O6 0.562689 0.817410 0.181991
O O7 0.697214 0.116624 0.671159
O O8 0.806494 0.392054 0.154693
O O9 0.999287 0.319833 0.283310
O O10 0.806735 0.087669 0.088613
O O11 0.159310 0.050506 0.343099
O O12 0.913567 0.833989 0.051655
O O13 0.183356 0.000608 0.644096
O O14 0.335910 0.325084 0.524287
O O15 0.319346 0.259450 0.171277
O O16 0.283849 0.387597 0.746402
#
# Coordination Sequence:
#
# PCOD9037475 Si02
#       8
#     2   2   2   2   2   2   2   2
#     4  10  24  41  67  98 128 170 211 278 320 383
#     4  11  26  43  69  90 135 182 215 255 325 397
#     4  11  23  41  69  96 129 172 209 276 325 380
#     4  11  23  41  68  94 133 165 220 275 322 379
#     4  11  23  39  70  98 127 165 224 272 326 373
#     4  10  23  40  67  98 125 173 214 269 317 390
#     4  12  25  45  62  98 135 177 217 258 326 394
#     4  10  23  43  69 100 130 158 224 276 330 368
#
# _framework density 25.208078
#
# number of rings (size 3 to 8) (size 9 to 14) (size 15 to 20)
#    0.000    1.250    2.500    2.250    8.750    3.500 
#    0.000    1.875    0.000    0.000    0.000    0.000 
#    0.000    0.000    0.000    0.000    0.000    0.000 
#
# Total GULP energy -89608.306509 kJ/mol
# GULP energy per Si atom -5600.519157 kJ/mol
# Density = 2.515070 g / cm^3
# Si number density = 25.208078 Si / 1000 Ang^3
#
#
#
# Elastic Constant Matrix: (Units=GPa)
#
#
# Indices 1 2 3 4 5 6 
#
# 1 126.1253 65.6301 31.9950 -3.9995 7.7398 -28.6043
# 2 65.6301 128.8549 10.4376 -3.8706 0.4707 -40.4774
# 3 31.9950 10.4376 62.8436 -10.2000 3.2380 -10.3699
# 4 -3.9995 -3.8706 -10.2000 29.8513 -0.0543 7.4906
# 5 7.7398 0.4707 3.2380 -0.0543 37.1733 2.0063
# 6 -28.6043 -40.4774 -10.3699 7.4906 2.0063 71.4147
#
#
#
# Elastic Compliance Matrix: (Units=1/GPa)
#
#
# Indices 1 2 3 4 5 6 
#
# 1 0.012585 -0.005605 -0.005349 -0.001192 -0.002154 0.001273
# 2 -0.005605 0.011976 0.001644 0.000174 0.000616 0.004746
# 3 -0.005349 0.001644 0.019524 0.005910 -0.000654 0.001023
# 4 -0.001192 0.000174 0.005910 0.036214 -0.000037 -0.003318
# 5 -0.002154 0.000616 -0.000654 -0.000037 0.027473 -0.001376
# 6 0.001273 0.004746 0.001023 -0.003318 -0.001376 0.017738
#
#
# Mechanical properties :
#
#
# Convention : Reuss Voigt Hill
#
# Bulk Modulus (GPa) = 39.26726 59.32768 49.29747
# Shear Modulus (GPa) = 32.76143 41.67193 37.21668
#
# Velocity S-wave (km/s) = 3.60896 4.07027 3.84654
# Velocity P-wave (km/s) = 5.74258 6.75838 6.27108
#
# Compressibility (1/GPa) = 0.02546651
#
# Stress axis : x y z
#
# Youngs Moduli (GPa) = 79.45946 83.49960 51.21793
#
# Poissons Ratio (x) = 0.46800 0.27395
# Poissons Ratio (y) = 0.44535 -0.08421
# Poissons Ratio (z) = 0.42501 -0.13728
#
# Static dielectric constant tensor:
#      x y z
#    x 1.978030 -0.023710 -0.020330 
#    y -0.023710 2.000840 0.041250 
#    z -0.020330 0.041250 2.049590 
# 
# From -- ./inp_files/299416.got.cif
#   From: 2010.05.17/outbox.cif.g08.bks.cpg/sg2_150_cif.got.tgz:299416.got - 2010.06.03 11:33:40.
