data_PCOD9037962
_publ_section_title
;
Structure prediction by ZEFSAII (Michael W. Deem and Ramdas Pophale) SiO2 
 PCOD9037962
Probable space group: P -1
;
_chemical_formula_sum "Si O2"
_cell_formula_units_Z 14
_cell_length_a 11.554811
_cell_length_b 14.167947
_cell_length_c 7.763022
_cell_angle_alpha 55.694889
_cell_angle_beta 36.620903
_cell_angle_gamma 46.041608
_cell_volume 545.648310
_symmetry_space_group_name_H-M "P -1"
_symmetry_group_IT_number 2
_symmetry_cell_setting 'triclinic'
loop_
_space_group_symop_operation_xyz
x,y,z
-x,-y,-z
loop_
_atom_site_type_symbol
_atom_site_label
_atom_site_fract_x
_atom_site_fract_y
_atom_site_fract_z
Si Si1 0.750241 0.193405 0.908295
Si Si2 0.671785 0.957427 0.126859
Si Si3 0.950870 0.270030 0.272771
Si Si4 0.324250 0.430108 0.345638
Si Si5 0.869582 0.595809 0.841575
Si Si6 0.799512 0.846017 0.453479
Si Si7 0.654075 0.447679 0.153015
O O1 0.805242 0.255584 0.612539
O O2 0.968911 0.153762 0.803213
O O3 0.523775 0.295723 0.170872
O O4 0.726464 0.070773 0.001737
O O5 0.728923 0.863364 0.321124
O O6 0.407927 0.029454 0.335482
O O7 0.834744 0.870657 0.872423
O O8 0.809488 0.324307 0.211456
O O9 0.050490 0.361197 0.128923
O O10 0.421594 0.455368 0.379445
O O11 0.076652 0.463685 0.651979
O O12 0.282730 0.537098 0.135577
O O13 0.817633 0.716381 0.651358
O O14 0.667705 0.565546 0.112500
#
# Coordination Sequence:
#
# PCOD9037962 Si02
#       7
#     2   2   2   2   2   2   2
#     4  11  24  42  63  93 128 167 208 262 315 368
#     4  11  23  44  66  89 126 168 210 266 312 362
#     4  11  24  41  65  97 131 168 211 252 317 391
#     4  11  24  41  68  95 124 167 218 259 311 378
#     4  11  24  42  65  96 131 167 206 263 319 373
#     4  10  23  41  65  93 120 164 223 257 305 378
#     4  11  22  42  64  93 132 164 206 264 313 372
#
# _framework density 25.657553
#
# number of rings (size 3 to 8) (size 9 to 14) (size 15 to 20)
#    0.000    1.143    0.000    7.714    0.000    8.000 
#    0.000    8.571    0.000    0.000    0.000    0.000 
#    0.000    0.000    0.000    0.000    0.000    0.000 
#
# Total GULP energy -78390.237241 kJ/mol
# GULP energy per Si atom -5599.302660 kJ/mol
# Density = 2.559916 g / cm^3
# Si number density = 25.657553 Si / 1000 Ang^3
#
#
#
# Elastic Constant Matrix: (Units=GPa)
#
#
# Indices 1 2 3 4 5 6 
#
# 1 172.9364 39.4250 52.5961 8.7062 -14.1031 -13.0437
# 2 39.4250 114.1048 60.5318 27.1740 0.1457 5.5963
# 3 52.5961 60.5318 115.5043 36.1616 -9.6366 -5.1435
# 4 8.7062 27.1740 36.1616 54.0687 -13.2381 0.3734
# 5 -14.1031 0.1457 -9.6366 -13.2381 44.0518 -5.5012
# 6 -13.0437 5.5963 -5.1435 0.3734 -5.5012 47.7136
#
#
#
# Elastic Compliance Matrix: (Units=1/GPa)
#
#
# Indices 1 2 3 4 5 6 
#
# 1 0.007285 -0.001651 -0.002815 0.002172 0.002646 0.002170
# 2 -0.001651 0.013218 -0.005486 -0.003467 -0.003180 -0.002933
# 3 -0.002815 -0.005486 0.015037 -0.006713 0.000591 0.001616
# 4 0.002172 -0.003467 -0.006713 0.026135 0.007205 0.000903
# 5 0.002646 -0.003180 0.000591 0.007205 0.026370 0.004144
# 6 0.002170 -0.002933 0.001616 0.000903 0.004144 0.022540
#
#
# Mechanical properties :
#
#
# Convention : Reuss Voigt Hill
#
# Bulk Modulus (GPa) = 63.95011 78.62792 71.28901
# Shear Modulus (GPa) = 36.84553 45.83301 41.33927
#
# Velocity S-wave (km/s) = 3.79364 4.23109 4.01832
# Velocity P-wave (km/s) = 6.64586 7.38791 7.02669
#
# Compressibility (1/GPa) = 0.01563719
#
# Stress axis : x y z
#
# Youngs Moduli (GPa) = 137.26885 75.65429 66.50086
#
# Poissons Ratio (x) = 0.12490 0.18718
# Poissons Ratio (y) = 0.22662 0.36482
# Poissons Ratio (z) = 0.38638 0.41503
#
# Static dielectric constant tensor:
#      x y z
#    x 2.026090 -0.007020 0.013420 
#    y -0.007020 2.025590 0.009400 
#    z 0.013420 0.009400 1.995630 
# 
# From -- ./inp_files/270093.got.cif
#   From: 2010.05.17/outbox.cif.g08.bks.cpg/sg2_136_cif.got.tgz:270093.got - 2010.06.03 11:33:40.
