data_PCOD9037195
_publ_section_title
;
Structure prediction by ZEFSAII (Michael W. Deem and Ramdas Pophale) SiO2 
 PCOD9037195
Probable space group: P -1
;
_chemical_formula_sum "Si O2"
_cell_formula_units_Z 16
_cell_length_a 9.632341
_cell_length_b 11.477597
_cell_length_c 8.624866
_cell_angle_alpha 73.177051
_cell_angle_beta 111.435341
_cell_angle_gamma 60.419232
_cell_volume 628.586683
_symmetry_space_group_name_H-M "P -1"
_symmetry_group_IT_number 2
_symmetry_cell_setting 'triclinic'
loop_
_space_group_symop_operation_xyz
x,y,z
-x,-y,-z
loop_
_atom_site_type_symbol
_atom_site_label
_atom_site_fract_x
_atom_site_fract_y
_atom_site_fract_z
Si Si1 0.888403 0.917682 0.511002
Si Si2 0.274246 0.587786 0.934336
Si Si3 0.042690 0.813328 0.300935
Si Si4 0.464349 0.153847 0.348666
Si Si5 0.268220 0.461315 0.687486
Si Si6 0.300191 0.248917 0.542314
Si Si7 0.352986 0.066043 0.060106
Si Si8 0.643086 0.358217 0.739671
O O1 0.801732 0.828113 0.471204
O O2 0.089261 0.779872 0.743326
O O3 0.952956 0.936072 0.363365
O O4 0.686545 0.088089 0.436542
O O5 0.229974 0.494803 0.842341
O O6 0.500000 0.500000 0.000000
O O7 0.281126 0.585615 0.123640
O O8 0.169026 0.636772 0.505250
O O9 0.182689 0.796128 0.234221
O O10 0.863152 0.849700 0.119850
O O11 0.313962 0.295693 0.357059
O O12 0.366124 0.174987 0.135896
O O13 0.500000 0.000000 0.500000
O O14 0.207403 0.380539 0.589185
O O15 0.506386 0.344546 0.792383
O O16 0.535849 0.101698 0.736874
O O17 0.500000 0.000000 0.000000
O O18 0.500000 0.500000 0.500000
#
# Coordination Sequence:
#
# PCOD9037195 Si02
#       8
#     2   2   2   2   2   2   2   2
#     4   9  17  32  54  80 101 141 177 208 259 316
#     4   9  18  32  55  76 100 139 182 214 249 317
#     4  10  18  31  57  76 103 137 180 214 254 309
#     4   8  17  30  50  75 106 141 174 204 254 322
#     4   9  20  38  52  80 107 137 174 219 269 303
#     4  10  20  34  55  78 114 136 168 222 265 310
#     4  10  17  33  51  79 105 143 180 206 255 316
#     4   9  19  34  56  77 100 139 178 220 252 310
#
# _framework density 25.453925999999999
#
# number of rings (size 3 to 8) (size 9 to 14) (size 15 to 20)
#    0.000    3.000    2.500    0.750    5.250    2.000 
#    0.000    3.750    0.000    0.750    0.000    0.000 
#    0.000    0.000    0.000    0.000    0.000    0.000 
#
# Total GULP energy -89221.758974 kJ/mol
# GULP energy per Si atom -5576.359936 kJ/mol
# Density = 2.539599 g / cm^3
# Si number density = 25.453926 Si / 1000 Ang^3
#
#
#
# Elastic Constant Matrix: (Units=GPa)
#
#
# Indices 1 2 3 4 5 6 
#
# 1 62.3957 31.5965 12.4415 -4.3048 4.8653 -26.6961
# 2 31.5965 99.3425 43.7353 32.8802 -14.3553 -14.6123
# 3 12.4415 43.7353 136.4147 33.2600 8.5138 -13.6436
# 4 -4.3048 32.8802 33.2600 43.3694 -21.0671 -7.1715
# 5 4.8653 -14.3553 8.5138 -21.0671 22.2663 -3.8402
# 6 -26.6961 -14.6123 -13.6436 -7.1715 -3.8402 57.5115
#
#
#
# Elastic Compliance Matrix: (Units=1/GPa)
#
#
# Indices 1 2 3 4 5 6 
#
# 1 0.028505 -0.011135 -0.003406 0.020723 0.009714 0.012827
# 2 -0.011135 0.018962 -0.002676 -0.011756 0.004184 -0.002172
# 3 -0.003406 -0.002676 0.018335 -0.032169 -0.039211 -0.004540
# 4 0.020723 -0.011756 -0.032169 0.118736 0.116254 0.021569
# 5 0.009714 0.004184 -0.039211 0.116254 0.174336 0.022407
# 6 0.012827 -0.002172 -0.004540 0.021569 0.022407 0.025899
#
#
# Mechanical properties :
#
#
# Convention : Reuss Voigt Hill
#
# Bulk Modulus (GPa) = 31.87872 52.63329 42.25600
# Shear Modulus (GPa) = 11.63705 38.65475 25.14590
#
# Velocity S-wave (km/s) = 2.14050 3.90117 3.14650
# Velocity P-wave (km/s) = 4.31975 6.40429 5.46238
#
# Compressibility (1/GPa) = 0.03136889
#
# Stress axis : x y z
#
# Youngs Moduli (GPa) = 35.08151 52.73748 54.53920
#
# Poissons Ratio (x) = 0.58725 0.18574
# Poissons Ratio (y) = 0.39064 0.14593
# Poissons Ratio (z) = 0.11947 0.14111
#
# Static dielectric constant tensor:
#      x y z
#    x 2.133980 0.013690 -0.044680 
#    y 0.013690 2.181700 0.080190 
#    z -0.044680 0.080190 2.112220 
# 
# From -- ./inp_files/267906.got.cif
#   From: 2010.05.17/outbox.cif.g08.bks.cpg/sg2_134_cif.got.tgz:267906.got - 2010.06.03 11:33:40.
