data_PCOD9037699
_publ_section_title
;
Structure prediction by ZEFSAII (Michael W. Deem and Ramdas Pophale) SiO2 
 PCOD9037699
Probable space group: P -1
;
_chemical_formula_sum "Si O2"
_cell_formula_units_Z 14
_cell_length_a 12.821361
_cell_length_b 15.968440
_cell_length_c 4.965577
_cell_angle_alpha 62.697743
_cell_angle_beta 93.950386
_cell_angle_gamma 140.119690
_cell_volume 502.676300
_symmetry_space_group_name_H-M "P -1"
_symmetry_group_IT_number 2
_symmetry_cell_setting 'triclinic'
loop_
_space_group_symop_operation_xyz
x,y,z
-x,-y,-z
loop_
_atom_site_type_symbol
_atom_site_label
_atom_site_fract_x
_atom_site_fract_y
_atom_site_fract_z
Si Si1 0.949899 0.605331 0.371918
Si Si2 0.266023 0.291662 0.547668
Si Si3 0.909680 0.991017 0.740464
Si Si4 0.386710 0.710025 0.562426
Si Si5 0.242043 0.958336 0.692617
Si Si6 0.176634 0.729881 0.745116
Si Si7 0.535615 0.655545 0.013107
O O1 0.015345 0.636985 0.640234
O O2 0.740413 0.428597 0.491525
O O3 0.077749 0.634390 0.152749
O O4 0.043920 0.776176 0.047736
O O5 0.075855 0.194000 0.538958
O O6 0.382366 0.470612 0.386459
O O7 0.296850 0.234800 0.885300
O O8 0.373384 0.322510 0.271609
O O9 0.000000 0.000000 0.500000
O O10 0.764885 0.952988 0.615389
O O11 0.000000 0.000000 0.000000
O O12 0.601673 0.903130 0.256743
O O13 0.290695 0.730215 0.640333
O O14 0.416678 0.652920 0.878110
O O15 0.296679 0.911909 0.577971
#
# Coordination Sequence:
#
# PCOD9037699 Si02
#       7
#     2   2   2   2   2   2   2
#     4  10  23  41  59  86 126 161 197 246 293 352
#     4   8  13  24  45  75 115 144 189 243 288 345
#     4   8  13  26  46  77 114 146 191 233 297 340
#     4  11  19  36  57  85 122 161 200 246 295 357
#     4   9  21  35  58  89 121 158 201 243 296 357
#     4  10  23  42  59  88 128 155 201 244 297 350
#     4   8  15  24  45  78 112 145 196 233 295 339
#
# _framework density 27.850923000000002
#
# number of rings (size 3 to 8) (size 9 to 14) (size 15 to 20)
#    1.714    1.143    0.000    2.143    0.000    0.571 
#    2.571    0.000    0.000    0.000    0.000   10.000 
#    4.286    0.429    0.000    0.000    0.000    0.000 
#
# Total GULP energy -78170.736337 kJ/mol
# GULP energy per Si atom -5583.624024 kJ/mol
# Density = 2.778753 g / cm^3
# Si number density = 27.850923 Si / 1000 Ang^3
#
#
#
# Elastic Constant Matrix: (Units=GPa)
#
#
# Indices 1 2 3 4 5 6 
#
# 1 106.0757 37.3130 36.2796 24.4067 17.8651 -4.1952
# 2 37.3130 269.9060 42.9252 -2.6212 9.7517 27.0616
# 3 36.2796 42.9252 127.3248 23.6611 8.4959 -6.0934
# 4 24.4067 -2.6212 23.6611 37.0317 -4.9545 -0.0200
# 5 17.8651 9.7517 8.4959 -4.9545 44.3675 10.0697
# 6 -4.1952 27.0616 -6.0934 -0.0200 10.0697 37.5753
#
#
#
# Elastic Compliance Matrix: (Units=1/GPa)
#
#
# Indices 1 2 3 4 5 6 
#
# 1 0.014180 -0.002180 -0.000713 -0.010025 -0.007349 0.005002
# 2 -0.002180 0.004715 -0.001868 0.003168 0.001541 -0.004354
# 3 -0.000713 -0.001868 0.010282 -0.006611 -0.002848 0.003693
# 4 -0.010025 0.003168 -0.006611 0.039484 0.010675 -0.007313
# 5 -0.007349 0.001541 -0.002848 0.010675 0.029216 -0.010216
# 6 0.005002 -0.004354 0.003693 -0.007313 -0.010216 0.033640
#
#
# Mechanical properties :
#
#
# Convention : Reuss Voigt Hill
#
# Bulk Modulus (GPa) = 50.87792 81.81578 66.34685
# Shear Modulus (GPa) = 33.87733 49.58080 41.72907
#
# Velocity S-wave (km/s) = 3.49145 4.22384 3.87499
# Velocity P-wave (km/s) = 5.87888 7.29575 6.62530
#
# Compressibility (1/GPa) = 0.01965489
#
# Stress axis : x y z
#
# Youngs Moduli (GPa) = 70.52126 212.08280 97.25521
#
# Poissons Ratio (x) = 0.46241 0.06930
# Poissons Ratio (y) = 0.15376 0.18171
# Poissons Ratio (z) = 0.05025 0.39624
#
# Static dielectric constant tensor:
#      x y z
#    x 2.085510 -0.109040 0.107050 
#    y -0.109040 2.195670 -0.010680 
#    z 0.107050 -0.010680 1.946470 
# 
# From -- ./inp_files/100323.got.cif
#   From: 2010.05.17/outbox.cif.g08.bks.cpg/sg2_51_cif.got.tgz:100323.got - 2010.06.03 11:33:40.
