data_PCOD9037954
_publ_section_title
;
Structure prediction by ZEFSAII (Michael W. Deem and Ramdas Pophale) SiO2 
 PCOD9037954
Probable space group: P -1
;
_chemical_formula_sum "Si O2"
_cell_formula_units_Z 12
_cell_length_a 9.596097
_cell_length_b 9.192369
_cell_length_c 14.742066
_cell_angle_alpha 120.235307
_cell_angle_beta 48.934823
_cell_angle_gamma 80.983674
_cell_volume 561.822685
_symmetry_space_group_name_H-M "P -1"
_symmetry_group_IT_number 2
_symmetry_cell_setting 'triclinic'
loop_
_space_group_symop_operation_xyz
x,y,z
-x,-y,-z
loop_
_atom_site_type_symbol
_atom_site_label
_atom_site_fract_x
_atom_site_fract_y
_atom_site_fract_z
Si Si1 0.363413 0.273762 0.123308
Si Si2 0.761339 0.188708 0.233271
Si Si3 0.323579 0.885847 0.244881
Si Si4 0.508973 0.287272 0.538949
Si Si5 0.671881 0.354777 0.667018
Si Si6 0.293663 0.251117 0.472939
O O1 0.423290 0.386232 0.203262
O O2 0.027869 0.492235 0.329042
O O3 0.481778 0.246728 0.966631
O O4 0.500000 0.000000 0.000000
O O5 0.793475 0.116181 0.303363
O O6 0.685026 0.435266 0.334897
O O7 0.498195 0.249420 0.340050
O O8 0.000000 0.000000 0.000000
O O9 0.357740 0.703835 0.238847
O O10 0.373185 0.017227 0.325855
O O11 0.999644 0.123000 0.430190
O O12 0.531747 0.328220 0.644773
O O13 0.367175 0.215763 0.538140
#
# Coordination Sequence:
#
# PCOD9037954 Si02
#       6
#     2   2   2   2   2   2
#     4  11  25  38  67  91 127 165 207 254 310 363
#     4   9  20  36  60  89 128 158 193 262 314 354
#     4  10  23  41  65  83 134 162 209 251 307 370
#     4   9  21  35  61  88 126 148 212 250 303 368
#     4  10  23  44  59  93 121 173 205 252 306 374
#     4   9  22  39  60  96 120 157 209 255 305 367
#
# _framework density 21.35905
#
# number of rings (size 3 to 8) (size 9 to 14) (size 15 to 20)
#    1.000    1.333    0.000    0.500    7.000    3.333 
#    0.000    0.833    0.000    0.000    0.000    0.000 
#    0.000    0.000    0.000    0.000    0.000    0.000 
#
# Total GULP energy -66841.903435 kJ/mol
# GULP energy per Si atom -5570.158620 kJ/mol
# Density = 2.131044 g / cm^3
# Si number density = 21.359050 Si / 1000 Ang^3
#
#
#
# Elastic Constant Matrix: (Units=GPa)
#
#
# Indices 1 2 3 4 5 6 
#
# 1 125.0461 11.7687 27.7797 10.1940 22.2272 4.7504
# 2 11.7687 30.7043 42.0115 1.8804 11.4786 4.0451
# 3 27.7797 42.0115 110.5869 -21.7052 15.1383 2.3741
# 4 10.1940 1.8804 -21.7052 26.8370 9.5870 4.9510
# 5 22.2272 11.4786 15.1383 9.5870 23.7234 -2.7412
# 6 4.7504 4.0451 2.3741 4.9510 -2.7412 25.2376
#
#
#
# Elastic Compliance Matrix: (Units=1/GPa)
#
#
# Indices 1 2 3 4 5 6 
#
# 1 0.010384 0.006145 -0.004789 -0.004987 -0.007905 -0.002369
# 2 0.006145 0.101912 -0.048072 -0.045045 -0.006751 -0.004865
# 3 -0.004789 -0.048072 0.039272 0.043459 -0.015488 -0.005296
# 4 -0.004987 -0.045045 0.043459 0.096177 -0.042372 -0.019399
# 5 -0.007905 -0.006751 -0.015488 -0.042372 0.082290 0.021277
# 6 -0.002369 -0.004865 -0.005296 -0.019399 0.021277 0.047464
#
#
# Mechanical properties :
#
#
# Convention : Reuss Voigt Hill
#
# Bulk Modulus (GPa) = 17.20109 47.71744 32.45926
# Shear Modulus (GPa) = 10.19764 27.47809 18.83787
#
# Velocity S-wave (km/s) = 2.18741 3.59065 2.97301
# Velocity P-wave (km/s) = 3.80138 6.29122 5.19759
#
# Compressibility (1/GPa) = 0.05813587
#
# Stress axis : x y z
#
# Youngs Moduli (GPa) = 96.29912 9.81241 25.46367
#
# Poissons Ratio (x) = -0.06030 0.12194
# Poissons Ratio (y) = -0.59176 1.22409
# Poissons Ratio (z) = 0.46116 0.47170
#
# Static dielectric constant tensor:
#      x y z
#    x 1.885740 0.021050 0.037140 
#    y 0.021050 1.849500 0.004710 
#    z 0.037140 0.004710 1.803460 
# 
# From -- ./inp_files/456491.got.cif
#   From: 2010.05.17/outbox.cif.g08.bks.cpg/sg2_229_cif.got.tgz:456491.got - 2010.06.03 11:33:40.
