data_PCOD9037834
_publ_section_title
;
Structure prediction by ZEFSAII (Michael W. Deem and Ramdas Pophale) SiO2 
 PCOD9037834
Probable space group: P -1
;
_chemical_formula_sum "Si O2"
_cell_formula_units_Z 12
_cell_length_a 5.142664
_cell_length_b 14.455030
_cell_length_c 11.197151
_cell_angle_alpha 131.705886
_cell_angle_beta 118.864234
_cell_angle_gamma 67.122750
_cell_volume 541.302559
_symmetry_space_group_name_H-M "P -1"
_symmetry_group_IT_number 2
_symmetry_cell_setting 'triclinic'
loop_
_space_group_symop_operation_xyz
x,y,z
-x,-y,-z
loop_
_atom_site_type_symbol
_atom_site_label
_atom_site_fract_x
_atom_site_fract_y
_atom_site_fract_z
Si Si1 0.638147 0.052517 0.693134
Si Si2 0.333853 0.456979 0.809233
Si Si3 0.253200 0.915157 0.645873
Si Si4 0.245886 0.090748 0.084266
Si Si5 0.086322 0.694659 0.268362
Si Si6 0.058403 0.715812 0.007727
O O1 0.405980 0.031422 0.726855
O O2 0.960231 0.968950 0.700615
O O3 0.500000 0.000000 0.500000
O O4 0.682419 0.197103 0.824700
O O5 0.597450 0.391087 0.731917
O O6 0.118938 0.358710 0.723169
O O7 0.500000 0.500000 0.000000
O O8 0.152313 0.588056 0.848424
O O9 0.544903 0.847195 0.718606
O O10 0.146335 0.831699 0.443030
O O11 0.124337 0.193942 0.049793
O O12 0.500000 0.000000 0.000000
O O13 0.000000 0.000000 0.000000
O O14 0.955984 0.686664 0.096563
#
# Coordination Sequence:
#
# PCOD9037834 Si02
#       6
#     2   2   2   2   2   2
#     4  12  24  38  65  98 127 163 209 266 325 373
#     4  10  23  41  63  96 121 166 215 265 311 364
#     4  12  24  42  62  95 133 164 207 264 319 378
#     4  12  25  42  61  95 133 170 207 254 320 388
#     4  11  24  41  66  92 127 163 216 265 311 370
#     4  11  23  41  68  91 131 163 215 257 318 373
#
# _framework density 22.168748000000001
#
# number of rings (size 3 to 8) (size 9 to 14) (size 15 to 20)
#    0.000    0.667    5.000    3.500    2.333    5.333 
#    0.000    1.667    0.000    0.000    0.000    0.000 
#    0.000    0.000    0.000    0.000    0.000    0.000 
#
# Total GULP energy -66931.415642 kJ/mol
# GULP energy per Si atom -5577.617970 kJ/mol
# Density = 2.211829 g / cm^3
# Si number density = 22.168748 Si / 1000 Ang^3
#
#
#
# Elastic Constant Matrix: (Units=GPa)
#
#
# Indices 1 2 3 4 5 6 
#
# 1 123.0202 32.6428 19.3985 -2.9852 9.9354 -16.0932
# 2 32.6428 128.2840 7.6656 -9.7191 5.7942 -27.4210
# 3 19.3985 7.6656 43.0625 -4.6089 8.6974 -2.8864
# 4 -2.9852 -9.7191 -4.6089 39.0204 -2.2319 -0.8536
# 5 9.9354 5.7942 8.6974 -2.2319 34.0041 6.5751
# 6 -16.0932 -27.4210 -2.8864 -0.8536 6.5751 29.8075
#
#
#
# Elastic Compliance Matrix: (Units=1/GPa)
#
#
# Indices 1 2 3 4 5 6 
#
# 1 0.009773 -0.001226 -0.003356 -0.000009 -0.002641 0.004406
# 2 -0.001226 0.010539 0.000268 0.002593 -0.003240 0.009848
# 3 -0.003356 0.000268 0.026361 0.002627 -0.006101 0.002408
# 4 -0.000009 0.002593 0.002627 0.026656 -0.000020 0.003403
# 5 -0.002641 -0.003240 -0.006101 -0.000020 0.034739 -0.012661
# 6 0.004406 0.009848 0.002408 0.003403 -0.012661 0.048111
#
#
# Mechanical properties :
#
#
# Convention : Reuss Voigt Hill
#
# Bulk Modulus (GPa) = 26.28476 45.97562 36.13019
# Shear Modulus (GPa) = 28.17080 36.21038 32.19059
#
# Velocity S-wave (km/s) = 3.56862 4.04592 3.81474
# Velocity P-wave (km/s) = 5.37238 6.52762 5.97797
#
# Compressibility (1/GPa) = 0.03804485
#
# Stress axis : x y z
#
# Youngs Moduli (GPa) = 102.32621 94.88532 37.93464
#
# Poissons Ratio (x) = 0.11631 0.12732
# Poissons Ratio (y) = 0.12543 -0.01018
# Poissons Ratio (z) = 0.34345 -0.02545
#
# Static dielectric constant tensor:
#      x y z
#    x 1.884140 -0.022100 0.002900 
#    y -0.022100 1.991890 -0.065550 
#    z 0.002900 -0.065550 1.915180 
# 
# From -- ./inp_files/363546.got.cif
#   From: 2010.05.17/outbox.cif.g08.bks.cpg/sg2_182_cif.got.tgz:363546.got - 2010.06.03 11:33:40.
