data_PCOD9037189
_publ_section_title
;
Structure prediction by ZEFSAII (Michael W. Deem and Ramdas Pophale) SiO2 
 PCOD9037189
Probable space group: P -1
;
_chemical_formula_sum "Si O2"
_cell_formula_units_Z 16
_cell_length_a 12.186146
_cell_length_b 18.417733
_cell_length_c 7.025051
_cell_angle_alpha 45.862413
_cell_angle_beta 104.386632
_cell_angle_gamma 135.378359
_cell_volume 692.710073
_symmetry_space_group_name_H-M "P -1"
_symmetry_group_IT_number 2
_symmetry_cell_setting 'triclinic'
loop_
_space_group_symop_operation_xyz
x,y,z
-x,-y,-z
loop_
_atom_site_type_symbol
_atom_site_label
_atom_site_fract_x
_atom_site_fract_y
_atom_site_fract_z
Si Si1 0.291762 0.843486 0.643566
Si Si2 0.705585 0.378054 0.101091
Si Si3 0.265226 0.043816 0.172726
Si Si4 0.892299 0.827665 0.489703
Si Si5 0.054687 0.353924 0.976011
Si Si6 0.477345 0.477680 0.306418
Si Si7 0.356268 0.606958 0.384193
Si Si8 0.660226 0.808583 0.650557
O O1 0.261419 0.715057 0.768486
O O2 0.500000 0.000000 0.500000
O O3 0.244264 0.909868 0.381454
O O4 0.154843 0.761942 0.909095
O O5 0.860553 0.538045 0.994213
O O6 0.519149 0.253764 0.368105
O O7 0.676560 0.415635 0.817296
O O8 0.285945 0.097665 0.302733
O O9 0.455731 0.202434 0.872253
O O10 0.073173 0.959609 0.201925
O O11 0.724258 0.677482 0.563152
O O12 0.828945 0.889324 0.449514
O O13 0.926277 0.755416 0.783285
O O14 0.162084 0.485873 0.614447
O O15 0.500000 0.500000 0.500000
O O16 0.587848 0.453355 0.361755
O O17 0.573135 0.638405 0.962332
#
# Coordination Sequence:
#
# PCOD9037189 Si02
#       8
#     2   2   2   2   2   2   2   2
#     4  11  22  44  67  88 128 168 205 268 319 356
#     4  11  22  41  66  93 124 168 213 258 309 369
#     4  10  23  40  63  90 132 165 203 265 319 363
#     4  11  22  37  63  95 129 163 209 254 316 379
#     4  11  23  40  69  95 118 169 218 250 310 386
#     4  12  20  36  61  91 128 167 204 253 307 377
#     4  11  22  39  66  93 128 162 209 255 313 369
#     4  11  19  36  62  90 123 164 203 249 309 376
#
# _framework density 23.097685999999999
#
# number of rings (size 3 to 8) (size 9 to 14) (size 15 to 20)
#    0.000    1.000    7.500    1.875    0.000    1.000 
#    0.000    0.625    8.250    0.000    0.000    0.000 
#    0.000    0.000    0.000    0.000    0.000    0.000 
#
# Total GULP energy -89161.912543 kJ/mol
# GULP energy per Si atom -5572.619534 kJ/mol
# Density = 2.304512 g / cm^3
# Si number density = 23.097686 Si / 1000 Ang^3
#
#
#
# Elastic Constant Matrix: (Units=GPa)
#
#
# Indices 1 2 3 4 5 6 
#
# 1 135.2215 9.8242 32.5019 0.2476 -17.4790 1.9921
# 2 9.8242 73.3460 21.2301 -4.4272 -13.1729 3.9791
# 3 32.5019 21.2301 104.9903 -5.8986 -35.4721 -2.7633
# 4 0.2476 -4.4272 -5.8986 31.6299 0.3174 -6.8652
# 5 -17.4790 -13.1729 -35.4721 0.3174 48.3815 -15.0986
# 6 1.9921 3.9791 -2.7633 -6.8652 -15.0986 29.3695
#
#
#
# Elastic Compliance Matrix: (Units=1/GPa)
#
#
# Indices 1 2 3 4 5 6 
#
# 1 0.008077 -0.000282 -0.002037 -0.000529 0.001303 -0.000155
# 2 -0.000282 0.014799 -0.002120 0.001496 0.002133 -0.000739
# 3 -0.002037 -0.002120 0.015498 0.004574 0.013032 0.009652
# 4 -0.000529 0.001496 0.004574 0.035253 0.007137 0.012173
# 5 0.001303 0.002133 0.013032 0.007137 0.038131 0.022120
# 6 -0.000155 -0.000739 0.009652 0.012173 0.022120 0.049285
#
#
# Mechanical properties :
#
#
# Convention : Reuss Voigt Hill
#
# Bulk Modulus (GPa) = 33.90320 48.96336 41.43328
# Shear Modulus (GPa) = 27.81606 38.54295 33.17950
#
# Velocity S-wave (km/s) = 3.47404 4.08940 3.79421
# Velocity P-wave (km/s) = 5.54995 6.59863 6.09688
#
# Compressibility (1/GPa) = 0.02949574
#
# Stress axis : x y z
#
# Youngs Moduli (GPa) = 123.80771 67.57277 64.52488
#
# Poissons Ratio (x) = 0.01904 0.13145
# Poissons Ratio (y) = 0.03489 0.13680
# Poissons Ratio (z) = 0.25221 0.14326
#
# Static dielectric constant tensor:
#      x y z
#    x 2.069140 -0.008570 -0.068030 
#    y -0.008570 1.881880 0.017610 
#    z -0.068030 0.017610 1.968100 
# 
# From -- ./inp_files/281519.got.cif
#   From: 2010.05.17/outbox.cif.g08.bks.cpg/sg2_141_cif.got.tgz:281519.got - 2010.06.03 11:33:40.
