data_PCOD9037585
_publ_section_title
;
Structure prediction by ZEFSAII (Michael W. Deem and Ramdas Pophale) SiO2 
 PCOD9037585
Probable space group: P -1
;
_chemical_formula_sum "Si O2"
_cell_formula_units_Z 16
_cell_length_a 7.956665
_cell_length_b 16.414162
_cell_length_c 19.076969
_cell_angle_alpha 30.267453
_cell_angle_beta 43.955811
_cell_angle_gamma 32.960110
_cell_volume 683.121607
_symmetry_space_group_name_H-M "P -1"
_symmetry_group_IT_number 2
_symmetry_cell_setting 'triclinic'
loop_
_space_group_symop_operation_xyz
x,y,z
-x,-y,-z
loop_
_atom_site_type_symbol
_atom_site_label
_atom_site_fract_x
_atom_site_fract_y
_atom_site_fract_z
Si Si1 0.115558 0.800706 0.285506
Si Si2 0.505610 0.612174 0.646115
Si Si3 0.671136 0.213403 0.922316
Si Si4 0.139433 0.268589 0.121041
Si Si5 0.593863 0.972975 0.637195
Si Si6 0.173737 0.446585 0.605704
Si Si7 0.163091 0.956456 0.284416
Si Si8 0.966020 0.304670 0.398862
O O1 0.274750 0.770168 0.187592
O O2 0.252946 0.586810 0.442778
O O3 0.168790 0.935043 0.216255
O O4 0.750998 0.919267 0.312044
O O5 0.539232 0.445496 0.813178
O O6 0.283121 0.642155 0.626975
O O7 0.877206 0.498647 0.614884
O O8 0.382920 0.845782 0.523624
O O9 0.430959 0.184867 0.045263
O O10 0.000000 0.000000 0.000000
O O11 0.208669 0.160651 0.255501
O O12 0.976915 0.190148 0.188566
O O13 0.000000 0.500000 0.000000
O O14 0.717920 0.817374 0.650070
O O15 0.472603 0.210513 0.680222
O O16 0.099912 0.522277 0.653915
O O17 0.013949 0.859984 0.435021
#
# Coordination Sequence:
#
# PCOD9037585 Si02
#       8
#     2   2   2   2   2   2   2   2
#     4  10  23  42  70 101 136 178 228 288 345 407
#     4  11  23  40  73  99 132 188 227 278 354 397
#     4  12  24  43  68  98 140 183 229 283 340 414
#     4  12  27  44  65 100 141 182 232 280 343 422
#     4  11  24  44  68 102 133 180 238 277 345 424
#     4  10  23  40  69 112 133 170 237 292 342 415
#     4  11  23  43  68 101 139 176 227 288 350 407
#     4  11  22  42  69 105 142 169 230 299 345 401
#
# _framework density 23.421890000000001
#
# number of rings (size 3 to 8) (size 9 to 14) (size 15 to 20)
#    0.000    1.000    2.500    4.875    1.750    6.500 
#    0.000    3.125    0.000    0.000    0.000    0.000 
#    0.000    0.000    0.000    0.000    0.000    0.000 
#
# Total GULP energy -89156.845342 kJ/mol
# GULP energy per Si atom -5572.302834 kJ/mol
# Density = 2.336858 g / cm^3
# Si number density = 23.421890 Si / 1000 Ang^3
#
#
#
# Elastic Constant Matrix: (Units=GPa)
#
#
# Indices 1 2 3 4 5 6 
#
# 1 63.7443 21.3349 9.8113 -5.6615 6.7549 7.3399
# 2 21.3349 98.2565 21.5276 8.5571 3.8662 27.2791
# 3 9.8113 21.5276 102.5593 -12.1739 1.3110 25.8684
# 4 -5.6615 8.5571 -12.1739 54.8458 4.6190 -1.2720
# 5 6.7549 3.8662 1.3110 4.6190 17.5153 2.4007
# 6 7.3399 27.2791 25.8684 -1.2720 2.4007 26.2710
#
#
#
# Elastic Compliance Matrix: (Units=1/GPa)
#
#
# Indices 1 2 3 4 5 6 
#
# 1 0.018017 -0.003853 -0.000550 0.002924 -0.006866 0.000278
# 2 -0.003853 0.015534 0.000778 -0.003107 0.001020 -0.016062
# 3 -0.000550 0.000778 0.013396 0.002453 0.000276 -0.013751
# 4 0.002924 -0.003107 0.002453 0.020117 -0.006140 0.001529
# 5 -0.006866 0.001020 0.000276 -0.006140 0.061849 -0.005361
# 6 0.000278 -0.016062 -0.013751 0.001529 -0.005361 0.068770
#
#
# Mechanical properties :
#
#
# Convention : Reuss Voigt Hill
#
# Bulk Modulus (GPa) = 25.19187 41.10084 33.14635
# Shear Modulus (GPa) = 22.91841 33.85218 28.38530
#
# Velocity S-wave (km/s) = 3.13150 3.80586 3.48503
# Velocity P-wave (km/s) = 4.88406 6.07445 5.51149
#
# Compressibility (1/GPa) = 0.03969535
#
# Stress axis : x y z
#
# Youngs Moduli (GPa) = 55.50243 64.37638 74.64995
#
# Poissons Ratio (x) = 0.24806 0.04106
# Poissons Ratio (y) = 0.21386 -0.05805
# Poissons Ratio (z) = 0.03053 -0.05006
#
# Static dielectric constant tensor:
#      x y z
#    x 1.992870 -0.009000 -0.002990 
#    y -0.009000 2.058230 -0.057670 
#    z -0.002990 -0.057670 2.008660 
# 
# From -- ./inp_files/591217.got.cif
#   From: 2010.05.17/outbox.cif.g08.bks.cpg/sg2_296_cif.got.tgz:591217.got - 2010.06.03 11:33:40.
