data_PCOD9037105
_publ_section_title
;
Structure prediction by ZEFSAII (Michael W. Deem and Ramdas Pophale) SiO2 
 PCOD9037105
Probable space group: P -1
;
_chemical_formula_sum "Si O2"
_cell_formula_units_Z 10
_cell_length_a 9.754867
_cell_length_b 11.817656
_cell_length_c 15.048372
_cell_angle_alpha 151.552532
_cell_angle_beta 43.938993
_cell_angle_gamma 119.272191
_cell_volume 515.985872
_symmetry_space_group_name_H-M "P -1"
_symmetry_group_IT_number 2
_symmetry_cell_setting 'triclinic'
loop_
_space_group_symop_operation_xyz
x,y,z
-x,-y,-z
loop_
_atom_site_type_symbol
_atom_site_label
_atom_site_fract_x
_atom_site_fract_y
_atom_site_fract_z
Si Si1 0.750365 0.794436 0.243090
Si Si2 0.919953 0.186081 0.752612
Si Si3 0.255684 0.109559 0.234964
Si Si4 0.062482 0.923939 0.781236
Si Si5 0.278295 0.613344 0.625870
O O1 0.870797 0.823288 0.296244
O O2 0.500000 0.000000 0.500000
O O3 0.860184 0.887218 0.177742
O O4 0.785184 0.495757 0.007920
O O5 0.779389 0.090807 0.818888
O O6 0.000000 0.000000 0.500000
O O7 0.207909 0.376797 0.494133
O O8 0.067046 0.179259 0.296711
O O9 0.500000 0.000000 0.000000
O O10 0.259382 0.703307 0.593516
O O11 0.876604 0.121161 0.068993
O O12 0.500000 0.500000 0.500000
#
# Coordination Sequence:
#
# PCOD9037105 Si02
#       5
#     2   2   2   2   2
#     4  10  23  41  64  89 124 167 208 254 309 367
#     4  10  23  43  63  90 128 164 210 257 304 376
#     4  11  22  39  63  92 126 161 200 255 314 362
#     4  10  23  40  60  92 124 161 205 254 307 371
#     4  11  22  39  63  89 124 160 202 256 311 365
#
# _framework density 19.380375999999998
#
# number of rings (size 3 to 8) (size 9 to 14) (size 15 to 20)
#    0.000    1.600    2.000    1.800    2.800    4.000 
#    0.000    0.000    0.000    0.000    0.000    0.000 
#    0.000    0.000    0.000    0.000    0.000    0.000 
#
# Total GULP energy -55757.453032 kJ/mol
# GULP energy per Si atom -5575.745303 kJ/mol
# Density = 1.933627 g / cm^3
# Si number density = 19.380376 Si / 1000 Ang^3
#
#
#
# Elastic Constant Matrix: (Units=GPa)
#
#
# Indices 1 2 3 4 5 6 
#
# 1 136.6193 68.1444 57.1652 19.1750 -5.2683 -4.1774
# 2 68.1444 103.1944 28.1533 22.0043 -6.5936 -0.5256
# 3 57.1652 28.1533 69.4167 19.3122 -14.1340 -4.8117
# 4 19.1750 22.0043 19.3122 36.0309 -2.9079 6.7296
# 5 -5.2683 -6.5936 -14.1340 -2.9079 31.5645 16.1592
# 6 -4.1774 -0.5256 -4.8117 6.7296 16.1592 26.4182
#
#
#
# Elastic Compliance Matrix: (Units=1/GPa)
#
#
# Indices 1 2 3 4 5 6 
#
# 1 0.015480 -0.007887 -0.010796 0.001294 -0.005498 0.003358
# 2 -0.007887 0.015783 0.002396 -0.006403 0.002741 -0.000542
# 3 -0.010796 0.002396 0.026923 -0.009191 0.010261 -0.000691
# 4 0.001294 -0.006403 -0.009191 0.039297 0.006297 -0.015459
# 5 -0.005498 0.002741 0.010261 0.006297 0.053566 -0.033315
# 6 0.003358 -0.000542 -0.000691 -0.015459 -0.033315 0.062562
#
#
# Mechanical properties :
#
#
# Convention : Reuss Voigt Hill
#
# Bulk Modulus (GPa) = 39.04469 68.46179 53.75324
# Shear Modulus (GPa) = 19.62925 29.18722 24.40823
#
# Velocity S-wave (km/s) = 3.18597 3.88496 3.55270
# Velocity P-wave (km/s) = 5.80725 7.45157 6.68019
#
# Compressibility (1/GPa) = 0.02561168
#
# Stress axis : x y z
#
# Youngs Moduli (GPa) = 64.60037 63.36083 37.14319
#
# Poissons Ratio (x) = 0.49972 0.40099
# Poissons Ratio (y) = 0.50950 -0.08899
# Poissons Ratio (z) = 0.69741 -0.15180
#
# Static dielectric constant tensor:
#      x y z
#    x 1.718400 -0.057000 -0.006070 
#    y -0.057000 1.706040 0.001100 
#    z -0.006070 0.001100 1.658670 
# 
# From -- ./inp_files/2233.got.cif
#   From: 2010.05.17/outbox.cif.g08.bks.cpg/sg2_2_cif.got.tgz:2233.got - 2010.06.03 11:33:40.
