data_PCOD9037085
_publ_section_title
;
Structure prediction by ZEFSAII (Michael W. Deem and Ramdas Pophale) SiO2 
 PCOD9037085
Probable space group: P -1
;
_chemical_formula_sum "Si O2"
_cell_formula_units_Z 16
_cell_length_a 12.723879
_cell_length_b 15.627712
_cell_length_c 9.754728
_cell_angle_alpha 58.946871
_cell_angle_beta 120.060084
_cell_angle_gamma 155.560013
_cell_volume 684.827671
_symmetry_space_group_name_H-M "P -1"
_symmetry_group_IT_number 2
_symmetry_cell_setting 'triclinic'
loop_
_space_group_symop_operation_xyz
x,y,z
-x,-y,-z
loop_
_atom_site_type_symbol
_atom_site_label
_atom_site_fract_x
_atom_site_fract_y
_atom_site_fract_z
Si Si1 0.127022 0.159942 0.125265
Si Si2 0.927183 0.661722 0.040379
Si Si3 0.370070 0.220101 0.460449
Si Si4 0.388367 0.206305 0.031513
Si Si5 0.926741 0.619433 0.566503
Si Si6 0.237754 0.721291 0.331240
Si Si7 0.236408 0.927865 0.759757
Si Si8 0.601467 0.932992 0.618150
O O1 0.164751 0.300906 0.986542
O O2 0.225809 0.205146 0.303489
O O3 0.269695 0.192909 0.082424
O O4 0.821269 0.928902 0.109536
O O5 0.144915 0.843796 0.922247
O O6 0.673914 0.438292 0.986214
O O7 0.033880 0.658632 0.218272
O O8 0.636171 0.447013 0.511107
O O9 0.429974 0.188331 0.398406
O O10 0.227251 0.038250 0.616767
O O11 0.409963 0.112904 0.195914
O O12 0.899213 0.484140 0.614380
O O13 0.053170 0.729608 0.705893
O O14 0.119170 0.822013 0.431180
O O15 0.380701 0.836608 0.476245
O O16 0.473653 0.893725 0.234774
#
# Coordination Sequence:
#
# PCOD9037085 Si02
#       8
#     2   2   2   2   2   2   2   2
#     4  10  23  41  57  79 116 149 189 241 277 321
#     4  12  24  36  56  87 119 151 184 227 284 335
#     4   8  17  36  61  83 106 146 191 230 280 332
#     4  10  23  40  59  83 111 150 194 231 279 335
#     4   8  16  35  62  80 107 152 187 227 280 329
#     4   9  20  37  59  87 115 146 185 228 280 338
#     4   9  20  37  59  87 115 145 185 231 278 335
#     4   8  17  36  59  83 109 143 190 235 275 327
#
# _framework density 23.363541999999999
#
# number of rings (size 3 to 8) (size 9 to 14) (size 15 to 20)
#    0.000    3.250    0.000    0.750    0.000   12.500 
#    0.000    2.500    0.000    0.000    0.000    0.000 
#    0.000    0.000    0.000    0.000    0.000    0.000 
#
# Total GULP energy -89284.315850 kJ/mol
# GULP energy per Si atom -5580.269741 kJ/mol
# Density = 2.331037 g / cm^3
# Si number density = 23.363542 Si / 1000 Ang^3
#
#
#
# Elastic Constant Matrix: (Units=GPa)
#
#
# Indices 1 2 3 4 5 6 
#
# 1 38.9325 20.6554 23.3135 7.4150 6.7491 2.4927
# 2 20.6554 147.5716 29.3886 7.3401 15.4163 3.6108
# 3 23.3135 29.3886 89.8523 9.8745 33.5303 14.2493
# 4 7.4150 7.3401 9.8745 15.9877 7.1994 3.8319
# 5 6.7491 15.4163 33.5303 7.1994 31.6413 1.8073
# 6 2.4927 3.6108 14.2493 3.8319 1.8073 27.7547
#
#
#
# Elastic Compliance Matrix: (Units=1/GPa)
#
#
# Indices 1 2 3 4 5 6 
#
# 1 0.034008 -0.003043 -0.009682 -0.012457 0.007120 0.003569
# 2 -0.003043 0.007618 -0.000888 -0.000638 -0.001973 -0.000045
# 3 -0.009682 -0.000888 0.023675 0.002906 -0.022675 -0.010094
# 4 -0.012457 -0.000638 0.002906 0.076841 -0.017036 -0.009790
# 5 0.007120 -0.001973 -0.022675 -0.017036 0.058392 0.009809
# 6 0.003569 -0.000045 -0.010094 -0.009790 0.009809 0.041611
#
#
# Mechanical properties :
#
#
# Convention : Reuss Voigt Hill
#
# Bulk Modulus (GPa) = 26.26500 47.00792 36.63646
# Shear Modulus (GPa) = 17.72640 28.61000 23.16820
#
# Velocity S-wave (km/s) = 2.75748 3.50316 3.15245
# Velocity P-wave (km/s) = 4.62650 6.04374 5.38197
#
# Compressibility (1/GPa) = 0.03807349
#
# Stress axis : x y z
#
# Youngs Moduli (GPa) = 29.40499 131.26349 42.23788
#
# Poissons Ratio (x) = 0.39948 0.40896
# Poissons Ratio (y) = 0.08949 0.03753
# Poissons Ratio (z) = 0.28471 0.11662
#
# Static dielectric constant tensor:
#      x y z
#    x 1.934130 -0.023640 0.039970 
#    y -0.023640 1.888950 0.001890 
#    z 0.039970 0.001890 1.937290 
# 
# From -- ./inp_files/456947.got.cif
#   From: 2010.05.17/outbox.cif.g08.bks.cpg/sg2_229_cif.got.tgz:456947.got - 2010.06.03 11:33:40.
