data_PCOD9037542
_publ_section_title
;
Structure prediction by ZEFSAII (Michael W. Deem and Ramdas Pophale) SiO2 
 PCOD9037542
Probable space group: P -1
;
_chemical_formula_sum "Si O2"
_cell_formula_units_Z 14
_cell_length_a 9.546107
_cell_length_b 8.640438
_cell_length_c 14.243302
_cell_angle_alpha 71.144361
_cell_angle_beta 39.050312
_cell_angle_gamma 68.094165
_cell_volume 685.576992
_symmetry_space_group_name_H-M "P -1"
_symmetry_group_IT_number 2
_symmetry_cell_setting 'triclinic'
loop_
_space_group_symop_operation_xyz
x,y,z
-x,-y,-z
loop_
_atom_site_type_symbol
_atom_site_label
_atom_site_fract_x
_atom_site_fract_y
_atom_site_fract_z
Si Si1 0.753412 0.591218 0.584582
Si Si2 0.693256 0.063248 0.327056
Si Si3 0.387964 0.773297 0.859788
Si Si4 0.974348 0.247053 0.722926
Si Si5 0.619523 0.443907 0.349217
Si Si6 0.894496 0.487516 0.891474
Si Si7 0.487480 0.811624 0.017800
O O1 0.629210 0.662402 0.728528
O O2 0.579323 0.504089 0.634744
O O3 0.000000 0.500000 0.500000
O O4 0.821617 0.732393 0.455394
O O5 0.655493 0.093008 0.228507
O O6 0.694814 0.244067 0.335237
O O7 0.500000 0.000000 0.500000
O O8 0.925172 0.927492 0.243907
O O9 0.414328 0.819987 0.944317
O O10 0.211040 0.649662 0.970294
O O11 0.933116 0.404131 0.784176
O O12 0.730728 0.238469 0.807799
O O13 0.500000 0.500000 0.500000
O O14 0.854694 0.505519 0.204447
O O15 0.712131 0.665006 0.946737
O O16 0.500000 0.000000 0.000000
#
# Coordination Sequence:
#
# PCOD9037542 Si02
#       7
#     2   2   2   2   2   2   2
#     4  11  21  39  66  97 129 172 225 264 335 397
#     4  11  21  41  62  96 137 174 225 272 334 393
#     4  10  23  40  68  95 133 184 221 276 335 399
#     4  11  21  42  67  91 135 181 215 277 335 396
#     4  11  22  39  66  98 130 180 219 277 333 398
#     4  11  22  42  66  98 131 174 229 273 338 398
#     4  11  24  43  66  98 136 176 221 284 339 399
#
# _framework density 20.420755
#
# number of rings (size 3 to 8) (size 9 to 14) (size 15 to 20)
#    0.000    1.143    4.286    4.286    0.000    4.571 
#    0.000   10.714    0.000    0.000    0.000    0.000 
#    0.000    0.000    0.000    0.000    0.000    0.000 
#
# Total GULP energy -78025.215868 kJ/mol
# GULP energy per Si atom -5573.229705 kJ/mol
# Density = 2.037428 g / cm^3
# Si number density = 20.420755 Si / 1000 Ang^3
#
#
#
# Elastic Constant Matrix: (Units=GPa)
#
#
# Indices 1 2 3 4 5 6 
#
# 1 107.8948 54.5582 49.3463 1.9948 -25.2687 -9.1658
# 2 54.5582 84.1720 20.0261 12.3299 -16.3663 -5.5153
# 3 49.3463 20.0261 136.8930 -3.1141 -26.2485 3.8981
# 4 1.9948 12.3299 -3.1141 36.5087 -2.8094 -5.5523
# 5 -25.2687 -16.3663 -26.2485 -2.8094 47.9702 1.0428
# 6 -9.1658 -5.5153 3.8981 -5.5523 1.0428 43.4704
#
#
#
# Elastic Compliance Matrix: (Units=1/GPa)
#
#
# Indices 1 2 3 4 5 6 
#
# 1 0.017001 -0.009555 -0.004072 0.002680 0.003559 0.002994
# 2 -0.009555 0.018994 0.000851 -0.005768 0.001585 -0.000456
# 3 -0.004072 0.000851 0.009351 0.000750 0.003340 -0.001573
# 4 0.002680 -0.005768 0.000750 0.029914 0.001529 0.003550
# 5 0.003559 0.001585 0.003340 0.001529 0.025174 0.000243
# 6 0.002994 -0.000456 -0.001573 0.003550 0.000243 0.024166
#
#
# Mechanical properties :
#
#
# Convention : Reuss Voigt Hill
#
# Bulk Modulus (GPa) = 50.52078 64.09120 57.30599
# Shear Modulus (GPa) = 31.89806 39.25850 35.57828
#
# Velocity S-wave (km/s) = 3.95655 4.38937 4.17857
# Velocity P-wave (km/s) = 6.75767 7.55924 7.16967
#
# Compressibility (1/GPa) = 0.01979383
#
# Stress axis : x y z
#
# Youngs Moduli (GPa) = 58.82126 52.64722 106.94344
#
# Poissons Ratio (x) = 0.50304 0.43552
# Poissons Ratio (y) = 0.56203 -0.09105
# Poissons Ratio (z) = 0.23955 -0.04482
#
# Static dielectric constant tensor:
#      x y z
#    x 1.823340 -0.099690 0.042810 
#    y -0.099690 1.817930 -0.048730 
#    z 0.042810 -0.048730 1.778620 
# 
# From -- ./inp_files/295115.got.cif
#   From: 2010.05.17/outbox.cif.g08.bks.cpg/sg2_148_cif.got.tgz:295115.got - 2010.06.03 11:33:40.
