data_PCOD9037553
_publ_section_title
;
Structure prediction by ZEFSAII (Michael W. Deem and Ramdas Pophale) SiO2 
 PCOD9037553
Probable space group: P -1
;
_chemical_formula_sum "Si O2"
_cell_formula_units_Z 16
_cell_length_a 10.978329
_cell_length_b 8.586908
_cell_length_c 15.127626
_cell_angle_alpha 150.633897
_cell_angle_beta 69.598367
_cell_angle_gamma 101.229001
_cell_volume 636.740941
_symmetry_space_group_name_H-M "P -1"
_symmetry_group_IT_number 2
_symmetry_cell_setting 'triclinic'
loop_
_space_group_symop_operation_xyz
x,y,z
-x,-y,-z
loop_
_atom_site_type_symbol
_atom_site_label
_atom_site_fract_x
_atom_site_fract_y
_atom_site_fract_z
Si Si1 0.731326 0.056211 0.949093
Si Si2 0.361011 0.247482 0.010516
Si Si3 0.627812 0.075468 0.619829
Si Si4 0.716381 0.750383 0.621742
Si Si5 0.028073 0.686509 0.726501
Si Si6 0.811506 0.743147 0.257459
Si Si7 0.061223 0.408879 0.111763
Si Si8 0.616481 0.108575 0.351644
O O1 0.648605 0.986345 0.020204
O O2 0.679371 0.979370 0.829061
O O3 0.874243 0.794689 0.791996
O O4 0.763944 0.408447 0.118431
O O5 0.208387 0.433127 0.112669
O O6 0.427333 0.536424 0.166030
O O7 0.413250 0.053136 0.812649
O O8 0.691770 0.937850 0.628608
O O9 0.735759 0.992729 0.474108
O O10 0.503493 0.906044 0.558484
O O11 0.871917 0.553944 0.481202
O O12 0.637232 0.465020 0.505708
O O13 0.028453 0.531195 0.746873
O O14 0.072538 0.027425 0.897481
O O15 0.751781 0.892869 0.254323
O O16 0.972044 0.649148 0.182113
#
# Coordination Sequence:
#
# PCOD9037553 Si02
#       8
#     2   2   2   2   2   2   2   2
#     4  10  23  40  68  97 130 163 206 263 325 381
#     4  11  23  44  66  95 131 165 211 264 319 375
#     4  12  26  44  65  92 129 172 218 261 309 375
#     4  12  22  43  64  96 124 174 214 258 314 376
#     4   9  17  37  65  95 130 161 206 255 321 380
#     4  11  23  44  66  95 131 165 211 264 319 375
#     4   9  18  38  68  97 124 164 200 265 324 377
#     4  12  26  44  65  92 129 172 218 261 309 375
#
# _framework density 25.127959000000001
#
# number of rings (size 3 to 8) (size 9 to 14) (size 15 to 20)
#    0.000    1.250    2.500    4.500    0.000    1.000 
#    4.500    1.875    0.000    0.000    0.000    0.000 
#    0.000    0.000    0.000    0.000    0.000    0.000 
#
# Total GULP energy -89685.695745 kJ/mol
# GULP energy per Si atom -5605.355984 kJ/mol
# Density = 2.507077 g / cm^3
# Si number density = 25.127959 Si / 1000 Ang^3
#
#
#
# Elastic Constant Matrix: (Units=GPa)
#
#
# Indices 1 2 3 4 5 6 
#
# 1 34.9840 3.5074 5.5479 -2.1111 -12.4591 -10.3322
# 2 3.5074 82.4441 18.0479 -5.3996 -0.3182 -7.9257
# 3 5.5479 18.0479 96.9152 -10.2490 -6.5526 -9.9613
# 4 -2.1111 -5.3996 -10.2490 40.7408 -2.6920 0.3756
# 5 -12.4591 -0.3182 -6.5526 -2.6920 37.2820 -4.2577
# 6 -10.3322 -7.9257 -9.9613 0.3756 -4.2577 38.8956
#
#
#
# Elastic Compliance Matrix: (Units=1/GPa)
#
#
# Indices 1 2 3 4 5 6 
#
# 1 0.037050 -0.000323 0.000343 0.002780 0.013937 0.011363
# 2 -0.000323 0.012859 -0.002053 0.001149 -0.000049 0.001992
# 3 0.000343 -0.002053 0.011447 0.002773 0.002637 0.002866
# 4 0.002780 0.001149 0.002773 0.025754 0.003493 0.001816
# 5 0.013937 -0.000049 0.002637 0.003493 0.033104 0.007958
# 6 0.011363 0.001992 0.002866 0.001816 0.007958 0.030722
#
#
# Mechanical properties :
#
#
# Convention : Reuss Voigt Hill
#
# Bulk Modulus (GPa) = 17.45495 29.83885 23.64690
# Shear Modulus (GPa) = 28.71941 35.86635 32.29288
#
# Velocity S-wave (km/s) = 3.38439 3.78213 3.58877
# Velocity P-wave (km/s) = 4.71525 5.56535 5.15785
#
# Compressibility (1/GPa) = 0.05729033
#
# Stress axis : x y z
#
# Youngs Moduli (GPa) = 26.99079 77.76504 87.35802
#
# Poissons Ratio (x) = 0.02513 -0.03000
# Poissons Ratio (y) = 0.00872 0.17936
# Poissons Ratio (z) = -0.00927 0.15966
#
# Static dielectric constant tensor:
#      x y z
#    x 2.053880 -0.036980 -0.019610 
#    y -0.036980 1.916870 -0.023340 
#    z -0.019610 -0.023340 1.917050 
# 
# From -- ./inp_files/190395.got.cif
#   From: 2010.05.17/outbox.cif.g08.bks.cpg/sg2_96_cif.got.tgz:190395.got - 2010.06.03 11:33:40.
