data_PCOD9037214
_publ_section_title
;
Structure prediction by ZEFSAII (Michael W. Deem and Ramdas Pophale) SiO2 
 PCOD9037214
Probable space group: P -1
;
_chemical_formula_sum "Si O2"
_cell_formula_units_Z 14
_cell_length_a 9.885723
_cell_length_b 12.138608
_cell_length_c 15.865828
_cell_angle_alpha 26.324270
_cell_angle_beta 129.287084
_cell_angle_gamma 114.041653
_cell_volume 577.968779
_symmetry_space_group_name_H-M "P -1"
_symmetry_group_IT_number 2
_symmetry_cell_setting 'triclinic'
loop_
_space_group_symop_operation_xyz
x,y,z
-x,-y,-z
loop_
_atom_site_type_symbol
_atom_site_label
_atom_site_fract_x
_atom_site_fract_y
_atom_site_fract_z
Si Si1 0.488264 0.232323 0.267774
Si Si2 0.052510 0.662315 0.837637
Si Si3 0.669216 0.796176 0.495823
Si Si4 0.003202 0.201031 0.732252
Si Si5 0.877149 0.212510 0.495561
Si Si6 0.199603 0.399347 0.499875
Si Si7 0.430197 0.665617 0.267802
O O1 0.656835 0.315743 0.304757
O O2 0.500000 0.000000 0.500000
O O3 0.536780 0.074801 0.305011
O O4 0.272522 0.490606 0.009426
O O5 0.890164 0.710458 0.671250
O O6 0.008103 0.947520 0.670598
O O7 0.000000 0.500000 0.000000
O O8 0.686252 0.785177 0.409912
O O9 0.605511 0.551565 0.656645
O O10 0.000000 0.500000 0.500000
O O11 0.897597 0.134814 0.656875
O O12 0.886647 0.278774 0.721051
O O13 0.222393 0.944768 0.000064
O O14 0.991032 0.395589 0.409462
O O15 0.386801 0.278617 0.721202
O O16 0.500000 0.500000 0.500000
#
# Coordination Sequence:
#
# PCOD9037214 Si02
#       7
#     2   2   2   2   2   2   2
#     4  11  23  38  62  94 124 162 222 267 331 383
#     4  11  21  38  64  94 122 164 215 272 325 381
#     4  10  23  40  63  94 128 170 212 274 321 393
#     4  10  23  40  65  96 132 174 220 267 327 386
#     4  10  23  40  63  94 128 170 212 274 321 393
#     4  10  24  43  62  93 136 172 218 262 338 390
#     4  10  23  40  65  96 132 174 220 267 327 386
#
# _framework density 24.222761999999999
#
# number of rings (size 3 to 8) (size 9 to 14) (size 15 to 20)
#    0.000    1.714    2.857    0.857    2.000   11.429 
#    0.000    1.429    0.000    0.000    0.000    0.000 
#    0.000    0.000    0.000    0.000    0.000    0.000 
#
# Total GULP energy -77939.398668 kJ/mol
# GULP energy per Si atom -5567.099905 kJ/mol
# Density = 2.416763 g / cm^3
# Si number density = 24.222762 Si / 1000 Ang^3
#
#
#
# Elastic Constant Matrix: (Units=GPa)
#
#
# Indices 1 2 3 4 5 6 
#
# 1 86.7522 47.7255 34.7447 0.7188 39.1437 -1.2529
# 2 47.7255 202.3658 71.8091 5.4183 45.1859 -1.6907
# 3 34.7447 71.8091 142.6174 -2.3055 52.8638 -1.4894
# 4 0.7188 5.4183 -2.3055 -8.2408 0.1696 3.4075
# 5 39.1437 45.1859 52.8638 0.1696 59.8244 -1.2991
# 6 -1.2529 -1.6907 -1.4894 3.4075 -1.2991 17.9904
#
#
#
# Elastic Compliance Matrix: (Units=1/GPa)
#
#
# Indices 1 2 3 4 5 6 
#
# 1 0.016934 -0.001942 0.000618 -0.000048 -0.010152 0.000324
# 2 -0.001942 0.006398 -0.002016 0.004297 -0.001806 -0.000645
# 3 0.000618 -0.002016 0.010994 -0.004139 -0.008564 0.000929
# 4 -0.000048 0.004297 -0.004139 -0.108765 0.001202 0.020746
# 5 -0.010152 -0.001806 -0.008564 0.001202 0.032298 0.000519
# 6 0.000324 -0.000645 0.000929 0.020746 0.000519 0.051732
#
#
# Mechanical properties :
#
#
# Convention : Reuss Voigt Hill
#
# Bulk Modulus (GPa) = 36.17256 82.25489 59.21372
# Shear Modulus (GPa) = 196.19154 32.41186 114.30170
#
# Velocity S-wave (km/s) = 9.00947 3.66194 6.87678
# Velocity P-wave (km/s) = 11.09924 7.20494 9.35693
#
# Compressibility (1/GPa) = 0.02764527
#
# Stress axis : x y z
#
# Youngs Moduli (GPa) = 59.05352 156.30324 90.96263
#
# Poissons Ratio (x) = 0.30356 -0.05622
# Poissons Ratio (y) = 0.11469 0.18337
# Poissons Ratio (z) = -0.03650 0.31509
#
# Static dielectric constant tensor:
#      x y z
#    x 2.197460 0.000230 0.012390 
#    y 0.000230 1.945850 0.000770 
#    z 0.012390 0.000770 1.925370 
# 
# From -- ./inp_files/517536.got.cif
#   From: 2010.05.17/outbox.cif.g08.bks.cpg/sg2_259_cif.got.tgz:517536.got - 2010.06.03 11:33:40.
