data_PCOD9037059
_publ_section_title
;
Structure prediction by ZEFSAII (Michael W. Deem and Ramdas Pophale) SiO2 
 PCOD9037059
Probable space group: P -1
;
_chemical_formula_sum "Si O2"
_cell_formula_units_Z 14
_cell_length_a 13.581861
_cell_length_b 11.597844
_cell_length_c 9.133585
_cell_angle_alpha 124.368079
_cell_angle_beta 135.130504
_cell_angle_gamma 34.667871
_cell_volume 576.751519
_symmetry_space_group_name_H-M "P -1"
_symmetry_group_IT_number 2
_symmetry_cell_setting 'triclinic'
loop_
_space_group_symop_operation_xyz
x,y,z
-x,-y,-z
loop_
_atom_site_type_symbol
_atom_site_label
_atom_site_fract_x
_atom_site_fract_y
_atom_site_fract_z
Si Si1 0.162987 0.295370 0.435172
Si Si2 0.738881 0.059378 0.563283
Si Si3 0.256494 0.688721 0.401817
Si Si4 0.670815 0.282732 0.180835
Si Si5 0.043692 0.323181 0.995537
Si Si6 0.394538 0.933372 0.891489
Si Si7 0.488801 0.294920 0.740727
O O1 0.366798 0.243469 0.619603
O O2 0.000000 0.500000 0.500000
O O3 0.165996 0.143167 0.406775
O O4 0.106304 0.308871 0.217247
O O5 0.844374 0.129495 0.690315
O O6 0.679772 0.063962 0.341185
O O7 0.551891 0.227320 0.591853
O O8 0.500000 0.500000 0.500000
O O9 0.209862 0.767416 0.577862
O O10 0.159564 0.614985 0.201082
O O11 0.518757 0.271544 0.085350
O O12 0.631674 0.470641 0.219924
O O13 0.683822 0.192009 0.973118
O O14 0.217013 0.112538 0.940825
O O15 0.000000 0.500000 0.000000
O O16 0.500000 0.000000 0.000000
#
# Coordination Sequence:
#
# PCOD9037059 Si02
#       7
#     2   2   2   2   2   2   2
#     4  12  27  43  67 103 143 175 228 292 351 411
#     4  11  24  43  71  98 136 183 229 281 350 411
#     4  11  25  45  71 100 137 186 235 282 340 412
#     4  10  23  39  71  96 136 177 232 276 347 404
#     4  12  28  45  72 101 143 183 233 289 348 412
#     4  11  24  42  70 102 139 181 233 286 348 416
#     4  11  22  42  69  99 136 183 227 280 342 419
#
# _framework density 24.273883999999999
#
# number of rings (size 3 to 8) (size 9 to 14) (size 15 to 20)
#    0.000    0.857    1.429    4.714    6.000    4.000 
#    0.000    0.000    0.000    0.000    0.000    0.000 
#    0.000    0.000    0.000    0.000    0.000    0.000 
#
# Total GULP energy -77986.137852 kJ/mol
# GULP energy per Si atom -5570.438418 kJ/mol
# Density = 2.421864 g / cm^3
# Si number density = 24.273884 Si / 1000 Ang^3
#
#
#
# Elastic Constant Matrix: (Units=GPa)
#
#
# Indices 1 2 3 4 5 6 
#
# 1 99.9144 31.8995 52.5925 7.3046 6.0185 37.2098
# 2 31.8995 50.3439 47.5640 14.6782 7.5032 11.4152
# 3 52.5925 47.5640 158.8453 18.7158 -4.1070 -6.1285
# 4 7.3046 14.6782 18.7158 31.4255 0.1750 -4.1470
# 5 6.0185 7.5032 -4.1070 0.1750 61.1793 16.9092
# 6 37.2098 11.4152 -6.1285 -4.1470 16.9092 69.3267
#
#
#
# Elastic Compliance Matrix: (Units=1/GPa)
#
#
# Indices 1 2 3 4 5 6 
#
# 1 0.017312 -0.004526 -0.004663 -0.000360 0.001096 -0.009248
# 2 -0.004526 0.034675 -0.007823 -0.010973 -0.003240 -0.003838
# 3 -0.004663 -0.007823 0.010486 -0.000925 0.000897 0.004444
# 4 -0.000360 -0.010973 -0.000925 0.038133 0.000053 0.004186
# 5 0.001096 -0.003240 0.000897 0.000053 0.017894 -0.004337
# 6 -0.009248 -0.003838 0.004444 0.004186 -0.004337 0.021721
#
#
# Mechanical properties :
#
#
# Convention : Reuss Voigt Hill
#
# Bulk Modulus (GPa) = 35.15113 63.69061 49.42087
# Shear Modulus (GPa) = 27.21416 44.18947 35.70181
#
# Velocity S-wave (km/s) = 3.35196 4.27131 3.83925
# Velocity P-wave (km/s) = 5.43078 7.11482 6.32906
#
# Compressibility (1/GPa) = 0.02844859
#
# Stress axis : x y z
#
# Youngs Moduli (GPa) = 57.76262 28.83921 95.36943
#
# Poissons Ratio (x) = 0.13052 0.44469
# Poissons Ratio (y) = 0.26142 0.74612
# Poissons Ratio (z) = 0.26934 0.22562
#
# Static dielectric constant tensor:
#      x y z
#    x 2.076140 0.067080 0.077840 
#    y 0.067080 2.035310 -0.025840 
#    z 0.077840 -0.025840 1.916220 
# 
# From -- ./inp_files/263121.got.cif
#   From: 2010.05.17/outbox.cif.g08.bks.cpg/sg2_132_cif.got.tgz:263121.got - 2010.06.03 11:33:40.
