data_PCOD9037723
_publ_section_title
;
Structure prediction by ZEFSAII (Michael W. Deem and Ramdas Pophale) SiO2 
 PCOD9037723
Probable space group: P -1
;
_chemical_formula_sum "Si O2"
_cell_formula_units_Z 12
_cell_length_a 12.444501
_cell_length_b 10.574771
_cell_length_c 9.708437
_cell_angle_alpha 138.775351
_cell_angle_beta 128.011724
_cell_angle_gamma 73.013884
_cell_volume 626.342842
_symmetry_space_group_name_H-M "P -1"
_symmetry_group_IT_number 2
_symmetry_cell_setting 'triclinic'
loop_
_space_group_symop_operation_xyz
x,y,z
-x,-y,-z
loop_
_atom_site_type_symbol
_atom_site_label
_atom_site_fract_x
_atom_site_fract_y
_atom_site_fract_z
Si Si1 0.125344 0.684063 0.817673
Si Si2 0.950930 0.688413 0.950706
Si Si3 0.542971 0.104788 0.396708
Si Si4 0.560960 0.316288 0.876601
Si Si5 0.242506 0.044179 0.986516
Si Si6 0.839826 0.222015 0.565070
O O1 0.000000 0.500000 0.500000
O O2 0.172472 0.873817 0.907085
O O3 0.267889 0.623801 0.910265
O O4 0.063077 0.741743 0.956891
O O5 0.820700 0.773943 0.894224
O O6 0.036063 0.782772 0.234400
O O7 0.892710 0.445775 0.723166
O O8 0.535702 0.231848 0.631842
O O9 0.695862 0.191921 0.515097
O O10 0.515189 0.874529 0.239476
O O11 0.413508 0.106155 0.195055
O O12 0.500000 0.500000 0.000000
O O13 0.196267 0.943199 0.718825
#
# Coordination Sequence:
#
# PCOD9037723 Si02
#       6
#     2   2   2   2   2   2
#     4  11  22  42  64  91 124 156 209 256 293 362
#     4  11  24  41  63  91 126 162 200 253 307 357
#     4  10  23  41  61  92 124 158 206 253 295 366
#     4  10  23  41  64  90 122 163 202 251 307 356
#     4  11  24  39  66  91 121 165 205 246 307 360
#     4  11  23  43  60  90 131 157 203 252 302 365
#
# _framework density 19.158836000000001
#
# number of rings (size 3 to 8) (size 9 to 14) (size 15 to 20)
#    0.000    1.333    3.333    1.500    2.333    3.333 
#    0.000    0.000    0.000    0.000    0.000    0.000 
#    0.000    0.000    0.000    0.000    0.000    0.000 
#
# Total GULP energy -67086.315977 kJ/mol
# GULP energy per Si atom -5590.526331 kJ/mol
# Density = 1.911523 g / cm^3
# Si number density = 19.158836 Si / 1000 Ang^3
#
#
#
# Elastic Constant Matrix: (Units=GPa)
#
#
# Indices 1 2 3 4 5 6 
#
# 1 60.8474 14.5929 -6.6126 6.0734 -5.7489 -2.3037
# 2 14.5929 51.5034 7.0651 -7.5421 -15.4689 -18.2850
# 3 -6.6126 7.0651 55.2698 -15.8172 -2.6661 -12.0603
# 4 6.0734 -7.5421 -15.8172 17.5710 -1.2219 -3.1259
# 5 -5.7489 -15.4689 -2.6661 -1.2219 35.3500 2.0421
# 6 -2.3037 -18.2850 -12.0603 -3.1259 2.0421 33.2052
#
#
#
# Elastic Compliance Matrix: (Units=1/GPa)
#
#
# Indices 1 2 3 4 5 6 
#
# 1 0.019613 -0.009791 -0.001618 -0.013566 -0.001350 -0.005812
# 2 -0.009791 0.041558 0.011492 0.037897 0.017101 0.028895
# 3 -0.001618 0.011492 0.032649 0.039185 0.007351 0.021311
# 4 -0.013566 0.037897 0.039185 0.122381 0.018991 0.044512
# 5 -0.001350 0.017101 0.007351 0.018991 0.036095 0.011561
# 6 -0.005812 0.028895 0.021311 0.044512 0.011561 0.056844
#
#
# Mechanical properties :
#
#
# Convention : Reuss Voigt Hill
#
# Bulk Modulus (GPa) = 10.63975 21.96792 16.30383
# Shear Modulus (GPa) = 14.69277 27.39692 21.04485
#
# Velocity S-wave (km/s) = 2.77229 3.78562 3.31787
# Velocity P-wave (km/s) = 3.97655 5.53164 4.81726
#
# Compressibility (1/GPa) = 0.09398717
#
# Stress axis : x y z
#
# Youngs Moduli (GPa) = 50.98563 24.06270 30.62849
#
# Poissons Ratio (x) = 0.23559 0.04954
# Poissons Ratio (y) = 0.49919 -0.35197
# Poissons Ratio (z) = 0.08247 -0.27652
#
# Static dielectric constant tensor:
#      x y z
#    x 1.627670 0.011520 0.004010 
#    y 0.011520 1.647590 -0.019180 
#    z 0.004010 -0.019180 1.654910 
# 
# From -- ./inp_files/21480.got.cif
#   From: 2010.05.17/outbox.cif.g08.bks.cpg/sg2_11_cif.got.tgz:21480.got - 2010.06.03 11:33:40.
