data_PCOD9037077
_publ_section_title
;
Structure prediction by ZEFSAII (Michael W. Deem and Ramdas Pophale) SiO2 
 PCOD9037077
Probable space group: P -1
;
_chemical_formula_sum "Si O2"
_cell_formula_units_Z 16
_cell_length_a 21.824693
_cell_length_b 12.310536
_cell_length_c 7.505298
_cell_angle_alpha 80.202786
_cell_angle_beta 66.166489
_cell_angle_gamma 25.754979
_cell_volume 699.783211
_symmetry_space_group_name_H-M "P -1"
_symmetry_group_IT_number 2
_symmetry_cell_setting 'triclinic'
loop_
_space_group_symop_operation_xyz
x,y,z
-x,-y,-z
loop_
_atom_site_type_symbol
_atom_site_label
_atom_site_fract_x
_atom_site_fract_y
_atom_site_fract_z
Si Si1 0.097854 0.193820 0.810669
Si Si2 0.421963 0.668225 0.361959
Si Si3 0.929784 0.656226 0.723357
Si Si4 0.390759 0.808711 0.859883
Si Si5 0.214273 0.460820 0.993677
Si Si6 0.531542 0.819095 0.729844
Si Si7 0.462175 0.262512 0.841505
Si Si8 0.219103 0.381483 0.427722
O O1 0.976614 0.484672 0.847436
O O2 0.968364 0.287970 0.952757
O O3 0.218672 0.993332 0.550131
O O4 0.235144 0.009820 0.854782
O O5 0.500000 0.500000 0.500000
O O6 0.471448 0.498552 0.211094
O O7 0.516913 0.640112 0.232885
O O8 0.000000 0.500000 0.500000
O O9 0.044494 0.590117 0.643255
O O10 0.724581 0.990294 0.885380
O O11 0.486597 0.774856 0.693764
O O12 0.196039 0.453165 0.227436
O O13 0.294223 0.461114 0.893506
O O14 0.364717 0.152254 0.826424
O O15 0.700473 0.638399 0.551323
O O16 0.550522 0.751398 0.931954
O O17 0.632578 0.938915 0.659790
#
# Coordination Sequence:
#
# PCOD9037077 Si02
#       8
#     2   2   2   2   2   2   2   2
#     4  11  21  38  59  84 117 154 190 237 286 335
#     4  10  23  40  56  79 119 160 193 228 281 348
#     4  12  20  35  62  90 114 143 198 243 281 334
#     4  11  24  38  54  86 122 150 189 238 286 342
#     4   9  17  32  60  87 113 143 192 238 287 335
#     4   9  18  33  55  86 119 144 183 241 289 336
#     4   9  17  35  58  84 111 155 190 229 288 341
#     4   9  17  32  57  89 114 141 189 242 283 336
#
# _framework density 22.864224
#
# number of rings (size 3 to 8) (size 9 to 14) (size 15 to 20)
#    0.000    2.000    3.750    2.625    0.000    0.500 
#    0.000    6.875    0.000    3.000    0.000    0.000 
#    0.000    0.000    0.000    0.000    0.000    0.000 
#
# Total GULP energy -89422.695412 kJ/mol
# GULP energy per Si atom -5588.918463 kJ/mol
# Density = 2.281218 g / cm^3
# Si number density = 22.864224 Si / 1000 Ang^3
#
#
#
# Elastic Constant Matrix: (Units=GPa)
#
#
# Indices 1 2 3 4 5 6 
#
# 1 185.3177 38.8029 45.5097 22.8614 -44.7577 -1.9115
# 2 38.8029 41.9479 11.8832 2.9251 -2.2566 9.3233
# 3 45.5097 11.8832 70.1206 15.6087 -9.9477 12.7461
# 4 22.8614 2.9251 15.6087 29.4606 -1.6669 5.2943
# 5 -44.7577 -2.2566 -9.9477 -1.6669 47.9876 1.4006
# 6 -1.9115 9.3233 12.7461 5.2943 1.4006 41.3950
#
#
#
# Elastic Compliance Matrix: (Units=1/GPa)
#
#
# Indices 1 2 3 4 5 6 
#
# 1 0.011249 -0.009359 -0.003895 -0.006004 0.008911 0.004293
# 2 -0.009359 0.033699 -0.000221 0.005157 -0.006766 -0.008385
# 3 -0.003895 -0.000221 0.019194 -0.006164 0.000275 -0.005261
# 4 -0.006004 0.005157 -0.006164 0.041922 -0.005041 -0.004732
# 5 0.008911 -0.006766 0.000275 -0.005041 0.028669 0.001525
# 6 0.004293 -0.008385 -0.005261 -0.004732 0.001525 0.028418
#
#
# Mechanical properties :
#
#
# Convention : Reuss Voigt Hill
#
# Bulk Modulus (GPa) = 26.88631 54.41977 40.65304
# Shear Modulus (GPa) = 24.69186 37.18134 30.93660
#
# Velocity S-wave (km/s) = 3.28980 4.03697 3.68238
# Velocity P-wave (km/s) = 5.12006 6.75147 5.99155
#
# Compressibility (1/GPa) = 0.03719365
#
# Stress axis : x y z
#
# Youngs Moduli (GPa) = 88.89486 29.67480 52.10031
#
# Poissons Ratio (x) = 0.27772 0.20292
# Poissons Ratio (y) = 0.83194 0.01149
# Poissons Ratio (z) = 0.34622 0.00655
#
# Static dielectric constant tensor:
#      x y z
#    x 1.950710 -0.048550 0.105880 
#    y -0.048550 1.856960 -0.070680 
#    z 0.105880 -0.070680 1.964800 
# 
# From -- ./inp_files/345320.got.cif
#   From: 2010.05.17/outbox.cif.g08.bks.cpg/sg2_173_cif.got.tgz:345320.got - 2010.06.03 11:33:40.
