data_PCOD9037678
_publ_section_title
;
Structure prediction by ZEFSAII (Michael W. Deem and Ramdas Pophale) SiO2 
 PCOD9037678
Probable space group: P -1
;
_chemical_formula_sum "Si O2"
_cell_formula_units_Z 16
_cell_length_a 17.825495
_cell_length_b 8.728084
_cell_length_c 18.767684
_cell_angle_alpha 28.812650
_cell_angle_beta 29.397041
_cell_angle_gamma 38.259317
_cell_volume 687.810989
_symmetry_space_group_name_H-M "P -1"
_symmetry_group_IT_number 2
_symmetry_cell_setting 'triclinic'
loop_
_space_group_symop_operation_xyz
x,y,z
-x,-y,-z
loop_
_atom_site_type_symbol
_atom_site_label
_atom_site_fract_x
_atom_site_fract_y
_atom_site_fract_z
Si Si1 0.491536 0.596912 0.083924
Si Si2 0.011701 0.183378 0.667972
Si Si3 0.312959 0.828922 0.001175
Si Si4 0.250267 0.923143 0.686821
Si Si5 0.196368 0.501948 0.595289
Si Si6 0.297001 0.913113 0.232741
Si Si7 0.915561 0.623933 0.877808
Si Si8 0.489553 0.445995 0.613964
O O1 0.611739 0.303996 0.080750
O O2 0.395596 0.632647 0.221604
O O3 0.376551 0.622571 0.101374
O O4 0.590279 0.901556 0.886555
O O5 0.000000 0.500000 0.500000
O O6 0.992458 0.882356 0.756265
O O7 0.868217 0.187218 0.839778
O O8 0.165467 0.112661 0.614246
O O9 0.376006 0.166281 0.828481
O O10 0.408976 0.747752 0.599830
O O11 0.254586 0.166268 0.648985
O O12 0.148135 0.645883 0.911344
O O13 0.172844 0.756214 0.446739
O O14 0.336674 0.619944 0.476167
O O15 0.043967 0.482020 0.774454
O O16 0.221076 0.172006 0.134802
O O17 0.500000 0.500000 0.500000
#
# Coordination Sequence:
#
# PCOD9037678 Si02
#       8
#     2   2   2   2   2   2   2   2
#     4  10  23  40  73 103 145 182 237 295 365 418
#     4  12  27  47  76 106 144 191 245 301 365 438
#     4  11  24  45  72 109 143 191 243 299 363 432
#     4  12  28  49  73 105 146 194 242 301 368 434
#     4  12  28  46  73 107 144 191 248 298 365 433
#     4  11  23  45  71 108 143 190 239 305 350 433
#     4  12  26  48  71 105 149 193 240 300 369 429
#     4  12  27  48  74 105 147 193 242 301 365 441
#
# _framework density 23.262205000000002
#
# number of rings (size 3 to 8) (size 9 to 14) (size 15 to 20)
#    0.000    0.500    3.750    3.000    8.750    2.000 
#    0.000    0.000    0.000    0.000    0.000    0.000 
#    0.000    0.000    0.000    0.000    0.000    0.000 
#
# Total GULP energy -89556.292176 kJ/mol
# GULP energy per Si atom -5597.268261 kJ/mol
# Density = 2.320926 g / cm^3
# Si number density = 23.262205 Si / 1000 Ang^3
#
#
#
# Elastic Constant Matrix: (Units=GPa)
#
#
# Indices 1 2 3 4 5 6 
#
# 1 58.5786 17.4146 12.9600 -4.8358 1.2209 10.4812
# 2 17.4146 115.9585 23.5834 21.9334 7.2164 18.6748
# 3 12.9600 23.5834 81.5173 -6.5693 5.8681 3.7658
# 4 -4.8358 21.9334 -6.5693 37.8216 1.6270 -2.8904
# 5 1.2209 7.2164 5.8681 1.6270 30.1273 -0.9618
# 6 10.4812 18.6748 3.7658 -2.8904 -0.9618 31.2913
#
#
#
# Elastic Compliance Matrix: (Units=1/GPa)
#
#
# Indices 1 2 3 4 5 6 
#
# 1 0.019270 -0.002367 -0.001903 0.003167 -0.000159 -0.004525
# 2 -0.002367 0.012615 -0.003497 -0.008688 -0.002004 -0.007179
# 3 -0.001903 -0.003497 0.014018 0.004412 -0.002010 0.001383
# 4 0.003167 -0.008688 0.004412 0.033178 -0.000486 0.006643
# 5 -0.000159 -0.002004 -0.002010 -0.000486 0.034176 0.002497
# 6 -0.004525 -0.007179 0.001383 0.006643 0.002497 0.038282
#
#
# Mechanical properties :
#
#
# Convention : Reuss Voigt Hill
#
# Bulk Modulus (GPa) = 32.93003 40.44116 36.68559
# Shear Modulus (GPa) = 28.21711 33.32115 30.76913
#
# Velocity S-wave (km/s) = 3.48660 3.78883 3.64085
# Velocity P-wave (km/s) = 5.51319 6.04673 5.78611
#
# Compressibility (1/GPa) = 0.03036742
#
# Stress axis : x y z
#
# Youngs Moduli (GPa) = 51.89325 79.27192 71.33693
#
# Poissons Ratio (x) = 0.18767 0.13576
# Poissons Ratio (y) = 0.12285 0.24949
# Poissons Ratio (z) = 0.09876 0.27724
#
# Static dielectric constant tensor:
#      x y z
#    x 1.862790 -0.012790 0.011860 
#    y -0.012790 1.879840 -0.004580 
#    z 0.011860 -0.004580 1.880450 
# 
# From -- ./inp_files/206972.got.cif
#   From: 2010.05.17/outbox.cif.g08.bks.cpg/sg2_104_cif.got.tgz:206972.got - 2010.06.03 11:33:40.
