data_PCOD9037584
_publ_section_title
;
Structure prediction by ZEFSAII (Michael W. Deem and Ramdas Pophale) SiO2 
 PCOD9037584
Probable space group: P -1
;
_chemical_formula_sum "Si O2"
_cell_formula_units_Z 16
_cell_length_a 5.722490
_cell_length_b 13.310523
_cell_length_c 16.258358
_cell_angle_alpha 39.877201
_cell_angle_beta 110.418173
_cell_angle_gamma 126.994666
_cell_volume 618.539621
_symmetry_space_group_name_H-M "P -1"
_symmetry_group_IT_number 2
_symmetry_cell_setting 'triclinic'
loop_
_space_group_symop_operation_xyz
x,y,z
-x,-y,-z
loop_
_atom_site_type_symbol
_atom_site_label
_atom_site_fract_x
_atom_site_fract_y
_atom_site_fract_z
Si Si1 0.863347 0.841737 0.653574
Si Si2 0.230896 0.584590 0.728097
Si Si3 0.540624 0.381688 0.512376
Si Si4 0.741049 0.204238 0.938605
Si Si5 0.777497 0.326703 0.140727
Si Si6 0.714571 0.848601 0.945853
Si Si7 0.102075 0.759134 0.313047
Si Si8 0.892808 0.150704 0.550223
O O1 0.567529 0.638712 0.720452
O O2 0.104060 0.808282 0.742759
O O3 0.759377 0.936259 0.647466
O O4 0.000000 0.000000 0.500000
O O5 0.209676 0.588446 0.821883
O O6 0.241244 0.756956 0.577459
O O7 0.920982 0.391312 0.786057
O O8 0.500000 0.500000 0.500000
O O9 0.602888 0.243316 0.655683
O O10 0.827354 0.545843 0.395217
O O11 0.242926 0.260457 0.501309
O O12 0.544292 0.230416 0.965902
O O13 0.032339 0.196776 0.000461
O O14 0.500000 0.000000 0.000000
O O15 0.470725 0.217627 0.120133
O O16 0.000000 0.500000 0.000000
O O17 0.891013 0.075550 0.835913
O O18 0.108647 0.804791 0.382438
#
# Coordination Sequence:
#
# PCOD9037584 Si02
#       8
#     2   2   2   2   2   2   2   2
#     4  12  27  46  74 114 161 206 265 325 407 481
#     4  12  28  47  75 110 162 205 270 327 408 477
#     4   9  21  40  64 102 145 193 252 313 391 465
#     4  12  31  55  79 115 156 215 271 332 404 482
#     4  12  26  48  78 112 157 211 269 334 401 480
#     4  12  28  49  83 111 154 204 269 330 400 476
#     4  10  23  40  69 108 144 196 256 318 394 471
#     4  11  24  41  71 108 154 198 251 326 403 476
#
# _framework density 25.867381000000002
#
# number of rings (size 3 to 8) (size 9 to 14) (size 15 to 20)
#    0.000    0.750    2.500    3.000   12.250    3.000 
#    0.000    0.000    0.000    0.000    0.000    0.000 
#    0.000    0.000    0.000    0.000    0.000    0.000 
#
# Total GULP energy -89507.665043 kJ/mol
# GULP energy per Si atom -5594.229065 kJ/mol
# Density = 2.580851 g / cm^3
# Si number density = 25.867381 Si / 1000 Ang^3
#
#
#
# Elastic Constant Matrix: (Units=GPa)
#
#
# Indices 1 2 3 4 5 6 
#
# 1 122.0019 32.1254 46.2481 10.8582 16.3497 15.1982
# 2 32.1254 109.7747 17.4696 -15.6848 -13.0030 18.1309
# 3 46.2481 17.4696 110.7541 -4.6975 -8.7116 -4.4348
# 4 10.8582 -15.6848 -4.6975 42.9885 -4.2704 -1.3327
# 5 16.3497 -13.0030 -8.7116 -4.2704 53.6355 0.2840
# 6 15.1982 18.1309 -4.4348 -1.3327 0.2840 50.2602
#
#
#
# Elastic Compliance Matrix: (Units=1/GPa)
#
#
# Indices 1 2 3 4 5 6 
#
# 1 0.013293 -0.004097 -0.005805 -0.006228 -0.006467 -0.003183
# 2 -0.004097 0.012156 0.000295 0.005879 0.004727 -0.002991
# 3 -0.005805 0.000295 0.011978 0.003370 0.004040 0.002773
# 4 -0.006228 0.005879 0.003370 0.027977 0.006095 0.000767
# 5 -0.006467 0.004727 0.004040 0.006095 0.022900 0.000639
# 6 -0.003183 -0.002991 0.002773 0.000767 0.000639 0.022199
#
#
# Mechanical properties :
#
#
# Convention : Reuss Voigt Hill
#
# Bulk Modulus (GPa) = 54.90516 59.35743 57.13130
# Shear Modulus (GPa) = 36.82188 45.82270 41.32229
#
# Velocity S-wave (km/s) = 3.77701 4.21342 4.00117
# Velocity P-wave (km/s) = 6.34766 6.83134 6.59394
#
# Compressibility (1/GPa) = 0.01821322
#
# Stress axis : x y z
#
# Youngs Moduli (GPa) = 75.22565 82.26718 83.48428
#
# Poissons Ratio (x) = 0.33702 0.48463
# Poissons Ratio (y) = 0.30817 -0.02461
# Poissons Ratio (z) = 0.43669 -0.02425
#
# Static dielectric constant tensor:
#      x y z
#    x 2.082170 -0.006340 -0.063160 
#    y -0.006340 2.162020 -0.005490 
#    z -0.063160 -0.005490 2.090110 
# 
# From -- ./inp_files/550079.got.cif
#   From: 2010.05.17/outbox.cif.g08.bks.cpg/sg2_276_cif.got.tgz:550079.got - 2010.06.03 11:33:40.
