data_PCOD9037921
_publ_section_title
;
Structure prediction by ZEFSAII (Michael W. Deem and Ramdas Pophale) SiO2 
 PCOD9037921
Probable space group: P -1
;
_chemical_formula_sum "Si O2"
_cell_formula_units_Z 14
_cell_length_a 12.552501
_cell_length_b 11.725003
_cell_length_c 5.112626
_cell_angle_alpha 92.343732
_cell_angle_beta 52.024539
_cell_angle_gamma 97.898454
_cell_volume 586.603725
_symmetry_space_group_name_H-M "P -1"
_symmetry_group_IT_number 2
_symmetry_cell_setting 'triclinic'
loop_
_space_group_symop_operation_xyz
x,y,z
-x,-y,-z
loop_
_atom_site_type_symbol
_atom_site_label
_atom_site_fract_x
_atom_site_fract_y
_atom_site_fract_z
Si Si1 0.821765 0.367349 0.922403
Si Si2 0.762318 0.667528 0.156728
Si Si3 0.871562 0.549173 0.470371
Si Si4 0.577019 0.128159 0.858761
Si Si5 0.900799 0.919668 0.945774
Si Si6 0.465442 0.719469 0.557796
Si Si7 0.838205 0.114824 0.749031
O O1 0.827557 0.417868 0.621807
O O2 0.829122 0.232299 0.922180
O O3 0.965697 0.427322 0.821588
O O4 0.670855 0.374547 0.255819
O O5 0.792990 0.592000 0.350447
O O6 0.603900 0.665202 0.330519
O O7 0.837144 0.623035 0.785504
O O8 0.820619 0.800281 0.155604
O O9 0.542960 0.187817 0.649171
O O10 0.736451 0.116803 0.660182
O O11 0.539596 0.211572 0.155595
O O12 0.500000 0.000000 0.000000
O O13 0.006558 0.883201 0.570424
O O14 0.802847 0.000071 0.963502
O O15 0.000000 0.000000 0.000000
#
# Coordination Sequence:
#
# PCOD9037921 Si02
#       7
#     2   2   2   2   2   2   2
#     4  10  24  48  68 104 132 185 230 283 341 403
#     4  12  26  46  68 106 135 182 227 284 342 409
#     4  11  26  45  75  95 141 179 232 286 335 405
#     4  11  24  41  66  97 137 185 223 275 336 411
#     4  11  24  38  67  97 137 177 220 281 340 402
#     4  11  26  42  70  97 141 175 230 282 340 403
#     4  10  23  41  64  97 132 176 226 277 332 410
#
# _framework density 23.866198000000001
#
# number of rings (size 3 to 8) (size 9 to 14) (size 15 to 20)
#    0.000    1.143    1.429    3.000   10.000    5.714 
#    0.000    0.000    0.000    0.000    0.000    0.000 
#    0.000    0.000    0.000    0.000    0.000    0.000 
#
# Total GULP energy -78361.707665 kJ/mol
# GULP energy per Si atom -5597.264833 kJ/mol
# Density = 2.381188 g / cm^3
# Si number density = 23.866198 Si / 1000 Ang^3
#
#
#
# Elastic Constant Matrix: (Units=GPa)
#
#
# Indices 1 2 3 4 5 6 
#
# 1 136.6285 52.8343 59.9484 -11.5859 -12.7527 -31.8778
# 2 52.8343 118.0348 43.2404 -9.1000 -8.4996 -15.7720
# 3 59.9484 43.2404 91.4327 -14.0528 -10.5993 -5.2361
# 4 -11.5859 -9.1000 -14.0528 36.3199 -1.6858 5.4450
# 5 -12.7527 -8.4996 -10.5993 -1.6858 45.3150 2.4872
# 6 -31.8778 -15.7720 -5.2361 5.4450 2.4872 48.2516
#
#
#
# Elastic Compliance Matrix: (Units=1/GPa)
#
#
# Indices 1 2 3 4 5 6 
#
# 1 0.012967 -0.002255 -0.006907 -0.000098 0.001221 0.007028
# 2 -0.002255 0.011071 -0.003528 0.000465 0.000543 0.001666
# 3 -0.006907 -0.003528 0.017810 0.004555 0.001971 -0.004399
# 4 -0.000098 0.000465 0.004555 0.029930 0.002399 -0.002919
# 5 0.001221 0.000543 0.001971 0.002399 0.023078 -0.000262
# 6 0.007028 0.001666 -0.004399 -0.002919 -0.000262 0.025778
#
#
# Mechanical properties :
#
#
# Convention : Reuss Voigt Hill
#
# Bulk Modulus (GPa) = 60.71347 73.12692 66.92019
# Shear Modulus (GPa) = 33.00279 38.64883 35.82581
#
# Velocity S-wave (km/s) = 3.72267 4.02854 3.87862
# Velocity P-wave (km/s) = 6.63114 7.23503 6.93966
#
# Compressibility (1/GPa) = 0.01647081
#
# Stress axis : x y z
#
# Youngs Moduli (GPa) = 77.11975 90.32481 56.14705
#
# Poissons Ratio (x) = 0.20364 0.38778
# Poissons Ratio (y) = 0.17387 0.19807
# Poissons Ratio (z) = 0.53263 0.31864
#
# Static dielectric constant tensor:
#      x y z
#    x 1.900490 0.025460 0.007800 
#    y 0.025460 1.920050 0.023780 
#    z 0.007800 0.023780 1.915330 
# 
# From -- ./inp_files/60619.got.cif
#   From: 2010.05.17/outbox.cif.g08.bks.cpg/sg2_31_cif.got.tgz:60619.got - 2010.06.03 11:33:40.
