data_PCOD9037751
_publ_section_title
;
Structure prediction by ZEFSAII (Michael W. Deem and Ramdas Pophale) SiO2 
 PCOD9037751
Probable space group: P -1
;
_chemical_formula_sum "Si O2"
_cell_formula_units_Z 14
_cell_length_a 6.383788
_cell_length_b 8.959113
_cell_length_c 18.763649
_cell_angle_alpha 44.257734
_cell_angle_beta 62.891204
_cell_angle_gamma 72.474802
_cell_volume 666.111596
_symmetry_space_group_name_H-M "P -1"
_symmetry_group_IT_number 2
_symmetry_cell_setting 'triclinic'
loop_
_space_group_symop_operation_xyz
x,y,z
-x,-y,-z
loop_
_atom_site_type_symbol
_atom_site_label
_atom_site_fract_x
_atom_site_fract_y
_atom_site_fract_z
Si Si1 0.724191 0.999994 0.564507
Si Si2 0.424647 0.669629 0.625110
Si Si3 0.039203 0.572416 0.812957
Si Si4 0.276432 0.515247 0.932113
Si Si5 0.360444 0.118757 0.216527
Si Si6 0.688191 0.202368 0.951123
Si Si7 0.537897 0.194504 0.816665
O O1 0.594343 0.816438 0.598783
O O2 0.679953 0.957819 0.669574
O O3 0.592702 0.216621 0.487644
O O4 0.000000 0.000000 0.500000
O O5 0.484863 0.424015 0.713147
O O6 0.153602 0.675748 0.690463
O O7 0.851038 0.727832 0.820364
O O8 0.902331 0.350839 0.894669
O O9 0.257210 0.550444 0.838691
O O10 0.405366 0.724037 0.874767
O O11 0.449747 0.317245 0.976450
O O12 0.000000 0.500000 0.000000
O O13 0.360514 0.934526 0.221329
O O14 0.687156 0.209295 0.862381
O O15 0.675629 0.964247 0.066483
#
# Coordination Sequence:
#
# PCOD9037751 Si02
#       7
#     2   2   2   2   2   2   2
#     4  11  23  44  72  89 117 173 218 267 308 377
#     4  11  23  42  68  92 120 165 222 253 320 379
#     4  11  20  41  67  90 123 175 213 252 301 394
#     4  11  21  39  65  95 124 174 215 252 303 393
#     4  11  23  41  64  97 131 160 214 269 314 362
#     4  10  23  41  62  91 138 173 205 247 325 379
#     4  11  23  43  59  97 138 162 203 268 318 376
#
# _framework density 21.017499999999998
#
# number of rings (size 3 to 8) (size 9 to 14) (size 15 to 20)
#    0.000    1.143    4.286    2.571    0.000    3.429 
#    7.714    0.714    0.000    0.000    0.000    0.000 
#    0.000    0.000    0.000    0.000    0.000    0.000 
#
# Total GULP energy -78097.309319 kJ/mol
# GULP energy per Si atom -5578.379237 kJ/mol
# Density = 2.096966 g / cm^3
# Si number density = 21.017500 Si / 1000 Ang^3
#
#
#
# Elastic Constant Matrix: (Units=GPa)
#
#
# Indices 1 2 3 4 5 6 
#
# 1 76.9213 44.8770 55.1471 -15.0602 9.5675 -2.1366
# 2 44.8770 127.4948 46.7110 -13.3852 14.5493 3.6707
# 3 55.1471 46.7110 117.7655 -13.8980 24.0388 -2.1699
# 4 -15.0602 -13.3852 -13.8980 41.1334 -0.8122 4.9150
# 5 9.5675 14.5493 24.0388 -0.8122 46.5039 5.0109
# 6 -2.1366 3.6707 -2.1699 4.9150 5.0109 21.5312
#
#
#
# Elastic Compliance Matrix: (Units=1/GPa)
#
#
# Indices 1 2 3 4 5 6 
#
# 1 0.022297 -0.004531 -0.008415 0.003747 0.001136 0.001017
# 2 -0.004531 0.010394 -0.001634 0.001439 -0.001187 -0.002438
# 3 -0.008415 -0.001634 0.014312 0.000887 -0.005348 0.001928
# 4 0.003747 0.001439 0.000887 0.027138 -0.000576 -0.005845
# 5 0.001136 -0.001187 -0.005348 -0.000576 0.025033 -0.005918
# 6 0.001017 -0.002438 0.001928 -0.005845 -0.005918 0.049867
#
#
# Mechanical properties :
#
#
# Convention : Reuss Voigt Hill
#
# Bulk Modulus (GPa) = 56.04256 68.40577 62.22416
# Shear Modulus (GPa) = 27.15202 33.53011 30.34107
#
# Velocity S-wave (km/s) = 3.59817 3.99851 3.80361
# Velocity P-wave (km/s) = 6.63212 7.34405 6.99715
#
# Compressibility (1/GPa) = 0.01784358
#
# Stress axis : x y z
#
# Youngs Moduli (GPa) = 44.84848 96.21319 69.87198
#
# Poissons Ratio (x) = 0.43593 0.58798
# Poissons Ratio (y) = 0.20320 0.11414
# Poissons Ratio (z) = 0.37741 0.15717
#
# Static dielectric constant tensor:
#      x y z
#    x 1.754710 -0.015980 0.031340 
#    y -0.015980 1.776870 0.023370 
#    z 0.031340 0.023370 1.844430 
# 
# From -- ./inp_files/68117.got.cif
#   From: 2010.05.17/outbox.cif.g08.bks.cpg/sg2_35_cif.got.tgz:68117.got - 2010.06.03 11:33:40.
