data_PCOD9037222
_publ_section_title
;
Structure prediction by ZEFSAII (Michael W. Deem and Ramdas Pophale) SiO2 
 PCOD9037222
Probable space group: P -1
;
_chemical_formula_sum "Si O2"
_cell_formula_units_Z 16
_cell_length_a 13.056708
_cell_length_b 9.376354
_cell_length_c 14.989943
_cell_angle_alpha 136.878405
_cell_angle_beta 129.549438
_cell_angle_gamma 84.494261
_cell_volume 690.982273
_symmetry_space_group_name_H-M "P -1"
_symmetry_group_IT_number 2
_symmetry_cell_setting 'triclinic'
loop_
_space_group_symop_operation_xyz
x,y,z
-x,-y,-z
loop_
_atom_site_type_symbol
_atom_site_label
_atom_site_fract_x
_atom_site_fract_y
_atom_site_fract_z
Si Si1 0.342315 0.974751 0.599897
Si Si2 0.945266 0.103787 0.365034
Si Si3 0.583492 0.866556 0.978182
Si Si4 0.726127 0.481006 0.010825
Si Si5 0.122114 0.990404 0.913839
Si Si6 0.558789 0.734078 0.382779
Si Si7 0.581020 0.411319 0.568803
Si Si8 0.968452 0.505495 0.270998
O O1 0.397050 0.792739 0.552560
O O2 0.161368 0.807329 0.479778
O O3 0.303101 0.996994 0.484612
O O4 0.533996 0.307796 0.879401
O O5 0.983421 0.092254 0.276726
O O6 0.084027 0.404268 0.632462
O O7 0.882388 0.829690 0.257373
O O8 0.754990 0.029445 0.215408
O O9 0.447269 0.520066 0.757075
O O10 0.500000 0.000000 0.000000
O O11 0.690324 0.933082 0.975421
O O12 0.818423 0.375537 0.051427
O O13 0.640436 0.395342 0.824451
O O14 0.012574 0.711569 0.787831
O O15 0.213253 0.289157 0.147028
O O16 0.551530 0.754015 0.492880
O O17 0.500000 0.500000 0.500000
#
# Coordination Sequence:
#
# PCOD9037222 Si02
#       8
#     2   2   2   2   2   2   2   2
#     4  10  23  40  63  96 123 164 209 258 304 376
#     4   9  20  39  60  84 123 172 198 253 313 364
#     4   8  16  35  62  86 117 163 199 244 312 349
#     4   9  20  42  58  86 127 159 201 257 303 365
#     4   9  21  39  57  87 129 160 204 263 304 358
#     4   8  19  41  60  87 128 159 201 258 308 364
#     4  11  20  39  72  88 120 168 210 259 318 358
#     4  12  22  37  63  94 125 165 212 242 317 369
#
# _framework density 23.155441
#
# number of rings (size 3 to 8) (size 9 to 14) (size 15 to 20)
#    1.500    1.000    1.250    1.875    0.000    4.000 
#    4.500    1.875    0.000    0.000    0.000    0.000 
#    0.000    0.000    0.000    0.000    0.000    0.000 
#
# Total GULP energy -89117.155324 kJ/mol
# GULP energy per Si atom -5569.822208 kJ/mol
# Density = 2.310274 g / cm^3
# Si number density = 23.155441 Si / 1000 Ang^3
#
#
#
# Elastic Constant Matrix: (Units=GPa)
#
#
# Indices 1 2 3 4 5 6 
#
# 1 30.2681 26.9782 0.6997 -12.1941 -4.0139 -3.0437
# 2 26.9782 117.3525 34.9916 5.2182 0.9447 2.2949
# 3 0.6997 34.9916 45.9108 -2.1777 -9.1553 7.3878
# 4 -12.1941 5.2182 -2.1777 29.7850 4.4739 2.3232
# 5 -4.0139 0.9447 -9.1553 4.4739 24.0252 7.1158
# 6 -3.0437 2.2949 7.3878 2.3232 7.1158 24.3822
#
#
#
# Elastic Compliance Matrix: (Units=1/GPa)
#
#
# Indices 1 2 3 4 5 6 
#
# 1 0.068311 -0.023870 0.022477 0.031662 0.016135 -0.003762
# 2 -0.023870 0.020157 -0.018665 -0.013434 -0.010948 0.005253
# 3 0.022477 -0.018665 0.043733 0.013433 0.023649 -0.016870
# 4 0.031662 -0.013434 0.013433 0.049771 0.002992 -0.004469
# 5 0.016135 -0.010948 0.023649 0.002992 0.059667 -0.021820
# 6 -0.003762 0.005253 -0.016870 -0.004469 -0.021820 0.051955
#
#
# Mechanical properties :
#
#
# Convention : Reuss Voigt Hill
#
# Bulk Modulus (GPa) = 10.85964 35.43002 23.14483
# Shear Modulus (GPa) = 13.72099 24.36263 19.04181
#
# Velocity S-wave (km/s) = 2.43690 3.24718 2.87077
# Velocity P-wave (km/s) = 3.55218 5.42154 4.58318
#
# Compressibility (1/GPa) = 0.09208411
#
# Stress axis : x y z
#
# Youngs Moduli (GPa) = 14.63883 49.61044 22.86629
#
# Poissons Ratio (x) = 1.18422 -0.51396
# Poissons Ratio (y) = 0.34943 0.42680
# Poissons Ratio (z) = -0.32903 0.92597
#
# Static dielectric constant tensor:
#      x y z
#    x 1.897670 0.045770 -0.012460 
#    y 0.045770 1.909400 0.000990 
#    z -0.012460 0.000990 1.919640 
# 
# From -- ./inp_files/529081.got.cif
#   From: 2010.05.17/outbox.cif.g08.bks.cpg/sg2_265_cif.got.tgz:529081.got - 2010.06.03 11:33:40.
