data_PCOD9037377
_publ_section_title
;
Structure prediction by ZEFSAII (Michael W. Deem and Ramdas Pophale) SiO2 
 PCOD9037377
Probable space group: P -1
;
_chemical_formula_sum "Si O2"
_cell_formula_units_Z 14
_cell_length_a 11.300489
_cell_length_b 10.460601
_cell_length_c 18.135723
_cell_angle_alpha 155.953972
_cell_angle_beta 40.568338
_cell_angle_gamma 128.476777
_cell_volume 547.036990
_symmetry_space_group_name_H-M "P -1"
_symmetry_group_IT_number 2
_symmetry_cell_setting 'triclinic'
loop_
_space_group_symop_operation_xyz
x,y,z
-x,-y,-z
loop_
_atom_site_type_symbol
_atom_site_label
_atom_site_fract_x
_atom_site_fract_y
_atom_site_fract_z
Si Si1 0.360107 0.177398 0.335924
Si Si2 0.676436 0.375601 0.027193
Si Si3 0.950886 0.329756 0.647235
Si Si4 0.127693 0.204599 0.934281
Si Si5 0.464790 0.312047 0.522921
Si Si6 0.042034 0.112167 0.264506
Si Si7 0.706844 0.116085 0.529521
O O1 0.392724 0.253732 0.445153
O O2 0.492411 0.340973 0.311576
O O3 0.135892 0.325730 0.509761
O O4 0.393768 0.805024 0.103085
O O5 0.839524 0.518742 0.991189
O O6 0.492070 0.655796 0.284836
O O7 0.768208 0.100295 0.898241
O O8 0.786756 0.299753 0.654006
O O9 0.911316 0.629360 0.880031
O O10 0.000000 0.000000 0.500000
O O11 0.330025 0.941803 0.701591
O O12 0.974965 0.030258 0.883802
O O13 0.327090 0.209566 0.591163
O O14 0.863627 0.041737 0.354055
O O15 0.000000 0.500000 0.500000
#
# Coordination Sequence:
#
# PCOD9037377 Si02
#       7
#     2   2   2   2   2   2   2
#     4  11  21  41  68 109 145 176 232 299 341 413
#     4  11  23  44  72 101 139 186 237 285 350 420
#     4  12  21  41  76 105 139 187 235 287 356 412
#     4  11  24  43  69 102 140 186 237 284 352 421
#     4  10  23  40  66 105 143 179 231 291 349 410
#     4  12  27  50  70 102 145 184 236 300 347 421
#     4  11  24  46  75 100 138 192 233 285 360 414
#
# _framework density 25.592419
#
# number of rings (size 3 to 8) (size 9 to 14) (size 15 to 20)
#    0.000    0.857    4.286    2.143    0.000    5.714 
#    7.714    0.000    0.000    0.000    0.000    0.000 
#    0.000    0.000    0.000    0.000    0.000    0.000 
#
# Total GULP energy -78497.000722 kJ/mol
# GULP energy per Si atom -5606.928623 kJ/mol
# Density = 2.553417 g / cm^3
# Si number density = 25.592419 Si / 1000 Ang^3
#
#
#
# Elastic Constant Matrix: (Units=GPa)
#
#
# Indices 1 2 3 4 5 6 
#
# 1 140.7254 25.3237 39.5925 10.2786 14.2767 15.3648
# 2 25.3237 123.7843 20.9484 8.2449 5.5828 16.9769
# 3 39.5925 20.9484 70.2047 7.5269 9.9586 4.5033
# 4 10.2786 8.2449 7.5269 40.7266 9.0771 4.2297
# 5 14.2767 5.5828 9.9586 9.0771 58.6886 4.4355
# 6 15.3648 16.9769 4.5033 4.2297 4.4355 28.7883
#
#
#
# Elastic Compliance Matrix: (Units=1/GPa)
#
#
# Indices 1 2 3 4 5 6 
#
# 1 0.008998 -0.000503 -0.004475 -0.000752 -0.000998 -0.003542
# 2 -0.000503 0.009239 -0.002088 -0.000886 0.000093 -0.004738
# 3 -0.004475 -0.002088 0.017692 -0.001502 -0.001582 0.001317
# 4 -0.000752 -0.000886 -0.001502 0.026175 -0.003362 -0.002169
# 5 -0.000998 0.000093 -0.001582 -0.003362 0.018181 -0.001582
# 6 -0.003542 -0.004738 0.001317 -0.002169 -0.001582 0.039777
#
#
# Mechanical properties :
#
#
# Convention : Reuss Voigt Hill
#
# Bulk Modulus (GPa) = 45.87528 56.27152 51.07340
# Shear Modulus (GPa) = 35.34544 42.23067 38.78806
#
# Velocity S-wave (km/s) = 3.72033 4.06658 3.89730
# Velocity P-wave (km/s) = 6.03480 6.63963 6.34443
#
# Compressibility (1/GPa) = 0.02179823
#
# Stress axis : x y z
#
# Youngs Moduli (GPa) = 111.12966 108.23276 56.52294
#
# Poissons Ratio (x) = 0.05440 0.25297
# Poissons Ratio (y) = 0.05586 0.11800
# Poissons Ratio (z) = 0.49735 0.22596
#
# Static dielectric constant tensor:
#      x y z
#    x 2.031890 -0.017760 0.005970 
#    y -0.017760 2.015230 0.039170 
#    z 0.005970 0.039170 1.999000 
# 
# From -- ./inp_files/226700.got.cif
#   From: 2010.05.17/outbox.cif.g08.bks.cpg/sg2_114_cif.got.tgz:226700.got - 2010.06.03 11:33:40.
