data_PCOD9037679
_publ_section_title
;
Structure prediction by ZEFSAII (Michael W. Deem and Ramdas Pophale) SiO2 
 PCOD9037679
Probable space group: P -1
;
_chemical_formula_sum "Si O2"
_cell_formula_units_Z 14
_cell_length_a 9.003269
_cell_length_b 19.888970
_cell_length_c 12.219164
_cell_angle_alpha 155.144676
_cell_angle_beta 38.979710
_cell_angle_gamma 131.791855
_cell_volume 572.221102
_symmetry_space_group_name_H-M "P -1"
_symmetry_group_IT_number 2
_symmetry_cell_setting 'triclinic'
loop_
_space_group_symop_operation_xyz
x,y,z
-x,-y,-z
loop_
_atom_site_type_symbol
_atom_site_label
_atom_site_fract_x
_atom_site_fract_y
_atom_site_fract_z
Si Si1 0.468678 0.537285 0.763560
Si Si2 0.229541 0.046534 0.005458
Si Si3 0.346621 0.737060 0.610922
Si Si4 0.307848 0.857630 0.227596
Si Si5 0.903053 0.621933 0.335166
Si Si6 0.019442 0.814866 0.108837
Si Si7 0.986861 0.467924 0.623068
O O1 0.463968 0.418971 0.696536
O O2 0.354802 0.435823 0.586624
O O3 0.741401 0.544996 0.591434
O O4 0.332868 0.719723 0.102889
O O5 0.140012 0.182725 0.350565
O O6 0.423632 0.122566 0.933982
O O7 0.381128 0.886351 0.735754
O O8 0.000000 0.000000 0.000000
O O9 0.137943 0.655861 0.556002
O O10 0.243125 0.809320 0.891441
O O11 0.138603 0.812205 0.157349
O O12 0.168611 0.032995 0.594015
O O13 0.038123 0.576283 0.302360
O O14 0.000000 0.500000 0.000000
O O15 0.892352 0.656000 0.937133
#
# Coordination Sequence:
#
# PCOD9037679 Si02
#       7
#     2   2   2   2   2   2   2
#     4  11  22  44  72 101 132 187 233 278 347 415
#     4  12  25  47  68 101 147 188 222 290 359 408
#     4  11  25  42  70 104 141 181 229 285 355 415
#     4  11  23  43  73 101 141 183 234 289 344 412
#     4  12  26  42  72  99 136 182 236 282 341 414
#     4  10  23  40  73 104 135 177 244 288 336 414
#     4  11  21  47  67  99 140 184 227 285 349 413
#
# _framework density 24.466069000000001
#
# number of rings (size 3 to 8) (size 9 to 14) (size 15 to 20)
#    0.000    0.857    4.286    3.857    2.000    3.429 
#    5.143    5.000    0.000    0.000    0.000    0.000 
#    0.000    0.000    0.000    0.000    0.000    0.000 
#
# Total GULP energy -78175.673277 kJ/mol
# GULP energy per Si atom -5583.976663 kJ/mol
# Density = 2.441038 g / cm^3
# Si number density = 24.466069 Si / 1000 Ang^3
#
#
#
# Elastic Constant Matrix: (Units=GPa)
#
#
# Indices 1 2 3 4 5 6 
#
# 1 58.8910 3.3800 40.6248 5.3846 -15.5431 -7.4783
# 2 3.3800 58.1325 49.8155 28.2313 -15.6541 -0.1253
# 3 40.6248 49.8155 164.0283 33.0670 -32.4065 -1.9067
# 4 5.3846 28.2313 33.0670 54.1998 -8.0439 -12.7152
# 5 -15.5431 -15.6541 -32.4065 -8.0439 33.4391 19.0874
# 6 -7.4783 -0.1253 -1.9067 -12.7152 19.0874 37.5296
#
#
#
# Elastic Compliance Matrix: (Units=1/GPa)
#
#
# Indices 1 2 3 4 5 6 
#
# 1 0.022719 0.006002 -0.005857 -0.000650 0.007379 0.000276
# 2 0.006002 0.033283 -0.005399 -0.015112 0.016678 -0.012570
# 3 -0.005857 -0.005399 0.011611 -0.003886 0.008679 -0.006326
# 4 -0.000650 -0.015112 -0.003886 0.030722 -0.013355 0.016824
# 5 0.007379 0.016678 0.008679 -0.013355 0.067354 -0.036814
# 6 0.000276 -0.012570 -0.006326 0.016824 -0.036814 0.050761
#
#
# Mechanical properties :
#
#
# Convention : Reuss Voigt Hill
#
# Bulk Modulus (GPa) = 17.51224 52.07696 34.79460
# Shear Modulus (GPa) = 20.32572 37.51580 28.92076
#
# Velocity S-wave (km/s) = 2.88544 3.92009 3.44186
# Velocity P-wave (km/s) = 4.27485 6.46692 5.48158
#
# Compressibility (1/GPa) = 0.05710291
#
# Stress axis : x y z
#
# Youngs Moduli (GPa) = 44.01651 30.04570 86.12248
#
# Poissons Ratio (x) = -0.18032 0.50445
# Poissons Ratio (y) = -0.26417 0.46498
# Poissons Ratio (z) = 0.25782 0.16222
#
# Static dielectric constant tensor:
#      x y z
#    x 2.008020 -0.028570 -0.038160 
#    y -0.028570 1.981520 -0.032070 
#    z -0.038160 -0.032070 2.014560 
# 
# From -- ./inp_files/508478.got.cif
#   From: 2010.05.17/outbox.cif.g08.bks.cpg/sg2_255_cif.got.tgz:508478.got - 2010.06.03 11:33:40.
