data_PCOD9037613
_publ_section_title
;
Structure prediction by ZEFSAII (Michael W. Deem and Ramdas Pophale) SiO2 
 PCOD9037613
Probable space group: P -1
;
_chemical_formula_sum "Si O2"
_cell_formula_units_Z 16
_cell_length_a 8.104925
_cell_length_b 8.592825
_cell_length_c 11.484311
_cell_angle_alpha 96.031741
_cell_angle_beta 81.043008
_cell_angle_gamma 123.990079
_cell_volume 654.908921
_symmetry_space_group_name_H-M "P -1"
_symmetry_group_IT_number 2
_symmetry_cell_setting 'triclinic'
loop_
_space_group_symop_operation_xyz
x,y,z
-x,-y,-z
loop_
_atom_site_type_symbol
_atom_site_label
_atom_site_fract_x
_atom_site_fract_y
_atom_site_fract_z
Si Si1 0.453863 0.092499 0.194072
Si Si2 0.114813 0.056969 0.114624
Si Si3 0.182898 0.218192 0.684284
Si Si4 0.153260 0.503715 0.829774
Si Si5 0.457796 0.745384 0.219252
Si Si6 0.781619 0.309623 0.534431
Si Si7 0.192072 0.432954 0.073289
Si Si8 0.339448 0.108247 0.461349
O O1 0.289747 0.018400 0.104376
O O2 0.638124 0.300537 0.172637
O O3 0.341761 0.097701 0.322150
O O4 0.531058 0.958200 0.201004
O O5 0.206310 0.277516 0.125449
O O6 0.970283 0.956281 0.231953
O O7 0.000000 0.000000 0.000000
O O8 0.133879 0.374890 0.715192
O O9 0.389950 0.286097 0.732571
O O10 0.214365 0.175762 0.546803
O O11 0.985914 0.549074 0.859653
O O12 0.147960 0.395436 0.938649
O O13 0.277487 0.679556 0.325291
O O14 0.390493 0.631086 0.098618
O O15 0.576160 0.252093 0.481864
O O16 0.000000 0.500000 0.500000
O O17 0.758451 0.108779 0.504940
#
# Coordination Sequence:
#
# PCOD9037613 Si02
#       8
#     2   2   2   2   2   2   2   2
#     4  11  25  45  68 102 138 182 227 288 344 413
#     4  12  26  44  69  96 137 179 232 286 348 407
#     4  11  23  45  69 100 141 179 222 290 341 415
#     4  11  25  43  69  96 137 179 229 287 341 413
#     4  10  23  40  70 103 136 176 229 277 348 417
#     4   9  19  38  68 104 141 187 231 282 344 416
#     4  11  25  44  67  99 130 182 235 277 349 414
#     4   9  22  42  66 103 145 180 235 284 348 416
#
# _framework density 24.430878
#
# number of rings (size 3 to 8) (size 9 to 14) (size 15 to 20)
#    0.000    1.500    1.250    3.000    7.000    2.500 
#    0.000    0.000    0.000    0.000    0.000    0.000 
#    0.000    0.000    0.000    0.000    0.000    0.000 
#
# Total GULP energy -89501.141870 kJ/mol
# GULP energy per Si atom -5593.821367 kJ/mol
# Density = 2.437527 g / cm^3
# Si number density = 24.430878 Si / 1000 Ang^3
#
#
#
# Elastic Constant Matrix: (Units=GPa)
#
#
# Indices 1 2 3 4 5 6 
#
# 1 69.4218 11.8435 13.6587 -0.9231 4.7246 5.6483
# 2 11.8435 114.3234 18.7660 -11.9017 -10.0734 14.1896
# 3 13.6587 18.7660 51.2827 17.7450 4.4673 13.4653
# 4 -0.9231 -11.9017 17.7450 33.0932 2.8793 -1.4121
# 5 4.7246 -10.0734 4.4673 2.8793 34.7077 7.0340
# 6 5.6483 14.1896 13.4653 -1.4121 7.0340 27.5701
#
#
#
# Elastic Compliance Matrix: (Units=1/GPa)
#
#
# Indices 1 2 3 4 5 6 
#
# 1 0.015630 -0.000729 -0.004773 0.002914 -0.002000 0.000164
# 2 -0.000729 0.011247 -0.005572 0.006482 0.004289 -0.003680
# 3 -0.004773 -0.005572 0.033525 -0.020608 -0.000864 -0.013363
# 4 0.002914 0.006482 -0.020608 0.044165 -0.001295 0.008724
# 5 -0.002000 0.004289 -0.000864 -0.001295 0.032521 -0.009739
# 6 0.000164 -0.003680 -0.013363 0.008724 -0.009739 0.047590
#
#
# Mechanical properties :
#
#
# Convention : Reuss Voigt Hill
#
# Bulk Modulus (GPa) = 26.14122 35.95158 31.04640
# Shear Modulus (GPa) = 22.77109 31.79152 27.28130
#
# Velocity S-wave (km/s) = 3.05628 3.61125 3.34529
# Velocity P-wave (km/s) = 4.81433 5.66884 5.25897
#
# Compressibility (1/GPa) = 0.03825376
#
# Stress axis : x y z
#
# Youngs Moduli (GPa) = 63.98068 88.91573 29.82853
#
# Poissons Ratio (x) = 0.06480 0.14238
# Poissons Ratio (y) = 0.04663 0.16619
# Poissons Ratio (z) = 0.30541 0.49540
#
# Static dielectric constant tensor:
#      x y z
#    x 1.958550 0.040540 0.020780 
#    y 0.040540 1.933570 0.019130 
#    z 0.020780 0.019130 1.940130 
# 
# From -- ./inp_files/382605.got.cif
#   From: 2010.05.17/outbox.cif.g08.bks.cpg/sg2_192_cif.got.tgz:382605.got - 2010.06.03 11:33:40.
