data_PCOD9037126
_publ_section_title
;
Structure prediction by ZEFSAII (Michael W. Deem and Ramdas Pophale) SiO2 
 PCOD9037126
Probable space group: P -1
;
_chemical_formula_sum "Si O2"
_cell_formula_units_Z 16
_cell_length_a 11.344168
_cell_length_b 8.197012
_cell_length_c 16.090420
_cell_angle_alpha 148.271894
_cell_angle_beta 102.055839
_cell_angle_gamma 64.656801
_cell_volume 672.134356
_symmetry_space_group_name_H-M "P -1"
_symmetry_group_IT_number 2
_symmetry_cell_setting 'triclinic'
loop_
_space_group_symop_operation_xyz
x,y,z
-x,-y,-z
loop_
_atom_site_type_symbol
_atom_site_label
_atom_site_fract_x
_atom_site_fract_y
_atom_site_fract_z
Si Si1 0.238271 0.479594 0.123977
Si Si2 0.466987 0.174297 0.340106
Si Si3 0.901774 0.157149 0.975461
Si Si4 0.592613 0.485485 0.682750
Si Si5 0.711913 0.299284 0.242439
Si Si6 0.035100 0.105868 0.804908
Si Si7 0.341002 0.766135 0.114256
Si Si8 0.729286 0.776895 0.308973
O O1 0.338292 0.483304 0.210566
O O2 0.288837 0.563234 0.080684
O O3 0.077266 0.792946 0.240828
O O4 0.254537 0.086935 0.955077
O O5 0.500000 0.500000 0.500000
O O6 0.459729 0.179944 0.241176
O O7 0.339532 0.101324 0.306351
O O8 0.588643 0.878006 0.283590
O O9 0.842940 0.577525 0.168154
O O10 0.764918 0.117700 0.928485
O O11 0.981775 0.995865 0.832505
O O12 0.000000 0.000000 0.000000
O O13 0.452410 0.466281 0.667298
O O14 0.707434 0.142063 0.501986
O O15 0.748575 0.516638 0.275332
O O16 0.802748 0.180869 0.290076
O O17 0.000000 0.500000 0.000000
O O18 0.500000 0.500000 0.000000
#
# Coordination Sequence:
#
# PCOD9037126 Si02
#       8
#     2   2   2   2   2   2   2   2
#     4  10  23  40  62  97 127 161 214 261 311 379
#     4  10  23  40  61  92 127 164 207 265 321 371
#     4  11  22  38  66  95 125 164 214 261 314 381
#     4  11  24  38  63  92 128 162 212 264 316 375
#     4  11  21  39  65  94 122 170 211 254 315 374
#     4   9  21  38  63  92 124 164 209 257 312 370
#     4  11  21  37  67  92 124 163 214 266 310 364
#     4  11  23  40  62  92 131 163 210 260 323 364
#
# _framework density 23.804765
#
# number of rings (size 3 to 8) (size 9 to 14) (size 15 to 20)
#    0.000    1.500    2.500    2.250    5.250    1.000 
#    0.000    0.625    5.500    4.500    0.000    0.000 
#    0.000    0.000    0.000    0.000    0.000    0.000 
#
# Total GULP energy -89103.771479 kJ/mol
# GULP energy per Si atom -5568.985717 kJ/mol
# Density = 2.375058 g / cm^3
# Si number density = 23.804765 Si / 1000 Ang^3
#
#
#
# Elastic Constant Matrix: (Units=GPa)
#
#
# Indices 1 2 3 4 5 6 
#
# 1 54.3534 24.7263 10.8545 6.0213 11.7001 -28.0002
# 2 24.7263 151.3457 15.4830 4.8381 8.2345 -36.5096
# 3 10.8545 15.4830 77.9423 10.3231 3.1684 -16.0867
# 4 6.0213 4.8381 10.3231 24.9265 8.2003 8.0269
# 5 11.7001 8.2345 3.1684 8.2003 20.6084 2.3178
# 6 -28.0002 -36.5096 -16.0867 8.0269 2.3178 52.1039
#
#
#
# Elastic Compliance Matrix: (Units=1/GPa)
#
#
# Indices 1 2 3 4 5 6 
#
# 1 0.033890 0.000833 0.001652 -0.009991 -0.018288 0.021659
# 2 0.000833 0.008436 0.000208 -0.003059 -0.003451 0.007048
# 3 0.001652 0.000208 0.015224 -0.008823 -0.000652 0.007122
# 4 -0.009991 -0.003059 -0.008823 0.056747 -0.012256 -0.018433
# 5 -0.018288 -0.003451 -0.000652 -0.012256 0.066784 -0.013530
# 6 0.021659 0.007048 0.007122 -0.018433 -0.013530 0.041411
#
#
# Mechanical properties :
#
#
# Convention : Reuss Voigt Hill
#
# Bulk Modulus (GPa) = 15.88911 42.86321 29.37616
# Shear Modulus (GPa) = 21.00100 35.03293 28.01696
#
# Velocity S-wave (km/s) = 2.97344 3.84041 3.43439
# Velocity P-wave (km/s) = 4.29857 6.14086 5.30037
#
# Compressibility (1/GPa) = 0.06293618
#
# Stress axis : x y z
#
# Youngs Moduli (GPa) = 29.50704 118.54406 65.68743
#
# Poissons Ratio (x) = -0.09880 -0.10849
# Poissons Ratio (y) = -0.02459 -0.01368
# Poissons Ratio (z) = -0.04873 -0.02469
#
# Static dielectric constant tensor:
#      x y z
#    x 2.075640 0.007120 -0.043480 
#    y 0.007120 1.940850 0.005800 
#    z -0.043480 0.005800 2.034860 
# 
# From -- ./inp_files/566328.got.cif
#   From: 2010.05.17/outbox.cif.g08.bks.cpg/sg2_284_cif.got.tgz:566328.got - 2010.06.03 11:33:40.
