data_PCOD9037439
_publ_section_title
;
Structure prediction by ZEFSAII (Michael W. Deem and Ramdas Pophale) SiO2 
 PCOD9037439
Probable space group: P -1
;
_chemical_formula_sum "Si O2"
_cell_formula_units_Z 14
_cell_length_a 12.480414
_cell_length_b 9.328676
_cell_length_c 7.819828
_cell_angle_alpha 134.889230
_cell_angle_beta 68.876130
_cell_angle_gamma 127.470182
_cell_volume 508.065085
_symmetry_space_group_name_H-M "P -1"
_symmetry_group_IT_number 2
_symmetry_cell_setting 'triclinic'
loop_
_space_group_symop_operation_xyz
x,y,z
-x,-y,-z
loop_
_atom_site_type_symbol
_atom_site_label
_atom_site_fract_x
_atom_site_fract_y
_atom_site_fract_z
Si Si1 0.445088 0.659297 0.731743
Si Si2 0.981410 0.725024 0.570174
Si Si3 0.026671 0.673039 0.971098
Si Si4 0.625898 0.949598 0.572296
Si Si5 0.424741 0.675288 0.147086
Si Si6 0.178763 0.168076 0.462059
Si Si7 0.176424 0.223031 0.994061
O O1 0.500000 0.500000 0.500000
O O2 0.480128 0.704017 0.948589
O O3 0.284159 0.462966 0.636853
O O4 0.528738 0.879264 0.738014
O O5 0.968979 0.480713 0.319705
O O6 0.958497 0.831377 0.497069
O O7 0.865976 0.711789 0.748340
O O8 0.115630 0.941861 0.768522
O O9 0.904221 0.713448 0.041882
O O10 0.000000 0.500000 0.000000
O O11 0.153121 0.945800 0.162582
O O12 0.674704 0.221235 0.728857
O O13 0.528753 0.811028 0.353040
O O14 0.740479 0.889109 0.489225
O O15 0.333296 0.403074 0.028514
#
# Coordination Sequence:
#
# PCOD9037439 Si02
#       7
#     2   2   2   2   2   2   2
#     4  10  23  42  67  96 139 179 227 284 340 406
#     4  10  23  44  71  98 143 178 223 287 342 402
#     4  11  24  40  68 104 135 177 226 282 340 413
#     4  10  23  45  67 104 136 179 236 281 344 407
#     4  11  23  43  73 100 138 183 228 288 343 406
#     4  10  23  40  67 102 132 182 224 269 348 405
#     4  10  23  44  69 104 133 181 232 278 342 411
#
# _framework density 27.555527999999999
#
# number of rings (size 3 to 8) (size 9 to 14) (size 15 to 20)
#    0.000    1.714    0.000    2.571    6.000    3.429 
#   10.286    0.000    0.000    0.000    0.000    0.000 
#    0.000    0.000    0.000    0.000    0.000    0.000 
#
# Total GULP energy -78153.134718 kJ/mol
# GULP energy per Si atom -5582.366766 kJ/mol
# Density = 2.749281 g / cm^3
# Si number density = 27.555528 Si / 1000 Ang^3
#
#
#
# Elastic Constant Matrix: (Units=GPa)
#
#
# Indices 1 2 3 4 5 6 
#
# 1 88.8923 22.9820 60.1546 15.9957 3.6504 -24.3314
# 2 22.9820 124.0449 62.9532 -8.9619 3.5984 -8.6025
# 3 60.1546 62.9532 127.6998 -19.1150 21.0926 6.6213
# 4 15.9957 -8.9619 -19.1150 52.2092 -13.4508 -13.1737
# 5 3.6504 3.5984 21.0926 -13.4508 52.9182 -3.9369
# 6 -24.3314 -8.6025 6.6213 -13.1737 -3.9369 32.0176
#
#
#
# Elastic Compliance Matrix: (Units=1/GPa)
#
#
# Indices 1 2 3 4 5 6 
#
# 1 0.036078 0.007160 -0.024662 -0.009124 0.006881 0.031533
# 2 0.007160 0.013040 -0.011057 -0.000054 0.003882 0.011686
# 3 -0.024662 -0.011057 0.028839 0.007377 -0.009083 -0.025758
# 4 -0.009124 -0.000054 0.007377 0.026619 0.004686 0.003054
# 5 0.006881 0.003882 -0.009083 0.004686 0.023939 0.013022
# 6 0.031533 0.011686 -0.025758 0.003054 0.013022 0.066520
#
#
# Mechanical properties :
#
#
# Convention : Reuss Voigt Hill
#
# Bulk Modulus (GPa) = 47.98548 70.31297 59.14922
# Shear Modulus (GPa) = 19.29769 40.39881 29.84825
#
# Velocity S-wave (km/s) = 2.64923 3.83311 3.29478
# Velocity P-wave (km/s) = 5.17782 6.72030 5.99884
#
# Compressibility (1/GPa) = 0.02083964
#
# Stress axis : x y z
#
# Youngs Moduli (GPa) = 27.71778 76.68594 34.67541
#
# Poissons Ratio (x) = -0.54905 0.85516
# Poissons Ratio (y) = -0.19845 0.38339
# Poissons Ratio (z) = 0.68357 0.84788
#
# Static dielectric constant tensor:
#      x y z
#    x 2.183380 0.151870 0.036120 
#    y 0.151870 2.556950 0.017340 
#    z 0.036120 0.017340 2.265380 
# 
# From -- ./inp_files/296823.got.cif
#   From: 2010.05.17/outbox.cif.g08.bks.cpg/sg2_149_cif.got.tgz:296823.got - 2010.06.03 11:33:40.
