data_PCOD9037665
_publ_section_title
;
Structure prediction by ZEFSAII (Michael W. Deem and Ramdas Pophale) SiO2 
 PCOD9037665
Probable space group: P -1
;
_chemical_formula_sum "Si O2"
_cell_formula_units_Z 14
_cell_length_a 8.091348
_cell_length_b 16.953311
_cell_length_c 11.937317
_cell_angle_alpha 160.118811
_cell_angle_beta 83.345342
_cell_angle_gamma 97.700809
_cell_volume 551.595504
_symmetry_space_group_name_H-M "P -1"
_symmetry_group_IT_number 2
_symmetry_cell_setting 'triclinic'
loop_
_space_group_symop_operation_xyz
x,y,z
-x,-y,-z
loop_
_atom_site_type_symbol
_atom_site_label
_atom_site_fract_x
_atom_site_fract_y
_atom_site_fract_z
Si Si1 0.368413 0.618584 0.744678
Si Si2 0.096756 0.290208 0.256909
Si Si3 0.512751 0.773644 0.355203
Si Si4 0.708564 0.154603 0.740793
Si Si5 0.770828 0.986714 0.874072
Si Si6 0.036263 0.443431 0.791142
Si Si7 0.277230 0.893674 0.711703
O O1 0.500000 0.500000 0.500000
O O2 0.218422 0.421136 0.509972
O O3 0.413537 0.709840 0.985621
O O4 0.297029 0.828698 0.961356
O O5 0.000000 0.500000 0.500000
O O6 0.951929 0.104486 0.051159
O O7 0.215051 0.122831 0.958815
O O8 0.369204 0.840351 0.368619
O O9 0.450474 0.843369 0.575389
O O10 0.682327 0.898739 0.456606
O O11 0.500000 0.500000 0.000000
O O12 0.884836 0.307310 0.930857
O O13 0.821901 0.746736 0.490207
O O14 0.687842 0.024985 0.053993
O O15 0.865471 0.319651 0.582886
O O16 0.000000 0.500000 0.000000
#
# Coordination Sequence:
#
# PCOD9037665 Si02
#       7
#     2   2   2   2   2   2   2
#     4  11  23  40  67 105 140 182 243 293 349 424
#     4   9  19  40  64  99 137 177 224 290 351 415
#     4  11  27  47  69 100 147 194 232 284 369 432
#     4  11  25  46  69  97 146 184 238 294 350 425
#     4  10  23  40  72 102 141 185 234 297 357 416
#     4  11  22  44  73 105 139 180 241 302 348 419
#     4  11  21  44  74 103 138 188 236 290 353 426
#
# _framework density 25.380915999999999
#
# number of rings (size 3 to 8) (size 9 to 14) (size 15 to 20)
#    0.000    1.429    1.429    4.286    4.000    0.000 
#    2.571    5.000    3.143    0.000    0.000    0.000 
#    0.000    0.000    0.000    0.000    0.000    0.000 
#
# Total GULP energy -78007.399136 kJ/mol
# GULP energy per Si atom -5571.957081 kJ/mol
# Density = 2.532315 g / cm^3
# Si number density = 25.380916 Si / 1000 Ang^3
#
#
#
# Elastic Constant Matrix: (Units=GPa)
#
#
# Indices 1 2 3 4 5 6 
#
# 1 59.1357 11.6906 35.0610 15.3882 16.1687 22.4582
# 2 11.6906 115.1307 74.6301 -0.7408 -4.8079 21.3490
# 3 35.0610 74.6301 156.2334 6.6100 6.1027 13.7874
# 4 15.3882 -0.7408 6.6100 67.8026 9.2423 8.7899
# 5 16.1687 -4.8079 6.1027 9.2423 54.0762 6.8433
# 6 22.4582 21.3490 13.7874 8.7899 6.8433 31.0352
#
#
#
# Elastic Compliance Matrix: (Units=1/GPa)
#
#
# Indices 1 2 3 4 5 6 
#
# 1 0.029635 0.005013 -0.006984 -0.002769 -0.004624 -0.019987
# 2 0.005013 0.015282 -0.007528 0.000983 0.001998 -0.011515
# 3 -0.006984 -0.007528 0.011110 -0.000223 -0.000489 0.005467
# 4 -0.002769 0.000983 -0.000223 0.015966 -0.001437 -0.002779
# 5 -0.004624 0.001998 -0.000489 -0.001437 0.020600 -0.001947
# 6 -0.019987 -0.011515 0.005467 -0.002779 -0.001947 0.053393
#
#
# Mechanical properties :
#
#
# Convention : Reuss Voigt Hill
#
# Bulk Modulus (GPa) = 27.00564 63.69591 45.35077
# Shear Modulus (GPa) = 28.19652 44.52399 36.36026
#
# Velocity S-wave (km/s) = 3.33668 4.19290 3.78905
# Velocity P-wave (km/s) = 5.05053 6.97072 6.08682
#
# Compressibility (1/GPa) = 0.03702930
#
# Stress axis : x y z
#
# Youngs Moduli (GPa) = 33.74359 65.43748 90.00832
#
# Poissons Ratio (x) = -0.32804 0.62858
# Poissons Ratio (y) = -0.16916 0.67762
# Poissons Ratio (z) = 0.23565 0.49264
#
# Static dielectric constant tensor:
#      x y z
#    x 2.066990 0.033290 -0.016770 
#    y 0.033290 2.042040 0.022980 
#    z -0.016770 0.022980 2.105040 
# 
# From -- ./inp_files/403674.got.cif
#   From: 2010.05.17/outbox.cif.g08.bks.cpg/sg2_202_cif.got.tgz:403674.got - 2010.06.03 11:33:40.
