data_PCOD9037079
_publ_section_title
;
Structure prediction by ZEFSAII (Michael W. Deem and Ramdas Pophale) SiO2 
 PCOD9037079
Probable space group: P -1
;
_chemical_formula_sum "Si O2"
_cell_formula_units_Z 16
_cell_length_a 6.691211
_cell_length_b 21.279786
_cell_length_c 4.927272
_cell_angle_alpha 100.083794
_cell_angle_beta 76.121611
_cell_angle_gamma 89.061293
_cell_volume 669.327710
_symmetry_space_group_name_H-M "P -1"
_symmetry_group_IT_number 2
_symmetry_cell_setting 'triclinic'
loop_
_space_group_symop_operation_xyz
x,y,z
-x,-y,-z
loop_
_atom_site_type_symbol
_atom_site_label
_atom_site_fract_x
_atom_site_fract_y
_atom_site_fract_z
Si Si1 0.446214 0.728772 0.018072
Si Si2 0.143620 0.406619 0.793745
Si Si3 0.397962 0.863470 0.266740
Si Si4 0.595036 0.408676 0.905435
Si Si5 0.344444 0.998352 0.299217
Si Si6 0.691470 0.866281 0.674897
Si Si7 0.203905 0.537601 0.645422
Si Si8 0.734367 0.730446 0.427244
O O1 0.316073 0.795011 0.167725
O O2 0.345478 0.663867 0.076980
O O3 0.646770 0.732666 0.151858
O O4 0.534290 0.724999 0.683045
O O5 0.365535 0.406979 0.866162
O O6 0.149091 0.463861 0.616663
O O7 0.130883 0.335371 0.628039
O O8 0.974960 0.424745 0.091296
O O9 0.489718 0.863872 0.540679
O O10 0.260188 0.928016 0.293625
O O11 0.599905 0.866629 0.007702
O O12 0.737207 0.433234 0.637835
O O13 0.606030 0.452995 0.200102
O O14 0.214643 0.065969 0.369745
O O15 0.500000 0.000000 0.500000
O O16 0.500000 0.000000 0.000000
O O17 0.816675 0.799144 0.527719
#
# Coordination Sequence:
#
# PCOD9037079 Si02
#       8
#     2   2   2   2   2   2   2   2
#     4   9  17  29  47  69  95 130 168 204 251 306
#     4  10  23  40  58  80 110 139 175 223 267 312
#     4   8  13  21  34  56  85 119 155 194 241 287
#     4  11  22  39  58  80 108 140 175 219 267 313
#     4   8  12  18  30  50  82 116 149 193 236 281
#     4   8  13  21  34  56  83 118 158 192 239 295
#     4  11  25  38  58  83 105 139 181 217 265 323
#     4   9  17  29  47  67  94 131 165 205 257 302
#
# _framework density 23.904585000000001
#
# number of rings (size 3 to 8) (size 9 to 14) (size 15 to 20)
#    0.000    2.750    0.000    2.250    0.000    7.000 
#    0.000    0.000    0.000    0.000    0.000    0.000 
#    0.000    2.000    0.000    0.375    0.000   24.875 
#
# Total GULP energy -89324.466279 kJ/mol
# GULP energy per Si atom -5582.779142 kJ/mol
# Density = 2.385018 g / cm^3
# Si number density = 23.904585 Si / 1000 Ang^3
#
#
#
# Elastic Constant Matrix: (Units=GPa)
#
#
# Indices 1 2 3 4 5 6 
#
# 1 33.2247 7.0109 13.7125 -6.2704 -19.2861 0.4277
# 2 7.0109 258.4416 29.1157 18.2416 -17.1166 -44.2880
# 3 13.7125 29.1157 105.9487 -13.8634 13.5686 -11.2320
# 4 -6.2704 18.2416 -13.8634 40.3302 -5.7020 5.4820
# 5 -19.2861 -17.1166 13.5686 -5.7020 28.1271 -1.3979
# 6 0.4277 -44.2880 -11.2320 5.4820 -1.3979 2.2800
#
#
#
# Elastic Compliance Matrix: (Units=1/GPa)
#
#
# Indices 1 2 3 4 5 6 
#
# 1 0.077894 0.005044 -0.017623 0.012154 0.067890 0.008946
# 2 0.005044 -0.000060 -0.003350 0.003647 0.004555 -0.024593
# 3 -0.017623 -0.003350 0.015191 0.001458 -0.021329 -0.003506
# 4 0.012154 0.003647 0.001458 0.024030 0.016105 0.027837
# 5 0.067890 0.004555 -0.021329 0.016105 0.098034 -0.007952
# 6 0.008946 -0.024593 -0.003506 0.027837 -0.007952 -0.129860
#
#
# Mechanical properties :
#
#
# Convention : Reuss Voigt Hill
#
# Bulk Modulus (GPa) = 16.34879 55.25479 35.80179
# Shear Modulus (GPa) = 36.37004 37.33251 36.85128
#
# Velocity S-wave (km/s) = 3.90483 3.95616 3.93058
# Velocity P-wave (km/s) = 5.21386 6.63575 5.96731
#
# Compressibility (1/GPa) = 0.06116661
#
# Stress axis : x y z
#
# Youngs Moduli (GPa) = 12.83788 -16605.83928 65.83031
#
# Poissons Ratio (x) = 83.75723 1.16015
# Poissons Ratio (y) = -0.06475 0.22050
# Poissons Ratio (z) = 0.22625 -55.62188
#
# Static dielectric constant tensor:
#      x y z
#    x 1.903440 -0.051340 0.002070 
#    y -0.051340 2.046030 0.044500 
#    z 0.002070 0.044500 1.839060 
# 
# From -- ./inp_files/50460.got.cif
#   From: 2010.05.17/outbox.cif.g08.bks.cpg/sg2_26_cif.got.tgz:50460.got - 2010.06.03 11:33:40.
