data_PCOD9037135
_publ_section_title
;
Structure prediction by ZEFSAII (Michael W. Deem and Ramdas Pophale) SiO2 
 PCOD9037135
Probable space group: P -1
;
_chemical_formula_sum "Si O2"
_cell_formula_units_Z 14
_cell_length_a 8.145771
_cell_length_b 8.930572
_cell_length_c 17.604147
_cell_angle_alpha 43.960838
_cell_angle_beta 140.700919
_cell_angle_gamma 127.625134
_cell_volume 558.871051
_symmetry_space_group_name_H-M "P -1"
_symmetry_group_IT_number 2
_symmetry_cell_setting 'triclinic'
loop_
_space_group_symop_operation_xyz
x,y,z
-x,-y,-z
loop_
_atom_site_type_symbol
_atom_site_label
_atom_site_fract_x
_atom_site_fract_y
_atom_site_fract_z
Si Si1 0.239696 0.093874 0.401995
Si Si2 0.698641 0.466173 0.825647
Si Si3 0.125743 0.831940 0.249928
Si Si4 0.100846 0.280373 0.946591
Si Si5 0.858636 0.710989 0.351953
Si Si6 0.054984 0.376864 0.348156
Si Si7 0.485173 0.265860 0.210297
O O1 0.214634 0.294202 0.263242
O O2 0.229634 0.207831 0.438588
O O3 0.500000 0.000000 0.500000
O O4 0.992788 0.910197 0.376325
O O5 0.914395 0.308459 0.942786
O O6 0.447366 0.362336 0.725660
O O7 0.607728 0.524957 0.855914
O O8 0.917949 0.796956 0.255940
O O9 0.211207 0.588643 0.365436
O O10 0.335979 0.034790 0.267818
O O11 0.006857 0.868124 0.109989
O O12 0.082059 0.507599 0.812951
O O13 0.383981 0.264774 0.087541
O O14 0.000000 0.500000 0.500000
O O15 0.792675 0.277391 0.333091
#
# Coordination Sequence:
#
# PCOD9037135 Si02
#       7
#     2   2   2   2   2   2   2
#     4  11  23  44  65  89 122 170 213 265 320 367
#     4  11  22  41  64  96 132 162 215 260 307 385
#     4  10  23  40  61  97 127 162 217 261 305 381
#     4   9  22  41  63  97 132 166 209 259 311 373
#     4  12  24  42  67  88 124 173 211 264 319 369
#     4   9  23  39  64  93 126 159 216 254 315 378
#     4  12  20  41  69  91 135 170 201 262 319 369
#
# _framework density 25.050504
#
# number of rings (size 3 to 8) (size 9 to 14) (size 15 to 20)
#    0.857    0.571    4.286    1.286    2.000    0.000 
#    0.000    6.429    0.000    0.000    0.000    0.000 
#    0.000    0.000    0.000    0.000    0.000    0.000 
#
# Total GULP energy -78081.880275 kJ/mol
# GULP energy per Si atom -5577.277162 kJ/mol
# Density = 2.499349 g / cm^3
# Si number density = 25.050504 Si / 1000 Ang^3
#
#
#
# Elastic Constant Matrix: (Units=GPa)
#
#
# Indices 1 2 3 4 5 6 
#
# 1 63.9304 35.8246 7.8225 0.4056 8.4727 -22.6945
# 2 35.8246 190.6054 24.4453 -9.0691 23.5781 -2.0178
# 3 7.8225 24.4453 57.0642 8.1409 5.5165 -5.8414
# 4 0.4056 -9.0691 8.1409 38.0268 -7.4308 1.3351
# 5 8.4727 23.5781 5.5165 -7.4308 40.7937 -3.9741
# 6 -22.6945 -2.0178 -5.8414 1.3351 -3.9741 41.3420
#
#
#
# Elastic Compliance Matrix: (Units=1/GPa)
#
#
# Indices 1 2 3 4 5 6 
#
# 1 0.022341 -0.004016 0.000323 -0.001991 -0.001554 0.012029
# 2 -0.004016 0.006715 -0.002587 0.001775 -0.002622 -0.002552
# 3 0.000323 -0.002587 0.019830 -0.005347 -0.001951 0.002838
# 4 -0.001991 0.001775 -0.005347 0.028975 0.005174 -0.002200
# 5 -0.001554 -0.002622 -0.001951 0.005174 0.027679 0.001237
# 6 0.012029 -0.002552 0.002838 -0.002200 0.001237 0.031258
#
#
# Mechanical properties :
#
#
# Convention : Reuss Voigt Hill
#
# Bulk Modulus (GPa) = 27.52759 49.75386 38.64072
# Shear Modulus (GPa) = 30.96633 40.26634 35.61634
#
# Velocity S-wave (km/s) = 3.51972 4.01360 3.77474
# Velocity P-wave (km/s) = 5.24696 6.43297 5.87000
#
# Compressibility (1/GPa) = 0.03632720
#
# Stress axis : x y z
#
# Youngs Moduli (GPa) = 44.76006 148.92395 50.42888
#
# Poissons Ratio (x) = 0.59804 -0.01630
# Poissons Ratio (y) = 0.17975 0.13046
# Poissons Ratio (z) = -0.01447 0.38526
#
# Static dielectric constant tensor:
#      x y z
#    x 2.116770 -0.012850 -0.034840 
#    y -0.012850 1.995670 -0.012940 
#    z -0.034840 -0.012940 2.050300 
# 
# From -- ./inp_files/587189.got.cif
#   From: 2010.05.17/outbox.cif.g08.bks.cpg/sg2_294_cif.got.tgz:587189.got - 2010.06.03 11:33:40.
