data_PCOD9037902
_publ_section_title
;
Structure prediction by ZEFSAII (Michael W. Deem and Ramdas Pophale) SiO2 
 PCOD9037902
Probable space group: P -1
;
_chemical_formula_sum "Si O2"
_cell_formula_units_Z 16
_cell_length_a 19.828146
_cell_length_b 5.622262
_cell_length_c 8.197290
_cell_angle_alpha 61.883088
_cell_angle_beta 117.936264
_cell_angle_gamma 121.793352
_cell_volume 654.829622
_symmetry_space_group_name_H-M "P -1"
_symmetry_group_IT_number 2
_symmetry_cell_setting 'triclinic'
loop_
_space_group_symop_operation_xyz
x,y,z
-x,-y,-z
loop_
_atom_site_type_symbol
_atom_site_label
_atom_site_fract_x
_atom_site_fract_y
_atom_site_fract_z
Si Si1 0.308827 0.839780 0.904994
Si Si2 0.822166 0.607494 0.311648
Si Si3 0.848411 0.115839 0.720879
Si Si4 0.845953 0.193772 0.077137
Si Si5 0.976871 0.655871 0.270182
Si Si6 0.592867 0.091969 0.500361
Si Si7 0.489026 0.166164 0.089942
Si Si8 0.322446 0.267652 0.478234
O O1 0.266044 0.556737 0.826474
O O2 0.234100 0.750872 0.978348
O O3 0.324777 0.101051 0.704956
O O4 0.391598 0.960918 0.072390
O O5 0.837363 0.394816 0.529500
O O6 0.899050 0.708633 0.237598
O O7 0.831312 0.924520 0.275207
O O8 0.936161 0.108475 0.769491
O O9 0.771104 0.846321 0.652278
O O10 0.842301 0.135698 0.900693
O O11 0.934845 0.435725 0.146374
O O12 0.000000 0.500000 0.500000
O O13 0.569582 0.180908 0.272302
O O14 0.646787 0.390536 0.556284
O O15 0.500000 0.000000 0.500000
O O16 0.628164 0.842918 0.571406
O O17 0.500000 0.500000 0.000000
O O18 0.500000 0.000000 0.000000
#
# Coordination Sequence:
#
# PCOD9037902 Si02
#       8
#     2   2   2   2   2   2   2   2
#     4  10  23  41  64  95 136 169 237 282 344 421
#     4   9  22  42  66  93 136 182 225 284 355 411
#     4  10  23  42  66 101 138 174 236 290 342 418
#     4  11  23  41  69  99 133 182 232 284 346 418
#     4   9  20  44  62  99 138 178 229 284 346 419
#     4  12  26  46  70 100 140 182 231 292 351 418
#     4  12  24  42  68  97 127 180 231 280 345 410
#     4  11  25  47  67 102 140 188 226 289 361 412
#
# _framework density 24.433837
#
# number of rings (size 3 to 8) (size 9 to 14) (size 15 to 20)
#    0.000    1.500    2.500    1.500    7.000    3.500 
#    4.500    0.000    0.000    0.000    0.000    0.000 
#    0.000    0.000    0.000    0.000    0.000    0.000 
#
# Total GULP energy -89133.100698 kJ/mol
# GULP energy per Si atom -5570.818794 kJ/mol
# Density = 2.437822 g / cm^3
# Si number density = 24.433837 Si / 1000 Ang^3
#
#
#
# Elastic Constant Matrix: (Units=GPa)
#
#
# Indices 1 2 3 4 5 6 
#
# 1 122.4262 60.6260 27.1410 19.1562 -10.5012 24.9529
# 2 60.6260 125.1627 61.5060 37.3712 14.1584 13.0208
# 3 27.1410 61.5060 82.8660 13.4146 -4.3603 0.1381
# 4 19.1562 37.3712 13.4146 34.1396 7.5647 14.0108
# 5 -10.5012 14.1584 -4.3603 7.5647 37.6792 10.1191
# 6 24.9529 13.0208 0.1381 14.0108 10.1191 41.7750
#
#
#
# Elastic Compliance Matrix: (Units=1/GPa)
#
#
# Indices 1 2 3 4 5 6 
#
# 1 0.014309 -0.008691 0.001901 0.002306 0.009400 -0.008895
# 2 -0.008691 0.024159 -0.013039 -0.016374 -0.011316 0.005938
# 3 0.001901 -0.013039 0.020952 0.003390 0.007178 -0.000016
# 4 0.002306 -0.016374 0.003390 0.049837 0.000720 -0.013174
# 5 0.009400 -0.011316 0.007178 0.000720 0.037146 -0.011350
# 6 -0.008895 0.005938 -0.000016 -0.013174 -0.011350 0.034568
#
#
# Mechanical properties :
#
#
# Convention : Reuss Voigt Hill
#
# Bulk Modulus (GPa) = 50.60799 69.88899 60.24849
# Shear Modulus (GPa) = 22.00539 34.79758 28.40148
#
# Velocity S-wave (km/s) = 3.00427 3.77789 3.41307
# Velocity P-wave (km/s) = 5.72638 6.90619 6.34377
#
# Compressibility (1/GPa) = 0.01975972
#
# Stress axis : x y z
#
# Youngs Moduli (GPa) = 69.88479 41.39323 47.72772
#
# Poissons Ratio (x) = 0.35977 -0.09071
# Poissons Ratio (y) = 0.60740 0.62233
# Poissons Ratio (z) = -0.13282 0.53974
#
# Static dielectric constant tensor:
#      x y z
#    x 2.073670 -0.079030 0.048370 
#    y -0.079030 1.942090 0.016370 
#    z 0.048370 0.016370 1.763740 
# 
# From -- ./inp_files/38259.got.cif
#   From: 2010.05.17/outbox.cif.g08.bks.cpg/sg2_20_cif.got.tgz:38259.got - 2010.06.03 11:33:40.
