data_PCOD9037156
_publ_section_title
;
Structure prediction by ZEFSAII (Michael W. Deem and Ramdas Pophale) SiO2 
 PCOD9037156
Probable space group: P -1
;
_chemical_formula_sum "Si O2"
_cell_formula_units_Z 14
_cell_length_a 5.020882
_cell_length_b 21.082370
_cell_length_c 4.975882
_cell_angle_alpha 87.137096
_cell_angle_beta 90.634738
_cell_angle_gamma 74.743141
_cell_volume 507.349566
_symmetry_space_group_name_H-M "P -1"
_symmetry_group_IT_number 2
_symmetry_cell_setting 'triclinic'
loop_
_space_group_symop_operation_xyz
x,y,z
-x,-y,-z
loop_
_atom_site_type_symbol
_atom_site_label
_atom_site_fract_x
_atom_site_fract_y
_atom_site_fract_z
Si Si1 0.571747 0.887554 0.020215
Si Si2 0.131075 0.581919 0.094948
Si Si3 0.173638 0.212636 0.313350
Si Si4 0.740860 0.674830 0.400046
Si Si5 0.646738 0.557743 0.726888
Si Si6 0.320092 0.803638 0.321703
Si Si7 0.197758 0.004968 0.252390
O O1 0.799945 0.817087 0.978421
O O2 0.689064 0.930667 0.794229
O O3 0.310919 0.855352 0.071002
O O4 0.474088 0.945094 0.229937
O O5 0.361259 0.578246 0.876206
O O6 0.872486 0.568521 0.939437
O O7 0.257467 0.520453 0.310613
O O8 0.013711 0.649647 0.233416
O O9 0.178118 0.288214 0.344904
O O10 0.460581 0.177223 0.473571
O O11 0.932884 0.198600 0.493277
O O12 0.652679 0.609173 0.483644
O O13 0.488473 0.729708 0.255672
O O14 0.000000 0.000000 0.500000
O O15 0.000000 0.000000 0.000000
#
# Coordination Sequence:
#
# PCOD9037156 Si02
#       7
#     2   2   2   2   2   2   2
#     4  11  26  44  72 100 149 178 238 288 359 420
#     4  10  23  40  62  92 129 174 228 288 349 414
#     4  10  26  42  66 101 136 182 228 283 352 424
#     4  10  25  38  70  91 138 170 240 270 368 395
#     4  10  23  40  62  92 129 174 228 288 349 414
#     4  10  26  42  66 101 136 182 228 283 352 424
#     4  11  28  47  80 108 147 190 245 295 362 428
#
# _framework density 27.594384999999999
#
# number of rings (size 3 to 8) (size 9 to 14) (size 15 to 20)
#    0.857    0.857    0.000    1.286   14.000    1.143 
#    0.000    4.286    0.000    0.000    0.000    0.000 
#    0.000    0.000    0.000    0.000    0.000    0.000 
#
# Total GULP energy -78153.125489 kJ/mol
# GULP energy per Si atom -5582.366106 kJ/mol
# Density = 2.753158 g / cm^3
# Si number density = 27.594385 Si / 1000 Ang^3
#
#
#
# Elastic Constant Matrix: (Units=GPa)
#
#
# Indices 1 2 3 4 5 6 
#
# 1 171.0247 -16.2187 27.0799 -10.6124 -42.5494 3.2700
# 2 -16.2187 187.6283 81.9168 27.8103 -22.7603 15.4723
# 3 27.0799 81.9168 173.3471 19.8748 -34.5341 5.2927
# 4 -10.6124 27.8103 19.8748 57.9225 -2.8639 -14.2290
# 5 -42.5494 -22.7603 -34.5341 -2.8639 61.1460 -3.9136
# 6 3.2700 15.4723 5.2927 -14.2290 -3.9136 43.3432
#
#
#
# Elastic Compliance Matrix: (Units=1/GPa)
#
#
# Indices 1 2 3 4 5 6 
#
# 1 0.007555 0.001565 -0.000993 0.001205 0.005327 -0.000131
# 2 0.001565 0.007782 -0.003086 -0.003127 0.001880 -0.003376
# 3 -0.000993 -0.003086 0.008064 -0.001338 0.002652 -0.000008
# 4 0.001205 -0.003127 -0.001338 0.021505 0.000456 0.008290
# 5 0.005327 0.001880 0.002652 0.000456 0.022330 0.000769
# 6 -0.000131 -0.003376 -0.000008 0.008290 0.000769 0.027079
#
#
# Mechanical properties :
#
#
# Convention : Reuss Voigt Hill
#
# Bulk Modulus (GPa) = 54.42260 79.72844 67.07552
# Shear Modulus (GPa) = 47.40835 61.76382 54.58609
#
# Velocity S-wave (km/s) = 4.14943 4.73617 4.45248
# Velocity P-wave (km/s) = 6.53622 7.67230 7.12693
#
# Compressibility (1/GPa) = 0.01837472
#
# Stress axis : x y z
#
# Youngs Moduli (GPa) = 132.35621 128.49787 124.00757
#
# Poissons Ratio (x) = -0.20109 0.12309
# Poissons Ratio (y) = -0.20713 0.38266
# Poissons Ratio (z) = 0.13138 0.39652
#
# Static dielectric constant tensor:
#      x y z
#    x 2.216400 -0.037600 0.191960 
#    y -0.037600 2.190630 -0.059240 
#    z 0.191960 -0.059240 2.359850 
# 
# From -- ./inp_files/13237.got.cif
#   From: 2010.05.17/outbox.cif.g08.bks.cpg/sg2_7_cif.got.tgz:13237.got - 2010.06.03 11:33:40.
