data_PCOD9037017
_publ_section_title
;
Structure prediction by ZEFSAII (Michael W. Deem and Ramdas Pophale) SiO2 
 PCOD9037017
Probable space group: P -1
;
_chemical_formula_sum "Si O2"
_cell_formula_units_Z 16
_cell_length_a 12.672191
_cell_length_b 16.458635
_cell_length_c 15.925801
_cell_angle_alpha 27.360172
_cell_angle_beta 147.095601
_cell_angle_gamma 129.301519
_cell_volume 740.722920
_symmetry_space_group_name_H-M "P -1"
_symmetry_group_IT_number 2
_symmetry_cell_setting 'triclinic'
loop_
_space_group_symop_operation_xyz
x,y,z
-x,-y,-z
loop_
_atom_site_type_symbol
_atom_site_label
_atom_site_fract_x
_atom_site_fract_y
_atom_site_fract_z
Si Si1 0.824247 0.585352 0.429251
Si Si2 0.256513 0.927717 0.242413
Si Si3 0.380967 0.671807 0.399834
Si Si4 0.297759 0.333701 0.907614
Si Si5 0.950263 0.095354 0.169392
Si Si6 0.622394 0.136975 0.439885
Si Si7 0.136718 0.518521 0.152278
Si Si8 0.750197 0.836074 0.312348
O O1 0.777470 0.424346 0.594636
O O2 0.676322 0.630784 0.205305
O O3 0.782797 0.755153 0.312673
O O4 0.069173 0.498619 0.638390
O O5 0.370710 0.809999 0.343712
O O6 0.345845 0.799067 0.504612
O O7 0.283187 0.126370 0.085516
O O8 0.000000 0.000000 0.000000
O O9 0.626110 0.514798 0.690213
O O10 0.274006 0.796063 0.131735
O O11 0.483038 0.301190 0.128225
O O12 0.911690 0.935272 0.344652
O O13 0.981246 0.263754 0.085999
O O14 0.144635 0.992294 0.327831
O O15 0.500000 0.000000 0.500000
O O16 0.187388 0.346708 0.413619
O O17 0.000000 0.500000 0.000000
O O18 0.500000 0.000000 0.000000
#
# Coordination Sequence:
#
# PCOD9037017 Si02
#       8
#     2   2   2   2   2   2   2   2
#     4  11  23  41  70  97 138 179 236 285 342 419
#     4  11  20  37  66  98 126 179 228 267 346 413
#     4  12  22  43  70  96 135 185 233 278 343 419
#     4  10  23  40  62 101 139 175 221 289 343 412
#     4  12  24  47  74 100 137 188 233 285 350 421
#     4  10  23  39  69 100 140 182 221 283 355 417
#     4  12  30  46  70 106 142 178 236 300 347 408
#     4  12  26  45  76 101 133 188 240 288 343 415
#
# _framework density 21.600518000000001
#
# number of rings (size 3 to 8) (size 9 to 14) (size 15 to 20)
#    0.000    0.750    5.000    2.625    3.500    1.500 
#    0.000    1.250    0.000    0.000    0.000    0.000 
#    0.000    0.000    0.000    0.000    0.000    0.000 
#
# Total GULP energy -89462.819332 kJ/mol
# GULP energy per Si atom -5591.426208 kJ/mol
# Density = 2.155135 g / cm^3
# Si number density = 21.600518 Si / 1000 Ang^3
#
#
#
# Elastic Constant Matrix: (Units=GPa)
#
#
# Indices 1 2 3 4 5 6 
#
# 1 69.9300 20.7136 10.3952 -10.6559 -8.8048 -6.1123
# 2 20.7136 95.3609 23.4610 -4.5923 -9.5512 -27.7919
# 3 10.3952 23.4610 44.8286 2.5069 -9.0213 -16.6631
# 4 -10.6559 -4.5923 2.5069 42.7242 -4.7090 -2.6716
# 5 -8.8048 -9.5512 -9.0213 -4.7090 34.3427 2.2753
# 6 -6.1123 -27.7919 -16.6631 -2.6716 2.2753 43.4210
#
#
#
# Elastic Compliance Matrix: (Units=1/GPa)
#
#
# Indices 1 2 3 4 5 6 
#
# 1 0.016458 -0.002503 -0.002021 0.004351 0.003588 0.000019
# 2 -0.002503 0.014449 -0.003910 0.001854 0.002114 0.007399
# 3 -0.002021 -0.003910 0.028917 -0.001545 0.005253 0.007940
# 4 0.004351 0.001854 -0.001545 0.025440 0.004546 0.002533
# 5 0.003588 0.002114 0.005253 0.004546 0.032467 0.002452
# 6 0.000019 0.007399 0.007940 0.002533 0.002452 0.030843
#
#
# Mechanical properties :
#
#
# Convention : Reuss Voigt Hill
#
# Bulk Modulus (GPa) = 23.27912 35.47322 29.37617
# Shear Modulus (GPa) = 27.81472 34.46757 31.14115
#
# Velocity S-wave (km/s) = 3.59233 3.99893 3.80107
# Velocity P-wave (km/s) = 5.29216 6.14654 5.73528
#
# Compressibility (1/GPa) = 0.04295695
#
# Stress axis : x y z
#
# Youngs Moduli (GPa) = 60.75957 69.20663 34.58227
#
# Poissons Ratio (x) = 0.17326 0.06988
# Poissons Ratio (y) = 0.15211 0.13520
# Poissons Ratio (z) = 0.12277 0.27057
#
# Static dielectric constant tensor:
#      x y z
#    x 1.772960 -0.012180 -0.043890 
#    y -0.012180 1.810240 -0.003250 
#    z -0.043890 -0.003250 1.790350 
# 
# From -- ./inp_files/237745.got.cif
#   From: 2010.05.17/outbox.cif.g08.bks.cpg/sg2_119_cif.got.tgz:237745.got - 2010.06.03 11:33:40.
