data_PCOD9037351
_publ_section_title
;
Structure prediction by ZEFSAII (Michael W. Deem and Ramdas Pophale) SiO2 
 PCOD9037351
Probable space group: P -1
;
_chemical_formula_sum "Si O2"
_cell_formula_units_Z 14
_cell_length_a 29.204816
_cell_length_b 13.364716
_cell_length_c 9.878523
_cell_angle_alpha 146.385696
_cell_angle_beta 23.817837
_cell_angle_gamma 155.068939
_cell_volume 656.227151
_symmetry_space_group_name_H-M "P -1"
_symmetry_group_IT_number 2
_symmetry_cell_setting 'triclinic'
loop_
_space_group_symop_operation_xyz
x,y,z
-x,-y,-z
loop_
_atom_site_type_symbol
_atom_site_label
_atom_site_fract_x
_atom_site_fract_y
_atom_site_fract_z
Si Si1 0.823378 0.562784 0.258213
Si Si2 0.826508 0.058329 0.282912
Si Si3 0.259590 0.849322 0.800175
Si Si4 0.674642 0.230380 0.764956
Si Si5 0.162231 0.100104 0.212501
Si Si6 0.385287 0.438129 0.624028
Si Si7 0.540883 0.370000 0.652278
O O1 0.810264 0.356670 0.134610
O O2 0.772007 0.660282 0.617860
O O3 0.705201 0.466847 0.350440
O O4 0.996064 0.770804 0.986735
O O5 0.770070 0.203523 0.577674
O O6 0.730029 0.844083 0.407958
O O7 0.781352 0.915685 0.101238
O O8 0.280537 0.770212 0.510651
O O9 0.419575 0.088343 0.684431
O O10 0.165151 0.931786 0.115188
O O11 0.695834 0.463219 0.997213
O O12 0.500000 0.000000 0.000000
O O13 0.000000 0.000000 0.500000
O O14 0.500000 0.500000 0.500000
O O15 0.467879 0.577294 0.419902
O O16 0.500000 0.500000 0.000000
#
# Coordination Sequence:
#
# PCOD9037351 Si02
#       7
#     2   2   2   2   2   2   2
#     4  11  24  41  63  96 136 173 216 269 334 388
#     4  10  23  40  65  98 130 172 216 268 325 389
#     4  11  22  41  68  95 131 174 220 270 327 384
#     4  11  21  40  68  99 126 165 230 267 316 391
#     4   9  19  38  63  99 132 166 215 265 323 387
#     4  12  24  44  72  95 130 172 219 272 327 389
#     4  12  26  44  67  97 131 173 223 271 329 394
#
# _framework density 21.334076
#
# number of rings (size 3 to 8) (size 9 to 14) (size 15 to 20)
#    0.000    1.143    4.286    2.143    2.000    8.000 
#    2.571    0.714    0.000    0.000    0.000    0.000 
#    0.000    0.000    0.000    0.000    0.000    0.000 
#
# Total GULP energy -78236.604996 kJ/mol
# GULP energy per Si atom -5588.328928 kJ/mol
# Density = 2.128552 g / cm^3
# Si number density = 21.334076 Si / 1000 Ang^3
#
#
#
# Elastic Constant Matrix: (Units=GPa)
#
#
# Indices 1 2 3 4 5 6 
#
# 1 72.4369 23.7946 16.2520 -5.6983 -30.8036 8.0371
# 2 23.7946 101.3776 19.4621 -3.6284 -16.1240 -7.3943
# 3 16.2520 19.4621 64.5459 10.8547 -30.7970 2.4226
# 4 -5.6983 -3.6284 10.8547 41.2146 2.4963 -6.4024
# 5 -30.8036 -16.1240 -30.7970 2.4963 39.5252 -0.5696
# 6 8.0371 -7.3943 2.4226 -6.4024 -0.5696 30.4960
#
#
#
# Elastic Compliance Matrix: (Units=1/GPa)
#
#
# Indices 1 2 3 4 5 6 
#
# 1 0.023559 -0.003844 0.005857 -0.001069 0.021316 -0.007432
# 2 -0.003844 0.011701 -0.003658 0.002245 -0.001148 0.004591
# 3 0.005857 -0.003658 0.029872 -0.010003 0.026887 -0.006401
# 4 -0.001069 0.002245 -0.010003 0.028677 -0.009415 0.007465
# 5 0.021316 -0.001148 0.026887 -0.009415 0.062862 -0.008835
# 6 -0.007432 0.004591 -0.006401 0.007465 -0.008835 0.037774
#
#
# Mechanical properties :
#
#
# Convention : Reuss Voigt Hill
#
# Bulk Modulus (GPa) = 16.17029 39.70862 27.93946
# Shear Modulus (GPa) = 22.89900 34.17061 28.53481
#
# Velocity S-wave (km/s) = 3.27976 4.00646 3.66118
# Velocity P-wave (km/s) = 4.68385 6.32894 5.56749
#
# Compressibility (1/GPa) = 0.06184181
#
# Stress axis : x y z
#
# Youngs Moduli (GPa) = 42.44668 85.46177 33.47567
#
# Poissons Ratio (x) = 0.32851 -0.19605
# Poissons Ratio (y) = 0.16316 0.12245
# Poissons Ratio (z) = -0.24859 0.31261
#
# Static dielectric constant tensor:
#      x y z
#    x 1.781990 0.005130 0.005090 
#    y 0.005130 1.789240 -0.010500 
#    z 0.005090 -0.010500 1.794060 
# 
# From -- ./inp_files/357072.got.cif
#   From: 2010.05.17/outbox.cif.g08.bks.cpg/sg2_179_cif.got.tgz:357072.got - 2010.06.03 11:33:40.
