data_PCOD9037774
_publ_section_title
;
Structure prediction by ZEFSAII (Michael W. Deem and Ramdas Pophale) SiO2 
 PCOD9037774
Probable space group: P -1
;
_chemical_formula_sum "Si O2"
_cell_formula_units_Z 15
_cell_length_a 18.572493
_cell_length_b 7.822168
_cell_length_c 18.791890
_cell_angle_alpha 127.208310
_cell_angle_beta 21.495266
_cell_angle_gamma 138.789097
_cell_volume 605.593855
_symmetry_space_group_name_H-M "P -1"
_symmetry_group_IT_number 2
_symmetry_cell_setting 'triclinic'
loop_
_space_group_symop_operation_xyz
x,y,z
-x,-y,-z
loop_
_atom_site_type_symbol
_atom_site_label
_atom_site_fract_x
_atom_site_fract_y
_atom_site_fract_z
Si Si1 0.000000 0.000000 0.000000
Si Si2 0.465502 0.499785 0.794629
Si Si3 0.218579 0.481612 0.785584
Si Si4 0.057065 0.530670 0.239428
Si Si5 0.791453 0.928414 0.375727
Si Si6 0.773461 0.305523 0.311383
Si Si7 0.106766 0.920677 0.534802
Si Si8 0.198555 0.513779 0.407941
O O1 0.050996 0.771137 0.894589
O O2 0.282207 0.245731 0.843454
O O3 0.691139 0.787164 0.618541
O O4 0.574977 0.410040 0.729991
O O5 0.306705 0.571312 0.000936
O O6 0.497622 0.710273 0.619689
O O7 0.145144 0.179496 0.777787
O O8 0.280298 0.555674 0.663847
O O9 0.000000 0.500000 0.000000
O O10 0.936393 0.542361 0.282252
O O11 0.047134 0.651982 0.352398
O O12 0.835838 0.194162 0.371690
O O13 0.971012 0.036050 0.306326
O O14 0.500000 0.000000 0.500000
O O15 0.221341 0.764962 0.413349
O O16 0.870660 0.700782 0.644497
#
# Coordination Sequence:
#
# PCOD9037774 Si02
#       8
#     1   2   2   2   2   2   2   2
#     4  10  26  36  62  98 138 164 230 266 330 416
#     4  11  24  43  69  99 137 182 222 285 341 400
#     4  11  26  38  63  92 130 180 220 270 344 401
#     4  10  23  41  62  97 130 169 223 281 332 411
#     4  10  24  43  59  94 136 164 226 283 329 405
#     4  11  22  39  61  90 127 180 212 271 338 397
#     4  10  24  45  73 101 130 183 236 278 334 417
#     4  10  23  49  71  96 140 177 227 291 344 385
#
# _framework density 24.769075000000001
#
# number of rings (size 3 to 8) (size 9 to 14) (size 15 to 20)
#    0.000    1.600    1.333    1.200   13.067    0.533 
#    0.000    8.000    0.000    0.000    0.000    0.000 
#    0.000    0.000    0.000    0.000    0.000    0.000 
#
# Total GULP energy -83548.054265 kJ/mol
# GULP energy per Si atom -5569.870284 kJ/mol
# Density = 2.471270 g / cm^3
# Si number density = 24.769075 Si / 1000 Ang^3
#
#
#
# Elastic Constant Matrix: (Units=GPa)
#
#
# Indices 1 2 3 4 5 6 
#
# 1 100.9217 21.0565 -3.7495 -1.1043 -36.1706 7.4990
# 2 21.0565 68.0248 8.3194 -7.6056 -13.8860 11.4878
# 3 -3.7495 8.3194 78.6315 22.6153 -16.9044 6.1926
# 4 -1.1043 -7.6056 22.6153 30.6371 -0.5422 5.6546
# 5 -36.1706 -13.8860 -16.9044 -0.5422 29.6813 6.4706
# 6 7.4990 11.4878 6.1926 5.6546 6.4706 46.8267
#
#
#
# Elastic Compliance Matrix: (Units=1/GPa)
#
#
# Indices 1 2 3 4 5 6 
#
# 1 0.025586 0.000010 0.012330 -0.005495 0.040429 -0.010653
# 2 0.000010 0.018720 -0.001466 0.007111 0.009497 -0.006571
# 3 0.012330 -0.001466 0.025277 -0.016741 0.029973 -0.007078
# 4 -0.005495 0.007111 -0.016741 0.046866 -0.011454 -0.002727
# 5 0.040429 0.009497 0.029973 -0.011454 0.110062 -0.026594
# 6 -0.010653 -0.006571 -0.007078 -0.002727 -0.026594 0.029614
#
#
# Mechanical properties :
#
#
# Convention : Reuss Voigt Hill
#
# Bulk Modulus (GPa) = 10.94926 33.20345 22.07635
# Shear Modulus (GPa) = 18.88073 36.22579 27.55326
#
# Velocity S-wave (km/s) = 2.76392 3.82847 3.33889
# Velocity P-wave (km/s) = 3.82306 5.74258 4.87817
#
# Compressibility (1/GPa) = 0.09133040
#
# Stress axis : x y z
#
# Youngs Moduli (GPa) = 39.08364 53.41806 39.56219
#
# Poissons Ratio (x) = -0.00051 -0.48781
# Poissons Ratio (y) = -0.00038 0.05800
# Poissons Ratio (z) = -0.48191 0.07831
#
# Static dielectric constant tensor:
#      x y z
#    x 2.204460 -0.017550 0.222330 
#    y -0.017550 2.138710 -0.018280 
#    z 0.222330 -0.018280 2.045670 
# 
# From -- ./inp_files/601189.got.cif
#   From: 2010.05.17/outbox.cif.g08.bks.cpg/sg2_301_cif.got.tgz:601189.got - 2010.06.03 11:33:40.
