data_PCOD9037565
_publ_section_title
;
Structure prediction by ZEFSAII (Michael W. Deem and Ramdas Pophale) SiO2 
 PCOD9037565
Probable space group: P -1
;
_chemical_formula_sum "Si O2"
_cell_formula_units_Z 16
_cell_length_a 8.929700
_cell_length_b 5.185021
_cell_length_c 18.521072
_cell_angle_alpha 66.141959
_cell_angle_beta 126.982878
_cell_angle_gamma 100.556041
_cell_volume 624.355289
_symmetry_space_group_name_H-M "P -1"
_symmetry_group_IT_number 2
_symmetry_cell_setting 'triclinic'
loop_
_space_group_symop_operation_xyz
x,y,z
-x,-y,-z
loop_
_atom_site_type_symbol
_atom_site_label
_atom_site_fract_x
_atom_site_fract_y
_atom_site_fract_z
Si Si1 0.409038 0.408508 0.258415
Si Si2 0.965011 0.265672 0.611159
Si Si3 0.616468 0.649643 0.109262
Si Si4 0.760201 0.571606 0.007367
Si Si5 0.928190 0.013328 0.182677
Si Si6 0.193547 0.749933 0.680637
Si Si7 0.194836 0.986011 0.146048
Si Si8 0.542355 0.317476 0.461629
O O1 0.621042 0.324623 0.303646
O O2 0.297783 0.168208 0.215391
O O3 0.415299 0.413620 0.346171
O O4 0.326359 0.726690 0.181315
O O5 0.764148 0.317850 0.510228
O O6 0.952260 0.075103 0.701946
O O7 0.037287 0.558496 0.625755
O O8 0.114025 0.073908 0.627761
O O9 0.644723 0.707283 0.026321
O O10 0.723189 0.897097 0.149203
O O11 0.740789 0.374633 0.207581
O O12 0.401481 0.585298 0.064593
O O13 0.900989 0.331937 0.110493
O O14 0.850941 0.789847 0.956818
O O15 0.026754 0.867108 0.156582
O O16 0.500000 0.500000 0.500000
O O17 0.500000 0.000000 0.500000
#
# Coordination Sequence:
#
# PCOD9037565 Si02
#       8
#     2   2   2   2   2   2   2   2
#     4  12  27  48  72 104 144 187 231 299 358 423
#     4  11  24  42  73 103 136 185 234 294 350 416
#     4  10  23  40  68  98 142 190 242 288 350 417
#     4  11  23  42  68 100 140 194 240 291 351 419
#     4  11  24  42  67 102 144 183 244 297 350 423
#     4  11  23  44  70 102 143 180 237 287 355 411
#     4  12  28  44  72 102 149 190 237 291 362 418
#     4  12  26  48  76 106 141 184 235 286 363 434
#
# _framework density 25.626432999999999
#
# number of rings (size 3 to 8) (size 9 to 14) (size 15 to 20)
#    0.000    0.750    2.500    4.500    3.500    3.500 
#    0.000    0.000    0.000    0.000    0.000    0.000 
#    0.000    0.000    0.000    0.000    0.000    0.000 
#
# Total GULP energy -89624.445260 kJ/mol
# GULP energy per Si atom -5601.527829 kJ/mol
# Density = 2.556811 g / cm^3
# Si number density = 25.626433 Si / 1000 Ang^3
#
#
#
# Elastic Constant Matrix: (Units=GPa)
#
#
# Indices 1 2 3 4 5 6 
#
# 1 76.0031 17.2278 9.8146 8.8127 1.5831 -1.5627
# 2 17.2278 131.4971 40.1703 20.0905 -4.0434 -11.3937
# 3 9.8146 40.1703 79.8685 10.8521 -5.1420 7.1181
# 4 8.8127 20.0905 10.8521 37.7854 1.5563 4.4233
# 5 1.5831 -4.0434 -5.1420 1.5563 39.4579 6.4423
# 6 -1.5627 -11.3937 7.1181 4.4233 6.4423 44.5678
#
#
#
# Elastic Compliance Matrix: (Units=1/GPa)
#
#
# Indices 1 2 3 4 5 6 
#
# 1 0.013843 -0.001128 -0.000921 -0.002413 -0.000810 0.000701
# 2 -0.001128 0.010167 -0.004732 -0.004222 0.000028 0.003730
# 3 -0.000921 -0.004732 0.015705 -0.001413 0.002298 -0.003942
# 4 -0.002413 -0.004222 -0.001413 0.030165 -0.001094 -0.003774
# 5 -0.000810 0.000028 0.002298 -0.001094 0.026390 -0.004094
# 6 0.000701 0.003730 -0.003942 -0.003774 -0.004094 0.025012
#
#
# Mechanical properties :
#
#
# Convention : Reuss Voigt Hill
#
# Bulk Modulus (GPa) = 38.23488 46.86601 42.55045
# Shear Modulus (GPa) = 34.82828 39.03929 36.93378
#
# Velocity S-wave (km/s) = 3.69056 3.90731 3.80048
# Velocity P-wave (km/s) = 5.75438 6.21964 5.99153
#
# Compressibility (1/GPa) = 0.02615413
#
# Stress axis : x y z
#
# Youngs Moduli (GPa) = 72.23873 98.35607 63.67404
#
# Poissons Ratio (x) = 0.11094 0.05861
# Poissons Ratio (y) = 0.08148 0.30131
# Poissons Ratio (z) = 0.06650 0.46543
#
# Static dielectric constant tensor:
#      x y z
#    x 2.101100 -0.033830 -0.007630 
#    y -0.033830 1.997950 0.013550 
#    z -0.007630 0.013550 2.017400 
# 
# From -- ./inp_files/553462.got.cif
#   From: 2010.05.17/outbox.cif.g08.bks.cpg/sg2_277_cif.got.tgz:553462.got - 2010.06.03 11:33:40.
