data_PCOD9037335
_publ_section_title
;
Structure prediction by ZEFSAII (Michael W. Deem and Ramdas Pophale) SiO2 
 PCOD9037335
Probable space group: P -1
;
_chemical_formula_sum "Si O2"
_cell_formula_units_Z 14
_cell_length_a 5.070579
_cell_length_b 12.368191
_cell_length_c 11.227188
_cell_angle_alpha 51.916052
_cell_angle_beta 101.793546
_cell_angle_gamma 106.839966
_cell_volume 530.128992
_symmetry_space_group_name_H-M "P -1"
_symmetry_group_IT_number 2
_symmetry_cell_setting 'triclinic'
loop_
_space_group_symop_operation_xyz
x,y,z
-x,-y,-z
loop_
_atom_site_type_symbol
_atom_site_label
_atom_site_fract_x
_atom_site_fract_y
_atom_site_fract_z
Si Si1 0.987280 0.828496 0.243274
Si Si2 0.611405 0.902427 0.983292
Si Si3 0.116964 0.568286 0.339597
Si Si4 0.533344 0.429761 0.344329
Si Si5 0.485597 0.153955 0.241814
Si Si6 0.771604 0.593633 0.904088
Si Si7 0.238691 0.828499 0.499235
O O1 0.973877 0.800387 0.403559
O O2 0.168767 0.732373 0.259669
O O3 0.131686 0.991716 0.128832
O O4 0.725397 0.799698 0.151910
O O5 0.428717 0.839535 0.894855
O O6 0.500000 0.000000 0.000000
O O7 0.836725 0.516699 0.271224
O O8 0.000000 0.500000 0.500000
O O9 0.383825 0.512576 0.366946
O O10 0.300247 0.404742 0.240977
O O11 0.588517 0.275042 0.475400
O O12 0.253768 0.249225 0.163207
O O13 0.722977 0.199696 0.335838
O O14 0.365587 0.992442 0.377300
O O15 0.500000 0.500000 0.000000
O O16 0.000000 0.500000 0.000000
#
# Coordination Sequence:
#
# PCOD9037335 Si02
#       7
#     2   2   2   2   2   2   2
#     4  10  23  40  65  95 135 174 233 284 341 414
#     4  10  23  42  66  99 134 179 230 286 348 419
#     4  12  25  41  68 100 139 185 229 288 358 406
#     4  11  25  43  68 101 139 185 234 290 347 416
#     4   9  21  42  70  95 133 181 226 286 350 404
#     4  11  25  46  70 102 141 183 234 288 350 427
#     4   9  19  45  66  94 133 175 235 284 338 412
#
# _framework density 26.408667000000001
#
# number of rings (size 3 to 8) (size 9 to 14) (size 15 to 20)
#    0.000    1.714    1.429    1.286    6.000    1.143 
#    5.143    0.714    0.000    0.000    0.000    0.000 
#    0.000    0.000    0.000    0.000    0.000    0.000 
#
# Total GULP energy -78015.472528 kJ/mol
# GULP energy per Si atom -5572.533752 kJ/mol
# Density = 2.634856 g / cm^3
# Si number density = 26.408667 Si / 1000 Ang^3
#
#
#
# Elastic Constant Matrix: (Units=GPa)
#
#
# Indices 1 2 3 4 5 6 
#
# 1 97.2070 40.7845 51.5602 4.2700 9.9324 -7.2991
# 2 40.7845 158.5458 85.9739 12.2149 19.3829 -14.0822
# 3 51.5602 85.9739 156.7970 19.1163 47.7065 -9.7528
# 4 4.2700 12.2149 19.1163 76.6063 6.4253 -5.3338
# 5 9.9324 19.3829 47.7065 6.4253 26.5662 -3.6387
# 6 -7.2991 -14.0822 -9.7528 -5.3338 -3.6387 37.4803
#
#
#
# Elastic Compliance Matrix: (Units=1/GPa)
#
#
# Indices 1 2 3 4 5 6 
#
# 1 0.013112 -0.001023 -0.005463 0.000409 0.005742 0.001363
# 2 -0.001023 0.009574 -0.006284 -0.000168 0.005027 0.002227
# 3 -0.005463 -0.006284 0.021272 -0.001449 -0.031379 -0.001142
# 4 0.000409 -0.000168 -0.001449 0.013567 -0.000500 0.001521
# 5 0.005742 0.005027 -0.031379 -0.000500 0.088761 0.003388
# 6 0.001363 0.002227 -0.001142 0.001521 0.003388 0.028031
#
#
# Mechanical properties :
#
#
# Convention : Reuss Voigt Hill
#
# Bulk Modulus (GPa) = 54.29013 85.46522 69.87768
# Shear Modulus (GPa) = 24.27233 43.74597 34.00915
#
# Velocity S-wave (km/s) = 3.03496 4.07443 3.59249
# Velocity P-wave (km/s) = 5.73443 7.38698 6.61253
#
# Compressibility (1/GPa) = 0.01841955
#
# Stress axis : x y z
#
# Youngs Moduli (GPa) = 76.26739 104.44875 47.00979
#
# Poissons Ratio (x) = 0.10686 0.25680
# Poissons Ratio (y) = 0.07802 0.29539
# Poissons Ratio (z) = 0.41662 0.65631
#
# Static dielectric constant tensor:
#      x y z
#    x 2.105430 0.061040 0.197450 
#    y 0.061040 2.201030 0.073320 
#    z 0.197450 0.073320 1.780190 
# 
# From -- ./inp_files/363746.got.cif
#   From: 2010.05.17/outbox.cif.g08.bks.cpg/sg2_182_cif.got.tgz:363746.got - 2010.06.03 11:33:40.
