data_PCOD9037042
_publ_section_title
;
Structure prediction by ZEFSAII (Michael W. Deem and Ramdas Pophale) SiO2 
 PCOD9037042
Probable space group: P -1
;
_chemical_formula_sum "Si O2"
_cell_formula_units_Z 16
_cell_length_a 5.865719
_cell_length_b 9.953828
_cell_length_c 14.912923
_cell_angle_alpha 108.390793
_cell_angle_beta 51.062759
_cell_angle_gamma 93.297198
_cell_volume 630.883717
_symmetry_space_group_name_H-M "P -1"
_symmetry_group_IT_number 2
_symmetry_cell_setting 'triclinic'
loop_
_space_group_symop_operation_xyz
x,y,z
-x,-y,-z
loop_
_atom_site_type_symbol
_atom_site_label
_atom_site_fract_x
_atom_site_fract_y
_atom_site_fract_z
Si Si1 0.736791 0.606357 0.163992
Si Si2 0.577519 0.263053 0.257602
Si Si3 0.660709 0.633670 0.828176
Si Si4 0.637655 0.394571 0.584937
Si Si5 0.846851 0.673906 0.963758
Si Si6 0.505770 0.994398 0.651169
Si Si7 0.871473 0.623404 0.404270
Si Si8 0.973421 0.900865 0.353493
O O1 0.553353 0.483087 0.152494
O O2 0.543899 0.676492 0.309557
O O3 0.035592 0.501074 0.101509
O O4 0.785033 0.704043 0.089168
O O5 0.387963 0.246722 0.211581
O O6 0.463223 0.432368 0.346325
O O7 0.903832 0.254498 0.131272
O O8 0.554248 0.149537 0.315138
O O9 0.596034 0.698435 0.956046
O O10 0.980508 0.535779 0.701407
O O11 0.483571 0.353796 0.523678
O O12 0.974389 0.358845 0.532711
O O13 0.734801 0.967082 0.504218
O O14 0.189073 0.060794 0.694062
O O15 0.712345 0.055790 0.688140
O O16 0.003769 0.731974 0.330435
#
# Coordination Sequence:
#
# PCOD9037042 Si02
#       8
#     2   2   2   2   2   2   2   2
#     4   8  15  23  40  72 107 135 164 195 236 304
#     4   9  19  30  48  74 105 133 159 214 257 299
#     4   9  16  27  45  75 106 134 161 201 250 304
#     4   9  18  30  50  79 109 130 161 200 252 305
#     4   9  14  26  43  69 107 133 165 194 251 297
#     4  10  22  39  55  77  98 126 175 219 249 293
#     4  10  17  33  51  74 103 131 167 204 248 306
#     4  10  22  38  58  74  95 132 174 216 250 292
#
# _framework density 25.361252
#
# number of rings (size 3 to 8) (size 9 to 14) (size 15 to 20)
#    0.000    3.250    2.500    1.125    1.750    0.000 
#    0.000    3.125    0.000    0.000    0.000   12.250 
#    0.000    0.000    0.000    0.000    0.000    0.000 
#
# Total GULP energy -89106.783032 kJ/mol
# GULP energy per Si atom -5569.173940 kJ/mol
# Density = 2.530353 g / cm^3
# Si number density = 25.361252 Si / 1000 Ang^3
#
#
#
# Elastic Constant Matrix: (Units=GPa)
#
#
# Indices 1 2 3 4 5 6 
#
# 1 204.1262 68.6209 52.7838 -38.0887 25.5988 -18.1917
# 2 68.6209 92.5752 26.5052 -34.5222 8.4285 -18.1446
# 3 52.7838 26.5052 57.9500 -16.3606 1.2387 5.4857
# 4 -38.0887 -34.5222 -16.3606 21.2715 -6.4728 -0.3548
# 5 25.5988 8.4285 1.2387 -6.4728 28.5114 -5.9921
# 6 -18.1917 -18.1446 5.4857 -0.3548 -5.9921 33.8106
#
#
#
# Elastic Compliance Matrix: (Units=1/GPa)
#
#
# Indices 1 2 3 4 5 6 
#
# 1 0.009657 0.001063 -0.006068 0.013092 -0.004468 0.006096
# 2 0.001063 0.040280 -0.002700 0.068013 0.007896 0.024739
# 3 -0.006068 -0.002700 0.026512 0.006490 0.004869 -0.008084
# 4 0.013092 0.068013 0.006490 0.193303 0.021914 0.048403
# 5 -0.004468 0.007896 0.004869 0.021914 0.043399 0.008965
# 6 0.006096 0.024739 -0.008084 0.048403 0.008965 0.049542
#
#
# Mechanical properties :
#
#
# Convention : Reuss Voigt Hill
#
# Bulk Modulus (GPa) = 16.38309 72.27457 44.32883
# Shear Modulus (GPa) = 12.54865 30.50145 21.52505
#
# Velocity S-wave (km/s) = 2.22681 3.47173 2.91647
# Velocity P-wave (km/s) = 3.61739 6.68060 5.37196
#
# Compressibility (1/GPa) = 0.06103854
#
# Stress axis : x y z
#
# Youngs Moduli (GPa) = 103.54977 24.82605 37.71915
#
# Poissons Ratio (x) = -0.02638 0.22887
# Poissons Ratio (y) = -0.11005 0.10186
# Poissons Ratio (z) = 0.62831 0.06704
#
# Static dielectric constant tensor:
#      x y z
#    x 2.216930 -0.020010 -0.001220 
#    y -0.020010 1.996340 0.029050 
#    z -0.001220 0.029050 2.054980 
# 
# From -- ./inp_files/548087.got.cif
#   From: 2010.05.17/outbox.cif.g08.bks.cpg/sg2_275_cif.got.tgz:548087.got - 2010.06.03 11:33:40.
