data_PCOD9037192
_publ_section_title
;
Structure prediction by ZEFSAII (Michael W. Deem and Ramdas Pophale) SiO2 
 PCOD9037192
Probable space group: P -1
;
_chemical_formula_sum "Si O2"
_cell_formula_units_Z 10
_cell_length_a 11.294374
_cell_length_b 8.708106
_cell_length_c 6.171121
_cell_angle_alpha 52.308937
_cell_angle_beta 66.231540
_cell_angle_gamma 71.147011
_cell_volume 437.077071
_symmetry_space_group_name_H-M "P -1"
_symmetry_group_IT_number 2
_symmetry_cell_setting 'triclinic'
loop_
_space_group_symop_operation_xyz
x,y,z
-x,-y,-z
loop_
_atom_site_type_symbol
_atom_site_label
_atom_site_fract_x
_atom_site_fract_y
_atom_site_fract_z
Si Si1 0.287962 0.821729 0.710676
Si Si2 0.282354 0.132111 0.096486
Si Si3 0.116346 0.129017 0.834306
Si Si4 0.448900 0.352067 0.490715
Si Si5 0.777123 0.561272 0.752192
O O1 0.242090 0.991977 0.765415
O O2 0.436010 0.724837 0.691190
O O3 0.279571 0.924364 0.393283
O O4 0.198861 0.649485 0.974635
O O5 0.284066 0.293870 0.141865
O O6 0.399339 0.173354 0.816311
O O7 0.151248 0.170587 0.018646
O O8 0.108386 0.325599 0.529873
O O9 0.000000 0.000000 0.000000
O O10 0.500000 0.500000 0.500000
O O11 0.325934 0.446894 0.361417
#
# Coordination Sequence:
#
# PCOD9037192 Si02
#       5
#     2   2   2   2   2
#     4  11  23  38  65  94 121 163 202 241 309 365
#     4  10  23  40  63  91 126 158 202 249 306 358
#     4  10  25  45  62  86 123 161 209 258 298 351
#     4  11  22  38  64  92 133 158 191 248 305 369
#     4  10  23  41  62  95 124 157 207 244 300 373
#
# _framework density 22.879262000000001
#
# number of rings (size 3 to 8) (size 9 to 14) (size 15 to 20)
#    0.000    1.600    2.000    1.200    2.800   11.200 
#    0.000    2.000    0.000    0.000    0.000    0.000 
#    0.000    0.000    0.000    0.000    0.000    0.000 
#
# Total GULP energy -55843.874549 kJ/mol
# GULP energy per Si atom -5584.387455 kJ/mol
# Density = 2.282719 g / cm^3
# Si number density = 22.879262 Si / 1000 Ang^3
#
#
#
# Elastic Constant Matrix: (Units=GPa)
#
#
# Indices 1 2 3 4 5 6 
#
# 1 63.8764 30.6940 34.0420 4.9221 -17.6191 28.1776
# 2 30.6940 79.5504 27.6178 -9.8345 -8.3365 6.4641
# 3 34.0420 27.6178 196.7865 -45.1337 -15.9621 21.2586
# 4 4.9221 -9.8345 -45.1337 41.1706 4.8702 1.0062
# 5 -17.6191 -8.3365 -15.9621 4.8702 17.4184 -8.0520
# 6 28.1776 6.4641 21.2586 1.0062 -8.0520 32.7060
#
#
#
# Elastic Compliance Matrix: (Units=1/GPa)
#
#
# Indices 1 2 3 4 5 6 
#
# 1 0.043808 -0.012399 -0.004538 -0.015748 0.026965 -0.025219
# 2 -0.012399 0.017216 0.000193 0.005998 -0.002912 0.006253
# 3 -0.004538 0.000193 0.008232 0.009726 -0.000560 -0.001916
# 4 -0.015748 0.005998 0.009726 0.039985 -0.014775 0.001193
# 5 0.026965 -0.002912 -0.000560 -0.014775 0.086680 -0.000497
# 6 -0.025219 0.006253 -0.001916 0.001193 -0.000497 0.052153
#
#
# Mechanical properties :
#
#
# Convention : Reuss Voigt Hill
#
# Bulk Modulus (GPa) = 27.95971 58.32452 43.14212
# Shear Modulus (GPa) = 17.03658 34.78297 25.90977
#
# Velocity S-wave (km/s) = 2.73175 3.90331 3.36885
# Velocity P-wave (km/s) = 4.71137 6.77216 5.83349
#
# Compressibility (1/GPa) = 0.03576575
#
# Stress axis : x y z
#
# Youngs Moduli (GPa) = 22.82706 58.08523 121.47769
#
# Poissons Ratio (x) = 0.72021 0.55131
# Poissons Ratio (y) = 0.28304 -0.02339
# Poissons Ratio (z) = 0.10360 -0.01119
#
# Static dielectric constant tensor:
#      x y z
#    x 1.892220 -0.043880 -0.015410 
#    y -0.043880 1.832960 -0.021450 
#    z -0.015410 -0.021450 1.890020 
# 
# From -- ./inp_files/3889.got.cif
#   From: 2010.05.17/outbox.cif.g08.bks.cpg/sg2_2_cif.got.tgz:3889.got - 2010.06.03 11:33:40.
