data_PCOD9037506
_publ_section_title
;
Structure prediction by ZEFSAII (Michael W. Deem and Ramdas Pophale) SiO2 
 PCOD9037506
Probable space group: P -1
;
_chemical_formula_sum "Si O2"
_cell_formula_units_Z 16
_cell_length_a 5.665516
_cell_length_b 17.826584
_cell_length_c 11.671040
_cell_angle_alpha 50.980364
_cell_angle_beta 94.540756
_cell_angle_gamma 63.316928
_cell_volume 698.284271
_symmetry_space_group_name_H-M "P -1"
_symmetry_group_IT_number 2
_symmetry_cell_setting 'triclinic'
loop_
_space_group_symop_operation_xyz
x,y,z
-x,-y,-z
loop_
_atom_site_type_symbol
_atom_site_label
_atom_site_fract_x
_atom_site_fract_y
_atom_site_fract_z
Si Si1 0.381040 0.536416 0.827427
Si Si2 0.686843 0.213764 0.766978
Si Si3 0.642585 0.934239 0.746727
Si Si4 0.761987 0.616938 0.790153
Si Si5 0.345628 0.899352 0.563279
Si Si6 0.257633 0.484858 0.445793
Si Si7 0.673891 0.024339 0.069814
Si Si8 0.806046 0.322525 0.879160
O O1 0.551393 0.591036 0.746649
O O2 0.513808 0.421873 0.854308
O O3 0.010237 0.620619 0.730744
O O4 0.500000 0.500000 0.000000
O O5 0.461058 0.337642 0.562413
O O6 0.783618 0.264041 0.820636
O O7 0.566384 0.157003 0.893656
O O8 0.965375 0.093093 0.822905
O O9 0.542906 0.906150 0.656113
O O10 0.420580 0.970307 0.809568
O O11 0.649540 0.045450 0.610449
O O12 0.964571 0.800837 0.918429
O O13 0.503577 0.753934 0.703892
O O14 0.000000 0.500000 0.000000
O O15 0.000000 0.000000 0.500000
O O16 0.500000 0.500000 0.500000
O O17 0.095003 0.596625 0.238837
O O18 0.000000 0.500000 0.500000
O O19 0.500000 0.000000 0.000000
#
# Coordination Sequence:
#
# PCOD9037506 Si02
#       8
#     2   2   2   2   2   2   2   2
#     4  10  23  40  68 101 139 178 236 292 359 426
#     4  10  24  42  71 104 144 189 243 302 369 440
#     4  11  25  44  72 103 143 191 249 299 371 439
#     4  10  23  44  69  97 141 182 234 301 361 424
#     4  11  28  45  73 104 145 191 250 305 365 449
#     4  10  23  43  68 103 138 176 238 299 356 429
#     4  11  23  44  71 105 144 190 242 306 368 445
#     4  11  23  45  73 105 139 200 241 301 368 453
#
# _framework density 22.913301000000001
#
# number of rings (size 3 to 8) (size 9 to 14) (size 15 to 20)
#    0.000    1.500    1.250    2.250   10.500    4.000 
#    2.250    0.000    0.000    0.000    0.000    0.000 
#    0.000    0.000    0.000    0.000    0.000    0.000 
#
# Total GULP energy -89194.455177 kJ/mol
# GULP energy per Si atom -5574.653449 kJ/mol
# Density = 2.286115 g / cm^3
# Si number density = 22.913301 Si / 1000 Ang^3
#
#
#
# Elastic Constant Matrix: (Units=GPa)
#
#
# Indices 1 2 3 4 5 6 
#
# 1 97.5367 16.1109 19.6177 -7.5181 -12.6483 -4.8273
# 2 16.1109 101.2235 30.5486 -20.8214 -12.3307 -12.5659
# 3 19.6177 30.5486 131.9500 -21.6600 -24.6254 1.7104
# 4 -7.5181 -20.8214 -21.6600 43.4028 -5.5412 -5.6741
# 5 -12.6483 -12.3307 -24.6254 -5.5412 35.2916 -5.6301
# 6 -4.8273 -12.5659 1.7104 -5.6741 -5.6301 32.7589
#
#
#
# Elastic Compliance Matrix: (Units=1/GPa)
#
#
# Indices 1 2 3 4 5 6 
#
# 1 0.011301 -0.000242 -0.000383 0.002602 0.004558 0.002827
# 2 -0.000242 0.013525 -0.000637 0.007990 0.006680 0.007718
# 3 -0.000383 -0.000637 0.010225 0.005951 0.007959 0.001564
# 4 0.002602 0.007990 0.005951 0.033722 0.015016 0.011559
# 5 0.004558 0.006680 0.007959 0.015016 0.042237 0.012678
# 6 0.002827 0.007718 0.001564 0.011559 0.012678 0.038002
#
#
# Mechanical properties :
#
#
# Convention : Reuss Voigt Hill
#
# Bulk Modulus (GPa) = 30.74321 51.47381 41.10851
# Shear Modulus (GPa) = 30.79217 39.91954 35.35585
#
# Velocity S-wave (km/s) = 3.66984 4.17849 3.93240
# Velocity P-wave (km/s) = 5.60386 6.76706 6.21275
#
# Compressibility (1/GPa) = 0.03252751
#
# Stress axis : x y z
#
# Youngs Moduli (GPa) = 88.48745 73.93519 97.79891
#
# Poissons Ratio (x) = 0.01788 0.03747
# Poissons Ratio (y) = 0.02140 0.06230
# Poissons Ratio (z) = 0.03390 0.04710
#
# Static dielectric constant tensor:
#      x y z
#    x 1.945070 -0.024970 -0.045030 
#    y -0.024970 1.784410 -0.058170 
#    z -0.045030 -0.058170 2.067890 
# 
# From -- ./inp_files/369364.got.cif
#   From: 2010.05.17/outbox.cif.g08.bks.cpg/sg2_185_cif.got.tgz:369364.got - 2010.06.03 11:33:40.
