data_PCOD9037701
_publ_section_title
;
Structure prediction by ZEFSAII (Michael W. Deem and Ramdas Pophale) SiO2 
 PCOD9037701
Probable space group: P -1
;
_chemical_formula_sum "Si O2"
_cell_formula_units_Z 15
_cell_length_a 22.446324
_cell_length_b 4.938712
_cell_length_c 4.985708
_cell_angle_alpha 95.592382
_cell_angle_beta 77.450493
_cell_angle_gamma 71.275496
_cell_volume 502.510409
_symmetry_space_group_name_H-M "P -1"
_symmetry_group_IT_number 2
_symmetry_cell_setting 'triclinic'
loop_
_space_group_symop_operation_xyz
x,y,z
-x,-y,-z
loop_
_atom_site_type_symbol
_atom_site_label
_atom_site_fract_x
_atom_site_fract_y
_atom_site_fract_z
Si Si1 0.486360 0.217454 0.783375
Si Si2 0.895650 0.904830 0.432605
Si Si3 0.776949 0.636449 0.079575
Si Si4 0.000000 0.500000 0.500000
Si Si5 0.918219 0.333122 0.014018
Si Si6 0.245236 0.787740 0.543851
Si Si7 0.618812 0.168822 0.573949
Si Si8 0.644510 0.754257 0.000701
O O1 0.542096 0.361756 0.711356
O O2 0.500000 0.000000 0.500000
O O3 0.408631 0.389983 0.878370
O O4 0.500000 0.000000 0.000000
O O5 0.918202 0.571234 0.269305
O O6 0.939572 0.825504 0.646782
O O7 0.912701 0.091380 0.202448
O O8 0.817329 0.036775 0.560167
O O9 0.851017 0.462063 0.924152
O O10 0.765660 0.492731 0.354115
O O11 0.721541 0.593536 0.944283
O O12 0.766403 0.969839 0.181468
O O13 0.028516 0.659195 0.250451
O O14 0.321973 0.720355 0.405717
O O15 0.629914 0.015871 0.259603
O O16 0.629545 0.906560 0.745470
#
# Coordination Sequence:
#
# PCOD9037701 Si02
#       8
#     2   2   2   1   2   2   2   2
#     4   8  14  26  47  80 112 154 196 250 300 362
#     4  10  23  41  60  88 123 156 203 253 303 373
#     4   9  19  38  59  83 116 155 197 247 303 361
#     4  12  24  38  68  88 120 160 204 242 328 352
#     4  10  23  41  60  88 123 156 203 253 303 373
#     4   9  19  38  59  83 116 155 197 247 303 361
#     4   9  17  31  55  82 119 156 204 250 308 364
#     4   9  17  31  55  82 119 156 204 250 308 364
#
# _framework density 29.850128000000002
#
# number of rings (size 3 to 8) (size 9 to 14) (size 15 to 20)
#    0.000    2.667    0.000    0.800    1.867    2.133 
#    0.000    6.000    0.000    0.000    0.000   28.000 
#    0.000    0.000    0.000    0.000    0.000    0.000 
#
# Total GULP energy -83855.914470 kJ/mol
# GULP energy per Si atom -5590.394298 kJ/mol
# Density = 2.978219 g / cm^3
# Si number density = 29.850128 Si / 1000 Ang^3
#
#
#
# Elastic Constant Matrix: (Units=GPa)
#
#
# Indices 1 2 3 4 5 6 
#
# 1 195.5001 42.9143 35.7413 4.6832 -56.8129 -24.4707
# 2 42.9143 92.2963 50.3213 -25.6110 -19.7672 -10.9040
# 3 35.7413 50.3213 126.5638 -3.2845 -22.2793 -4.7386
# 4 4.6832 -25.6110 -3.2845 28.5271 -4.5769 -1.3188
# 5 -56.8129 -19.7672 -22.2793 -4.5769 53.5917 9.8905
# 6 -24.4707 -10.9040 -4.7386 -1.3188 9.8905 64.1030
#
#
#
# Elastic Compliance Matrix: (Units=1/GPa)
#
#
# Indices 1 2 3 4 5 6 
#
# 1 0.007992 -0.002838 0.000083 -0.002667 0.006965 0.001445
# 2 -0.002838 0.022839 -0.006969 0.020894 0.003912 0.002112
# 3 0.000083 -0.006969 0.010803 -0.004782 0.001733 -0.000721
# 4 -0.002667 0.020894 -0.004782 0.054953 0.007178 0.002206
# 5 0.006965 0.003912 0.001733 0.007178 0.028981 -0.000871
# 6 0.001445 0.002112 -0.000721 0.002206 -0.000871 0.016637
#
#
# Mechanical properties :
#
#
# Convention : Reuss Voigt Hill
#
# Bulk Modulus (GPa) = 45.07794 74.70155 59.88975
# Shear Modulus (GPa) = 29.57714 48.26991 38.92353
#
# Velocity S-wave (km/s) = 3.15120 4.02565 3.61496
# Velocity P-wave (km/s) = 5.32675 6.83284 6.12625
#
# Compressibility (1/GPa) = 0.02218380
#
# Stress axis : x y z
#
# Youngs Moduli (GPa) = 125.12701 43.78407 92.56981
#
# Poissons Ratio (x) = 0.12428 -0.00765
# Poissons Ratio (y) = 0.35517 0.64514
# Poissons Ratio (z) = -0.01035 0.30514
#
# Static dielectric constant tensor:
#      x y z
#    x 1.860740 -0.122520 -0.312210 
#    y -0.122520 2.348770 0.089650 
#    z -0.312210 0.089650 1.968920 
# 
# From -- ./inp_files/12566.got.cif
#   From: 2010.05.17/outbox.cif.g08.bks.cpg/sg2_7_cif.got.tgz:12566.got - 2010.06.03 11:33:40.
