data_PCOD9037643
_publ_section_title
;
Structure prediction by ZEFSAII (Michael W. Deem and Ramdas Pophale) SiO2 
 PCOD9037643
Probable space group: P -1
;
_chemical_formula_sum "Si O2"
_cell_formula_units_Z 15
_cell_length_a 17.564557
_cell_length_b 9.225948
_cell_length_c 8.944710
_cell_angle_alpha 98.663460
_cell_angle_beta 48.903121
_cell_angle_gamma 60.760590
_cell_volume 664.080212
_symmetry_space_group_name_H-M "P -1"
_symmetry_group_IT_number 2
_symmetry_cell_setting 'triclinic'
loop_
_space_group_symop_operation_xyz
x,y,z
-x,-y,-z
loop_
_atom_site_type_symbol
_atom_site_label
_atom_site_fract_x
_atom_site_fract_y
_atom_site_fract_z
Si Si1 0.612930 0.979082 0.946285
Si Si2 0.914615 0.339379 0.857157
Si Si3 0.007616 0.936589 0.809217
Si Si4 0.779266 0.508989 0.730791
Si Si5 0.460216 0.198038 0.498104
Si Si6 0.749456 0.023124 0.256738
Si Si7 0.000000 0.500000 0.000000
Si Si8 0.557637 0.279180 0.831256
O O1 0.511387 0.128305 0.249238
O O2 0.639929 0.090195 0.828359
O O3 0.500000 0.000000 0.000000
O O4 0.763503 0.699804 0.744931
O O5 0.887683 0.379258 0.720260
O O6 0.002391 0.085738 0.738398
O O7 0.728969 0.545904 0.197020
O O8 0.994807 0.379544 0.853946
O O9 0.149207 0.664917 0.527862
O O10 0.845918 0.021968 0.024850
O O11 0.000000 0.000000 0.000000
O O12 0.598873 0.640821 0.010221
O O13 0.586415 0.163006 0.404299
O O14 0.500000 0.000000 0.500000
O O15 0.683069 0.165499 0.518605
O O16 0.868161 0.753662 0.111485
O O17 0.500000 0.500000 0.000000
#
# Coordination Sequence:
#
# PCOD9037643 Si02
#       8
#     2   2   2   2   2   2   1   2
#     4  10  23  40  71 103 138 187 240 294 360 429
#     4  12  26  48  77 103 154 194 247 308 375 439
#     4  12  28  46  73 107 152 193 239 309 381 441
#     4  11  24  50  71 107 147 197 241 305 372 436
#     4  12  22  46  75 107 143 188 247 309 359 439
#     4  12  26  47  70 110 140 194 246 297 374 439
#     4  12  26  42  78 104 142 196 246 296 368 444
#     4  11  25  43  72 107 149 188 248 297 362 442
#
# _framework density 22.587633
#
# number of rings (size 3 to 8) (size 9 to 14) (size 15 to 20)
#    0.000    0.533    5.333    2.000    7.467    1.600 
#    2.400    1.333    0.000    0.000    0.000    0.000 
#    0.000    0.000    0.000    0.000    0.000    0.000 
#
# Total GULP energy -83622.428256 kJ/mol
# GULP energy per Si atom -5574.828550 kJ/mol
# Density = 2.253622 g / cm^3
# Si number density = 22.587633 Si / 1000 Ang^3
#
#
#
# Elastic Constant Matrix: (Units=GPa)
#
#
# Indices 1 2 3 4 5 6 
#
# 1 63.8632 11.9363 8.0623 -7.0872 10.8052 -15.1588
# 2 11.9363 85.4976 -4.9255 -0.6582 16.8383 0.9290
# 3 8.0623 -4.9255 79.8155 -2.7989 21.4789 5.2573
# 4 -7.0872 -0.6582 -2.7989 26.4494 3.2562 9.4898
# 5 10.8052 16.8383 21.4789 3.2562 36.1435 -3.0131
# 6 -15.1588 0.9290 5.2573 9.4898 -3.0131 39.6211
#
#
#
# Elastic Compliance Matrix: (Units=1/GPa)
#
#
# Indices 1 2 3 4 5 6 
#
# 1 0.018656 -0.002032 -0.001373 0.002946 -0.003547 0.006392
# 2 -0.002032 0.013893 0.003588 0.002204 -0.008425 -0.002748
# 3 -0.001373 0.003588 0.016586 0.004683 -0.011943 -0.004840
# 4 0.002946 0.002204 0.004683 0.044227 -0.009581 -0.010867
# 5 -0.003547 -0.008425 -0.011943 -0.009581 0.041101 0.005846
# 6 0.006392 -0.002748 -0.004840 -0.010867 0.005846 0.031439
#
#
# Mechanical properties :
#
#
# Convention : Reuss Voigt Hill
#
# Bulk Modulus (GPa) = 20.20155 28.81361 24.50758
# Shear Modulus (GPa) = 27.46730 34.71633 31.09181
#
# Velocity S-wave (km/s) = 3.49095 3.92466 3.71414
# Velocity P-wave (km/s) = 5.02116 5.77247 5.40987
#
# Compressibility (1/GPa) = 0.04950114
#
# Stress axis : x y z
#
# Youngs Moduli (GPa) = 53.60222 71.98071 60.29173
#
# Poissons Ratio (x) = 0.14625 0.08278
# Poissons Ratio (y) = 0.10891 -0.21633
# Poissons Ratio (z) = 0.07359 -0.25826
#
# Static dielectric constant tensor:
#      x y z
#    x 1.835540 -0.030060 -0.060390 
#    y -0.030060 1.844470 -0.043220 
#    z -0.060390 -0.043220 1.864660 
# 
# From -- ./inp_files/158311.got.cif
#   From: 2010.05.17/outbox.cif.g08.bks.cpg/sg2_80_cif.got.tgz:158311.got - 2010.06.03 11:33:40.
