data_PCOD9037674
_publ_section_title
;
Structure prediction by ZEFSAII (Michael W. Deem and Ramdas Pophale) SiO2 
 PCOD9037674
Probable space group: P -1
;
_chemical_formula_sum "Si O2"
_cell_formula_units_Z 16
_cell_length_a 9.688584
_cell_length_b 11.791134
_cell_length_c 8.040607
_cell_angle_alpha 121.532974
_cell_angle_beta 121.852471
_cell_angle_gamma 70.532352
_cell_volume 662.935355
_symmetry_space_group_name_H-M "P -1"
_symmetry_group_IT_number 2
_symmetry_cell_setting 'triclinic'
loop_
_space_group_symop_operation_xyz
x,y,z
-x,-y,-z
loop_
_atom_site_type_symbol
_atom_site_label
_atom_site_fract_x
_atom_site_fract_y
_atom_site_fract_z
Si Si1 0.925734 0.203624 0.578805
Si Si2 0.733162 0.877711 0.366349
Si Si3 0.966527 0.489339 0.669332
Si Si4 0.531618 0.653585 0.173739
Si Si5 0.666416 0.698290 0.662045
Si Si6 0.094721 0.128605 0.174775
Si Si7 0.169333 0.699591 0.041549
Si Si8 0.598015 0.101968 0.246747
O O1 0.949667 0.339831 0.600818
O O2 0.866947 0.235352 0.753134
O O3 0.782395 0.131990 0.340205
O O4 0.105447 0.130076 0.650088
O O5 0.634770 0.745106 0.190738
O O6 0.814610 0.876712 0.597570
O O7 0.624343 0.014164 0.365928
O O8 0.802665 0.578050 0.695630
O O9 0.000000 0.500000 0.500000
O O10 0.123042 0.546625 0.901790
O O11 0.612324 0.662143 0.413512
O O12 0.349919 0.721889 0.121461
O O13 0.500000 0.500000 0.000000
O O14 0.764985 0.831596 0.829689
O O15 0.502313 0.752807 0.692949
O O16 0.954090 0.243467 0.134840
O O17 0.000000 0.000000 0.000000
O O18 0.500000 0.000000 0.000000
#
# Coordination Sequence:
#
# PCOD9037674 Si02
#       8
#     2   2   2   2   2   2   2   2
#     4  12  25  48  72 105 145 193 237 306 361 435
#     4  11  27  45  73 104 146 193 247 290 358 439
#     4  11  24  46  76 105 142 190 246 293 370 440
#     4  11  23  44  71 106 141 183 238 303 360 427
#     4  10  24  44  66 102 144 180 243 295 353 431
#     4  10  23  40  72  97 136 189 237 287 352 423
#     4  11  23  42  72 107 140 181 239 294 363 423
#     4  12  29  46  69 104 149 192 245 299 362 424
#
# _framework density 24.135082000000001
#
# number of rings (size 3 to 8) (size 9 to 14) (size 15 to 20)
#    0.000    1.000    1.250    5.250    7.000    3.500 
#    0.000    0.000    0.000    0.000    0.000    0.000 
#    0.000    0.000    0.000    0.000    0.000    0.000 
#
# Total GULP energy -89369.111875 kJ/mol
# GULP energy per Si atom -5585.569492 kJ/mol
# Density = 2.408015 g / cm^3
# Si number density = 24.135082 Si / 1000 Ang^3
#
#
#
# Elastic Constant Matrix: (Units=GPa)
#
#
# Indices 1 2 3 4 5 6 
#
# 1 97.3964 13.5511 12.9589 -1.0282 25.2291 -17.5243
# 2 13.5511 91.2663 11.8271 2.1997 9.4714 -3.9740
# 3 12.9589 11.8271 107.7427 7.2412 26.4214 8.7325
# 4 -1.0282 2.1997 7.2412 42.9284 5.7120 9.2414
# 5 25.2291 9.4714 26.4214 5.7120 45.4111 6.7019
# 6 -17.5243 -3.9740 8.7325 9.2414 6.7019 28.8656
#
#
#
# Elastic Compliance Matrix: (Units=1/GPa)
#
#
# Indices 1 2 3 4 5 6 
#
# 1 0.014958 -0.000668 -0.000247 -0.000770 -0.009635 0.011548
# 2 -0.000668 0.011454 -0.000875 -0.000667 -0.001728 0.002051
# 3 -0.000247 -0.000875 0.011016 -0.000612 -0.005705 -0.002083
# 4 -0.000770 -0.000667 -0.000612 0.025327 -0.001047 -0.008239
# 5 -0.009635 -0.001728 -0.005705 -0.001047 0.032907 -0.011666
# 6 0.011548 0.002051 -0.002083 -0.008239 -0.011666 0.047913
#
#
# Mechanical properties :
#
#
# Convention : Reuss Voigt Hill
#
# Bulk Modulus (GPa) = 29.54279 41.45329 35.49804
# Shear Modulus (GPa) = 31.55810 40.64556 36.10183
#
# Velocity S-wave (km/s) = 3.61994 4.10821 3.87178
# Velocity P-wave (km/s) = 5.45336 6.30207 5.89301
#
# Compressibility (1/GPa) = 0.03384921
#
# Stress axis : x y z
#
# Youngs Moduli (GPa) = 66.85168 87.30474 90.77572
#
# Poissons Ratio (x) = 0.05830 0.02245
# Poissons Ratio (y) = 0.04464 0.07940
# Poissons Ratio (z) = 0.01654 0.07637
#
# Static dielectric constant tensor:
#      x y z
#    x 2.004790 -0.020460 -0.029420 
#    y -0.020460 2.026440 0.084210 
#    z -0.029420 0.084210 1.988240 
# 
# From -- ./inp_files/190416.got.cif
#   From: 2010.05.17/outbox.cif.g08.bks.cpg/sg2_96_cif.got.tgz:190416.got - 2010.06.03 11:33:40.
