data_PCOD9037417
_publ_section_title
;
Structure prediction by ZEFSAII (Michael W. Deem and Ramdas Pophale) SiO2 
 PCOD9037417
Probable space group: P -1
;
_chemical_formula_sum "Si O2"
_cell_formula_units_Z 14
_cell_length_a 11.092353
_cell_length_b 11.282950
_cell_length_c 9.442967
_cell_angle_alpha 52.846899
_cell_angle_beta 130.720190
_cell_angle_gamma 138.158448
_cell_volume 581.021490
_symmetry_space_group_name_H-M "P -1"
_symmetry_group_IT_number 2
_symmetry_cell_setting 'triclinic'
loop_
_space_group_symop_operation_xyz
x,y,z
-x,-y,-z
loop_
_atom_site_type_symbol
_atom_site_label
_atom_site_fract_x
_atom_site_fract_y
_atom_site_fract_z
Si Si1 0.276690 0.244509 0.865870
Si Si2 0.942353 0.497072 0.295128
Si Si3 0.252626 0.721806 0.127575
Si Si4 0.694894 0.969935 0.211757
Si Si5 0.041611 0.823043 0.511949
Si Si6 0.718814 0.597264 0.657726
Si Si7 0.676261 0.629990 0.905371
O O1 0.324968 0.145649 0.857367
O O2 0.057283 0.177699 0.708529
O O3 0.448732 0.461984 0.829396
O O4 0.292282 0.223302 0.061397
O O5 0.131625 0.640430 0.238597
O O6 0.864979 0.290366 0.343787
O O7 0.000000 0.500000 0.500000
O O8 0.788477 0.545203 0.114662
O O9 0.484717 0.882231 0.186551
O O10 0.241812 0.555318 0.166668
O O11 0.186911 0.823890 0.908331
O O12 0.821810 0.993628 0.427351
O O13 0.850669 0.702558 0.549408
O O14 0.500000 0.500000 0.500000
O O15 0.751815 0.698333 0.757045
#
# Coordination Sequence:
#
# PCOD9037417 Si02
#       7
#     2   2   2   2   2   2   2
#     4  11  23  39  65  97 134 176 208 275 339 389
#     4  11  23  43  70  96 130 171 233 275 323 386
#     4  10  23  40  66  98 129 176 219 275 329 389
#     4  11  22  42  64  97 141 171 220 264 340 409
#     4  11  22  39  68  96 128 175 223 280 317 395
#     4  11  20  39  67  99 124 169 236 271 319 386
#     4  11  22  40  66  97 132 170 223 276 330 385
#
# _framework density 24.095496000000001
#
# number of rings (size 3 to 8) (size 9 to 14) (size 15 to 20)
#    0.000    1.143    4.286    2.143    2.000    2.286 
#    0.000    3.571    3.143    0.000    0.000    0.000 
#    0.000    0.000    0.000    0.000    0.000    0.000 
#
# Total GULP energy -78149.425096 kJ/mol
# GULP energy per Si atom -5582.101793 kJ/mol
# Density = 2.404065 g / cm^3
# Si number density = 24.095496 Si / 1000 Ang^3
#
#
#
# Elastic Constant Matrix: (Units=GPa)
#
#
# Indices 1 2 3 4 5 6 
#
# 1 102.9368 28.9663 41.5102 7.7370 -12.7193 -6.7818
# 2 28.9663 64.2923 44.2378 5.4637 -12.9635 -6.4760
# 3 41.5102 44.2378 126.3166 14.7222 -29.3321 -14.0875
# 4 7.7370 5.4637 14.7222 53.5014 -3.5951 -5.8141
# 5 -12.7193 -12.9635 -29.3321 -3.5951 45.5372 8.4460
# 6 -6.7818 -6.4760 -14.0875 -5.8141 8.4460 40.6786
#
#
#
# Elastic Compliance Matrix: (Units=1/GPa)
#
#
# Indices 1 2 3 4 5 6 
#
# 1 0.011805 -0.003439 -0.002413 -0.000609 0.000649 0.000363
# 2 -0.003439 0.021589 -0.006116 0.000110 0.001158 0.000521
# 3 -0.002413 -0.006116 0.012452 -0.001934 0.005158 0.001589
# 4 -0.000609 0.000110 -0.001934 0.019511 -0.000230 0.002083
# 5 0.000649 0.001158 0.005158 -0.000230 0.026413 -0.003438
# 6 0.000363 0.000521 0.001589 0.002083 -0.003438 0.026288
#
#
# Mechanical properties :
#
#
# Convention : Reuss Voigt Hill
#
# Bulk Modulus (GPa) = 45.64416 58.10828 51.87622
# Shear Modulus (GPa) = 33.49009 39.86554 36.67781
#
# Velocity S-wave (km/s) = 3.73217 4.07194 3.90575
# Velocity P-wave (km/s) = 6.12831 6.80263 6.47426
#
# Compressibility (1/GPa) = 0.02190861
#
# Stress axis : x y z
#
# Youngs Moduli (GPa) = 84.70688 46.32087 80.30904
#
# Poissons Ratio (x) = 0.15932 0.19377
# Poissons Ratio (y) = 0.29135 0.49119
# Poissons Ratio (z) = 0.20438 0.28331
#
# Static dielectric constant tensor:
#      x y z
#    x 1.986530 -0.049510 0.067810 
#    y -0.049510 1.960510 -0.030220 
#    z 0.067810 -0.030220 2.029400 
# 
# From -- ./inp_files/181496.got.cif
#   From: 2010.05.17/outbox.cif.g08.bks.cpg/sg2_91_cif.got.tgz:181496.got - 2010.06.03 11:33:40.
