data_PCOD9037965
_publ_section_title
;
Structure prediction by ZEFSAII (Michael W. Deem and Ramdas Pophale) SiO2 
 PCOD9037965
Probable space group: P -1
;
_chemical_formula_sum "Si O2"
_cell_formula_units_Z 14
_cell_length_a 15.541064
_cell_length_b 22.481674
_cell_length_c 8.340719
_cell_angle_alpha 144.697814
_cell_angle_beta 37.822520
_cell_angle_gamma 157.908608
_cell_volume 625.682684
_symmetry_space_group_name_H-M "P -1"
_symmetry_group_IT_number 2
_symmetry_cell_setting 'triclinic'
loop_
_space_group_symop_operation_xyz
x,y,z
-x,-y,-z
loop_
_atom_site_type_symbol
_atom_site_label
_atom_site_fract_x
_atom_site_fract_y
_atom_site_fract_z
Si Si1 0.460863 0.606967 0.668397
Si Si2 0.060588 0.635184 0.104483
Si Si3 0.546189 0.147188 0.242891
Si Si4 0.871309 0.126334 0.305333
Si Si5 0.654261 0.834903 0.187276
Si Si6 0.240188 0.076000 0.282337
Si Si7 0.615450 0.603931 0.896949
O O1 0.555011 0.727826 0.643673
O O2 0.510029 0.519833 0.344725
O O3 0.190239 0.465336 0.794395
O O4 0.599946 0.736945 0.895149
O O5 0.206069 0.807841 0.368607
O O6 0.218882 0.698434 0.860509
O O7 0.000000 0.500000 0.000000
O O8 0.542472 0.202573 0.540826
O O9 0.329401 0.067350 0.286853
O O10 0.500000 0.000000 0.000000
O O11 0.134910 0.301641 0.260362
O O12 0.850979 0.029758 0.266821
O O13 0.776532 0.016072 0.042620
O O14 0.666791 0.753910 0.125655
O O15 0.000000 0.000000 0.500000
O O16 0.500000 0.500000 0.000000
#
# Coordination Sequence:
#
# PCOD9037965 Si02
#       7
#     2   2   2   2   2   2   2
#     4  10  23  42  66  97 130 173 223 271 335 392
#     4  11  23  44  68  92 133 175 219 275 334 395
#     4  12  25  44  67 100 135 174 227 274 330 402
#     4  10  23  41  65  93 126 178 219 269 333 396
#     4  11  23  41  65  92 134 175 218 274 329 401
#     4  11  23  44  70  98 131 174 227 274 327 401
#     4  11  22  40  65  98 132 170 222 276 335 386
#
# _framework density 22.375558999999999
#
# number of rings (size 3 to 8) (size 9 to 14) (size 15 to 20)
#    0.000    1.143    2.857    3.429    2.000    3.429 
#    5.143    0.000    0.000    0.000    0.000    0.000 
#    0.000    0.000    0.000    0.000    0.000    0.000 
#
# Total GULP energy -78070.099286 kJ/mol
# GULP energy per Si atom -5576.435663 kJ/mol
# Density = 2.232463 g / cm^3
# Si number density = 22.375559 Si / 1000 Ang^3
#
#
#
# Elastic Constant Matrix: (Units=GPa)
#
#
# Indices 1 2 3 4 5 6 
#
# 1 58.8610 17.6652 15.4412 1.0038 -9.0879 -20.7742
# 2 17.6652 116.8583 28.9638 -23.6931 2.8262 -23.9436
# 3 15.4412 28.9638 111.8975 4.0113 8.7517 -14.5762
# 4 1.0038 -23.6931 4.0113 47.0474 -0.7082 0.1441
# 5 -9.0879 2.8262 8.7517 -0.7082 29.6941 -1.4301
# 6 -20.7742 -23.9436 -14.5762 0.1441 -1.4301 36.2734
#
#
#
# Elastic Compliance Matrix: (Units=1/GPa)
#
#
# Indices 1 2 3 4 5 6 
#
# 1 0.023469 -0.000838 -0.002043 -0.000660 0.008446 0.012402
# 2 -0.000838 0.011810 -0.002315 0.006140 -0.000246 0.006351
# 3 -0.002043 -0.002315 0.010333 -0.002059 -0.003436 0.001327
# 4 -0.000660 0.006140 -0.002059 0.024536 0.000539 0.002771
# 5 0.008446 -0.000246 -0.003436 0.000539 0.037540 0.004772
# 6 0.012402 0.006351 0.001327 0.002771 0.004772 0.039574
#
#
# Mechanical properties :
#
#
# Convention : Reuss Voigt Hill
#
# Bulk Modulus (GPa) = 28.39263 45.75081 37.07172
# Shear Modulus (GPa) = 29.51673 37.63941 33.57807
#
# Velocity S-wave (km/s) = 3.63595 4.10587 3.87804
# Velocity P-wave (km/s) = 5.50850 6.55505 6.05443
#
# Compressibility (1/GPa) = 0.03522040
#
# Stress axis : x y z
#
# Youngs Moduli (GPa) = 42.60887 84.67487 96.77531
#
# Poissons Ratio (x) = 0.07098 0.19771
# Poissons Ratio (y) = 0.03572 0.22401
# Poissons Ratio (z) = 0.08705 0.19600
#
# Static dielectric constant tensor:
#      x y z
#    x 1.889190 0.001420 0.026150 
#    y 0.001420 1.821360 0.057030 
#    z 0.026150 0.057030 1.980230 
# 
# From -- ./inp_files/183021.got.cif
#   From: 2010.05.17/outbox.cif.g08.bks.cpg/sg2_92_cif.got.tgz:183021.got - 2010.06.03 11:33:40.
