data_PCOD9037512
_publ_section_title
;
Structure prediction by ZEFSAII (Michael W. Deem and Ramdas Pophale) SiO2 
 PCOD9037512
Probable space group: P -1
;
_chemical_formula_sum "Si O2"
_cell_formula_units_Z 16
_cell_length_a 16.204752
_cell_length_b 12.675057
_cell_length_c 15.774489
_cell_angle_alpha 56.852277
_cell_angle_beta 153.437639
_cell_angle_gamma 142.294953
_cell_volume 716.622305
_symmetry_space_group_name_H-M "P -1"
_symmetry_group_IT_number 2
_symmetry_cell_setting 'triclinic'
loop_
_space_group_symop_operation_xyz
x,y,z
-x,-y,-z
loop_
_atom_site_type_symbol
_atom_site_label
_atom_site_fract_x
_atom_site_fract_y
_atom_site_fract_z
Si Si1 0.741468 0.973383 0.133183
Si Si2 0.927707 0.944507 0.764031
Si Si3 0.217616 0.361942 0.135808
Si Si4 0.181461 0.538937 0.883264
Si Si5 0.864069 0.634008 0.555084
Si Si6 0.158990 0.334314 0.800368
Si Si7 0.256269 0.901304 0.640909
Si Si8 0.358203 0.653001 0.261190
O O1 0.544671 0.784762 0.104143
O O2 0.484174 0.915885 0.873714
O O3 0.915569 0.989745 0.213646
O O4 0.970538 0.195769 0.293078
O O5 0.998347 0.863713 0.922897
O O6 0.556118 0.749286 0.487536
O O7 0.055234 0.144696 0.829889
O O8 0.497149 0.446422 0.307616
O O9 0.355661 0.517560 0.272639
O O10 0.095662 0.399944 0.942678
O O11 0.146861 0.441122 0.808114
O O12 0.979377 0.553918 0.697024
O O13 0.990655 0.764516 0.527571
O O14 0.910208 0.218934 0.547657
O O15 0.500000 0.500000 0.000000
O O16 0.457759 0.138819 0.713505
O O17 0.000000 0.500000 0.000000
#
# Coordination Sequence:
#
# PCOD9037512 Si02
#       8
#     2   2   2   2   2   2   2   2
#     4  11  21  43  67 103 136 169 228 278 336 403
#     4  11  25  42  68 102 133 179 226 275 332 410
#     4  12  25  40  68 100 142 175 218 277 350 395
#     4  11  25  43  68  96 136 182 223 281 330 394
#     4  11  24  41  68 107 139 170 223 279 345 405
#     4  11  23  47  69  94 132 178 240 275 325 394
#     4  10  23  40  68 104 129 180 227 278 331 400
#     4  11  23  40  71  98 140 179 219 275 349 403
#
# _framework density 22.326962999999999
#
# number of rings (size 3 to 8) (size 9 to 14) (size 15 to 20)
#    0.000    1.000    2.500    4.875    5.250    3.500 
#    2.250    0.625    0.000    0.000    0.000    0.000 
#    0.000    0.000    0.000    0.000    0.000    0.000 
#
# Total GULP energy -89540.170355 kJ/mol
# GULP energy per Si atom -5596.260647 kJ/mol
# Density = 2.227615 g / cm^3
# Si number density = 22.326963 Si / 1000 Ang^3
#
#
#
# Elastic Constant Matrix: (Units=GPa)
#
#
# Indices 1 2 3 4 5 6 
#
# 1 63.0476 23.1072 -6.3117 2.5183 11.8155 -14.8984
# 2 23.1072 106.7108 10.4631 -13.9774 -4.9759 1.0832
# 3 -6.3117 10.4631 17.6832 -7.7916 3.8704 -0.9387
# 4 2.5183 -13.9774 -7.7916 24.9306 -2.4697 -6.0166
# 5 11.8155 -4.9759 3.8704 -2.4697 31.2692 -3.7423
# 6 -14.8984 1.0832 -0.9387 -6.0166 -3.7423 44.0660
#
#
#
# Elastic Compliance Matrix: (Units=1/GPa)
#
#
# Indices 1 2 3 4 5 6 
#
# 1 0.024117 -0.007491 0.015445 -0.001118 -0.011402 0.007546
# 2 -0.007491 0.012917 -0.009483 0.005218 0.006256 -0.001809
# 3 0.015445 -0.009483 0.079517 0.018553 -0.014713 0.008432
# 4 -0.001118 0.005218 0.018553 0.051064 0.003850 0.007188
# 5 -0.011402 0.006256 -0.014713 0.003850 0.039355 -0.000454
# 6 0.007546 -0.001809 0.008432 0.007188 -0.000454 0.026411
#
#
# Mechanical properties :
#
#
# Convention : Reuss Voigt Hill
#
# Bulk Modulus (GPa) = 8.81117 26.88430 17.84773
# Shear Modulus (GPa) = 18.23013 30.73204 24.48108
#
# Velocity S-wave (km/s) = 2.86056 3.71408 3.31491
# Velocity P-wave (km/s) = 3.85557 5.51905 4.76053
#
# Compressibility (1/GPa) = 0.11349233
#
# Stress axis : x y z
#
# Youngs Moduli (GPa) = 41.46370 77.41955 12.57593
#
# Poissons Ratio (x) = 0.57998 -0.19423
# Poissons Ratio (y) = 0.31062 0.11925
# Poissons Ratio (z) = -0.64039 0.73414
#
# Static dielectric constant tensor:
#      x y z
#    x 1.814700 0.041120 0.006460 
#    y 0.041120 1.853340 -0.009660 
#    z 0.006460 -0.009660 1.823940 
# 
# From -- ./inp_files/532505.got.cif
#   From: 2010.05.17/outbox.cif.g08.bks.cpg/sg2_267_cif.got.tgz:532505.got - 2010.06.03 11:33:40.
