data_PCOD9037240
_publ_section_title
;
Structure prediction by ZEFSAII (Michael W. Deem and Ramdas Pophale) SiO2 
 PCOD9037240
Probable space group: P -1
;
_chemical_formula_sum "Si O2"
_cell_formula_units_Z 14
_cell_length_a 21.056482
_cell_length_b 7.303263
_cell_length_c 12.817899
_cell_angle_alpha 87.269136
_cell_angle_beta 159.114820
_cell_angle_gamma 102.504250
_cell_volume 614.600139
_symmetry_space_group_name_H-M "P -1"
_symmetry_group_IT_number 2
_symmetry_cell_setting 'triclinic'
loop_
_space_group_symop_operation_xyz
x,y,z
-x,-y,-z
loop_
_atom_site_type_symbol
_atom_site_label
_atom_site_fract_x
_atom_site_fract_y
_atom_site_fract_z
Si Si1 0.319781 0.892046 0.887172
Si Si2 0.212414 0.219031 0.629009
Si Si3 0.544119 0.652176 0.202746
Si Si4 0.818400 0.884546 0.804621
Si Si5 0.834163 0.263249 0.127425
Si Si6 0.285554 0.479396 0.207481
Si Si7 0.415691 0.882915 0.527169
O O1 0.176218 0.739390 0.762617
O O2 0.211938 0.004441 0.661091
O O3 0.411426 0.767783 0.967545
O O4 0.510566 0.073297 0.240333
O O5 0.270424 0.271334 0.595538
O O6 0.016048 0.231594 0.364439
O O7 0.398930 0.407789 0.971833
O O8 0.626240 0.722346 0.443330
O O9 0.848421 0.748572 0.942875
O O10 0.754197 0.046770 0.748115
O O11 0.000000 0.000000 0.000000
O O12 0.818674 0.453989 0.045484
O O13 0.621609 0.053021 0.781904
O O14 0.500000 0.500000 0.500000
O O15 0.337346 0.652907 0.371808
#
# Coordination Sequence:
#
# PCOD9037240 Si02
#       7
#     2   2   2   2   2   2   2
#     4   9  20  42  63  88 127 167 208 265 320 374
#     4  11  22  41  65  93 132 166 215 269 318 389
#     4  10  23  43  62  94 127 171 219 258 326 394
#     4  11  25  44  67  96 130 174 219 269 328 392
#     4  10  23  40  64 100 126 168 217 265 329 389
#     4  12  22  42  67  93 133 174 211 277 327 378
#     4   9  22  41  64  95 131 161 222 265 323 389
#
# _framework density 22.779036999999999
#
# number of rings (size 3 to 8) (size 9 to 14) (size 15 to 20)
#    0.857    0.857    1.429    2.143    2.000    1.143 
#   15.429    0.000    0.000    0.000    0.000    0.000 
#    0.000    0.000    0.000    0.000    0.000    0.000 
#
# Total GULP energy -78283.721863 kJ/mol
# GULP energy per Si atom -5591.694419 kJ/mol
# Density = 2.272719 g / cm^3
# Si number density = 22.779037 Si / 1000 Ang^3
#
#
#
# Elastic Constant Matrix: (Units=GPa)
#
#
# Indices 1 2 3 4 5 6 
#
# 1 57.3559 21.8488 26.3188 -5.3905 31.6107 -14.6698
# 2 21.8488 145.3031 33.3670 -14.6287 22.1557 4.3264
# 3 26.3188 33.3670 56.8380 -6.7471 15.1559 7.9282
# 4 -5.3905 -14.6287 -6.7471 24.2624 -11.1815 -5.1381
# 5 31.6107 22.1557 15.1559 -11.1815 53.7080 1.3783
# 6 -14.6698 4.3264 7.9282 -5.1381 1.3783 39.1860
#
#
#
# Elastic Compliance Matrix: (Units=1/GPa)
#
#
# Indices 1 2 3 4 5 6 
#
# 1 0.040820 0.000035 -0.016327 -0.000626 -0.020055 0.019204
# 2 0.000035 0.008402 -0.004184 0.003241 -0.001642 0.000415
# 3 -0.016327 -0.004184 0.028294 0.001095 0.003871 -0.011368
# 4 -0.000626 0.003241 0.001095 0.048441 0.008673 0.005233
# 5 -0.020055 -0.001642 0.003871 0.008673 0.032021 -0.008099
# 6 0.019204 0.000415 -0.011368 0.005233 -0.008099 0.035934
#
#
# Mechanical properties :
#
#
# Convention : Reuss Voigt Hill
#
# Bulk Modulus (GPa) = 27.35029 46.95181 37.15105
# Shear Modulus (GPa) = 20.23861 35.29543 27.76702
#
# Velocity S-wave (km/s) = 2.98396 3.94060 3.49517
# Velocity P-wave (km/s) = 4.88926 6.43126 5.71253
#
# Compressibility (1/GPa) = 0.03656268
#
# Stress axis : x y z
#
# Youngs Moduli (GPa) = 24.49777 119.01921 35.34361
#
# Poissons Ratio (x) = -0.00411 0.57706
# Poissons Ratio (y) = -0.00085 0.14787
# Poissons Ratio (z) = 0.39998 0.49795
#
# Static dielectric constant tensor:
#      x y z
#    x 1.847910 0.042920 -0.049830 
#    y 0.042920 1.817160 0.000590 
#    z -0.049830 0.000590 1.889090 
# 
# From -- ./inp_files/542190.got.cif
#   From: 2010.05.17/outbox.cif.g08.bks.cpg/sg2_272_cif.got.tgz:542190.got - 2010.06.03 11:33:40.
