data_PCOD9037445
_publ_section_title
;
Structure prediction by ZEFSAII (Michael W. Deem and Ramdas Pophale) SiO2 
 PCOD9037445
Probable space group: P -1
;
_chemical_formula_sum "Si O2"
_cell_formula_units_Z 14
_cell_length_a 11.390099
_cell_length_b 11.365921
_cell_length_c 7.802936
_cell_angle_alpha 139.914896
_cell_angle_beta 125.236557
_cell_angle_gamma 59.163436
_cell_volume 526.399729
_symmetry_space_group_name_H-M "P -1"
_symmetry_group_IT_number 2
_symmetry_cell_setting 'triclinic'
loop_
_space_group_symop_operation_xyz
x,y,z
-x,-y,-z
loop_
_atom_site_type_symbol
_atom_site_label
_atom_site_fract_x
_atom_site_fract_y
_atom_site_fract_z
Si Si1 0.147580 0.948464 0.343826
Si Si2 0.432770 0.065243 0.833113
Si Si3 0.725489 0.881937 0.834474
Si Si4 0.895431 0.192558 0.500858
Si Si5 0.342829 0.485147 0.442121
Si Si6 0.335210 0.694601 0.029446
Si Si7 0.665734 0.673705 0.241407
O O1 0.074863 0.836841 0.304215
O O2 0.309026 0.941640 0.551015
O O3 0.195682 0.851943 0.098339
O O4 0.051315 0.147568 0.488843
O O5 0.355670 0.251533 0.886481
O O6 0.582675 0.017953 0.804907
O O7 0.500000 0.000000 0.000000
O O8 0.690978 0.720584 0.761083
O O9 0.765271 0.769157 0.566091
O O10 0.816400 0.024853 0.164774
O O11 0.793615 0.385713 0.611496
O O12 0.500000 0.500000 0.500000
O O13 0.347861 0.588794 0.743229
O O14 0.294633 0.543316 0.962484
O O15 0.502378 0.716530 0.231860
#
# Coordination Sequence:
#
# PCOD9037445 Si02
#       7
#     2   2   2   2   2   2   2
#     4  11  25  46  66 103 146 187 233 289 367 420
#     4  12  23  40  70 102 136 181 239 292 347 422
#     4  11  23  44  69 105 138 184 242 287 358 420
#     4  11  26  47  69 101 151 189 229 297 355 431
#     4  11  26  43  73 108 139 186 244 298 352 420
#     4  10  23  43  68 104 144 180 233 301 356 418
#     4  10  23  40  67 108 137 176 239 300 353 413
#
# _framework density 26.595756999999999
#
# number of rings (size 3 to 8) (size 9 to 14) (size 15 to 20)
#    0.000    1.143    2.857    2.143    8.000    0.571 
#    2.571    3.571    0.000    0.000    0.000    0.000 
#    0.000    0.000    0.000    0.000    0.000    0.000 
#
# Total GULP energy -78024.280691 kJ/mol
# GULP energy per Si atom -5573.162906 kJ/mol
# Density = 2.653522 g / cm^3
# Si number density = 26.595757 Si / 1000 Ang^3
#
#
#
# Elastic Constant Matrix: (Units=GPa)
#
#
# Indices 1 2 3 4 5 6 
#
# 1 140.6237 43.9345 3.8063 7.4652 -22.9545 -21.5199
# 2 43.9345 159.0814 16.1494 16.0638 -7.3977 -8.7703
# 3 3.8063 16.1494 64.8147 11.7901 1.8195 -0.6894
# 4 7.4652 16.0638 11.7901 39.6495 0.7754 -2.9999
# 5 -22.9545 -7.3977 1.8195 0.7754 32.8224 -2.1657
# 6 -21.5199 -8.7703 -0.6894 -2.9999 -2.1657 61.6258
#
#
#
# Elastic Compliance Matrix: (Units=1/GPa)
#
#
# Indices 1 2 3 4 5 6 
#
# 1 0.009288 -0.002015 -0.000039 -0.000806 0.006270 0.003137
# 2 -0.002015 0.007220 -0.001297 -0.002151 0.000355 0.000217
# 3 -0.000039 -0.001297 0.016583 -0.004396 -0.001153 -0.000267
# 4 -0.000806 -0.002151 -0.004396 0.027629 -0.001414 0.000659
# 5 0.006270 0.000355 -0.001153 -0.001414 0.035253 0.003397
# 6 0.003137 0.000217 -0.000267 0.000659 0.003397 0.017502
#
#
# Mechanical properties :
#
#
# Convention : Reuss Voigt Hill
#
# Bulk Modulus (GPa) = 37.89608 54.70004 46.29806
# Shear Modulus (GPa) = 38.76732 46.86151 42.81441
#
# Velocity S-wave (km/s) = 3.82206 4.20216 4.01661
# Velocity P-wave (km/s) = 5.81011 6.64500 6.24153
#
# Compressibility (1/GPa) = 0.02638795
#
# Stress axis : x y z
#
# Youngs Moduli (GPa) = 107.66351 138.50478 60.30179
#
# Poissons Ratio (x) = 0.27913 0.00237
# Poissons Ratio (y) = 0.21697 0.07822
# Poissons Ratio (z) = 0.00424 0.17965
#
# Static dielectric constant tensor:
#      x y z
#    x 2.335200 0.064210 -0.024930 
#    y 0.064210 2.104850 0.063690 
#    z -0.024930 0.063690 2.259850 
# 
# From -- ./inp_files/263815.got.cif
#   From: 2010.05.17/outbox.cif.g08.bks.cpg/sg2_132_cif.got.tgz:263815.got - 2010.06.03 11:33:40.
