data_PCOD9037696
_publ_section_title
;
Structure prediction by ZEFSAII (Michael W. Deem and Ramdas Pophale) SiO2 
 PCOD9037696
Probable space group: P -1
;
_chemical_formula_sum "Si O2"
_cell_formula_units_Z 16
_cell_length_a 8.338892
_cell_length_b 11.398803
_cell_length_c 14.968701
_cell_angle_alpha 147.246288
_cell_angle_beta 80.256688
_cell_angle_gamma 85.543538
_cell_volume 691.084009
_symmetry_space_group_name_H-M "P -1"
_symmetry_group_IT_number 2
_symmetry_cell_setting 'triclinic'
loop_
_space_group_symop_operation_xyz
x,y,z
-x,-y,-z
loop_
_atom_site_type_symbol
_atom_site_label
_atom_site_fract_x
_atom_site_fract_y
_atom_site_fract_z
Si Si1 0.712094 0.325995 0.059382
Si Si2 0.913805 0.424583 0.374132
Si Si3 0.441518 0.821615 0.336804
Si Si4 0.648539 0.170810 0.281156
Si Si5 0.558331 0.523212 0.657022
Si Si6 0.930449 0.684837 0.899504
Si Si7 0.232838 0.047161 0.329678
Si Si8 0.866894 0.262362 0.586786
O O1 0.599638 0.558781 0.159949
O O2 0.597096 0.370935 0.188895
O O3 0.905943 0.303725 0.054358
O O4 0.728300 0.093167 0.856174
O O5 0.796810 0.279598 0.318563
O O6 0.797390 0.680949 0.505310
O O7 0.000000 0.500000 0.500000
O O8 0.039635 0.283113 0.188802
O O9 0.265888 0.821152 0.402341
O O10 0.500000 0.000000 0.500000
O O11 0.383258 0.910723 0.299786
O O12 0.574803 0.277510 0.452747
O O13 0.494066 0.288749 0.297960
O O14 0.747182 0.891509 0.082100
O O15 0.744255 0.446292 0.640849
O O16 0.930609 0.426531 0.746738
O O17 0.041204 0.068171 0.399650
#
# Coordination Sequence:
#
# PCOD9037696 Si02
#       8
#     2   2   2   2   2   2   2   2
#     4  11  23  44  66  98 133 173 225 277 338 389
#     4  11  22  37  65  98 132 176 227 270 320 395
#     4  11  24  46  73  97 132 172 218 283 338 393
#     4  11  22  40  64  94 136 183 229 263 337 387
#     4  10  23  41  58  93 137 172 227 275 323 390
#     4  11  22  41  68  96 133 181 221 271 331 402
#     4  11  24  43  70 100 134 177 227 271 329 402
#     4  10  23  44  65  98 133 171 224 271 338 394
#
# _framework density 23.152032999999999
#
# number of rings (size 3 to 8) (size 9 to 14) (size 15 to 20)
#    0.000    1.250    1.250    5.625    3.500    0.500 
#    9.000    7.500    0.000    0.000    0.000    0.000 
#    0.000    0.000    0.000    0.000    0.000    0.000 
#
# Total GULP energy -89569.210351 kJ/mol
# GULP energy per Si atom -5598.075647 kJ/mol
# Density = 2.309934 g / cm^3
# Si number density = 23.152033 Si / 1000 Ang^3
#
#
#
# Elastic Constant Matrix: (Units=GPa)
#
#
# Indices 1 2 3 4 5 6 
#
# 1 69.0785 20.7091 8.0494 -13.3380 4.0075 -5.9092
# 2 20.7091 53.6745 14.7998 -12.7129 3.6486 -9.2222
# 3 8.0494 14.7998 140.4456 -21.8348 -19.9667 6.0419
# 4 -13.3380 -12.7129 -21.8348 29.0629 -6.8250 2.5099
# 5 4.0075 3.6486 -19.9667 -6.8250 37.3582 6.5960
# 6 -5.9092 -9.2222 6.0419 2.5099 6.5960 39.5871
#
#
#
# Elastic Compliance Matrix: (Units=1/GPa)
#
#
# Indices 1 2 3 4 5 6 
#
# 1 0.017199 -0.005190 0.000379 0.005763 -0.000255 0.000978
# 2 -0.005190 0.023501 -0.001951 0.005356 -0.002705 0.005109
# 3 0.000379 -0.001951 0.009967 0.008963 0.007782 -0.003784
# 4 0.005763 0.005356 0.008963 0.049717 0.013556 -0.004671
# 5 -0.000255 -0.002705 0.007782 0.013556 0.035211 -0.008582
# 6 0.000978 0.005109 -0.003784 -0.004671 -0.008582 0.028900
#
#
# Mechanical properties :
#
#
# Convention : Reuss Voigt Hill
#
# Bulk Modulus (GPa) = 26.92240 38.92390 32.92315
# Shear Modulus (GPa) = 26.26046 35.84432 31.05239
#
# Velocity S-wave (km/s) = 3.37153 3.93900 3.66626
# Velocity P-wave (km/s) = 5.17785 6.12670 5.67215
#
# Compressibility (1/GPa) = 0.03714379
#
# Stress axis : x y z
#
# Youngs Moduli (GPa) = 58.14179 42.55054 100.33490
#
# Poissons Ratio (x) = 0.22084 -0.03801
# Poissons Ratio (y) = 0.30176 0.19571
# Poissons Ratio (z) = -0.02203 0.08300
#
# Static dielectric constant tensor:
#      x y z
#    x 1.903840 0.019360 -0.008440 
#    y 0.019360 1.891360 -0.004960 
#    z -0.008440 -0.004960 1.833720 
# 
# From -- ./inp_files/501187.got.cif
#   From: 2010.05.17/outbox.cif.g08.bks.cpg/sg2_251_cif.got.tgz:501187.got - 2010.06.03 11:33:40.
