data_PCOD9037980
_publ_section_title
;
Structure prediction by ZEFSAII (Michael W. Deem and Ramdas Pophale) SiO2 
 PCOD9037980
Probable space group: P -1
;
_chemical_formula_sum "Si O2"
_cell_formula_units_Z 16
_cell_length_a 8.382518
_cell_length_b 20.610605
_cell_length_c 12.451421
_cell_angle_alpha 39.168382
_cell_angle_beta 70.476926
_cell_angle_gamma 37.953178
_cell_volume 585.518771
_symmetry_space_group_name_H-M "P -1"
_symmetry_group_IT_number 2
_symmetry_cell_setting 'triclinic'
loop_
_space_group_symop_operation_xyz
x,y,z
-x,-y,-z
loop_
_atom_site_type_symbol
_atom_site_label
_atom_site_fract_x
_atom_site_fract_y
_atom_site_fract_z
Si Si1 0.217098 0.013012 0.444792
Si Si2 0.795885 0.057625 0.835795
Si Si3 0.596877 0.020351 0.336208
Si Si4 0.477895 0.930855 0.940691
Si Si5 0.109521 0.460460 0.147498
Si Si6 0.899139 0.239627 0.006789
Si Si7 0.551675 0.557888 0.504275
Si Si8 0.969945 0.555962 0.590700
O O1 0.154821 0.055545 0.532727
O O2 0.440249 0.790978 0.639724
O O3 0.532533 0.933758 0.476576
O O4 0.918653 0.203626 0.175479
O O5 0.745646 0.982938 0.015989
O O6 0.741501 0.189984 0.746928
O O7 0.440093 0.257676 0.582268
O O8 0.119790 0.853503 0.942295
O O9 0.746213 0.951355 0.271131
O O10 0.167594 0.294907 0.078195
O O11 0.766964 0.681587 0.186906
O O12 0.708923 0.911620 0.908299
O O13 0.005602 0.438344 0.295329
O O14 0.000000 0.500000 0.000000
O O15 0.615863 0.470375 0.717680
O O16 0.500000 0.500000 0.500000
O O17 0.911422 0.421059 0.548060
#
# Coordination Sequence:
#
# PCOD9037980 Si02
#       8
#     2   2   2   2   2   2   2   2
#     4   9  16  26  41  70 100 127 156 195 246 301
#     4  11  19  32  54  77  97 123 172 213 255 301
#     4   8  16  25  39  64 108 128 146 187 252 298
#     4   9  16  28  47  76 102 128 154 205 258 298
#     4   9  16  27  45  74 105 122 150 207 262 289
#     4  11  19  29  53  73 101 134 163 208 257 294
#     4  11  24  37  47  70 107 142 170 202 247 302
#     4  10  17  33  53  76 102 129 167 209 250 303
#
# _framework density 27.326195999999999
#
# number of rings (size 3 to 8) (size 9 to 14) (size 15 to 20)
#    0.000    2.250    3.750    1.125    0.000    0.500 
#    0.000    0.000    0.000    0.000    0.000   14.875 
#    0.000    0.000    0.000    0.375    0.000    0.000 
#
# Total GULP energy -89279.977678 kJ/mol
# GULP energy per Si atom -5579.998605 kJ/mol
# Density = 2.726400 g / cm^3
# Si number density = 27.326196 Si / 1000 Ang^3
#
#
#
# Elastic Constant Matrix: (Units=GPa)
#
#
# Indices 1 2 3 4 5 6 
#
# 1 69.2775 31.6505 17.2618 2.5729 -12.0694 16.9917
# 2 31.6505 98.8798 46.5374 31.3245 -3.0691 35.3872
# 3 17.2618 46.5374 179.9990 21.5686 -8.6179 11.5390
# 4 2.5729 31.3245 21.5686 62.2939 6.2147 -1.8890
# 5 -12.0694 -3.0691 -8.6179 6.2147 31.8847 -4.7468
# 6 16.9917 35.3872 11.5390 -1.8890 -4.7468 34.7674
#
#
#
# Elastic Compliance Matrix: (Units=1/GPa)
#
#
# Indices 1 2 3 4 5 6 
#
# 1 0.018437 -0.004841 -0.000162 0.001055 0.005790 -0.003182
# 2 -0.004841 0.025102 -0.003198 -0.011873 -0.001384 -0.022956
# 3 -0.000162 -0.003198 0.006484 -0.000762 0.001737 0.001377
# 4 0.001055 -0.011873 -0.000762 0.022980 -0.003555 0.012586
# 5 0.005790 -0.001384 0.001737 -0.003555 0.034968 0.002584
# 6 -0.003182 -0.022956 0.001377 0.012586 0.002584 0.054262
#
#
# Mechanical properties :
#
#
# Convention : Reuss Voigt Hill
#
# Bulk Modulus (GPa) = 29.74256 59.89507 44.81881
# Shear Modulus (GPa) = 26.33780 42.63630 34.48705
#
# Velocity S-wave (km/s) = 3.10793 3.95431 3.55639
# Velocity P-wave (km/s) = 4.87718 6.54331 5.77069
#
# Compressibility (1/GPa) = 0.03362186
#
# Stress axis : x y z
#
# Youngs Moduli (GPa) = 54.23994 39.83766 154.22662
#
# Poissons Ratio (x) = 0.19286 0.02493
# Poissons Ratio (y) = 0.26258 0.49314
# Poissons Ratio (z) = 0.00877 0.12738
#
# Static dielectric constant tensor:
#      x y z
#    x 2.207070 0.005150 0.035870 
#    y 0.005150 2.200720 0.010790 
#    z 0.035870 0.010790 2.144570 
# 
# From -- ./inp_files/224804.got.cif
#   From: 2010.05.17/outbox.cif.g08.bks.cpg/sg2_113_cif.got.tgz:224804.got - 2010.06.03 11:33:40.
