data_PCOD9037545
_publ_section_title
;
Structure prediction by ZEFSAII (Michael W. Deem and Ramdas Pophale) SiO2 
 PCOD9037545
Probable space group: P -1
;
_chemical_formula_sum "Si O2"
_cell_formula_units_Z 16
_cell_length_a 5.084174
_cell_length_b 9.645921
_cell_length_c 16.953289
_cell_angle_alpha 56.972051
_cell_angle_beta 107.745800
_cell_angle_gamma 95.878816
_cell_volume 661.779123
_symmetry_space_group_name_H-M "P -1"
_symmetry_group_IT_number 2
_symmetry_cell_setting 'triclinic'
loop_
_space_group_symop_operation_xyz
x,y,z
-x,-y,-z
loop_
_atom_site_type_symbol
_atom_site_label
_atom_site_fract_x
_atom_site_fract_y
_atom_site_fract_z
Si Si1 0.746819 0.935223 0.947041
Si Si2 0.534814 0.160815 0.268999
Si Si3 0.828764 0.462081 0.685517
Si Si4 0.681564 0.325968 0.380836
Si Si5 0.012209 0.008922 0.746251
Si Si6 0.155406 0.658902 0.439069
Si Si7 0.731136 0.840007 0.141647
Si Si8 0.714163 0.608106 0.942459
O O1 0.616391 0.847468 0.040095
O O2 0.753881 0.783085 0.934901
O O3 0.549447 0.099592 0.854440
O O4 0.000000 0.000000 0.000000
O O5 0.630366 0.181051 0.360624
O O6 0.784764 0.118889 0.243785
O O7 0.392689 0.336111 0.170909
O O8 0.302036 0.031749 0.281614
O O9 0.022744 0.608657 0.634975
O O10 0.060475 0.323704 0.781513
O O11 0.571862 0.530382 0.693713
O O12 0.698614 0.393608 0.613877
O O13 0.685341 0.284973 0.486948
O O14 0.081694 0.024823 0.840486
O O15 0.050723 0.186917 0.655512
O O16 0.000000 0.500000 0.500000
O O17 0.500000 0.500000 0.000000
O O18 0.000000 0.500000 0.000000
#
# Coordination Sequence:
#
# PCOD9037545 Si02
#       8
#     2   2   2   2   2   2   2   2
#     4  11  25  43  71  98 135 176 242 293 340 423
#     4  12  26  44  67  98 139 181 236 271 349 421
#     4  10  23  40  68  96 131 176 221 284 341 395
#     4  11  24  41  65  99 137 173 228 275 334 420
#     4  11  24  45  69  99 136 182 223 290 342 413
#     4   9  22  44  70 101 138 174 224 285 351 401
#     4  10  24  40  67  95 129 170 234 283 344 395
#     4  12  29  47  71  99 148 190 230 294 362 418
#
# _framework density 24.177247999999999
#
# number of rings (size 3 to 8) (size 9 to 14) (size 15 to 20)
#    0.000    1.250    1.250    2.625    8.750    8.000 
#    0.000    0.000    0.000    0.000    0.000    0.000 
#    0.000    0.000    0.000    0.000    0.000    0.000 
#
# Total GULP energy -89283.174817 kJ/mol
# GULP energy per Si atom -5580.198426 kJ/mol
# Density = 2.412222 g / cm^3
# Si number density = 24.177248 Si / 1000 Ang^3
#
#
#
# Elastic Constant Matrix: (Units=GPa)
#
#
# Indices 1 2 3 4 5 6 
#
# 1 82.3719 18.8236 -12.9844 1.1339 14.1684 11.0173
# 2 18.8236 87.0937 33.8007 33.9114 -1.2366 -2.2689
# 3 -12.9844 33.8007 90.2908 8.5866 1.9898 1.0759
# 4 1.1339 33.9114 8.5866 51.2111 0.4132 -4.3921
# 5 14.1684 -1.2366 1.9898 0.4132 25.5485 -2.1245
# 6 11.0173 -2.2689 1.0759 -4.3921 -2.1245 41.5058
#
#
#
# Elastic Compliance Matrix: (Units=1/GPa)
#
#
# Indices 1 2 3 4 5 6 
#
# 1 0.017117 -0.007231 0.005166 0.003177 -0.010736 -0.005286
# 2 -0.007231 0.021052 -0.007911 -0.012307 0.006034 0.002282
# 3 0.005166 -0.007911 0.014667 0.002517 -0.004610 -0.002154
# 4 0.003177 -0.012307 0.002517 0.027307 -0.002899 0.001160
# 5 -0.010736 0.006034 -0.004610 -0.002899 0.046239 0.005359
# 6 -0.005286 0.002282 -0.002154 0.001160 0.005359 0.026074
#
#
# Mechanical properties :
#
#
# Convention : Reuss Voigt Hill
#
# Bulk Modulus (GPa) = 30.40959 37.67070 34.04015
# Shear Modulus (GPa) = 27.26743 38.32750 32.79746
#
# Velocity S-wave (km/s) = 3.36194 3.98587 3.68712
# Velocity P-wave (km/s) = 5.26073 6.06611 5.67772
#
# Compressibility (1/GPa) = 0.03288436
#
# Stress axis : x y z
#
# Youngs Moduli (GPa) = 58.42194 47.50169 68.17805
#
# Poissons Ratio (x) = 0.34351 -0.35222
# Poissons Ratio (y) = 0.42248 0.53933
# Poissons Ratio (z) = -0.30181 0.37577
#
# Static dielectric constant tensor:
#      x y z
#    x 2.244760 0.014150 -0.144250 
#    y 0.014150 1.928830 -0.035250 
#    z -0.144250 -0.035250 2.091430 
# 
# From -- ./inp_files/109901.got.cif
#   From: 2010.05.17/outbox.cif.g08.bks.cpg/sg2_55_cif.got.tgz:109901.got - 2010.06.03 11:33:40.
