data_PCOD9037840
_publ_section_title
;
Structure prediction by ZEFSAII (Michael W. Deem and Ramdas Pophale) SiO2 
 PCOD9037840
Probable space group: P -1
;
_chemical_formula_sum "Si O2"
_cell_formula_units_Z 14
_cell_length_a 13.855705
_cell_length_b 6.073363
_cell_length_c 16.993462
_cell_angle_alpha 64.532349
_cell_angle_beta 31.285096
_cell_angle_gamma 56.302657
_cell_volume 614.597187
_symmetry_space_group_name_H-M "P -1"
_symmetry_group_IT_number 2
_symmetry_cell_setting 'triclinic'
loop_
_space_group_symop_operation_xyz
x,y,z
-x,-y,-z
loop_
_atom_site_type_symbol
_atom_site_label
_atom_site_fract_x
_atom_site_fract_y
_atom_site_fract_z
Si Si1 0.277270 0.357592 0.149949
Si Si2 0.544679 0.387234 0.295320
Si Si3 0.531214 0.228442 0.839350
Si Si4 0.164728 0.087538 0.914371
Si Si5 0.127663 0.714246 0.605383
Si Si6 0.913338 0.295008 0.625785
Si Si7 0.866506 0.341869 0.206562
O O1 0.198609 0.597714 0.229388
O O2 0.078189 0.318995 0.265676
O O3 0.417990 0.083433 0.138358
O O4 0.394184 0.375452 0.987187
O O5 0.566976 0.629782 0.194797
O O6 0.316954 0.486006 0.468054
O O7 0.691501 0.312962 0.279697
O O8 0.619732 0.142826 0.219873
O O9 0.742955 0.263459 0.694347
O O10 0.148631 0.361794 0.845037
O O11 0.083408 0.143723 0.051248
O O12 0.000000 0.000000 0.000000
O O13 0.158487 0.702049 0.678847
O O14 0.092925 0.007143 0.554916
O O15 0.000000 0.500000 0.500000
#
# Coordination Sequence:
#
# PCOD9037840 Si02
#       7
#     2   2   2   2   2   2   2
#     4  10  23  41  65  92 132 167 215 269 317 382
#     4  11  23  40  64  96 130 168 213 262 323 380
#     4  10  23  41  63  97 125 170 219 264 316 384
#     4   9  22  40  62  90 123 170 212 260 314 377
#     4  11  25  40  66  98 131 169 212 268 320 381
#     4  11  23  42  66  94 132 170 213 264 326 379
#     4  10  23  42  64  93 131 167 215 263 318 382
#
# _framework density 22.779146000000001
#
# number of rings (size 3 to 8) (size 9 to 14) (size 15 to 20)
#    0.000    1.714    0.000    2.571    8.000    7.429 
#    0.000    0.000    0.000    0.000    0.000    0.000 
#    0.000    0.000    0.000    0.000    0.000    0.000 
#
# Total GULP energy -78359.807457 kJ/mol
# GULP energy per Si atom -5597.129104 kJ/mol
# Density = 2.272730 g / cm^3
# Si number density = 22.779146 Si / 1000 Ang^3
#
#
#
# Elastic Constant Matrix: (Units=GPa)
#
#
# Indices 1 2 3 4 5 6 
#
# 1 61.7950 9.7667 16.4022 7.5152 17.7039 -22.4206
# 2 9.7667 61.2236 48.7693 27.6899 4.4819 -3.9406
# 3 16.4022 48.7693 131.6219 28.8412 16.7021 -12.8957
# 4 7.5152 27.6899 28.8412 46.9785 9.9210 -0.0721
# 5 17.7039 4.4819 16.7021 9.9210 31.0087 -4.1807
# 6 -22.4206 -3.9406 -12.8957 -0.0721 -4.1807 21.3116
#
#
#
# Elastic Compliance Matrix: (Units=1/GPa)
#
#
# Indices 1 2 3 4 5 6 
#
# 1 0.031737 -0.003237 0.002497 -0.001651 -0.014221 0.031506
# 2 -0.003237 0.028625 -0.008439 -0.012434 0.005952 -0.002093
# 3 0.002497 -0.008439 0.012195 -0.001803 -0.005197 0.007420
# 4 -0.001651 -0.012434 -0.001803 0.031505 -0.007237 -0.006440
# 5 -0.014221 0.005952 -0.005197 -0.007237 0.043477 -0.008501
# 6 0.031506 -0.002093 0.007420 -0.006440 -0.008501 0.082482
#
#
# Mechanical properties :
#
#
# Convention : Reuss Voigt Hill
#
# Bulk Modulus (GPa) = 18.44974 44.94630 31.69802
# Shear Modulus (GPa) = 18.76569 31.83992 25.30280
#
# Velocity S-wave (km/s) = 2.87332 3.74273 3.33646
# Velocity P-wave (km/s) = 4.37321 6.20093 5.36547
#
# Compressibility (1/GPa) = 0.05420132
#
# Stress axis : x y z
#
# Youngs Moduli (GPa) = 31.50848 34.93440 82.00260
#
# Poissons Ratio (x) = 0.11307 -0.20480
# Poissons Ratio (y) = 0.10198 0.69200
# Poissons Ratio (z) = -0.07869 0.29480
#
# Static dielectric constant tensor:
#      x y z
#    x 1.831960 0.014810 -0.005110 
#    y 0.014810 1.846920 0.022150 
#    z -0.005110 0.022150 1.840130 
# 
# From -- ./inp_files/28331.got.cif
#   From: 2010.05.17/outbox.cif.g08.bks.cpg/sg2_15_cif.got.tgz:28331.got - 2010.06.03 11:33:40.
