data_PCOD9037760
_publ_section_title
;
Structure prediction by ZEFSAII (Michael W. Deem and Ramdas Pophale) SiO2 
 PCOD9037760
Probable space group: P -1
;
_chemical_formula_sum "Si O2"
_cell_formula_units_Z 14
_cell_length_a 15.520512
_cell_length_b 5.430884
_cell_length_c 17.596920
_cell_angle_alpha 107.586823
_cell_angle_beta 25.620294
_cell_angle_gamma 97.258708
_cell_volume 571.696913
_symmetry_space_group_name_H-M "P -1"
_symmetry_group_IT_number 2
_symmetry_cell_setting 'triclinic'
loop_
_space_group_symop_operation_xyz
x,y,z
-x,-y,-z
loop_
_atom_site_type_symbol
_atom_site_label
_atom_site_fract_x
_atom_site_fract_y
_atom_site_fract_z
Si Si1 0.379118 0.785739 0.286744
Si Si2 0.807652 0.507038 0.707585
Si Si3 0.961023 0.356520 0.228717
Si Si4 0.031978 0.817888 0.297730
Si Si5 0.660781 0.977337 0.987312
Si Si6 0.680317 0.823779 0.183481
Si Si7 0.514222 0.491802 0.397245
O O1 0.353997 0.585437 0.222428
O O2 0.546172 0.724993 0.216998
O O3 0.444985 0.013839 0.206675
O O4 0.147436 0.886925 0.519144
O O5 0.914453 0.300989 0.671906
O O6 0.688340 0.792249 0.872874
O O7 0.000000 0.500000 0.500000
O O8 0.925373 0.666010 0.311670
O O9 0.144737 0.184416 0.125186
O O10 0.730269 0.340076 0.417894
O O11 0.075087 0.280675 0.049628
O O12 0.258046 0.782522 0.078758
O O13 0.650262 0.662089 0.267416
O O14 0.595596 0.160937 0.282392
O O15 0.500000 0.500000 0.500000
#
# Coordination Sequence:
#
# PCOD9037760 Si02
#       7
#     2   2   2   2   2   2   2
#     4  11  22  41  65  95 131 180 233 282 341 408
#     4  11  23  38  57  92 134 180 230 285 341 396
#     4  10  25  43  71 102 142 178 232 288 342 419
#     4  11  22  41  62  91 133 183 224 287 341 396
#     4  10  23  41  62  93 133 179 235 281 340 403
#     4  11  27  46  75 107 139 186 232 283 353 420
#     4  12  27  49  76 108 142 181 227 287 357 426
#
# _framework density 24.488499000000001
#
# number of rings (size 3 to 8) (size 9 to 14) (size 15 to 20)
#    0.000    1.143    2.857    2.143    6.000    1.714 
#    5.143    0.000    0.000    0.000    0.000    0.000 
#    0.000    0.000    0.000    0.000    0.000    0.000 
#
# Total GULP energy -78192.529243 kJ/mol
# GULP energy per Si atom -5585.180660 kJ/mol
# Density = 2.443276 g / cm^3
# Si number density = 24.488499 Si / 1000 Ang^3
#
#
#
# Elastic Constant Matrix: (Units=GPa)
#
#
# Indices 1 2 3 4 5 6 
#
# 1 22.9851 2.6694 8.9283 12.6481 16.8734 -3.6027
# 2 2.6694 45.5836 23.0882 -17.4467 9.1600 -15.4161
# 3 8.9283 23.0882 106.4983 -18.7816 14.4640 -12.9047
# 4 12.6481 -17.4467 -18.7816 48.2781 -4.9249 7.7023
# 5 16.8734 9.1600 14.4640 -4.9249 36.2677 -4.0475
# 6 -3.6027 -15.4161 -12.9047 7.7023 -4.0475 24.5525
#
#
#
# Elastic Compliance Matrix: (Units=1/GPa)
#
#
# Indices 1 2 3 4 5 6 
#
# 1 0.106925 -0.002917 -0.006685 -0.039062 -0.050047 0.014349
# 2 -0.002917 0.032731 -0.003088 0.008662 -0.002792 0.015323
# 3 -0.006685 -0.003088 0.011680 0.004919 0.000088 0.001691
# 4 -0.039062 0.008662 0.004919 0.038980 0.018550 -0.006879
# 5 -0.050047 -0.002792 0.000088 0.018550 0.053368 -0.006072
# 6 0.014349 0.015323 0.001691 -0.006879 -0.006072 0.054501
#
#
# Mechanical properties :
#
#
# Convention : Reuss Voigt Hill
#
# Bulk Modulus (GPa) = 7.93926 27.15989 17.54957
# Shear Modulus (GPa) = 13.67808 31.17841 22.42824
#
# Velocity S-wave (km/s) = 2.36593 3.57204 3.02962
# Velocity P-wave (km/s) = 3.27301 5.30355 4.40682
#
# Compressibility (1/GPa) = 0.12595628
#
# Stress axis : x y z
#
# Youngs Moduli (GPa) = 9.35239 30.55232 85.61684
#
# Poissons Ratio (x) = 0.08912 0.57233
# Poissons Ratio (y) = 0.02728 0.26438
# Poissons Ratio (z) = 0.06252 0.09434
#
# Static dielectric constant tensor:
#      x y z
#    x 2.282520 0.276290 -0.187680 
#    y 0.276290 2.404510 -0.165180 
#    z -0.187680 -0.165180 2.002390 
# 
# From -- ./inp_files/46834.got.cif
#   From: 2010.05.17/outbox.cif.g08.bks.cpg/sg2_24_cif.got.tgz:46834.got - 2010.06.03 11:33:40.
