data_PCOD9037321
_publ_section_title
;
Structure prediction by ZEFSAII (Michael W. Deem and Ramdas Pophale) SiO2 
 PCOD9037321
Probable space group: P -1
;
_chemical_formula_sum "Si O2"
_cell_formula_units_Z 16
_cell_length_a 11.465465
_cell_length_b 22.906628
_cell_length_c 11.578805
_cell_angle_alpha 41.006247
_cell_angle_beta 43.749718
_cell_angle_gamma 22.010235
_cell_volume 744.591521
_symmetry_space_group_name_H-M "P -1"
_symmetry_group_IT_number 2
_symmetry_cell_setting 'triclinic'
loop_
_space_group_symop_operation_xyz
x,y,z
-x,-y,-z
loop_
_atom_site_type_symbol
_atom_site_label
_atom_site_fract_x
_atom_site_fract_y
_atom_site_fract_z
Si Si1 0.583683 0.651008 0.783314
Si Si2 0.333168 0.899407 0.432645
Si Si3 0.953205 0.659266 0.226963
Si Si4 0.683757 0.326121 0.647315
Si Si5 0.931054 0.224307 0.884855
Si Si6 0.207212 0.172727 0.387344
Si Si7 0.056001 0.522127 0.806731
Si Si8 0.652955 0.893406 0.877394
O O1 0.441448 0.807639 0.611800
O O2 0.735247 0.531692 0.745627
O O3 0.883493 0.540303 0.809911
O O4 0.327427 0.709232 0.950527
O O5 0.634240 0.749769 0.356197
O O6 0.305441 0.018247 0.276077
O O7 0.000000 0.000000 0.500000
O O8 0.044543 0.683829 0.230473
O O9 0.850681 0.762553 0.034120
O O10 0.500000 0.500000 0.500000
O O11 0.834524 0.257264 0.770420
O O12 0.424748 0.366598 0.756891
O O13 0.944690 0.214049 0.530764
O O14 0.283861 0.034065 0.941137
O O15 0.250876 0.175202 0.218485
O O16 0.097166 0.311581 0.322853
O O17 0.500000 0.000000 0.500000
O O18 0.000000 0.500000 0.000000
#
# Coordination Sequence:
#
# PCOD9037321 Si02
#       8
#     2   2   2   2   2   2   2   2
#     4  12  24  42  67  95 133 166 212 274 322 378
#     4  11  24  44  64  97 133 166 209 270 329 377
#     4  11  25  42  68  99 125 173 217 259 322 395
#     4  10  23  40  65  92 130 173 215 261 320 380
#     4  11  22  43  65  94 131 170 216 262 323 388
#     4  11  22  42  66  95 123 172 222 256 313 387
#     4  11  23  42  62  94 131 167 210 266 326 367
#     4  11  23  43  69  91 131 171 217 261 318 396
#
# _framework density 21.488292000000001
#
# number of rings (size 3 to 8) (size 9 to 14) (size 15 to 20)
#    0.000    1.000    2.500    5.250    7.000    1.000 
#    0.000    5.000    0.000    0.000    0.000    0.000 
#    0.000    0.000    0.000    0.000    0.000    0.000 
#
# Total GULP energy -89368.191966 kJ/mol
# GULP energy per Si atom -5585.511998 kJ/mol
# Density = 2.143938 g / cm^3
# Si number density = 21.488292 Si / 1000 Ang^3
#
#
#
# Elastic Constant Matrix: (Units=GPa)
#
#
# Indices 1 2 3 4 5 6 
#
# 1 67.9622 16.5132 7.2506 15.0679 -4.1748 -19.4228
# 2 16.5132 73.6229 30.2572 26.7417 -17.9681 -13.3248
# 3 7.2506 30.2572 88.4733 13.1503 -12.8708 -17.5432
# 4 15.0679 26.7417 13.1503 54.6128 -10.6148 -1.8217
# 5 -4.1748 -17.9681 -12.8708 -10.6148 28.1857 6.9876
# 6 -19.4228 -13.3248 -17.5432 -1.8217 6.9876 38.5298
#
#
#
# Elastic Compliance Matrix: (Units=1/GPa)
#
#
# Indices 1 2 3 4 5 6 
#
# 1 0.018640 -0.001797 0.001396 -0.004642 -0.001858 0.009528
# 2 -0.001797 0.020603 -0.004234 -0.006998 0.007662 0.002571
# 3 0.001396 -0.004234 0.014167 -0.001109 0.002263 0.005227
# 4 -0.004642 -0.006998 -0.001109 0.024018 0.004622 -0.004968
# 5 -0.001858 0.007662 0.002263 0.004622 0.044111 -0.005038
# 6 0.009528 0.002571 0.005227 -0.004968 -0.005038 0.034705
#
#
# Mechanical properties :
#
#
# Convention : Reuss Voigt Hill
#
# Bulk Modulus (GPa) = 22.65582 37.56672 30.11127
# Shear Modulus (GPa) = 27.74271 36.00148 31.87210
#
# Velocity S-wave (km/s) = 3.59703 4.09761 3.85545
# Velocity P-wave (km/s) = 5.27425 6.31724 5.81916
#
# Compressibility (1/GPa) = 0.04413877
#
# Stress axis : x y z
#
# Youngs Moduli (GPa) = 53.64849 48.53638 70.58636
#
# Poissons Ratio (x) = 0.08724 -0.09855
# Poissons Ratio (y) = 0.09643 0.29888
# Poissons Ratio (z) = -0.07490 0.20552
#
# Static dielectric constant tensor:
#      x y z
#    x 1.655560 -0.054240 -0.002460 
#    y -0.054240 1.736940 0.024640 
#    z -0.002460 0.024640 1.769460 
# 
# From -- ./inp_files/382235.got.cif
#   From: 2010.05.17/outbox.cif.g08.bks.cpg/sg2_192_cif.got.tgz:382235.got - 2010.06.03 11:33:40.
