data_PCOD9037523
_publ_section_title
;
Structure prediction by ZEFSAII (Michael W. Deem and Ramdas Pophale) SiO2 
 PCOD9037523
Probable space group: P -1
;
_chemical_formula_sum "Si O2"
_cell_formula_units_Z 14
_cell_length_a 4.972171
_cell_length_b 5.552131
_cell_length_c 23.327818
_cell_angle_alpha 63.895100
_cell_angle_beta 73.046868
_cell_angle_gamma 90.932925
_cell_volume 545.273954
_symmetry_space_group_name_H-M "P -1"
_symmetry_group_IT_number 2
_symmetry_cell_setting 'triclinic'
loop_
_space_group_symop_operation_xyz
x,y,z
-x,-y,-z
loop_
_atom_site_type_symbol
_atom_site_label
_atom_site_fract_x
_atom_site_fract_y
_atom_site_fract_z
Si Si1 0.018857 0.018054 0.928441
Si Si2 0.368625 0.508645 0.783975
Si Si3 0.808568 0.663888 0.313617
Si Si4 0.897213 0.377401 0.446174
Si Si5 0.493952 0.260936 0.070638
Si Si6 0.139426 0.197318 0.213240
Si Si7 0.554732 0.281051 0.573954
O O1 0.187503 0.771738 0.929552
O O2 0.706282 0.990128 0.923197
O O3 0.227669 0.265668 0.860160
O O4 0.000000 0.000000 0.000000
O O5 0.324119 0.423909 0.729697
O O6 0.694233 0.624800 0.765581
O O7 0.170186 0.731979 0.785739
O O8 0.854081 0.402340 0.378016
O O9 0.609574 0.835458 0.346350
O O10 0.096288 0.877840 0.262946
O O11 0.731360 0.158282 0.525129
O O12 0.215582 0.484738 0.434025
O O13 0.720168 0.622027 0.447958
O O14 0.326406 0.282856 0.136868
O O15 0.500000 0.500000 0.000000
#
# Coordination Sequence:
#
# PCOD9037523 Si02
#       7
#     2   2   2   2   2   2   2
#     4  12  24  44  69  94 131 168 214 272 324 379
#     4  12  27  42  64  98 131 170 222 264 322 394
#     4  10  23  40  68  86 138 164 220 260 338 358
#     4   8  16  31  60  90 118 166 212 253 322 384
#     4  12  24  44  69  94 131 168 214 272 324 379
#     4  12  27  42  64  98 131 170 222 264 322 394
#     4   8  16  31  60  90 118 166 212 253 322 384
#
# _framework density 25.675165
#
# number of rings (size 3 to 8) (size 9 to 14) (size 15 to 20)
#    0.857    0.571    1.429    4.286    4.000    0.000 
#    0.000    0.000    0.000    6.857    0.000    0.000 
#    0.000    0.000    0.000    0.000    0.000    0.000 
#
# Total GULP energy -78039.065398 kJ/mol
# GULP energy per Si atom -5574.218957 kJ/mol
# Density = 2.561673 g / cm^3
# Si number density = 25.675165 Si / 1000 Ang^3
#
#
#
# Elastic Constant Matrix: (Units=GPa)
#
#
# Indices 1 2 3 4 5 6 
#
# 1 79.0146 1.0628 15.6147 -2.7207 10.0067 10.2782
# 2 1.0628 39.5114 34.6050 5.2967 9.6623 14.7122
# 3 15.6147 34.6050 183.5262 22.1405 15.6621 8.7329
# 4 -2.7207 5.2967 22.1405 23.7632 11.5960 5.4961
# 5 10.0067 9.6623 15.6621 11.5960 34.6879 14.8759
# 6 10.2782 14.7122 8.7329 5.4961 14.8759 38.0402
#
#
#
# Elastic Compliance Matrix: (Units=1/GPa)
#
#
# Indices 1 2 3 4 5 6 
#
# 1 0.014227 0.002962 -0.001912 0.005753 -0.004423 -0.003652
# 2 0.002962 0.035971 -0.006500 0.003012 -0.003713 -0.012203
# 3 -0.001912 -0.006500 0.007483 -0.006325 0.000172 0.002159
# 4 0.005753 0.003012 -0.006325 0.057173 -0.017625 -0.002635
# 5 -0.004423 -0.003713 0.000172 -0.017625 0.041751 -0.011189
# 6 -0.003652 -0.012203 0.002159 -0.002635 -0.011189 0.036255
#
#
# Mechanical properties :
#
#
# Convention : Reuss Voigt Hill
#
# Bulk Modulus (GPa) = 21.37645 44.95746 33.16695
# Shear Modulus (GPa) = 22.79429 36.01622 29.40526
#
# Velocity S-wave (km/s) = 2.98282 3.74941 3.38787
# Velocity P-wave (km/s) = 4.49519 6.02430 5.31503
#
# Compressibility (1/GPa) = 0.04678045
#
# Stress axis : x y z
#
# Youngs Moduli (GPa) = 70.28801 27.80042 133.64009
#
# Poissons Ratio (x) = -0.08235 0.25549
# Poissons Ratio (y) = -0.20820 0.86871
# Poissons Ratio (z) = 0.13437 0.18071
#
# Static dielectric constant tensor:
#      x y z
#    x 1.962820 -0.047200 0.003290 
#    y -0.047200 2.103810 -0.042300 
#    z 0.003290 -0.042300 2.225290 
# 
# From -- ./inp_files/580962.got.cif
#   From: 2010.05.17/outbox.cif.g08.bks.cpg/sg2_291_cif.got.tgz:580962.got - 2010.06.03 11:33:40.
