data_PCOD9037606
_publ_section_title
;
Structure prediction by ZEFSAII (Michael W. Deem and Ramdas Pophale) SiO2 
 PCOD9037606
Probable space group: P -1
;
_chemical_formula_sum "Si O2"
_cell_formula_units_Z 14
_cell_length_a 19.959930
_cell_length_b 9.125681
_cell_length_c 11.987256
_cell_angle_alpha 120.544201
_cell_angle_beta 140.863161
_cell_angle_gamma 29.623768
_cell_volume 576.715748
_symmetry_space_group_name_H-M "P -1"
_symmetry_group_IT_number 2
_symmetry_cell_setting 'triclinic'
loop_
_space_group_symop_operation_xyz
x,y,z
-x,-y,-z
loop_
_atom_site_type_symbol
_atom_site_label
_atom_site_fract_x
_atom_site_fract_y
_atom_site_fract_z
Si Si1 0.837958 0.834272 0.839537
Si Si2 0.234760 0.844248 0.930962
Si Si3 0.541801 0.190968 0.933397
Si Si4 0.165431 0.538259 0.970598
Si Si5 0.528810 0.262305 0.417430
Si Si6 0.122298 0.162546 0.480216
Si Si7 0.158414 0.779952 0.512363
O O1 0.655366 0.005068 0.588989
O O2 0.000000 0.500000 0.000000
O O3 0.997790 0.702915 0.908947
O O4 0.718329 0.134909 0.882847
O O5 0.395584 0.468387 0.953100
O O6 0.280253 0.921560 0.923407
O O7 0.983063 0.137541 0.721191
O O8 0.383065 0.393006 0.699782
O O9 0.655542 0.857008 0.976662
O O10 0.297351 0.507950 0.181521
O O11 0.031341 0.735650 0.760056
O O12 0.500000 0.500000 0.500000
O O13 0.684613 0.035763 0.423586
O O14 0.000000 0.500000 0.500000
O O15 0.190921 0.926281 0.568115
O O16 0.000000 0.000000 0.500000
#
# Coordination Sequence:
#
# PCOD9037606 Si02
#       7
#     2   2   2   2   2   2   2
#     4  11  25  44  71 102 142 186 239 300 348 419
#     4  10  23  40  70 101 143 175 236 289 361 400
#     4  10  23  41  72 104 137 179 241 295 352 428
#     4  11  27  47  69 105 146 188 239 298 362 424
#     4  11  30  48  68 101 148 192 242 286 361 438
#     4  11  29  47  74 106 147 184 238 303 359 422
#     4  10  25  43  72 105 140 181 232 296 361 418
#
# _framework density 24.275392
#
# number of rings (size 3 to 8) (size 9 to 14) (size 15 to 20)
#    0.000    1.429    1.429    0.000   18.000    2.286 
#    0.000    0.000    0.000    0.000    0.000    0.000 
#    0.000    0.000    0.000    0.000    0.000    0.000 
#
# Total GULP energy -78366.796906 kJ/mol
# GULP energy per Si atom -5597.628350 kJ/mol
# Density = 2.422014 g / cm^3
# Si number density = 24.275392 Si / 1000 Ang^3
#
#
#
# Elastic Constant Matrix: (Units=GPa)
#
#
# Indices 1 2 3 4 5 6 
#
# 1 49.8645 7.2947 40.8713 0.2438 -18.5557 -10.0301
# 2 7.2947 71.7070 -8.6485 5.9112 -7.7654 -16.5055
# 3 40.8713 -8.6485 147.3966 4.6316 5.2303 1.9588
# 4 0.2438 5.9112 4.6316 36.7699 4.2970 -9.8277
# 5 -18.5557 -7.7654 5.2303 4.2970 41.7065 1.9510
# 6 -10.0301 -16.5055 1.9588 -9.8277 1.9510 32.8567
#
#
#
# Elastic Compliance Matrix: (Units=1/GPa)
#
#
# Indices 1 2 3 4 5 6 
#
# 1 0.038641 -0.000925 -0.011628 0.002417 0.017682 0.011697
# 2 -0.000925 0.016185 0.001062 -0.001027 0.002231 0.007345
# 3 -0.011628 0.001062 0.010386 -0.001725 -0.005923 -0.003800
# 4 0.002417 -0.001027 -0.001725 0.030410 -0.002480 0.009568
# 5 0.017682 0.002231 -0.005923 -0.002480 0.033062 0.004166
# 6 0.011697 0.007345 -0.003800 0.009568 0.004166 0.040537
#
#
# Mechanical properties :
#
#
# Convention : Reuss Voigt Hill
#
# Bulk Modulus (GPa) = 23.68045 38.66699 31.17372
# Shear Modulus (GPa) = 24.23892 37.56334 30.90113
#
# Velocity S-wave (km/s) = 3.16333 3.93795 3.57170
# Velocity P-wave (km/s) = 4.80815 6.05307 5.46617
#
# Compressibility (1/GPa) = 0.04222892
#
# Stress axis : x y z
#
# Youngs Moduli (GPa) = 25.87911 61.78662 96.28493
#
# Poissons Ratio (x) = 0.05717 1.11959
# Poissons Ratio (y) = 0.02395 -0.10223
# Poissons Ratio (z) = 0.30092 -0.06560
#
# Static dielectric constant tensor:
#      x y z
#    x 1.986030 -0.001590 -0.029430 
#    y -0.001590 1.967130 0.029300 
#    z -0.029430 0.029300 2.093370 
# 
# From -- ./inp_files/470092.got.cif
#   From: 2010.05.17/outbox.cif.g08.bks.cpg/sg2_236_cif.got.tgz:470092.got - 2010.06.03 11:33:40.
