data_PCOD9037819
_publ_section_title
;
Structure prediction by ZEFSAII (Michael W. Deem and Ramdas Pophale) SiO2 
 PCOD9037819
Probable space group: P -1
;
_chemical_formula_sum "Si O2"
_cell_formula_units_Z 14
_cell_length_a 15.702840
_cell_length_b 7.539464
_cell_length_c 17.414917
_cell_angle_alpha 58.485964
_cell_angle_beta 24.382664
_cell_angle_gamma 50.412253
_cell_volume 645.061186
_symmetry_space_group_name_H-M "P -1"
_symmetry_group_IT_number 2
_symmetry_cell_setting 'triclinic'
loop_
_space_group_symop_operation_xyz
x,y,z
-x,-y,-z
loop_
_atom_site_type_symbol
_atom_site_label
_atom_site_fract_x
_atom_site_fract_y
_atom_site_fract_z
Si Si1 0.253382 0.852995 0.963887
Si Si2 0.595583 0.632105 0.468588
Si Si3 0.891274 0.461828 0.768429
Si Si4 0.138493 0.635778 0.825770
Si Si5 0.534930 0.172523 0.038137
Si Si6 0.817890 0.960262 0.709610
Si Si7 0.623787 0.874738 0.543035
O O1 0.197510 0.635302 0.065836
O O2 0.355281 0.868343 0.959816
O O3 0.437032 0.835054 0.754012
O O4 0.019191 0.091300 0.090816
O O5 0.390541 0.564909 0.671673
O O6 0.801105 0.429694 0.298631
O O7 0.665747 0.733530 0.460924
O O8 0.477991 0.853803 0.456240
O O9 0.681954 0.570905 0.854386
O O10 0.929422 0.686819 0.703929
O O11 0.125331 0.245202 0.595939
O O12 0.000000 0.500000 0.000000
O O13 0.408149 0.009237 0.160780
O O14 0.719693 0.116264 0.830589
O O15 0.000000 0.000000 0.500000
#
# Coordination Sequence:
#
# PCOD9037819 Si02
#       7
#     2   2   2   2   2   2   2
#     4  12  24  41  65  97 128 169 212 255 328 366
#     4  10  24  45  62  93 128 162 223 263 310 383
#     4  10  23  41  63  94 130 164 209 262 306 386
#     4  11  23  44  64  90 127 169 207 268 317 371
#     4   9  23  41  63  94 132 163 214 255 307 391
#     4   9  21  43  62  89 128 170 207 257 314 364
#     4  11  24  41  67  94 125 170 210 267 320 367
#
# _framework density 21.703367
#
# number of rings (size 3 to 8) (size 9 to 14) (size 15 to 20)
#    0.857    0.857    2.857    0.429    4.000    3.429 
#    2.571    0.000    0.000    0.000    0.000    0.000 
#    0.000    0.000    0.000    0.000    0.000    0.000 
#
# Total GULP energy -78139.134516 kJ/mol
# GULP energy per Si atom -5581.366751 kJ/mol
# Density = 2.165397 g / cm^3
# Si number density = 21.703367 Si / 1000 Ang^3
#
#
#
# Elastic Constant Matrix: (Units=GPa)
#
#
# Indices 1 2 3 4 5 6 
#
# 1 41.1737 4.7911 14.0241 1.4356 4.1300 5.3697
# 2 4.7911 79.2856 28.0165 -17.5303 -2.6174 -1.0257
# 3 14.0241 28.0165 145.9658 -18.3552 -1.1937 -7.7525
# 4 1.4356 -17.5303 -18.3552 42.8844 3.1240 -6.0934
# 5 4.1300 -2.6174 -1.1937 3.1240 19.1992 4.4434
# 6 5.3697 -1.0257 -7.7525 -6.0934 4.4434 21.6357
#
#
#
# Elastic Compliance Matrix: (Units=1/GPa)
#
#
# Indices 1 2 3 4 5 6 
#
# 1 0.027174 -0.001572 -0.003267 -0.003862 -0.003710 -0.008315
# 2 -0.001572 0.014619 -0.001875 0.005406 0.000932 0.001742
# 3 -0.003267 -0.001875 0.008229 0.003607 -0.000748 0.004840
# 4 -0.003862 0.005406 0.003607 0.029317 -0.005743 0.011943
# 5 -0.003710 0.000932 -0.000748 -0.005743 0.056812 -0.012588
# 6 -0.008315 0.001742 0.004840 0.011943 -0.012588 0.056049
#
#
# Mechanical properties :
#
#
# Convention : Reuss Voigt Hill
#
# Bulk Modulus (GPa) = 27.32588 40.00984 33.66786
# Shear Modulus (GPa) = 22.95420 31.38342 27.16881
#
# Velocity S-wave (km/s) = 3.25566 3.80678 3.54195
# Velocity P-wave (km/s) = 5.17207 6.14792 5.68099
#
# Compressibility (1/GPa) = 0.03659535
#
# Stress axis : x y z
#
# Youngs Moduli (GPa) = 36.79981 68.40583 121.51767
#
# Poissons Ratio (x) = 0.10751 0.39696
# Poissons Ratio (y) = 0.05783 0.22784
# Poissons Ratio (z) = 0.12021 0.12826
#
# Static dielectric constant tensor:
#      x y z
#    x 1.807460 0.022590 -0.045450 
#    y 0.022590 1.824780 -0.002550 
#    z -0.045450 -0.002550 1.778630 
# 
# From -- ./inp_files/575377.got.cif
#   From: 2010.05.17/outbox.cif.g08.bks.cpg/sg2_288_cif.got.tgz:575377.got - 2010.06.03 11:33:40.
