data_PCOD9037170
_publ_section_title
;
Structure prediction by ZEFSAII (Michael W. Deem and Ramdas Pophale) SiO2 
 PCOD9037170
Probable space group: P -1
;
_chemical_formula_sum "Si O2"
_cell_formula_units_Z 12
_cell_length_a 11.462283
_cell_length_b 13.989719
_cell_length_c 18.075944
_cell_angle_alpha 157.366405
_cell_angle_beta 142.671398
_cell_angle_gamma 31.040159
_cell_volume 575.040615
_symmetry_space_group_name_H-M "P -1"
_symmetry_group_IT_number 2
_symmetry_cell_setting 'triclinic'
loop_
_space_group_symop_operation_xyz
x,y,z
-x,-y,-z
loop_
_atom_site_type_symbol
_atom_site_label
_atom_site_fract_x
_atom_site_fract_y
_atom_site_fract_z
Si Si1 0.697376 0.183972 0.277124
Si Si2 0.250214 0.209098 0.113899
Si Si3 0.260665 0.897256 0.046299
Si Si4 0.409795 0.259273 0.474533
Si Si5 0.305908 0.336392 0.639499
Si Si6 0.078139 0.209164 0.560154
O O1 0.475702 0.222312 0.231014
O O2 0.630010 0.486611 0.419230
O O3 0.902111 0.111565 0.383005
O O4 0.772300 0.936548 0.075603
O O5 0.037040 0.530405 0.252570
O O6 0.282411 0.004388 0.053265
O O7 0.384741 0.547325 0.861987
O O8 0.340746 0.044128 0.250469
O O9 0.000000 0.000000 0.000000
O O10 0.266994 0.400629 0.578679
O O11 0.676673 0.057899 0.484398
O O12 0.112075 0.352470 0.604920
O O13 0.500000 0.000000 0.500000
#
# Coordination Sequence:
#
# PCOD9037170 Si02
#       6
#     2   2   2   2   2   2
#     4  11  24  45  65  91 133 169 214 265 313 378
#     4  11  24  43  66  95 127 170 216 263 316 378
#     4  12  23  41  68  95 126 171 211 261 322 378
#     4  11  25  41  68  96 130 169 211 262 320 380
#     4  10  23  40  62  96 129 162 209 262 314 375
#     4  11  24  42  67  95 127 171 212 266 313 379
#
# _framework density 20.868092000000001
#
# number of rings (size 3 to 8) (size 9 to 14) (size 15 to 20)
#    0.000    1.000    5.000    0.500    2.333    7.333 
#    0.000    1.667    0.000    0.000    0.000    0.000 
#    0.000    0.000    0.000    0.000    0.000    0.000 
#
# Total GULP energy -67098.829165 kJ/mol
# GULP energy per Si atom -5591.569097 kJ/mol
# Density = 2.082059 g / cm^3
# Si number density = 20.868092 Si / 1000 Ang^3
#
#
#
# Elastic Constant Matrix: (Units=GPa)
#
#
# Indices 1 2 3 4 5 6 
#
# 1 101.5415 19.6992 29.2823 7.8656 7.6017 -16.7271
# 2 19.6992 88.8767 41.1248 -8.1677 8.4241 -19.2388
# 3 29.2823 41.1248 140.0914 4.2979 11.2468 -18.3000
# 4 7.8656 -8.1677 4.2979 18.1292 -4.9590 -3.8047
# 5 7.6017 8.4241 11.2468 -4.9590 33.5675 6.6492
# 6 -16.7271 -19.2388 -18.3000 -3.8047 6.6492 23.9222
#
#
#
# Elastic Compliance Matrix: (Units=1/GPa)
#
#
# Indices 1 2 3 4 5 6 
#
# 1 0.012249 -0.000648 -0.000808 -0.005025 -0.004652 0.007920
# 2 -0.000648 0.017203 -0.003070 0.010489 -0.004348 0.013910
# 3 -0.000808 -0.003070 0.009164 -0.003225 -0.003471 0.004428
# 4 -0.005025 0.010489 -0.003225 0.067160 0.007308 0.011105
# 5 -0.004652 -0.004348 -0.003471 0.007308 0.037897 -0.018775
# 6 0.007920 0.013910 0.004428 0.011105 -0.018775 0.068899
#
#
# Mechanical properties :
#
#
# Convention : Reuss Voigt Hill
#
# Bulk Modulus (GPa) = 33.82461 56.74692 45.28577
# Shear Modulus (GPa) = 21.60032 31.15068 26.37550
#
# Velocity S-wave (km/s) = 3.22077 3.86779 3.55902
# Velocity P-wave (km/s) = 5.48408 6.87013 6.21586
#
# Compressibility (1/GPa) = 0.02956428
#
# Stress axis : x y z
#
# Youngs Moduli (GPa) = 81.63970 58.12971 109.11756
#
# Poissons Ratio (x) = 0.03764 0.08817
# Poissons Ratio (y) = 0.05287 0.33503
# Poissons Ratio (z) = 0.06597 0.17848
#
# Static dielectric constant tensor:
#      x y z
#    x 1.764270 0.007830 -0.028160 
#    y 0.007830 1.757680 0.016900 
#    z -0.028160 0.016900 1.745980 
# 
# From -- ./inp_files/232981.got.cif
#   From: 2010.05.17/outbox.cif.g08.bks.cpg/sg2_117_cif.got.tgz:232981.got - 2010.06.03 11:33:40.
