data_PCOD9037763
_publ_section_title
;
Structure prediction by ZEFSAII (Michael W. Deem and Ramdas Pophale) SiO2 
 PCOD9037763
Probable space group: P -1
;
_chemical_formula_sum "Si O2"
_cell_formula_units_Z 14
_cell_length_a 11.788520
_cell_length_b 7.744975
_cell_length_c 9.140063
_cell_angle_alpha 48.178309
_cell_angle_beta 85.823754
_cell_angle_gamma 80.964367
_cell_volume 613.597933
_symmetry_space_group_name_H-M "P -1"
_symmetry_group_IT_number 2
_symmetry_cell_setting 'triclinic'
loop_
_space_group_symop_operation_xyz
x,y,z
-x,-y,-z
loop_
_atom_site_type_symbol
_atom_site_label
_atom_site_fract_x
_atom_site_fract_y
_atom_site_fract_z
Si Si1 0.119397 0.007961 0.900255
Si Si2 0.106439 0.624513 0.872294
Si Si3 0.338487 0.463730 0.044274
Si Si4 0.457884 0.900540 0.710466
Si Si5 0.694329 0.332698 0.751817
Si Si6 0.550542 0.775777 0.219610
Si Si7 0.794897 0.509757 0.356798
O O1 0.113601 0.855615 0.838635
O O2 0.138974 0.273888 0.732785
O O3 0.230597 0.890443 0.050405
O O4 0.000000 0.000000 0.000000
O O5 0.130344 0.645887 0.685205
O O6 0.214456 0.436785 0.017220
O O7 0.000000 0.500000 0.000000
O O8 0.431872 0.240401 0.137981
O O9 0.330609 0.499240 0.200209
O O10 0.376166 0.698700 0.835146
O O11 0.500000 0.000000 0.500000
O O12 0.410266 0.118567 0.691927
O O13 0.567421 0.332143 0.697170
O O14 0.772697 0.387495 0.579549
O O15 0.665029 0.607880 0.253440
O O16 0.500000 0.000000 0.000000
#
# Coordination Sequence:
#
# PCOD9037763 Si02
#       7
#     2   2   2   2   2   2   2
#     4  11  24  48  71  93 137 177 219 281 337 385
#     4  11  24  45  71  96 128 177 227 273 333 393
#     4  10  23  41  62  93 139 168 211 278 326 386
#     4  11  23  38  65  98 131 174 215 263 331 397
#     4  11  25  43  66 102 133 175 222 271 337 399
#     4  12  21  41  67  96 137 175 212 266 339 394
#     4  12  25  44  71  97 135 177 222 277 330 399
#
# _framework density 22.816243
#
# number of rings (size 3 to 8) (size 9 to 14) (size 15 to 20)
#    0.000    0.857    4.286    3.000    4.000    0.571 
#    0.000    0.714    0.000    0.000    0.000    0.000 
#    0.000    0.000    0.000    0.000    0.000    0.000 
#
# Total GULP energy -78201.352463 kJ/mol
# GULP energy per Si atom -5585.810890 kJ/mol
# Density = 2.276431 g / cm^3
# Si number density = 22.816243 Si / 1000 Ang^3
#
#
#
# Elastic Constant Matrix: (Units=GPa)
#
#
# Indices 1 2 3 4 5 6 
#
# 1 105.3677 12.2764 16.3279 2.3165 -31.6696 2.9122
# 2 12.2764 124.3746 49.7691 36.4104 -15.3558 -2.2712
# 3 16.3279 49.7691 137.1218 30.1040 -28.5945 14.6275
# 4 2.3165 36.4104 30.1040 29.0341 -11.1795 -6.6113
# 5 -31.6696 -15.3558 -28.5945 -11.1795 31.7878 4.2874
# 6 2.9122 -2.2712 14.6275 -6.6113 4.2874 31.5099
#
#
#
# Elastic Compliance Matrix: (Units=1/GPa)
#
#
# Indices 1 2 3 4 5 6 
#
# 1 0.014722 -0.001446 0.001847 0.004721 0.017796 -0.003753
# 2 -0.001446 0.013154 -0.001275 -0.016038 -0.001675 -0.001464
# 3 0.001847 -0.001275 0.013084 -0.010249 0.010731 -0.009947
# 4 0.004721 -0.016038 -0.010249 0.072941 0.011103 0.016959
# 5 0.017796 -0.001675 0.010731 0.011103 0.063703 -0.013085
# 6 -0.003753 -0.001464 -0.009947 0.016959 -0.013085 0.041934
#
#
# Mechanical properties :
#
#
# Convention : Reuss Voigt Hill
#
# Bulk Modulus (GPa) = 25.50134 58.17900 41.84017
# Shear Modulus (GPa) = 21.33504 37.69906 29.51705
#
# Velocity S-wave (km/s) = 3.06123 4.06925 3.60069
# Velocity P-wave (km/s) = 4.86785 6.90164 5.97196
#
# Compressibility (1/GPa) = 0.03921362
#
# Stress axis : x y z
#
# Youngs Moduli (GPa) = 67.92690 76.02008 76.42654
#
# Poissons Ratio (x) = 0.10989 -0.14113
# Poissons Ratio (y) = 0.09819 0.09741
# Poissons Ratio (z) = -0.12543 0.09689
#
# Static dielectric constant tensor:
#      x y z
#    x 1.889930 0.027680 -0.043690 
#    y 0.027680 1.862140 0.018720 
#    z -0.043690 0.018720 1.929190 
# 
# From -- ./inp_files/236571.got.cif
#   From: 2010.05.17/outbox.cif.g08.bks.cpg/sg2_119_cif.got.tgz:236571.got - 2010.06.03 11:33:40.
