data_PCOD9037462
_publ_section_title
;
Structure prediction by ZEFSAII (Michael W. Deem and Ramdas Pophale) SiO2 
 PCOD9037462
Probable space group: P -1
;
_chemical_formula_sum "Si O2"
_cell_formula_units_Z 16
_cell_length_a 28.863595
_cell_length_b 23.918449
_cell_length_c 10.808599
_cell_angle_alpha 30.463839
_cell_angle_beta 31.599903
_cell_angle_gamma 11.018920
_cell_volume 721.850919
_symmetry_space_group_name_H-M "P -1"
_symmetry_group_IT_number 2
_symmetry_cell_setting 'triclinic'
loop_
_space_group_symop_operation_xyz
x,y,z
-x,-y,-z
loop_
_atom_site_type_symbol
_atom_site_label
_atom_site_fract_x
_atom_site_fract_y
_atom_site_fract_z
Si Si1 0.863023 0.361547 0.951391
Si Si2 0.804543 0.331941 0.900263
Si Si3 0.030683 0.098123 0.584433
Si Si4 0.731896 0.756261 0.520276
Si Si5 0.429341 0.256365 0.726681
Si Si6 0.759988 0.762306 0.720082
Si Si7 0.487884 0.354912 0.614013
Si Si8 0.591751 0.348094 0.949339
O O1 0.739120 0.493274 0.847288
O O2 0.725985 0.435920 0.209827
O O3 0.837604 0.512277 0.776085
O O4 0.142692 0.010415 0.963579
O O5 0.589973 0.530603 0.927188
O O6 0.988537 0.168308 0.693413
O O7 0.919981 0.090542 0.167723
O O8 0.796619 0.409888 0.448100
O O9 0.270898 0.885190 0.405524
O O10 0.683746 0.867839 0.549196
O O11 0.948195 0.565785 0.318402
O O12 0.500000 0.000000 0.500000
O O13 0.540786 0.193056 0.708884
O O14 0.626739 0.002876 0.654955
O O15 0.325863 0.258692 0.001232
O O16 0.408350 0.550759 0.339037
O O17 0.500000 0.500000 0.000000
#
# Coordination Sequence:
#
# PCOD9037462 Si02
#       8
#     2   2   2   2   2   2   2   2
#     4  12  25  41  68  97 134 178 213 271 338 388
#     4  10  23  41  63 103 130 172 221 259 326 404
#     4  10  23  40  67  95 135 169 218 268 324 398
#     4  11  27  47  68  96 135 171 226 277 330 393
#     4  11  23  43  70  95 133 172 223 279 327 382
#     4  10  26  46  67  98 126 175 230 278 329 387
#     4  11  24  41  64 102 135 172 216 264 331 401
#     4  11  24  43  70  99 137 171 219 269 324 405
#
# _framework density 22.165241000000002
#
# number of rings (size 3 to 8) (size 9 to 14) (size 15 to 20)
#    0.000    1.250    1.250    4.125    8.750    4.000 
#    0.000    2.500    0.000    0.000    0.000    0.000 
#    0.000    0.000    0.000    0.000    0.000    0.000 
#
# Total GULP energy -89538.121246 kJ/mol
# GULP energy per Si atom -5596.132578 kJ/mol
# Density = 2.211479 g / cm^3
# Si number density = 22.165241 Si / 1000 Ang^3
#
#
#
# Elastic Constant Matrix: (Units=GPa)
#
#
# Indices 1 2 3 4 5 6 
#
# 1 77.2307 36.6360 -21.1259 4.0230 -2.4676 4.4073
# 2 36.6360 106.6486 16.1900 17.8828 6.7880 -3.0581
# 3 -21.1259 16.1900 52.3356 20.1496 -0.7184 -4.4550
# 4 4.0230 17.8828 20.1496 29.6434 -0.2426 2.6321
# 5 -2.4676 6.7880 -0.7184 -0.2426 18.2677 8.6744
# 6 4.4073 -3.0581 -4.4550 2.6321 8.6744 33.8100
#
#
#
# Elastic Compliance Matrix: (Units=1/GPa)
#
#
# Indices 1 2 3 4 5 6 
#
# 1 0.022008 -0.009236 0.014108 -0.006622 0.008544 -0.003522
# 2 -0.009236 0.014878 -0.006694 -0.003627 -0.009125 0.004291
# 3 0.014108 -0.006694 0.035831 -0.022462 0.004091 0.002976
# 4 -0.006622 -0.003627 -0.022462 0.052788 0.003842 -0.007520
# 5 0.008544 -0.009125 0.004091 0.003842 0.068671 -0.019318
# 6 -0.003522 0.004291 0.002976 -0.007520 -0.019318 0.036358
#
#
# Mechanical properties :
#
#
# Convention : Reuss Voigt Hill
#
# Bulk Modulus (GPa) = 14.47798 33.29057 23.88427
# Shear Modulus (GPa) = 19.43993 29.97853 24.70923
#
# Velocity S-wave (km/s) = 2.96471 3.68163 3.34244
# Velocity P-wave (km/s) = 4.27380 5.75538 5.06901
#
# Compressibility (1/GPa) = 0.06907041
#
# Stress axis : x y z
#
# Youngs Moduli (GPa) = 45.43892 67.21475 27.90909
#
# Poissons Ratio (x) = 0.62081 -0.39373
# Poissons Ratio (y) = 0.41968 0.18683
# Poissons Ratio (z) = -0.64104 0.44995
#
# Static dielectric constant tensor:
#      x y z
#    x 1.804290 -0.017990 -0.005120 
#    y -0.017990 1.839750 -0.002990 
#    z -0.005120 -0.002990 1.802740 
# 
# From -- ./inp_files/272053.got.cif
#   From: 2010.05.17/outbox.cif.g08.bks.cpg/sg2_137_cif.got.tgz:272053.got - 2010.06.03 11:33:40.
