data_PCOD9037628
_publ_section_title
;
Structure prediction by ZEFSAII (Michael W. Deem and Ramdas Pophale) SiO2 
 PCOD9037628
Probable space group: P -1
;
_chemical_formula_sum "Si O2"
_cell_formula_units_Z 14
_cell_length_a 12.738595
_cell_length_b 9.059689
_cell_length_c 8.362062
_cell_angle_alpha 72.331494
_cell_angle_beta 46.475580
_cell_angle_gamma 61.518855
_cell_volume 614.581128
_symmetry_space_group_name_H-M "P -1"
_symmetry_group_IT_number 2
_symmetry_cell_setting 'triclinic'
loop_
_space_group_symop_operation_xyz
x,y,z
-x,-y,-z
loop_
_atom_site_type_symbol
_atom_site_label
_atom_site_fract_x
_atom_site_fract_y
_atom_site_fract_z
Si Si1 0.984699 0.981001 0.831523
Si Si2 0.492350 0.157539 0.110275
Si Si3 0.123960 0.327115 0.990658
Si Si4 0.546961 0.856420 0.364275
Si Si5 0.718201 0.311153 0.851423
Si Si6 0.173614 0.400901 0.278307
Si Si7 0.319303 0.805586 0.395368
O O1 0.151286 0.935941 0.584626
O O2 0.934958 0.823383 0.915738
O O3 0.859293 0.144328 0.822889
O O4 0.000000 0.000000 0.000000
O O5 0.303720 0.238444 0.281789
O O6 0.568981 0.976070 0.164593
O O7 0.560753 0.285835 0.078758
O O8 0.575799 0.140578 0.857062
O O9 0.155275 0.349049 0.135750
O O10 0.284048 0.284900 0.737421
O O11 0.000000 0.500000 0.000000
O O12 0.425129 0.776894 0.454948
O O13 0.500000 0.000000 0.500000
O O14 0.741094 0.468039 0.851713
O O15 0.717156 0.318078 0.654142
O O16 0.000000 0.500000 0.500000
#
# Coordination Sequence:
#
# PCOD9037628 Si02
#       7
#     2   2   2   2   2   2   2
#     4  12  24  43  69 102 140 185 228 285 349 419
#     4  10  24  43  70  95 141 175 238 277 351 409
#     4  12  26  47  66 104 144 180 232 293 351 413
#     4  12  25  45  71 104 138 189 229 291 351 423
#     4  10  23  43  67  98 138 180 232 283 347 417
#     4  12  26  42  70 105 138 180 234 297 346 408
#     4  10  23  40  70  96 132 179 234 278 340 415
#
# _framework density 22.779741000000001
#
# number of rings (size 3 to 8) (size 9 to 14) (size 15 to 20)
#    0.857    0.000    2.857    3.857    6.000    0.000 
#    0.000    0.714    0.000    0.000    0.000    0.000 
#    0.000    0.000    0.000    0.000    0.000    0.000 
#
# Total GULP energy -78062.481063 kJ/mol
# GULP energy per Si atom -5575.891504 kJ/mol
# Density = 2.272789 g / cm^3
# Si number density = 22.779741 Si / 1000 Ang^3
#
#
#
# Elastic Constant Matrix: (Units=GPa)
#
#
# Indices 1 2 3 4 5 6 
#
# 1 154.3416 59.0383 34.1863 19.3857 -7.9323 23.8551
# 2 59.0383 104.3395 4.8496 17.7925 -9.7307 -0.5788
# 3 34.1863 4.8496 55.3438 35.7902 -6.1533 -1.8496
# 4 19.3857 17.7925 35.7902 39.3337 -0.1862 -14.4934
# 5 -7.9323 -9.7307 -6.1533 -0.1862 38.4254 21.7077
# 6 23.8551 -0.5788 -1.8496 -14.4934 21.7077 57.4766
#
#
#
# Elastic Compliance Matrix: (Units=1/GPa)
#
#
# Indices 1 2 3 4 5 6 
#
# 1 0.011246 -0.006254 -0.008053 0.002703 0.002409 -0.005218
# 2 -0.006254 0.017189 0.018700 -0.023967 0.009471 -0.006250
# 3 -0.008053 0.018700 0.081378 -0.088764 0.031584 -0.028162
# 4 0.002703 -0.023967 -0.088764 0.132541 -0.045231 0.046285
# 5 0.002409 0.009471 0.031584 -0.045231 0.051026 -0.030565
# 6 -0.005218 -0.006250 -0.028162 0.046285 -0.030565 0.041810
#
#
# Mechanical properties :
#
#
# Convention : Reuss Voigt Hill
#
# Bulk Modulus (GPa) = 8.43177 56.68593 32.55885
# Shear Modulus (GPa) = 13.66352 41.44384 27.55368
#
# Velocity S-wave (km/s) = 2.45176 4.26999 3.48166
# Velocity P-wave (km/s) = 3.42408 7.01775 5.52146
#
# Compressibility (1/GPa) = 0.11859905
#
# Stress axis : x y z
#
# Youngs Moduli (GPa) = 88.91998 58.17577 12.28834
#
# Poissons Ratio (x) = 0.36384 0.09896
# Poissons Ratio (y) = 0.55612 -0.22979
# Poissons Ratio (z) = 0.71608 -1.08790
#
# Static dielectric constant tensor:
#      x y z
#    x 2.388670 0.162170 0.140230 
#    y 0.162170 1.877170 0.030260 
#    z 0.140230 0.030260 1.891760 
# 
# From -- ./inp_files/242820.got.cif
#   From: 2010.05.17/outbox.cif.g08.bks.cpg/sg2_122_cif.got.tgz:242820.got - 2010.06.03 11:33:40.
