data_PCOD9037166
_publ_section_title
;
Structure prediction by ZEFSAII (Michael W. Deem and Ramdas Pophale) SiO2 
 PCOD9037166
Probable space group: P -1
;
_chemical_formula_sum "Si O2"
_cell_formula_units_Z 16
_cell_length_a 20.986957
_cell_length_b 8.807121
_cell_length_c 5.353096
_cell_angle_alpha 54.556732
_cell_angle_beta 66.831852
_cell_angle_gamma 54.463819
_cell_volume 653.573889
_symmetry_space_group_name_H-M "P -1"
_symmetry_group_IT_number 2
_symmetry_cell_setting 'triclinic'
loop_
_space_group_symop_operation_xyz
x,y,z
-x,-y,-z
loop_
_atom_site_type_symbol
_atom_site_label
_atom_site_fract_x
_atom_site_fract_y
_atom_site_fract_z
Si Si1 0.224081 0.745641 0.692893
Si Si2 0.786382 0.646253 0.710866
Si Si3 0.093524 0.330418 0.161988
Si Si4 0.509272 0.291521 0.310608
Si Si5 0.665548 0.055589 0.584160
Si Si6 0.944664 0.329509 0.474592
Si Si7 0.429244 0.081595 0.829204
Si Si8 0.871933 0.054395 0.852288
O O1 0.293872 0.806803 0.522744
O O2 0.182549 0.799563 0.433785
O O3 0.243223 0.511750 0.977936
O O4 0.168600 0.887987 0.870750
O O5 0.824251 0.733656 0.776452
O O6 0.863784 0.493723 0.577278
O O7 0.719537 0.865725 0.488809
O O8 0.027066 0.314142 0.447312
O O9 0.106237 0.177042 0.055380
O O10 0.063806 0.567867 0.884486
O O11 0.579098 0.221060 0.468560
O O12 0.429551 0.293830 0.529212
O O13 0.542423 0.098318 0.250839
O O14 0.500000 0.500000 0.000000
O O15 0.647641 0.915556 0.944894
O O16 0.943621 0.109256 0.698709
O O17 0.500000 0.000000 0.000000
#
# Coordination Sequence:
#
# PCOD9037166 Si02
#       8
#     2   2   2   2   2   2   2   2
#     4  11  25  42  66  98 141 181 235 290 349 414
#     4  11  23  42  62  94 139 175 234 285 346 423
#     4  11  21  39  67  89 128 182 231 297 348 412
#     4  10  23  44  71 101 135 172 223 281 333 413
#     4  11  24  41  69  98 133 187 219 279 348 410
#     4  10  23  40  62  95 128 179 234 290 356 404
#     4   9  22  43  68 100 134 167 221 267 342 405
#     4  11  23  44  63  98 136 180 237 297 347 418
#
# _framework density 24.480779999999999
#
# number of rings (size 3 to 8) (size 9 to 14) (size 15 to 20)
#    0.000    1.500    2.500    1.500    1.750    7.000 
#    0.000    1.875    0.000    0.000    0.000    0.000 
#    0.000    0.000    0.000    0.000    0.000    0.000 
#
# Total GULP energy -89357.215356 kJ/mol
# GULP energy per Si atom -5584.825960 kJ/mol
# Density = 2.442506 g / cm^3
# Si number density = 24.480780 Si / 1000 Ang^3
#
#
#
# Elastic Constant Matrix: (Units=GPa)
#
#
# Indices 1 2 3 4 5 6 
#
# 1 107.1146 15.1571 64.3168 -9.3750 -44.4075 11.3573
# 2 15.1571 60.3940 28.3398 -12.3831 -18.3991 2.0757
# 3 64.3168 28.3398 136.7405 -28.1854 -49.2871 3.9421
# 4 -9.3750 -12.3831 -28.1854 43.4921 7.2594 -0.4269
# 5 -44.4075 -18.3991 -49.2871 7.2594 53.6135 -4.4174
# 6 11.3573 2.0757 3.9421 -0.4269 -4.4174 29.1043
#
#
#
# Elastic Compliance Matrix: (Units=1/GPa)
#
#
# Indices 1 2 3 4 5 6 
#
# 1 0.016143 0.000870 -0.004439 -0.000749 0.009332 -0.004355
# 2 0.000870 0.019558 -0.001795 0.003714 0.005227 -0.000644
# 3 -0.004439 -0.001795 0.013760 0.006190 0.007622 0.001244
# 4 -0.000749 0.003714 0.006190 0.027462 0.002625 -0.000010
# 5 0.009332 0.005227 0.007622 0.002625 0.034850 0.000281
# 6 -0.004355 -0.000644 0.001244 -0.000010 0.000281 0.035979
#
#
# Mechanical properties :
#
#
# Convention : Reuss Voigt Hill
#
# Bulk Modulus (GPa) = 25.81647 57.76404 41.79026
# Shear Modulus (GPa) = 29.17373 38.33768 33.75570
#
# Velocity S-wave (km/s) = 3.45584 3.96160 3.71734
# Velocity P-wave (km/s) = 5.14707 6.67627 5.96091
#
# Compressibility (1/GPa) = 0.03873496
#
# Stress axis : x y z
#
# Youngs Moduli (GPa) = 61.94764 51.13063 72.67510
#
# Poissons Ratio (x) = -0.04451 0.32257
# Poissons Ratio (y) = -0.05392 0.13042
# Poissons Ratio (z) = 0.27496 0.09176
#
# Static dielectric constant tensor:
#      x y z
#    x 1.910530 -0.100250 -0.012880 
#    y -0.100250 2.034950 0.052750 
#    z -0.012880 0.052750 2.012860 
# 
# From -- ./inp_files/55436.got.cif
#   From: 2010.05.17/outbox.cif.g08.bks.cpg/sg2_28_cif.got.tgz:55436.got - 2010.06.03 11:33:40.
