data_PCOD9037098
_publ_section_title
;
Structure prediction by ZEFSAII (Michael W. Deem and Ramdas Pophale) SiO2 
 PCOD9037098
Probable space group: P -1
;
_chemical_formula_sum "Si O2"
_cell_formula_units_Z 12
_cell_length_a 5.094504
_cell_length_b 18.482008
_cell_length_c 5.301183
_cell_angle_alpha 93.351705
_cell_angle_beta 88.796965
_cell_angle_gamma 80.488409
_cell_volume 491.199251
_symmetry_space_group_name_H-M "P -1"
_symmetry_group_IT_number 2
_symmetry_cell_setting 'triclinic'
loop_
_space_group_symop_operation_xyz
x,y,z
-x,-y,-z
loop_
_atom_site_type_symbol
_atom_site_label
_atom_site_fract_x
_atom_site_fract_y
_atom_site_fract_z
Si Si1 0.143980 0.935175 0.311816
Si Si2 0.456482 0.346254 0.598574
Si Si3 0.677200 0.884021 0.068408
Si Si4 0.901221 0.392257 0.900510
Si Si5 0.512912 0.815742 0.541894
Si Si6 0.797196 0.544425 0.706513
O O1 0.234308 0.865850 0.481008
O O2 0.576709 0.056403 0.821525
O O3 0.946260 0.915977 0.097672
O O4 0.000000 0.000000 0.500000
O O5 0.666078 0.349285 0.819925
O O6 0.511235 0.268468 0.445489
O O7 0.463378 0.413517 0.417620
O O8 0.154566 0.363238 0.710576
O O9 0.624811 0.850245 0.793948
O O10 0.680882 0.824213 0.283556
O O11 0.771005 0.478696 0.885016
O O12 0.053671 0.393758 0.160571
O O13 0.000000 0.500000 0.500000
#
# Coordination Sequence:
#
# PCOD9037098 Si02
#       6
#     2   2   2   2   2   2
#     4  10  24  44  69  98 132 172 215 264 318 381
#     4  11  24  38  63  87 121 162 205 258 313 373
#     4  10  25  43  67  95 134 168 217 263 319 382
#     4  10  23  40  60  87 120 158 208 256 315 375
#     4  10  27  42  67  97 133 170 217 263 323 381
#     4   9  21  40  60  88 118 159 204 259 314 372
#
# _framework density 24.430001000000001
#
# number of rings (size 3 to 8) (size 9 to 14) (size 15 to 20)
#    1.000    1.000    0.000    1.000    7.000   10.000 
#    0.000    0.000    0.000    0.000    0.000    0.000 
#    0.000    0.000    0.000    0.000    0.000    0.000 
#
# Total GULP energy -67021.310116 kJ/mol
# GULP energy per Si atom -5585.109176 kJ/mol
# Density = 2.437440 g / cm^3
# Si number density = 24.430001 Si / 1000 Ang^3
#
#
#
# Elastic Constant Matrix: (Units=GPa)
#
#
# Indices 1 2 3 4 5 6 
#
# 1 89.1256 21.6872 28.3008 6.3353 20.5764 -8.2939
# 2 21.6872 115.9299 36.6269 15.1388 11.2306 -21.3307
# 3 28.3008 36.6269 155.7942 22.4536 22.8325 -12.1700
# 4 6.3353 15.1388 22.4536 25.2429 8.7335 -2.9391
# 5 20.5764 11.2306 22.8325 8.7335 36.2556 0.8568
# 6 -8.2939 -21.3307 -12.1700 -2.9391 0.8568 16.9690
#
#
#
# Elastic Compliance Matrix: (Units=1/GPa)
#
#
# Indices 1 2 3 4 5 6 
#
# 1 0.013873 -0.000622 -0.000971 0.001015 -0.007452 0.005855
# 2 -0.000622 0.012332 -0.000751 -0.004127 -0.002332 0.014062
# 3 -0.000971 -0.000751 0.008286 -0.005092 -0.003298 0.003809
# 4 0.001015 -0.004127 -0.005092 0.049183 -0.007952 0.000576
# 5 -0.007452 -0.002332 -0.003298 -0.007952 0.036814 -0.012175
# 6 0.005855 0.014062 0.003809 0.000576 -0.012175 0.082915
#
#
# Mechanical properties :
#
#
# Convention : Reuss Voigt Hill
#
# Bulk Modulus (GPa) = 33.55270 59.34217 46.44744
# Shear Modulus (GPa) = 22.93315 33.97583 28.45449
#
# Velocity S-wave (km/s) = 3.06719 3.73331 3.41652
# Velocity P-wave (km/s) = 5.12909 6.55186 5.88364
#
# Compressibility (1/GPa) = 0.02980386
#
# Stress axis : x y z
#
# Youngs Moduli (GPa) = 72.08321 81.09153 120.67883
#
# Poissons Ratio (x) = 0.05043 0.11713
# Poissons Ratio (y) = 0.04483 0.09065
# Poissons Ratio (z) = 0.06996 0.06091
#
# Static dielectric constant tensor:
#      x y z
#    x 1.982690 0.081580 -0.055610 
#    y 0.081580 1.972790 -0.081940 
#    z -0.055610 -0.081940 1.976080 
# 
# From -- ./inp_files/5335.got.cif
#   From: 2010.05.17/outbox.cif.g08.bks.cpg/sg2_3_cif.got.tgz:5335.got - 2010.06.03 11:33:40.
