data_PCOD9037941
_publ_section_title
;
Structure prediction by ZEFSAII (Michael W. Deem and Ramdas Pophale) SiO2 
 PCOD9037941
Probable space group: P -1
;
_chemical_formula_sum "Si O2"
_cell_formula_units_Z 16
_cell_length_a 18.825735
_cell_length_b 7.834258
_cell_length_c 14.775528
_cell_angle_alpha 31.264241
_cell_angle_beta 37.469350
_cell_angle_gamma 48.649768
_cell_volume 686.916531
_symmetry_space_group_name_H-M "P -1"
_symmetry_group_IT_number 2
_symmetry_cell_setting 'triclinic'
loop_
_space_group_symop_operation_xyz
x,y,z
-x,-y,-z
loop_
_atom_site_type_symbol
_atom_site_label
_atom_site_fract_x
_atom_site_fract_y
_atom_site_fract_z
Si Si1 0.541618 0.788725 0.138686
Si Si2 0.705208 0.412152 0.021216
Si Si3 0.969806 0.633136 0.660641
Si Si4 0.155932 0.232001 0.957928
Si Si5 0.307337 0.376684 0.584297
Si Si6 0.942556 0.263051 0.038935
Si Si7 0.656617 0.271813 0.944553
Si Si8 0.800830 0.616948 0.497064
O O1 0.653442 0.609668 0.067516
O O2 0.439964 0.515558 0.388959
O O3 0.569928 0.021430 0.090672
O O4 0.500000 0.000000 0.000000
O O5 0.703739 0.023311 0.223238
O O6 0.626326 0.418291 0.006635
O O7 0.835003 0.572053 0.794874
O O8 0.078782 0.553434 0.523363
O O9 0.000000 0.000000 0.500000
O O10 0.978042 0.375736 0.852302
O O11 0.238795 0.469232 0.702466
O O12 0.096599 0.415362 0.015859
O O13 0.051382 0.124253 0.044829
O O14 0.234160 0.949023 0.041810
O O15 0.248463 0.509559 0.492812
O O16 0.836523 0.997292 0.274586
O O17 0.703955 0.546810 0.702185
#
# Coordination Sequence:
#
# PCOD9037941 Si02
#       8
#     2   2   2   2   2   2   2   2
#     4  12  26  47  72  96 136 180 232 288 340 397
#     4  11  26  46  71 102 135 180 230 277 343 401
#     4  12  24  40  72 101 143 182 220 274 344 415
#     4  10  23  41  65 100 137 171 224 279 335 405
#     4  11  23  45  70  95 132 180 228 275 334 406
#     4  11  22  39  67 100 138 177 220 270 340 415
#     4  11  26  46  66 104 136 177 230 287 335 404
#     4  12  22  41  68 100 134 177 219 274 342 403
#
# _framework density 23.292497000000001
#
# number of rings (size 3 to 8) (size 9 to 14) (size 15 to 20)
#    0.000    0.750    3.750    4.500    0.000    7.500 
#    2.250    0.000    0.000    0.000    0.000    0.000 
#    0.000    0.000    0.000    0.000    0.000    0.000 
#
# Total GULP energy -89489.931280 kJ/mol
# GULP energy per Si atom -5593.120705 kJ/mol
# Density = 2.323948 g / cm^3
# Si number density = 23.292497 Si / 1000 Ang^3
#
#
#
# Elastic Constant Matrix: (Units=GPa)
#
#
# Indices 1 2 3 4 5 6 
#
# 1 97.8001 10.1833 29.2794 -2.5614 -12.5945 11.6293
# 2 10.1833 44.2989 -2.0160 1.5768 -15.3394 1.8756
# 3 29.2794 -2.0160 110.6139 -7.4570 -20.3572 7.6456
# 4 -2.5614 1.5768 -7.4570 36.0461 5.3512 2.5708
# 5 -12.5945 -15.3394 -20.3572 5.3512 38.5748 -3.8352
# 6 11.6293 1.8756 7.6456 2.5708 -3.8352 28.9130
#
#
#
# Elastic Compliance Matrix: (Units=1/GPa)
#
#
# Indices 1 2 3 4 5 6 
#
# 1 0.011880 -0.002335 -0.002691 0.000501 0.001081 -0.003816
# 2 -0.002335 0.027586 0.003195 -0.002543 0.012262 0.000157
# 3 -0.002691 0.003195 0.011078 0.001177 0.005939 -0.001371
# 4 0.000501 -0.002543 0.001177 0.029070 -0.004612 -0.003544
# 5 0.001081 0.012262 0.005939 -0.004612 0.035152 0.002272
# 6 -0.003816 0.000157 -0.001371 -0.003544 0.002272 0.037091
#
#
# Mechanical properties :
#
#
# Convention : Reuss Voigt Hill
#
# Bulk Modulus (GPa) = 21.32989 36.40069 28.86529
# Shear Modulus (GPa) = 29.21498 35.05784 32.13641
#
# Velocity S-wave (km/s) = 3.54540 3.88379 3.71845
# Velocity P-wave (km/s) = 5.09285 5.98108 5.55475
#
# Compressibility (1/GPa) = 0.04688258
#
# Stress axis : x y z
#
# Youngs Moduli (GPa) = 84.17684 36.25041 90.26929
#
# Poissons Ratio (x) = 0.08465 0.24287
# Poissons Ratio (y) = 0.19657 -0.28843
# Poissons Ratio (z) = 0.22648 -0.11583
#
# Static dielectric constant tensor:
#      x y z
#    x 1.918650 0.002830 -0.021790 
#    y 0.002830 1.917270 0.004760 
#    z -0.021790 0.004760 1.826500 
# 
# From -- ./inp_files/578868.got.cif
#   From: 2010.05.17/outbox.cif.g08.bks.cpg/sg2_290_cif.got.tgz:578868.got - 2010.06.03 11:33:40.
