data_PCOD9037784
_publ_section_title
;
Structure prediction by ZEFSAII (Michael W. Deem and Ramdas Pophale) SiO2 
 PCOD9037784
Probable space group: P -1
;
_chemical_formula_sum "Si O2"
_cell_formula_units_Z 16
_cell_length_a 5.110493
_cell_length_b 12.703547
_cell_length_c 11.891599
_cell_angle_alpha 78.962586
_cell_angle_beta 104.858168
_cell_angle_gamma 96.963249
_cell_volume 730.281932
_symmetry_space_group_name_H-M "P -1"
_symmetry_group_IT_number 2
_symmetry_cell_setting 'triclinic'
loop_
_space_group_symop_operation_xyz
x,y,z
-x,-y,-z
loop_
_atom_site_type_symbol
_atom_site_label
_atom_site_fract_x
_atom_site_fract_y
_atom_site_fract_z
Si Si1 0.218654 0.842888 0.513545
Si Si2 0.297312 0.029434 0.341327
Si Si3 0.878443 0.530882 0.600537
Si Si4 0.785966 0.778028 0.856577
Si Si5 0.444033 0.132851 0.760074
Si Si6 0.033930 0.116980 0.922421
Si Si7 0.548537 0.326106 0.583024
Si Si8 0.172616 0.701475 0.742556
O O1 0.517899 0.893678 0.571940
O O2 0.258767 0.744070 0.455732
O O3 0.093600 0.793198 0.624324
O O4 0.113267 0.941770 0.411274
O O5 0.162620 0.106123 0.223660
O O6 0.498439 0.961522 0.302131
O O7 0.723032 0.420461 0.648258
O O8 0.652508 0.614624 0.532447
O O9 0.000000 0.500000 0.500000
O O10 0.101277 0.589507 0.693672
O O11 0.484482 0.730616 0.801706
O O12 0.996592 0.706378 0.834017
O O13 0.829683 0.800960 0.987578
O O14 0.220605 0.109603 0.834975
O O15 0.390809 0.240084 0.663647
O O16 0.738650 0.150987 0.848566
O O17 0.000000 0.000000 0.000000
#
# Coordination Sequence:
#
# PCOD9037784 Si02
#       8
#     2   2   2   2   2   2   2   2
#     4   9  18  35  54  88 130 164 200 239 310 384
#     4   9  19  34  57  87 128 169 198 247 303 384
#     4  11  22  39  68  95 131 162 213 258 321 397
#     4  11  24  40  62  89 124 168 217 259 316 367
#     4  11  25  41  66  95 132 169 215 267 319 370
#     4  12  25  43  66  93 126 172 225 268 309 367
#     4  10  23  41  62  99 131 170 206 264 322 383
#     4  11  23  39  63  91 126 166 209 259 316 386
#
# _framework density 21.909345999999999
#
# number of rings (size 3 to 8) (size 9 to 14) (size 15 to 20)
#    0.000    1.500    2.500    2.625    7.000    0.500 
#    0.000    0.000    0.000    4.500    0.000    0.000 
#    0.000    0.000    0.000    0.000    0.000    0.000 
#
# Total GULP energy -89496.137901 kJ/mol
# GULP energy per Si atom -5593.508619 kJ/mol
# Density = 2.185948 g / cm^3
# Si number density = 21.909346 Si / 1000 Ang^3
#
#
#
# Elastic Constant Matrix: (Units=GPa)
#
#
# Indices 1 2 3 4 5 6 
#
# 1 95.5724 28.7225 25.9693 16.1933 -10.4856 10.0784
# 2 28.7225 117.3103 28.8416 20.5326 1.1015 16.2734
# 3 25.9693 28.8416 77.1397 22.9960 -11.2960 6.9977
# 4 16.1933 20.5326 22.9960 37.0739 5.0328 6.4307
# 5 -10.4856 1.1015 -11.2960 5.0328 40.5209 2.3678
# 6 10.0784 16.2734 6.9977 6.4307 2.3678 24.9499
#
#
#
# Elastic Compliance Matrix: (Units=1/GPa)
#
#
# Indices 1 2 3 4 5 6 
#
# 1 0.012746 -0.001682 -0.001871 -0.003425 0.003421 -0.002969
# 2 -0.001682 0.010663 -0.002237 -0.002846 -0.000712 -0.004847
# 3 -0.001871 -0.002237 0.018370 -0.009990 0.005993 -0.000931
# 4 -0.003425 -0.002846 -0.009990 0.037856 -0.008124 -0.002944
# 5 0.003421 -0.000712 0.005993 -0.008124 0.028450 -0.003205
# 6 -0.002969 -0.004847 -0.000931 -0.002944 -0.003205 0.045765
#
#
# Mechanical properties :
#
#
# Convention : Reuss Voigt Hill
#
# Bulk Modulus (GPa) = 33.11189 50.78769 41.94979
# Shear Modulus (GPa) = 28.49073 34.27489 31.38281
#
# Velocity S-wave (km/s) = 3.61001 3.95954 3.78880
# Velocity P-wave (km/s) = 5.70282 6.64342 6.19101
#
# Compressibility (1/GPa) = 0.03020063
#
# Stress axis : x y z
#
# Youngs Moduli (GPa) = 78.45772 93.77927 54.43671
#
# Poissons Ratio (x) = 0.15769 0.10184
# Poissons Ratio (y) = 0.13193 0.12176
# Poissons Ratio (z) = 0.14678 0.20976
#
# Static dielectric constant tensor:
#      x y z
#    x 1.816320 0.016390 0.011950 
#    y 0.016390 1.822210 -0.004010 
#    z 0.011950 -0.004010 1.821740 
# 
# From -- ./inp_files/362960.got.cif
#   From: 2010.05.17/outbox.cif.g08.bks.cpg/sg2_182_cif.got.tgz:362960.got - 2010.06.03 11:33:40.
