data_PCOD9037791
_publ_section_title
;
Structure prediction by ZEFSAII (Michael W. Deem and Ramdas Pophale) SiO2 
 PCOD9037791
Probable space group: P -1
;
_chemical_formula_sum "Si O2"
_cell_formula_units_Z 16
_cell_length_a 13.132543
_cell_length_b 5.583412
_cell_length_c 13.877111
_cell_angle_alpha 72.869857
_cell_angle_beta 138.795946
_cell_angle_gamma 106.147229
_cell_volume 637.970390
_symmetry_space_group_name_H-M "P -1"
_symmetry_group_IT_number 2
_symmetry_cell_setting 'triclinic'
loop_
_space_group_symop_operation_xyz
x,y,z
-x,-y,-z
loop_
_atom_site_type_symbol
_atom_site_label
_atom_site_fract_x
_atom_site_fract_y
_atom_site_fract_z
Si Si1 0.275942 0.129613 0.563342
Si Si2 0.584206 0.956118 0.862958
Si Si3 0.064855 0.859034 0.293368
Si Si4 0.196732 0.830926 0.860460
Si Si5 0.696026 0.000723 0.740586
Si Si6 0.841478 0.667389 0.005359
Si Si7 0.003853 0.363115 0.417624
Si Si8 0.583373 0.374788 0.485381
O O1 0.402249 0.953021 0.714477
O O2 0.204001 0.039131 0.419291
O O3 0.129234 0.156901 0.524705
O O4 0.367133 0.401684 0.578322
O O5 0.667066 0.115391 0.812301
O O6 0.637144 0.069965 0.989981
O O7 0.678311 0.710866 0.940502
O O8 0.915968 0.949146 0.236193
O O9 0.078695 0.578982 0.373341
O O10 0.983061 0.839069 0.133236
O O11 0.133458 0.616589 0.918623
O O12 0.159792 0.719593 0.741593
O O13 0.535825 0.834924 0.622363
O O14 0.714448 0.218106 0.648208
O O15 0.811824 0.784452 0.866290
O O16 0.000000 0.500000 0.500000
O O17 0.500000 0.500000 0.500000
#
# Coordination Sequence:
#
# PCOD9037791 Si02
#       8
#     2   2   2   2   2   2   2   2
#     4  11  22  34  60  88 119 154 189 246 292 337
#     4   9  18  32  56  87 112 154 194 231 284 339
#     4   9  20  36  59  83 112 146 197 232 287 350
#     4   9  17  35  61  83 113 155 192 233 288 345
#     4   9  20  31  56  82 120 154 195 231 275 338
#     4   8  16  33  55  79 111 155 192 230 284 336
#     4  10  23  41  63  86 113 151 192 239 294 351
#     4  11  20  34  52  89 121 154 193 236 288 334
#
# _framework density 25.079537999999999
#
# number of rings (size 3 to 8) (size 9 to 14) (size 15 to 20)
#    0.750    1.750    1.250    0.750    1.750    2.000 
#    0.000    1.250    0.000   12.000    0.000    0.000 
#    0.000    0.000    0.000    0.000    0.000    0.000 
#
# Total GULP energy -89154.815794 kJ/mol
# GULP energy per Si atom -5572.175987 kJ/mol
# Density = 2.502246 g / cm^3
# Si number density = 25.079538 Si / 1000 Ang^3
#
#
#
# Elastic Constant Matrix: (Units=GPa)
#
#
# Indices 1 2 3 4 5 6 
#
# 1 48.9258 -1.3151 10.7245 1.3496 3.2959 -1.4236
# 2 -1.3151 47.1863 21.6297 -3.7779 2.6452 0.5343
# 3 10.7245 21.6297 155.0799 12.6384 12.6461 -10.7612
# 4 1.3496 -3.7779 12.6384 38.0738 -9.3585 -6.5735
# 5 3.2959 2.6452 12.6461 -9.3585 32.0506 -6.4655
# 6 -1.4236 0.5343 -10.7612 -6.5735 -6.4655 37.6431
#
#
#
# Elastic Compliance Matrix: (Units=1/GPa)
#
#
# Indices 1 2 3 4 5 6 
#
# 1 0.020929 0.001296 -0.001429 -0.000615 -0.001889 -0.000067
# 2 0.001296 0.023178 -0.003670 0.003418 0.000261 -0.000687
# 3 -0.001429 -0.003670 0.007695 -0.003537 -0.003419 0.000993
# 4 -0.000615 0.003418 -0.003537 0.031816 0.011777 0.006496
# 5 -0.001889 0.000261 -0.003419 0.011777 0.037669 0.007474
# 6 -0.000067 -0.000687 0.000993 0.006496 0.007474 0.029274
#
#
# Mechanical properties :
#
#
# Convention : Reuss Voigt Hill
#
# Bulk Modulus (GPa) = 22.62642 34.80780 28.71711
# Shear Modulus (GPa) = 28.91866 36.23037 32.57452
#
# Velocity S-wave (km/s) = 3.39938 3.80494 3.60786
# Velocity P-wave (km/s) = 4.94461 5.76303 5.36944
#
# Compressibility (1/GPa) = 0.04419613
#
# Stress axis : x y z
#
# Youngs Moduli (GPa) = 47.77986 43.14501 129.95736
#
# Poissons Ratio (x) = -0.05590 0.18565
# Poissons Ratio (y) = -0.06190 0.47692
# Poissons Ratio (z) = 0.06826 0.15833
#
# Static dielectric constant tensor:
#      x y z
#    x 2.361960 -0.067040 0.056090 
#    y -0.067040 1.983900 -0.010820 
#    z 0.056090 -0.010820 2.024100 
# 
# From -- ./inp_files/525311.got.cif
#   From: 2010.05.17/outbox.cif.g08.bks.cpg/sg2_263_cif.got.tgz:525311.got - 2010.06.03 11:33:40.
