data_PCOD9037231
_publ_section_title
;
Structure prediction by ZEFSAII (Michael W. Deem and Ramdas Pophale) SiO2 
 PCOD9037231
Probable space group: P -1
;
_chemical_formula_sum "Si O2"
_cell_formula_units_Z 14
_cell_length_a 23.337929
_cell_length_b 5.089474
_cell_length_c 6.965047
_cell_angle_alpha 108.506135
_cell_angle_beta 52.782949
_cell_angle_gamma 100.962248
_cell_volume 624.745291
_symmetry_space_group_name_H-M "P -1"
_symmetry_group_IT_number 2
_symmetry_cell_setting 'triclinic'
loop_
_space_group_symop_operation_xyz
x,y,z
-x,-y,-z
loop_
_atom_site_type_symbol
_atom_site_label
_atom_site_fract_x
_atom_site_fract_y
_atom_site_fract_z
Si Si1 0.934359 0.281562 0.123762
Si Si2 0.674164 0.615878 0.911995
Si Si3 0.408878 0.124179 0.163598
Si Si4 0.995751 0.186001 0.361187
Si Si5 0.780115 0.443059 0.342560
Si Si6 0.483353 0.627680 0.767937
Si Si7 0.710614 0.884198 0.301904
O O1 0.863457 0.423003 0.217687
O O2 0.931356 0.211634 0.340882
O O3 0.000000 0.500000 0.000000
O O4 0.947244 0.985272 0.925135
O O5 0.653923 0.861826 0.863957
O O6 0.736446 0.457831 0.635755
O O7 0.596296 0.469943 0.038686
O O8 0.694418 0.714076 0.103425
O O9 0.449361 0.398233 0.229374
O O10 0.364563 0.034038 0.422085
O O11 0.470481 0.958453 0.883050
O O12 0.000000 0.500000 0.500000
O O13 0.000000 0.000000 0.500000
O O14 0.756019 0.693360 0.312309
O O15 0.753971 0.160210 0.231368
O O16 0.500000 0.500000 0.500000
#
# Coordination Sequence:
#
# PCOD9037231 Si02
#       7
#     2   2   2   2   2   2   2
#     4  11  26  47  76 109 144 186 241 298 357 423
#     4  11  24  43  66  94 140 179 229 278 351 406
#     4  10  23  40  63  97 132 172 233 285 339 406
#     4  11  24  44  74 108 145 180 230 290 357 425
#     4  11  28  45  71  99 142 180 232 281 345 413
#     4  11  21  39  66  96 128 179 228 288 340 402
#     4  11  25  45  68  99 138 185 227 282 345 416
#
# _framework density 22.409132
#
# number of rings (size 3 to 8) (size 9 to 14) (size 15 to 20)
#    0.000    1.143    4.286    0.429    6.000    2.857 
#    0.000    0.000    0.000    0.000    0.000    0.000 
#    0.000    0.000    0.000    0.000    0.000    0.000 
#
# Total GULP energy -77977.949863 kJ/mol
# GULP energy per Si atom -5569.853562 kJ/mol
# Density = 2.235813 g / cm^3
# Si number density = 22.409132 Si / 1000 Ang^3
#
#
#
# Elastic Constant Matrix: (Units=GPa)
#
#
# Indices 1 2 3 4 5 6 
#
# 1 124.4638 16.5380 64.6775 17.5723 -1.4502 -3.4506
# 2 16.5380 82.5036 25.5088 17.5300 -1.9103 -8.6565
# 3 64.6775 25.5088 107.1466 31.6619 26.4433 6.3525
# 4 17.5723 17.5300 31.6619 33.5747 5.2226 -1.4294
# 5 -1.4502 -1.9103 26.4433 5.2226 45.7701 -6.8609
# 6 -3.4506 -8.6565 6.3525 -1.4294 -6.8609 31.2697
#
#
#
# Elastic Compliance Matrix: (Units=1/GPa)
#
#
# Indices 1 2 3 4 5 6 
#
# 1 0.013829 0.001160 -0.011511 0.002053 0.007801 0.005991
# 2 0.001160 0.014980 -0.004337 -0.004802 0.004607 0.005948
# 3 -0.011511 -0.004337 0.026200 -0.014465 -0.015820 -0.011926
# 4 0.002053 -0.004802 -0.014465 0.044458 0.003855 0.004714
# 5 0.007801 0.004607 -0.015820 0.003855 0.032898 0.012744
# 6 0.005991 0.005948 -0.011926 0.004714 0.012744 0.039722
#
#
# Mechanical properties :
#
#
# Convention : Reuss Voigt Hill
#
# Bulk Modulus (GPa) = 39.01362 58.61809 48.81585
# Shear Modulus (GPa) = 23.80859 35.94887 29.87873
#
# Velocity S-wave (km/s) = 3.26306 4.00960 3.65544
# Velocity P-wave (km/s) = 5.62532 6.90295 6.29663
#
# Compressibility (1/GPa) = 0.02563207
#
# Stress axis : x y z
#
# Youngs Moduli (GPa) = 72.31108 66.75498 38.16838
#
# Poissons Ratio (x) = -0.07743 0.43936
# Poissons Ratio (y) = -0.08387 0.16555
# Poissons Ratio (z) = 0.83238 0.28953
#
# Static dielectric constant tensor:
#      x y z
#    x 1.895640 -0.081350 -0.030980 
#    y -0.081350 2.001820 -0.012520 
#    z -0.030980 -0.012520 1.791840 
# 
# From -- ./inp_files/11572.got.cif
#   From: 2010.05.17/outbox.cif.g08.bks.cpg/sg2_6_cif.got.tgz:11572.got - 2010.06.03 11:33:40.
