data_PCOD9037407
_publ_section_title
;
Structure prediction by ZEFSAII (Michael W. Deem and Ramdas Pophale) SiO2 
 PCOD9037407
Probable space group: P -1
;
_chemical_formula_sum "Si O2"
_cell_formula_units_Z 16
_cell_length_a 15.872100
_cell_length_b 5.557636
_cell_length_c 9.286314
_cell_angle_alpha 76.166925
_cell_angle_beta 102.586253
_cell_angle_gamma 112.056452
_cell_volume 729.678456
_symmetry_space_group_name_H-M "P -1"
_symmetry_group_IT_number 2
_symmetry_cell_setting 'triclinic'
loop_
_space_group_symop_operation_xyz
x,y,z
-x,-y,-z
loop_
_atom_site_type_symbol
_atom_site_label
_atom_site_fract_x
_atom_site_fract_y
_atom_site_fract_z
Si Si1 0.574778 0.267779 0.040450
Si Si2 0.777172 0.273038 0.092518
Si Si3 0.190963 0.310711 0.312499
Si Si4 0.585337 0.917870 0.583062
Si Si5 0.262260 0.934059 0.189837
Si Si6 0.529502 0.507043 0.245767
Si Si7 0.946532 0.710652 0.958025
Si Si8 0.284850 0.081928 0.615049
O O1 0.541374 0.457673 0.902184
O O2 0.679259 0.311377 0.041138
O O3 0.566775 0.305316 0.202106
O O4 0.500000 0.000000 0.000000
O O5 0.776078 0.134907 0.265473
O O6 0.769477 0.070536 0.985937
O O7 0.858665 0.542480 0.047121
O O8 0.221783 0.627226 0.266536
O O9 0.088027 0.236622 0.221282
O O10 0.223737 0.232191 0.489774
O O11 0.233729 0.149500 0.238955
O O12 0.537595 0.605239 0.629901
O O13 0.666652 0.015603 0.484820
O O14 0.500000 0.000000 0.500000
O O15 0.630936 0.007719 0.742860
O O16 0.623332 0.737133 0.290874
O O17 0.000000 0.500000 0.000000
O O18 0.000000 0.000000 0.000000
#
# Coordination Sequence:
#
# PCOD9037407 Si02
#       8
#     2   2   2   2   2   2   2   2
#     4  11  23  41  61 101 140 184 241 291 327 405
#     4  11  24  42  73 101 140 181 238 296 352 412
#     4  10  23  46  70 102 138 174 226 291 361 429
#     4  11  23  37  58  90 138 194 239 286 336 406
#     4  10  23  40  66  96 133 187 235 280 345 412
#     4  11  24  37  62  92 142 190 242 279 337 406
#     4  11  25  49  78 107 132 178 238 295 362 438
#     4  11  24  41  64 103 140 186 234 289 358 413
#
# _framework density 21.927465999999999
#
# number of rings (size 3 to 8) (size 9 to 14) (size 15 to 20)
#    0.000    1.250    1.250    4.125   10.500    2.000 
#    0.000    1.250    0.000    0.000    0.000    0.000 
#    0.000    0.000    0.000    0.000    0.000    0.000 
#
# Total GULP energy -89115.406771 kJ/mol
# GULP energy per Si atom -5569.712923 kJ/mol
# Density = 2.187756 g / cm^3
# Si number density = 21.927466 Si / 1000 Ang^3
#
#
#
# Elastic Constant Matrix: (Units=GPa)
#
#
# Indices 1 2 3 4 5 6 
#
# 1 92.4335 37.3021 29.9528 -7.7141 19.3081 5.6353
# 2 37.3021 96.9005 30.7481 6.8713 -8.1661 16.5001
# 3 29.9528 30.7481 120.8827 -20.9207 7.4562 5.1762
# 4 -7.7141 6.8713 -20.9207 40.7270 -1.0132 5.3243
# 5 19.3081 -8.1661 7.4562 -1.0132 41.9026 -5.3977
# 6 5.6353 16.5001 5.1762 5.3243 -5.3977 38.0659
#
#
#
# Elastic Compliance Matrix: (Units=1/GPa)
#
#
# Indices 1 2 3 4 5 6 
#
# 1 0.015960 -0.006575 -0.001110 0.003489 -0.008490 -0.001054
# 2 -0.006575 0.015405 -0.003357 -0.004935 0.006033 -0.003702
# 3 -0.001110 -0.003357 0.010579 0.005861 -0.002002 -0.000923
# 4 0.003489 -0.004935 0.005861 0.029467 -0.003386 -0.003776
# 5 -0.008490 0.006033 -0.002002 -0.003386 0.029690 0.003598
# 6 -0.001054 -0.003702 -0.000923 -0.003776 0.003598 0.029195
#
#
# Mechanical properties :
#
#
# Convention : Reuss Voigt Hill
#
# Bulk Modulus (GPa) = 50.35143 56.24698 53.29920
# Shear Modulus (GPa) = 31.44649 38.28667 34.86658
#
# Velocity S-wave (km/s) = 3.79108 4.18312 3.99192
# Velocity P-wave (km/s) = 6.49427 7.00274 6.75330
#
# Compressibility (1/GPa) = 0.01986041
#
# Stress axis : x y z
#
# Youngs Moduli (GPa) = 62.65480 64.91420 94.52983
#
# Poissons Ratio (x) = 0.42683 0.10489
# Poissons Ratio (y) = 0.41198 0.31732
# Poissons Ratio (z) = 0.06952 0.21791
#
# Static dielectric constant tensor:
#      x y z
#    x 4.545590 -2.587930 -0.454740 
#    y -2.587930 3.908700 0.707750 
#    z -0.454740 0.707750 1.742620 
# 
# From -- ./inp_files/288675.got.cif
#   From: 2010.05.17/outbox.cif.g08.bks.cpg/sg2_145_cif.got.tgz:288675.got - 2010.06.03 11:33:40.
