data_PCOD9037916
_publ_section_title
;
Structure prediction by ZEFSAII (Michael W. Deem and Ramdas Pophale) SiO2 
 PCOD9037916
Probable space group: P -1
;
_chemical_formula_sum "Si O2"
_cell_formula_units_Z 16
_cell_length_a 6.103418
_cell_length_b 19.229782
_cell_length_c 8.462412
_cell_angle_alpha 60.448146
_cell_angle_beta 110.678404
_cell_angle_gamma 127.990234
_cell_volume 679.155338
_symmetry_space_group_name_H-M "P -1"
_symmetry_group_IT_number 2
_symmetry_cell_setting 'triclinic'
loop_
_space_group_symop_operation_xyz
x,y,z
-x,-y,-z
loop_
_atom_site_type_symbol
_atom_site_label
_atom_site_fract_x
_atom_site_fract_y
_atom_site_fract_z
Si Si1 0.840714 0.228510 0.204706
Si Si2 0.914407 0.891331 0.607323
Si Si3 0.276111 0.131497 0.059906
Si Si4 0.340858 0.795750 0.463922
Si Si5 0.284868 0.953488 0.145523
Si Si6 0.226762 0.417126 0.938788
Si Si7 0.216733 0.370051 0.622182
Si Si8 0.186028 0.537999 0.346102
O O1 0.600815 0.210883 0.040439
O O2 0.767122 0.243236 0.344628
O O3 0.858257 0.135570 0.322313
O O4 0.121296 0.319975 0.113890
O O5 0.803707 0.862753 0.788839
O O6 0.657942 0.824039 0.499116
O O7 0.000000 0.000000 0.500000
O O8 0.264536 0.034244 0.136263
O O9 0.031700 0.123161 0.903789
O O10 0.376707 0.897466 0.338686
O O11 0.093716 0.722302 0.369338
O O12 0.500000 0.000000 0.000000
O O13 0.266436 0.400156 0.785075
O O14 0.985665 0.440810 0.844572
O O15 0.500000 0.500000 0.000000
O O16 0.216988 0.449007 0.422026
O O17 0.496949 0.373497 0.643528
O O18 0.000000 0.500000 0.500000
#
# Coordination Sequence:
#
# PCOD9037916 Si02
#       8
#     2   2   2   2   2   2   2   2
#     4  11  26  43  66  99 139 176 232 282 340 407
#     4  11  23  44  67  94 138 182 223 280 339 401
#     4  10  23  41  64  96 133 176 226 272 341 403
#     4  11  26  40  69 101 132 177 232 276 338 410
#     4  11  23  41  68  99 139 178 224 283 343 403
#     4  11  27  44  70 100 137 180 224 283 346 405
#     4  10  24  44  72  99 135 177 226 277 342 410
#     4   9  22  45  69  96 132 174 219 277 341 402
#
# _framework density 23.558675000000001
#
# number of rings (size 3 to 8) (size 9 to 14) (size 15 to 20)
#    0.000    1.500    0.000    3.000   12.250    5.500 
#    0.000    0.000    0.000    0.000    0.000    0.000 
#    0.000    0.000    0.000    0.000    0.000    0.000 
#
# Total GULP energy -89360.164124 kJ/mol
# GULP energy per Si atom -5585.010258 kJ/mol
# Density = 2.350505 g / cm^3
# Si number density = 23.558675 Si / 1000 Ang^3
#
#
#
# Elastic Constant Matrix: (Units=GPa)
#
#
# Indices 1 2 3 4 5 6 
#
# 1 80.4893 24.9447 15.5320 19.3837 19.1149 26.1859
# 2 24.9447 121.3483 24.9298 21.1122 5.0345 31.9769
# 3 15.5320 24.9298 66.5751 -1.0531 13.1497 5.9789
# 4 19.3837 21.1122 -1.0531 39.7172 2.9024 7.7422
# 5 19.1149 5.0345 13.1497 2.9024 42.0732 5.4257
# 6 26.1859 31.9769 5.9789 7.7422 5.4257 34.4832
#
#
#
# Elastic Compliance Matrix: (Units=1/GPa)
#
#
# Indices 1 2 3 4 5 6 
#
# 1 0.020282 0.001671 -0.003031 -0.007743 -0.006164 -0.013718
# 2 0.001671 0.012669 -0.004403 -0.005561 0.000922 -0.011151
# 3 -0.003031 -0.004403 0.018036 0.004026 -0.004404 0.003046
# 4 -0.007743 -0.005561 0.004026 0.031362 0.000343 0.003243
# 5 -0.006164 0.000922 -0.004404 0.000343 0.027793 0.000139
# 6 -0.013718 -0.011151 0.003046 0.003243 0.000139 0.048479
#
#
# Mechanical properties :
#
#
# Convention : Reuss Voigt Hill
#
# Bulk Modulus (GPa) = 25.34006 44.35843 34.84924
# Shear Modulus (GPa) = 27.27752 36.78847 32.03299
#
# Velocity S-wave (km/s) = 3.40642 3.95595 3.69143
# Velocity P-wave (km/s) = 5.12358 6.30364 5.74400
#
# Compressibility (1/GPa) = 0.03946320
#
# Stress axis : x y z
#
# Youngs Moduli (GPa) = 49.30384 78.93127 55.44372
#
# Poissons Ratio (x) = -0.13189 0.16803
# Poissons Ratio (y) = -0.08238 0.24410
# Poissons Ratio (z) = 0.14942 0.34751
#
# Static dielectric constant tensor:
#      x y z
#    x 2.001560 0.046110 0.059770 
#    y 0.046110 1.946970 0.011770 
#    z 0.059770 0.011770 1.889760 
# 
# From -- ./inp_files/38221.got.cif
#   From: 2010.05.17/outbox.cif.g08.bks.cpg/sg2_20_cif.got.tgz:38221.got - 2010.06.03 11:33:40.
