data_PCOD9037626
_publ_section_title
;
Structure prediction by ZEFSAII (Michael W. Deem and Ramdas Pophale) SiO2 
 PCOD9037626
Probable space group: P -1
;
_chemical_formula_sum "Si O2"
_cell_formula_units_Z 16
_cell_length_a 14.578149
_cell_length_b 8.823128
_cell_length_c 8.768926
_cell_angle_alpha 69.773215
_cell_angle_beta 140.310671
_cell_angle_gamma 118.149044
_cell_volume 634.810821
_symmetry_space_group_name_H-M "P -1"
_symmetry_group_IT_number 2
_symmetry_cell_setting 'triclinic'
loop_
_space_group_symop_operation_xyz
x,y,z
-x,-y,-z
loop_
_atom_site_type_symbol
_atom_site_label
_atom_site_fract_x
_atom_site_fract_y
_atom_site_fract_z
Si Si1 0.609909 0.595171 0.259379
Si Si2 0.470957 0.302809 0.579427
Si Si3 0.026416 0.264903 0.049153
Si Si4 0.795785 0.928996 0.846132
Si Si5 0.294585 0.828563 0.895905
Si Si6 0.831340 0.894782 0.254447
Si Si7 0.671709 0.342184 0.275602
Si Si8 0.003830 0.435856 0.277701
O O1 0.634789 0.702759 0.406867
O O2 0.742758 0.709457 0.276823
O O3 0.617331 0.402298 0.345724
O O4 0.440090 0.585820 0.994501
O O5 0.500000 0.500000 0.500000
O O6 0.379680 0.168948 0.382463
O O7 0.608303 0.248053 0.840399
O O8 0.065929 0.433073 0.938403
O O9 0.851886 0.136034 0.842925
O O10 0.117603 0.147357 0.141716
O O11 0.040189 0.329975 0.217968
O O12 0.839662 0.885719 0.086221
O O13 0.345821 0.829242 0.783869
O O14 0.121497 0.696757 0.733125
O O15 0.282965 0.003736 0.881896
O O16 0.000000 0.000000 0.500000
O O17 0.851063 0.444461 0.485588
#
# Coordination Sequence:
#
# PCOD9037626 Si02
#       8
#     2   2   2   2   2   2   2   2
#     4  10  25  45  67 105 133 187 232 284 359 416
#     4  11  26  47  76 103 146 178 236 295 349 426
#     4  10  24  40  67  98 135 181 239 286 350 418
#     4  11  25  45  68 101 134 190 233 283 363 405
#     4  11  25  44  66 110 135 188 235 285 352 415
#     4  12  28  46  71 101 149 183 238 293 344 422
#     4  10  23  40  70  95 137 176 236 284 351 416
#     4  11  21  42  65 102 139 177 236 294 346 411
#
# _framework density 25.204359
#
# number of rings (size 3 to 8) (size 9 to 14) (size 15 to 20)
#    0.000    1.250    1.250    2.625   12.250    4.500 
#    0.000    0.000    0.000    0.000    0.000    0.000 
#    0.000    0.000    0.000    0.000    0.000    0.000 
#
# Total GULP energy -89279.944749 kJ/mol
# GULP energy per Si atom -5579.996547 kJ/mol
# Density = 2.514699 g / cm^3
# Si number density = 25.204359 Si / 1000 Ang^3
#
#
#
# Elastic Constant Matrix: (Units=GPa)
#
#
# Indices 1 2 3 4 5 6 
#
# 1 72.1726 13.0148 13.0821 8.9983 -9.7582 -14.9274
# 2 13.0148 94.8508 22.2163 7.0333 -11.9397 -15.9974
# 3 13.0821 22.2163 112.7250 42.1688 -1.0927 -14.1852
# 4 8.9983 7.0333 42.1688 40.9174 -8.0379 1.9039
# 5 -9.7582 -11.9397 -1.0927 -8.0379 24.7806 4.9307
# 6 -14.9274 -15.9974 -14.1852 1.9039 4.9307 50.8666
#
#
#
# Elastic Compliance Matrix: (Units=1/GPa)
#
#
# Indices 1 2 3 4 5 6 
#
# 1 0.015735 -0.000714 -0.000216 -0.002469 0.004243 0.004014
# 2 -0.000714 0.012222 -0.002652 0.001787 0.005616 0.002283
# 3 -0.000216 -0.002652 0.017072 -0.018869 -0.007790 0.005325
# 4 -0.002469 0.001787 -0.018869 0.047730 0.016288 -0.008790
# 5 0.004243 0.005616 -0.007790 0.016288 0.050601 -0.004676
# 6 0.004014 0.002283 0.005325 -0.008790 -0.004676 0.023822
#
#
# Mechanical properties :
#
#
# Convention : Reuss Voigt Hill
#
# Bulk Modulus (GPa) = 26.41039 41.81943 34.11491
# Shear Modulus (GPa) = 26.74257 38.74195 32.74226
#
# Velocity S-wave (km/s) = 3.26088 3.92486 3.60817
# Velocity P-wave (km/s) = 4.96780 6.09652 5.56087
#
# Compressibility (1/GPa) = 0.03786388
#
# Stress axis : x y z
#
# Youngs Moduli (GPa) = 63.55151 81.82224 58.57542
#
# Poissons Ratio (x) = 0.05846 0.01263
# Poissons Ratio (y) = 0.04540 0.15537
# Poissons Ratio (z) = 0.01370 0.21703
#
# Static dielectric constant tensor:
#      x y z
#    x 2.050530 -0.004150 0.011640 
#    y -0.004150 2.063320 0.010210 
#    z 0.011640 0.010210 2.122750 
# 
# From -- ./inp_files/298437.got.cif
#   From: 2010.05.17/outbox.cif.g08.bks.cpg/sg2_150_cif.got.tgz:298437.got - 2010.06.03 11:33:40.
