data_PCOD9037600
_publ_section_title
;
Structure prediction by ZEFSAII (Michael W. Deem and Ramdas Pophale) SiO2 
 PCOD9037600
Probable space group: P -1
;
_chemical_formula_sum "Si O2"
_cell_formula_units_Z 16
_cell_length_a 26.745072
_cell_length_b 11.235701
_cell_length_c 11.613333
_cell_angle_alpha 27.506843
_cell_angle_beta 30.874224
_cell_angle_gamma 28.901590
_cell_volume 724.780823
_symmetry_space_group_name_H-M "P -1"
_symmetry_group_IT_number 2
_symmetry_cell_setting 'triclinic'
loop_
_space_group_symop_operation_xyz
x,y,z
-x,-y,-z
loop_
_atom_site_type_symbol
_atom_site_label
_atom_site_fract_x
_atom_site_fract_y
_atom_site_fract_z
Si Si1 0.384000 0.616707 0.195416
Si Si2 0.800081 0.025560 0.929940
Si Si3 0.932584 0.026090 0.995960
Si Si4 0.490066 0.811268 0.285684
Si Si5 0.653436 0.747986 0.216134
Si Si6 0.930791 0.283511 0.561264
Si Si7 0.746614 0.930887 0.359331
Si Si8 0.890102 0.556967 0.975481
O O1 0.380319 0.384010 0.492477
O O2 0.280338 0.739216 0.206328
O O3 0.500000 0.500000 0.000000
O O4 0.371605 0.915395 0.018864
O O5 0.731859 0.088209 0.130252
O O6 0.840823 0.700317 0.074427
O O7 0.905761 0.058881 0.731310
O O8 0.816100 0.022308 0.232840
O O9 0.011682 0.761943 0.978675
O O10 0.910028 0.299131 0.726407
O O11 0.000000 0.000000 0.000000
O O12 0.500000 0.500000 0.500000
O O13 0.587927 0.729033 0.253576
O O14 0.370117 0.005959 0.414727
O O15 0.500000 0.000000 0.000000
O O16 0.786582 0.577250 0.092868
O O17 0.832910 0.596074 0.445837
O O18 0.053397 0.242016 0.341336
#
# Coordination Sequence:
#
# PCOD9037600 Si02
#       8
#     2   2   2   2   2   2   2   2
#     4  11  24  42  70 101 142 187 230 287 356 418
#     4  10  23  40  70  99 144 180 228 293 352 430
#     4  10  24  42  68  95 139 184 234 293 340 422
#     4  12  29  48  76 102 140 190 241 302 350 418
#     4  11  26  44  68 106 138 183 236 290 351 421
#     4  10  23  40  69  97 140 183 230 290 351 427
#     4  10  25  44  67 105 134 180 242 283 361 419
#     4  10  24  41  65 105 137 183 231 282 363 414
#
# _framework density 22.075641000000001
#
# number of rings (size 3 to 8) (size 9 to 14) (size 15 to 20)
#    0.000    1.500    0.000    2.250   14.000    7.500 
#    0.000    0.000    0.000    0.000    0.000    0.000 
#    0.000    0.000    0.000    0.000    0.000    0.000 
#
# Total GULP energy -89240.217208 kJ/mol
# GULP energy per Si atom -5577.513575 kJ/mol
# Density = 2.202540 g / cm^3
# Si number density = 22.075641 Si / 1000 Ang^3
#
#
#
# Elastic Constant Matrix: (Units=GPa)
#
#
# Indices 1 2 3 4 5 6 
#
# 1 197.1245 17.6235 66.5065 2.2326 -14.7022 -21.3629
# 2 17.6235 53.5337 20.0580 21.5148 -7.7167 -14.8601
# 3 66.5065 20.0580 122.0416 23.5250 -5.8162 -11.1969
# 4 2.2326 21.5148 23.5250 30.3174 -7.4753 -6.6257
# 5 -14.7022 -7.7167 -5.8162 -7.4753 35.4456 4.2069
# 6 -21.3629 -14.8601 -11.1969 -6.6257 4.2069 19.0141
#
#
#
# Elastic Compliance Matrix: (Units=1/GPa)
#
#
# Indices 1 2 3 4 5 6 
#
# 1 0.007403 -0.000852 -0.004214 0.005376 0.002559 0.006477
# 2 -0.000852 0.030995 0.000520 -0.018480 0.000564 0.017008
# 3 -0.004214 0.000520 0.012234 -0.010026 -0.001713 -0.000239
# 4 0.005376 -0.018480 -0.010026 0.056224 0.008002 0.003514
# 5 0.002559 0.000564 -0.001713 0.008002 0.031012 -0.001767
# 6 0.006477 0.017008 -0.000239 0.003514 -0.001767 0.074637
#
#
# Mechanical properties :
#
#
# Convention : Reuss Voigt Hill
#
# Bulk Modulus (GPa) = 24.07363 64.56398 44.31881
# Shear Modulus (GPa) = 21.23647 34.85622 28.04634
#
# Velocity S-wave (km/s) = 3.10496 3.97790 3.56823
# Velocity P-wave (km/s) = 4.87679 7.09989 6.09063
#
# Compressibility (1/GPa) = 0.04153922
#
# Stress axis : x y z
#
# Youngs Moduli (GPa) = 135.08467 32.26323 81.73839
#
# Poissons Ratio (x) = 0.02748 0.34446
# Poissons Ratio (y) = 0.11506 -0.04247
# Poissons Ratio (z) = 0.56927 -0.01676
#
# Static dielectric constant tensor:
#      x y z
#    x 1.801970 -0.002870 0.021840 
#    y -0.002870 1.898380 -0.045490 
#    z 0.021840 -0.045490 1.902250 
# 
# From -- ./inp_files/476541.got.cif
#   From: 2010.05.17/outbox.cif.g08.bks.cpg/sg2_239_cif.got.tgz:476541.got - 2010.06.03 11:33:40.
