data_PCOD9037306
_publ_section_title
;
Structure prediction by ZEFSAII (Michael W. Deem and Ramdas Pophale) SiO2 
 PCOD9037306
Probable space group: P -1
;
_chemical_formula_sum "Si O2"
_cell_formula_units_Z 16
_cell_length_a 13.491157
_cell_length_b 9.087820
_cell_length_c 19.318487
_cell_angle_alpha 135.440145
_cell_angle_beta 153.953146
_cell_angle_gamma 47.592828
_cell_volume 725.229136
_symmetry_space_group_name_H-M "P -1"
_symmetry_group_IT_number 2
_symmetry_cell_setting 'triclinic'
loop_
_space_group_symop_operation_xyz
x,y,z
-x,-y,-z
loop_
_atom_site_type_symbol
_atom_site_label
_atom_site_fract_x
_atom_site_fract_y
_atom_site_fract_z
Si Si1 0.616837 0.496679 0.146257
Si Si2 0.287733 0.006043 0.817306
Si Si3 0.740095 0.235968 0.906415
Si Si4 0.941033 0.764717 0.369598
Si Si5 0.151729 0.129458 0.037880
Si Si6 0.960586 0.090065 0.246034
Si Si7 0.452130 0.188295 0.586115
Si Si8 0.421794 0.646320 0.669246
O O1 0.428661 0.565480 0.108354
O O2 0.752967 0.271337 0.167801
O O3 0.801061 0.665903 0.309497
O O4 0.500000 0.500000 0.000000
O O5 0.074993 0.017019 0.739020
O O6 0.337990 0.793340 0.731720
O O7 0.224655 0.195977 0.787344
O O8 0.500000 0.000000 0.000000
O O9 0.588650 0.122779 0.719067
O O10 0.796702 0.087550 0.958690
O O11 0.966914 0.266955 0.016144
O O12 0.190486 0.635603 0.475747
O O13 0.000000 0.000000 0.500000
O O14 0.380177 0.237929 0.203848
O O15 0.049114 0.065404 0.877977
O O16 0.182935 0.207472 0.431258
O O17 0.515343 0.412688 0.674036
O O18 0.500000 0.000000 0.500000
#
# Coordination Sequence:
#
# PCOD9037306 Si02
#       8
#     2   2   2   2   2   2   2   2
#     4  12  23  42  73 103 136 180 236 284 344 421
#     4  11  22  40  71 109 140 176 237 290 353 413
#     4  11  25  44  74 101 138 190 231 284 360 413
#     4  10  23  40  65 103 141 179 221 289 350 414
#     4  11  24  48  72  97 143 186 236 282 351 434
#     4  12  24  44  69 104 141 181 231 296 345 424
#     4  12  27  47  69 100 144 186 239 295 353 414
#     4  11  24  46  69 102 143 187 232 292 351 421
#
# _framework density 22.061993000000001
#
# number of rings (size 3 to 8) (size 9 to 14) (size 15 to 20)
#    0.000    0.750    5.000    3.000    5.250    1.500 
#    0.000    0.625    0.000    0.000    0.000    0.000 
#    0.000    0.000    0.000    0.000    0.000    0.000 
#
# Total GULP energy -89384.309006 kJ/mol
# GULP energy per Si atom -5586.519313 kJ/mol
# Density = 2.201178 g / cm^3
# Si number density = 22.061993 Si / 1000 Ang^3
#
#
#
# Elastic Constant Matrix: (Units=GPa)
#
#
# Indices 1 2 3 4 5 6 
#
# 1 124.8184 32.5905 23.7736 6.0726 11.0262 -7.8430
# 2 32.5905 46.2765 3.1198 -0.1326 6.8828 6.1614
# 3 23.7736 3.1198 84.2646 -7.9029 6.5973 -2.6685
# 4 6.0726 -0.1326 -7.9029 36.3103 2.2567 2.2201
# 5 11.0262 6.8828 6.5973 2.2567 42.4788 -0.4012
# 6 -7.8430 6.1614 -2.6685 2.2201 -0.4012 34.0352
#
#
#
# Elastic Compliance Matrix: (Units=1/GPa)
#
#
# Indices 1 2 3 4 5 6 
#
# 1 0.011124 -0.008032 -0.002895 -0.002702 -0.000956 0.003956
# 2 -0.008032 0.028561 0.001439 0.002379 -0.002960 -0.007098
# 3 -0.002895 0.001439 0.013083 0.003451 -0.001698 -0.000147
# 4 -0.002702 0.002379 0.003451 0.029028 -0.001788 -0.002697
# 5 -0.000956 -0.002960 -0.001698 -0.001788 0.024633 0.000589
# 6 0.003956 -0.007098 -0.000147 -0.002697 0.000589 0.031749
#
#
# Mechanical properties :
#
#
# Convention : Reuss Voigt Hill
#
# Bulk Modulus (GPa) = 29.59213 41.59192 35.59202
# Shear Modulus (GPa) = 29.68803 35.62321 32.65562
#
# Velocity S-wave (km/s) = 3.67231 4.02268 3.85148
# Velocity P-wave (km/s) = 5.60566 6.36153 5.99552
#
# Compressibility (1/GPa) = 0.03379277
#
# Stress axis : x y z
#
# Youngs Moduli (GPa) = 89.89183 35.01312 76.43645
#
# Poissons Ratio (x) = 0.28121 0.22125
# Poissons Ratio (y) = 0.72198 -0.10996
# Poissons Ratio (z) = 0.26020 -0.05037
#
# Static dielectric constant tensor:
#      x y z
#    x 1.965710 -0.013000 0.031890 
#    y -0.013000 1.837070 -0.007150 
#    z 0.031890 -0.007150 1.921540 
# 
# From -- ./inp_files/566999.got.cif
#   From: 2010.05.17/outbox.cif.g08.bks.cpg/sg2_284_cif.got.tgz:566999.got - 2010.06.03 11:33:40.
