data_PCOD9037264
_publ_section_title
;
Structure prediction by ZEFSAII (Michael W. Deem and Ramdas Pophale) SiO2 
 PCOD9037264
Probable space group: P -1
;
_chemical_formula_sum "Si O2"
_cell_formula_units_Z 12
_cell_length_a 9.914373
_cell_length_b 13.035334
_cell_length_c 9.519715
_cell_angle_alpha 40.988395
_cell_angle_beta 47.878864
_cell_angle_gamma 33.665758
_cell_volume 444.277057
_symmetry_space_group_name_H-M "P -1"
_symmetry_group_IT_number 2
_symmetry_cell_setting 'triclinic'
loop_
_space_group_symop_operation_xyz
x,y,z
-x,-y,-z
loop_
_atom_site_type_symbol
_atom_site_label
_atom_site_fract_x
_atom_site_fract_y
_atom_site_fract_z
Si Si1 0.645773 0.605364 0.970744
Si Si2 0.856106 0.033559 0.703815
Si Si3 0.387627 0.062903 0.220003
Si Si4 0.702051 0.395749 0.626043
Si Si5 0.196392 0.977201 0.712291
Si Si6 0.884908 0.623788 0.306252
O O1 0.431903 0.798810 0.820443
O O2 0.895175 0.456900 0.865478
O O3 0.676271 0.718580 0.953522
O O4 0.527989 0.517428 0.207901
O O5 0.709952 0.969430 0.816087
O O6 0.706533 0.271739 0.619706
O O7 0.000000 0.000000 0.500000
O O8 0.064697 0.902644 0.812441
O O9 0.274627 0.046024 0.456966
O O10 0.677294 0.870557 0.225569
O O11 0.739867 0.556716 0.413889
O O12 0.962230 0.192858 0.726897
O O13 0.000000 0.500000 0.500000
#
# Coordination Sequence:
#
# PCOD9037264 Si02
#       6
#     2   2   2   2   2   2
#     4  12  22  42  66  94 128 161 209 267 308 369
#     4   8  18  38  63  92 121 168 207 249 313 377
#     4  11  21  40  68  89 127 168 208 254 313 377
#     4  10  23  40  64  94 128 162 209 261 315 366
#     4   9  18  39  63  88 121 166 200 255 310 360
#     4  12  24  40  63  97 126 164 211 258 316 372
#
# _framework density 27.010171
#
# number of rings (size 3 to 8) (size 9 to 14) (size 15 to 20)
#    1.000    0.667    3.333    2.000    0.000    2.000 
#    3.000    0.833    0.000    0.000    0.000    0.000 
#    0.000    0.000    0.000    0.000    0.000    0.000 
#
# Total GULP energy -67229.308512 kJ/mol
# GULP energy per Si atom -5602.442376 kJ/mol
# Density = 2.694869 g / cm^3
# Si number density = 27.010171 Si / 1000 Ang^3
#
#
#
# Elastic Constant Matrix: (Units=GPa)
#
#
# Indices 1 2 3 4 5 6 
#
# 1 143.4363 24.5256 28.4326 1.4091 -18.9350 -2.5552
# 2 24.5256 166.9439 60.5301 38.0830 -23.9256 1.7066
# 3 28.4326 60.5301 140.8125 41.5787 -25.6866 -3.1394
# 4 1.4091 38.0830 41.5787 50.6547 -9.4180 -7.2720
# 5 -18.9350 -23.9256 -25.6866 -9.4180 45.0817 0.5575
# 6 -2.5552 1.7066 -3.1394 -7.2720 0.5575 37.2603
#
#
#
# Elastic Compliance Matrix: (Units=1/GPa)
#
#
# Indices 1 2 3 4 5 6 
#
# 1 0.007692 -0.000758 -0.001365 0.002051 0.002470 0.000811
# 2 -0.000758 0.008033 -0.001618 -0.004510 0.002099 -0.001468
# 3 -0.001365 -0.001618 0.010722 -0.007025 0.003216 -0.000535
# 4 0.002051 -0.004510 -0.007025 0.029753 0.000612 0.005553
# 5 0.002470 0.002099 0.003216 0.000612 0.026293 0.000070
# 6 0.000811 -0.001468 -0.000535 0.005553 0.000070 0.027999
#
#
# Mechanical properties :
#
#
# Convention : Reuss Voigt Hill
#
# Bulk Modulus (GPa) = 52.72515 75.35215 64.03865
# Shear Modulus (GPa) = 40.22744 49.11298 44.67021
#
# Velocity S-wave (km/s) = 3.86339 4.26880 4.07114
# Velocity P-wave (km/s) = 6.28203 7.22877 6.77196
#
# Compressibility (1/GPa) = 0.01896628
#
# Stress axis : x y z
#
# Youngs Moduli (GPa) = 130.00389 124.49111 93.26736
#
# Poissons Ratio (x) = 0.09430 0.12728
# Poissons Ratio (y) = 0.09848 0.15091
# Poissons Ratio (z) = 0.17741 0.20143
#
# Static dielectric constant tensor:
#      x y z
#    x 2.174620 0.012870 -0.012260 
#    y 0.012870 2.065620 -0.047670 
#    z -0.012260 -0.047670 2.137250 
# 
# From -- ./inp_files/430880.got.cif
#   From: 2010.05.17/outbox.cif.g08.bks.cpg/sg2_216_cif.got.tgz:430880.got - 2010.06.03 11:33:40.
