data_PCOD9037473
_publ_section_title
;
Structure prediction by ZEFSAII (Michael W. Deem and Ramdas Pophale) SiO2 
 PCOD9037473
Probable space group: P -1
;
_chemical_formula_sum "Si O2"
_cell_formula_units_Z 16
_cell_length_a 16.410739
_cell_length_b 7.985389
_cell_length_c 6.509600
_cell_angle_alpha 119.626528
_cell_angle_beta 115.075336
_cell_angle_gamma 68.240430
_cell_volume 657.416974
_symmetry_space_group_name_H-M "P -1"
_symmetry_group_IT_number 2
_symmetry_cell_setting 'triclinic'
loop_
_space_group_symop_operation_xyz
x,y,z
-x,-y,-z
loop_
_atom_site_type_symbol
_atom_site_label
_atom_site_fract_x
_atom_site_fract_y
_atom_site_fract_z
Si Si1 0.455614 0.523709 0.186916
Si Si2 0.370830 0.144742 0.911371
Si Si3 0.749449 0.260328 0.874914
Si Si4 0.879792 0.428644 0.830358
Si Si5 0.817065 0.877825 0.455657
Si Si6 0.482056 0.132520 0.360519
Si Si7 0.940284 0.760849 0.878016
Si Si8 0.876012 0.128074 0.298438
O O1 0.357579 0.669309 0.174037
O O2 0.520211 0.638934 0.455385
O O3 0.500000 0.500000 0.000000
O O4 0.429894 0.313438 0.066901
O O5 0.268855 0.215125 0.760047
O O6 0.429135 0.958889 0.740337
O O7 0.386649 0.095768 0.138395
O O8 0.789738 0.387616 0.821321
O O9 0.775339 0.042235 0.678429
O O10 0.798693 0.252861 0.143779
O O11 0.875766 0.646075 0.873698
O O12 0.910019 0.284047 0.578840
O O13 0.958799 0.366642 0.048590
O O14 0.904580 0.763532 0.607521
O O15 0.843163 0.988259 0.349363
O O16 0.500000 0.000000 0.500000
O O17 0.936855 0.975471 0.109960
#
# Coordination Sequence:
#
# PCOD9037473 Si02
#       8
#     2   2   2   2   2   2   2   2
#     4  12  25  45  69  99 131 177 222 276 338 395
#     4  11  25  42  70  94 134 174 220 272 338 393
#     4  10  24  44  66  97 139 170 227 279 331 399
#     4  10  23  44  66  99 132 179 219 280 327 398
#     4  10  23  43  65 102 134 179 217 278 332 399
#     4  11  24  46  66  97 129 172 222 276 331 400
#     4  10  23  42  68  98 137 170 228 270 332 398
#     4  10  23  40  67  97 133 178 219 269 336 396
#
# _framework density 24.337672999999999
#
# number of rings (size 3 to 8) (size 9 to 14) (size 15 to 20)
#    0.000    1.500    2.500    0.750    5.250    5.500 
#    4.500    2.500    0.000    0.000    0.000    0.000 
#    0.000    0.000    0.000    0.000    0.000    0.000 
#
# Total GULP energy -89389.993936 kJ/mol
# GULP energy per Si atom -5586.874621 kJ/mol
# Density = 2.428228 g / cm^3
# Si number density = 24.337673 Si / 1000 Ang^3
#
#
#
# Elastic Constant Matrix: (Units=GPa)
#
#
# Indices 1 2 3 4 5 6 
#
# 1 63.1037 -4.2320 34.5021 -7.2124 -2.7606 7.1507
# 2 -4.2320 49.9382 28.3829 9.6659 -3.5082 11.4208
# 3 34.5021 28.3829 160.4309 0.7817 8.0366 3.8709
# 4 -7.2124 9.6659 0.7817 48.4673 -1.0618 1.6536
# 5 -2.7606 -3.5082 8.0366 -1.0618 27.8741 2.3716
# 6 7.1507 11.4208 3.8709 1.6536 2.3716 22.6233
#
#
#
# Elastic Compliance Matrix: (Units=1/GPa)
#
#
# Indices 1 2 3 4 5 6 
#
# 1 0.021273 0.007499 -0.005952 0.002241 0.005725 -0.010255
# 2 0.007499 0.029665 -0.006825 -0.003951 0.007714 -0.016698
# 3 -0.005952 -0.006825 0.008836 0.000092 -0.004355 0.004265
# 4 0.002241 -0.003951 0.000092 0.021778 0.000560 -0.000380
# 5 0.005725 0.007714 -0.004355 0.000560 0.039468 -0.009137
# 6 -0.010255 -0.016698 0.004265 -0.000380 -0.009137 0.056129
#
#
# Mechanical properties :
#
#
# Convention : Reuss Voigt Hill
#
# Bulk Modulus (GPa) = 20.31797 43.41988 31.86892
# Shear Modulus (GPa) = 24.49659 34.11426 29.30542
#
# Velocity S-wave (km/s) = 3.17603 3.74800 3.47380
# Velocity P-wave (km/s) = 4.67076 6.05056 5.40487
#
# Compressibility (1/GPa) = 0.04921751
#
# Stress axis : x y z
#
# Youngs Moduli (GPa) = 47.00848 33.70961 113.17906
#
# Poissons Ratio (x) = -0.25280 0.67363
# Poissons Ratio (y) = -0.35253 0.77248
# Poissons Ratio (z) = 0.27979 0.23008
#
# Static dielectric constant tensor:
#      x y z
#    x 1.917320 0.016970 0.015780 
#    y 0.016970 2.065320 -0.058820 
#    z 0.015780 -0.058820 2.014160 
# 
# From -- ./inp_files/56457.got.cif
#   From: 2010.05.17/outbox.cif.g08.bks.cpg/sg2_29_cif.got.tgz:56457.got - 2010.06.03 11:33:40.
