data_PCOD9037929
_publ_section_title
;
Structure prediction by ZEFSAII (Michael W. Deem and Ramdas Pophale) SiO2 
 PCOD9037929
Probable space group: P -1
;
_chemical_formula_sum "Si O2"
_cell_formula_units_Z 14
_cell_length_a 15.879309
_cell_length_b 10.206071
_cell_length_c 12.580485
_cell_angle_alpha 125.598754
_cell_angle_beta 157.076999
_cell_angle_gamma 52.132766
_cell_volume 625.978578
_symmetry_space_group_name_H-M "P -1"
_symmetry_group_IT_number 2
_symmetry_cell_setting 'triclinic'
loop_
_space_group_symop_operation_xyz
x,y,z
-x,-y,-z
loop_
_atom_site_type_symbol
_atom_site_label
_atom_site_fract_x
_atom_site_fract_y
_atom_site_fract_z
Si Si1 0.838964 0.199347 0.741555
Si Si2 0.124964 0.400229 0.292605
Si Si3 0.375700 0.933744 0.920613
Si Si4 0.218615 0.915176 0.054034
Si Si5 0.464649 0.209371 0.444398
Si Si6 0.985320 0.226833 0.685244
Si Si7 0.523869 0.680437 0.149473
O O1 0.577586 0.236223 0.478390
O O2 0.907469 0.241744 0.724003
O O3 0.951803 0.297711 0.004806
O O4 0.959471 0.003506 0.800828
O O5 0.302396 0.367807 0.385397
O O6 0.005737 0.591779 0.256876
O O7 0.273243 0.335971 0.538662
O O8 0.207159 0.831497 0.629251
O O9 0.534986 0.805871 0.125269
O O10 0.213698 0.089558 0.865583
O O11 0.500000 0.000000 0.000000
O O12 0.329147 0.852417 0.264501
O O13 0.298402 0.770445 0.993621
O O14 0.337344 0.062620 0.228832
O O15 0.500000 0.500000 0.000000
#
# Coordination Sequence:
#
# PCOD9037929 Si02
#       7
#     2   2   2   2   2   2   2
#     4  11  21  37  66  95 130 167 216 258 328 386
#     4  10  23  41  64  98 134 163 211 274 318 380
#     4  11  26  46  69  93 128 177 221 261 324 387
#     4   9  19  37  59  90 130 165 208 267 315 381
#     4   9  20  36  61  94 128 168 206 262 325 377
#     4  11  24  44  65  94 134 170 213 269 322 382
#     4  11  21  44  70  88 130 175 213 270 320 373
#
# _framework density 22.364982999999999
#
# number of rings (size 3 to 8) (size 9 to 14) (size 15 to 20)
#    0.000    1.714    2.857    1.714    2.000    1.714 
#    0.000    0.714    0.000    0.000    0.000    0.000 
#    0.000    0.000    0.000    0.000    0.000    0.000 
#
# Total GULP energy -78270.229169 kJ/mol
# GULP energy per Si atom -5590.730655 kJ/mol
# Density = 2.231408 g / cm^3
# Si number density = 22.364983 Si / 1000 Ang^3
#
#
#
# Elastic Constant Matrix: (Units=GPa)
#
#
# Indices 1 2 3 4 5 6 
#
# 1 120.0105 50.4837 38.6027 10.9135 -1.1564 4.1967
# 2 50.4837 144.1102 33.6500 7.7324 -11.1385 -21.9708
# 3 38.6027 33.6500 77.7946 10.8166 -13.6423 -9.8368
# 4 10.9135 7.7324 10.8166 22.5109 0.9621 -8.6682
# 5 -1.1564 -11.1385 -13.6423 0.9621 27.4982 6.1805
# 6 4.1967 -21.9708 -9.8368 -8.6682 6.1805 19.0009
#
#
#
# Elastic Compliance Matrix: (Units=1/GPa)
#
#
# Indices 1 2 3 4 5 6 
#
# 1 0.013675 -0.005551 -0.005321 -0.008227 -0.000476 -0.015792
# 2 -0.005551 0.011272 -0.000808 0.005490 0.000071 0.016323
# 3 -0.005321 -0.000808 0.018438 -0.004245 0.007531 0.005400
# 4 -0.008227 0.005490 -0.004245 0.063982 -0.011186 0.038795
# 5 -0.000476 0.000071 0.007531 -0.011186 0.043944 -0.015311
# 6 -0.015792 0.016323 0.005400 0.038795 -0.015311 0.100465
#
#
# Mechanical properties :
#
#
# Convention : Reuss Voigt Hill
#
# Bulk Modulus (GPa) = 49.93912 65.26535 57.60223
# Shear Modulus (GPa) = 17.74240 28.41393 23.07816
#
# Velocity S-wave (km/s) = 2.81963 3.56823 3.21579
# Velocity P-wave (km/s) = 5.74265 6.79865 6.29284
#
# Compressibility (1/GPa) = 0.02002438
#
# Stress axis : x y z
#
# Youngs Moduli (GPa) = 73.12567 88.71612 54.23587
#
# Poissons Ratio (x) = 0.49247 0.28859
# Poissons Ratio (y) = 0.40593 0.04383
# Poissons Ratio (z) = 0.38911 0.07169
#
# Static dielectric constant tensor:
#      x y z
#    x 1.858480 0.007550 -0.016150 
#    y 0.007550 1.811910 -0.022550 
#    z -0.016150 -0.022550 1.824070 
# 
# From -- ./inp_files/446372.got.cif
#   From: 2010.05.17/outbox.cif.g08.bks.cpg/sg2_224_cif.got.tgz:446372.got - 2010.06.03 11:33:40.
