data_PCOD9037918
_publ_section_title
;
Structure prediction by ZEFSAII (Michael W. Deem and Ramdas Pophale) SiO2 
 PCOD9037918
Probable space group: P -1
;
_chemical_formula_sum "Si O2"
_cell_formula_units_Z 16
_cell_length_a 16.226757
_cell_length_b 18.625544
_cell_length_c 11.526336
_cell_angle_alpha 33.260240
_cell_angle_beta 133.925347
_cell_angle_gamma 157.135110
_cell_volume 692.534125
_symmetry_space_group_name_H-M "P -1"
_symmetry_group_IT_number 2
_symmetry_cell_setting 'triclinic'
loop_
_space_group_symop_operation_xyz
x,y,z
-x,-y,-z
loop_
_atom_site_type_symbol
_atom_site_label
_atom_site_fract_x
_atom_site_fract_y
_atom_site_fract_z
Si Si1 0.057746 0.689560 0.737606
Si Si2 0.826854 0.840307 0.259007
Si Si3 0.161978 0.402963 0.554877
Si Si4 0.142625 0.697015 0.480941
Si Si5 0.298944 0.401394 0.050957
Si Si6 0.342576 0.494655 0.233370
Si Si7 0.569498 0.762811 0.624140
Si Si8 0.332194 0.762287 0.791108
O O1 0.287300 0.860500 0.667105
O O2 0.861801 0.532476 0.669853
O O3 0.176912 0.937769 0.562986
O O4 0.000000 0.500000 0.000000
O O5 0.859859 0.766576 0.286714
O O6 0.610218 0.720041 0.188555
O O7 0.763554 0.698038 0.507909
O O8 0.061171 0.148502 0.092692
O O9 0.394450 0.650667 0.514692
O O10 0.970429 0.280497 0.613323
O O11 0.166221 0.608636 0.724524
O O12 0.000000 0.500000 0.500000
O O13 0.403801 0.986326 0.318770
O O14 0.257224 0.389710 0.160427
O O15 0.423129 0.384518 0.194900
O O16 0.462486 0.659648 0.788978
O O17 0.287663 0.594908 0.057974
#
# Coordination Sequence:
#
# PCOD9037918 Si02
#       8
#     2   2   2   2   2   2   2   2
#     4  11  24  46  70  97 139 185 223 279 338 411
#     4  11  24  45  66 102 134 182 231 277 348 403
#     4  11  23  42  72 100 135 177 231 284 338 411
#     4  10  23  41  64  96 136 172 219 281 339 400
#     4  11  25  42  69 100 139 180 222 292 341 400
#     4  11  25  43  68  98 140 180 230 282 339 411
#     4  11  25  41  69 105 135 171 235 283 341 407
#     4  10  24  40  64  96 133 178 221 271 340 402
#
# _framework density 23.103555
#
# number of rings (size 3 to 8) (size 9 to 14) (size 15 to 20)
#    0.000    1.250    2.500    1.875    8.750    1.000 
#    0.000    2.500    0.000    0.000    0.000    0.000 
#    0.000    0.000    0.000    0.000    0.000    0.000 
#
# Total GULP energy -89272.722502 kJ/mol
# GULP energy per Si atom -5579.545156 kJ/mol
# Density = 2.305097 g / cm^3
# Si number density = 23.103555 Si / 1000 Ang^3
#
#
#
# Elastic Constant Matrix: (Units=GPa)
#
#
# Indices 1 2 3 4 5 6 
#
# 1 50.6494 -0.9675 -23.7190 4.5626 -0.3668 1.6926
# 2 -0.9675 132.5752 31.9580 18.9998 -4.7016 1.8538
# 3 -23.7190 31.9580 127.0846 7.1206 3.0907 -5.7486
# 4 4.5626 18.9998 7.1206 32.2063 10.9401 1.1273
# 5 -0.3668 -4.7016 3.0907 10.9401 20.7569 10.6435
# 6 1.6926 1.8538 -5.7486 1.1273 10.6435 35.4067
#
#
#
# Elastic Compliance Matrix: (Units=1/GPa)
#
#
# Indices 1 2 3 4 5 6 
#
# 1 0.022285 -0.000035 0.004330 -0.005065 0.002971 -0.001092
# 2 -0.000035 0.009551 -0.002311 -0.007796 0.008201 -0.003090
# 3 0.004330 -0.002311 0.009456 -0.000476 -0.002784 0.002301
# 4 -0.005065 -0.007796 -0.000476 0.046568 -0.030575 0.008282
# 5 0.002971 0.008201 -0.002784 -0.030575 0.078786 -0.023734
# 6 -0.001092 -0.003090 0.002301 0.008282 -0.023734 0.035702
#
#
# Mechanical properties :
#
#
# Convention : Reuss Voigt Hill
#
# Bulk Modulus (GPa) = 22.09364 36.09471 29.09417
# Shear Modulus (GPa) = 23.42292 37.87646 30.64969
#
# Velocity S-wave (km/s) = 3.18751 4.05337 3.64623
# Velocity P-wave (km/s) = 4.80943 6.12889 5.50881
#
# Compressibility (1/GPa) = 0.04526190
#
# Stress axis : x y z
#
# Youngs Moduli (GPa) = 44.87332 104.70143 105.74751
#
# Poissons Ratio (x) = 0.00363 -0.45790
# Poissons Ratio (y) = 0.00156 0.24435
# Poissons Ratio (z) = -0.19431 0.24193
#
# Static dielectric constant tensor:
#      x y z
#    x 2.088600 0.062890 -0.201150 
#    y 0.062890 1.918490 -0.254480 
#    z -0.201150 -0.254480 2.448980 
# 
# From -- ./inp_files/346463.got.cif
#   From: 2010.05.17/outbox.cif.g08.bks.cpg/sg2_174_cif.got.tgz:346463.got - 2010.06.03 11:33:40.
