data_PCOD9037477
_publ_section_title
;
Structure prediction by ZEFSAII (Michael W. Deem and Ramdas Pophale) SiO2 
 PCOD9037477
Probable space group: P -1
;
_chemical_formula_sum "Si O2"
_cell_formula_units_Z 14
_cell_length_a 6.313767
_cell_length_b 19.282251
_cell_length_c 11.094701
_cell_angle_alpha 148.823205
_cell_angle_beta 106.298392
_cell_angle_gamma 62.706796
_cell_volume 602.803930
_symmetry_space_group_name_H-M "P -1"
_symmetry_group_IT_number 2
_symmetry_cell_setting 'triclinic'
loop_
_space_group_symop_operation_xyz
x,y,z
-x,-y,-z
loop_
_atom_site_type_symbol
_atom_site_label
_atom_site_fract_x
_atom_site_fract_y
_atom_site_fract_z
Si Si1 0.991097 0.670403 0.370886
Si Si2 0.066978 0.361921 0.140726
Si Si3 0.750963 0.398508 0.460800
Si Si4 0.484063 0.046124 0.206651
Si Si5 0.541968 0.099454 0.756843
Si Si6 0.011400 0.868429 0.056382
Si Si7 0.216948 0.574644 0.031046
O O1 0.762449 0.802632 0.594636
O O2 0.232185 0.613637 0.409574
O O3 0.063708 0.697696 0.289481
O O4 0.893804 0.545205 0.159460
O O5 0.077527 0.514965 0.404195
O O6 0.066089 0.255771 0.089150
O O7 0.317464 0.264188 0.962428
O O8 0.841585 0.375949 0.042071
O O9 0.500000 0.500000 0.500000
O O10 0.843217 0.227065 0.178498
O O11 0.452816 0.961181 0.195598
O O12 0.500000 0.000000 0.000000
O O13 0.765718 0.020586 0.229630
O O14 0.500000 0.000000 0.500000
O O15 0.797716 0.106565 0.792415
O O16 0.500000 0.500000 0.000000
#
# Coordination Sequence:
#
# PCOD9037477 Si02
#       7
#     2   2   2   2   2   2   2
#     4  10  23  43  65  97 137 169 224 282 330 406
#     4  10  23  40  67  98 128 169 229 279 336 404
#     4  11  21  41  69  97 131 176 218 284 339 400
#     4  11  24  45  67 101 138 178 229 274 340 412
#     4  11  25  44  68  96 135 183 231 282 334 404
#     4  11  24  43  69  96 134 182 222 278 343 399
#     4  10  23  41  66 100 128 176 220 278 345 396
#
# _framework density 23.224798
#
# number of rings (size 3 to 8) (size 9 to 14) (size 15 to 20)
#    0.000    1.429    2.857    1.286    2.000    7.429 
#    2.571    0.000    0.000    0.000    0.000    0.000 
#    0.000    0.000    0.000    0.000    0.000    0.000 
#
# Total GULP energy -77980.391248 kJ/mol
# GULP energy per Si atom -5570.027946 kJ/mol
# Density = 2.317194 g / cm^3
# Si number density = 23.224798 Si / 1000 Ang^3
#
#
#
# Elastic Constant Matrix: (Units=GPa)
#
#
# Indices 1 2 3 4 5 6 
#
# 1 55.6771 26.2340 43.1846 -17.7064 -4.5742 -32.9659
# 2 26.2340 101.8346 38.1417 -14.2671 -1.2869 -28.1971
# 3 43.1846 38.1417 124.5825 -15.2544 -12.5782 -11.0624
# 4 -17.7064 -14.2671 -15.2544 27.6043 -9.9528 1.4115
# 5 -4.5742 -1.2869 -12.5782 -9.9528 38.5686 1.6293
# 6 -32.9659 -28.1971 -11.0624 1.4115 1.6293 51.6257
#
#
#
# Elastic Compliance Matrix: (Units=1/GPa)
#
#
# Indices 1 2 3 4 5 6 
#
# 1 0.060371 0.004960 -0.013748 0.035568 0.010457 0.037011
# 2 0.004960 0.013852 -0.003955 0.008193 0.001469 0.009615
# 3 -0.013748 -0.003955 0.013233 -0.002306 0.002301 -0.008113
# 4 0.035568 0.008193 -0.002306 0.068079 0.020286 0.024192
# 5 0.010457 0.001469 0.002301 0.020286 0.032933 0.006379
# 6 0.037011 0.009615 -0.008113 0.024192 0.006379 0.045654
#
#
# Mechanical properties :
#
#
# Convention : Reuss Voigt Hill
#
# Bulk Modulus (GPa) = 16.13671 55.24609 35.69140
# Shear Modulus (GPa) = 17.84029 35.19532 26.51780
#
# Velocity S-wave (km/s) = 2.77457 3.89706 3.38270
# Velocity P-wave (km/s) = 4.15060 6.63993 5.53697
#
# Compressibility (1/GPa) = 0.06197049
#
# Stress axis : x y z
#
# Youngs Moduli (GPa) = 16.56418 72.19070 75.56998
#
# Poissons Ratio (x) = -0.35807 1.03893
# Poissons Ratio (y) = -0.08216 0.29888
# Poissons Ratio (z) = 0.22772 0.28551
#
# Static dielectric constant tensor:
#      x y z
#    x 2.075550 0.093390 -0.226940 
#    y 0.093390 1.974150 -0.050920 
#    z -0.226940 -0.050920 2.084080 
# 
# From -- ./inp_files/68902.got.cif
#   From: 2010.05.17/outbox.cif.g08.bks.cpg/sg2_35_cif.got.tgz:68902.got - 2010.06.03 11:33:40.
