data_PCOD9037300
_publ_section_title
;
Structure prediction by ZEFSAII (Michael W. Deem and Ramdas Pophale) SiO2 
 PCOD9037300
Probable space group: P -1
;
_chemical_formula_sum "Si O2"
_cell_formula_units_Z 14
_cell_length_a 14.160593
_cell_length_b 17.366856
_cell_length_c 8.286029
_cell_angle_alpha 56.036934
_cell_angle_beta 124.086595
_cell_angle_gamma 157.819759
_cell_volume 631.967243
_symmetry_space_group_name_H-M "P -1"
_symmetry_group_IT_number 2
_symmetry_cell_setting 'triclinic'
loop_
_space_group_symop_operation_xyz
x,y,z
-x,-y,-z
loop_
_atom_site_type_symbol
_atom_site_label
_atom_site_fract_x
_atom_site_fract_y
_atom_site_fract_z
Si Si1 0.832282 0.687120 0.220421
Si Si2 0.679012 0.168440 0.332885
Si Si3 0.749425 0.430095 0.570720
Si Si4 0.504276 0.781714 0.077792
Si Si5 0.002155 0.111843 0.358607
Si Si6 0.722398 0.999332 0.517211
Si Si7 0.577969 0.470530 0.889593
O O1 0.741766 0.535607 0.422175
O O2 0.688902 0.676832 0.144942
O O3 0.131285 0.907271 0.283276
O O4 0.743535 0.593580 0.067526
O O5 0.706909 0.095578 0.337501
O O6 0.966555 0.396459 0.394470
O O7 0.500000 0.000000 0.500000
O O8 0.566715 0.175677 0.130699
O O9 0.657813 0.338839 0.769597
O O10 0.552920 0.244032 0.474098
O O11 0.447319 0.648561 0.074108
O O12 0.794600 0.989347 0.169745
O O13 0.897824 0.074811 0.469394
O O14 0.270854 0.350864 0.293915
O O15 0.000000 0.000000 0.500000
#
# Coordination Sequence:
#
# PCOD9037300 Si02
#       7
#     2   2   2   2   2   2   2
#     4  10  23  40  65 101 133 177 218 277 340 397
#     4  11  26  43  68 101 133 177 230 281 334 393
#     4  10  23  44  70  93 133 177 220 277 341 395
#     4  11  25  43  69 100 133 180 230 269 335 404
#     4  11  24  42  70 104 134 178 221 274 337 407
#     4  10  23  44  67  92 138 175 222 276 332 395
#     4  11  23  40  67  98 140 173 225 278 333 400
#
# _framework density 22.153047000000001
#
# number of rings (size 3 to 8) (size 9 to 14) (size 15 to 20)
#    0.000    1.429    0.000    4.714    6.000    5.714 
#    0.000    3.571    0.000    0.000    0.000    0.000 
#    0.000    0.000    0.000    0.000    0.000    0.000 
#
# Total GULP energy -78324.388441 kJ/mol
# GULP energy per Si atom -5594.599174 kJ/mol
# Density = 2.210263 g / cm^3
# Si number density = 22.153047 Si / 1000 Ang^3
#
#
#
# Elastic Constant Matrix: (Units=GPa)
#
#
# Indices 1 2 3 4 5 6 
#
# 1 76.4391 36.3025 37.0937 14.6480 20.6657 -6.6445
# 2 36.3025 132.6007 40.3463 27.6359 3.9402 1.7993
# 3 37.0937 40.3463 120.6852 12.5570 18.8853 2.4838
# 4 14.6480 27.6359 12.5570 41.3911 2.6480 -3.4463
# 5 20.6657 3.9402 18.8853 2.6480 33.5604 -8.4772
# 6 -6.6445 1.7993 2.4838 -3.4463 -8.4772 31.4733
#
#
#
# Elastic Compliance Matrix: (Units=1/GPa)
#
#
# Indices 1 2 3 4 5 6 
#
# 1 0.019437 -0.003537 -0.003103 -0.002843 -0.009134 0.001779
# 2 -0.003537 0.010171 -0.002116 -0.005136 0.002301 -0.001104
# 3 -0.003103 -0.002116 0.010784 -0.000694 -0.004532 -0.002682
# 4 -0.002843 -0.005136 -0.000694 0.028996 0.001282 0.003269
# 5 -0.009134 0.002301 -0.004532 0.001282 0.039922 0.009191
# 6 0.001779 -0.001104 -0.002682 0.003269 0.009191 0.035257
#
#
# Mechanical properties :
#
#
# Convention : Reuss Voigt Hill
#
# Bulk Modulus (GPa) = 43.70913 61.91221 52.81067
# Shear Modulus (GPa) = 29.46301 35.68379 32.57340
#
# Velocity S-wave (km/s) = 3.65084 4.01781 3.83871
# Velocity P-wave (km/s) = 6.12739 7.03789 6.59836
#
# Compressibility (1/GPa) = 0.02287852
#
# Stress axis : x y z
#
# Youngs Moduli (GPa) = 51.44865 98.32137 92.73269
#
# Poissons Ratio (x) = 0.34780 0.28776
# Poissons Ratio (y) = 0.18199 0.19621
# Poissons Ratio (z) = 0.15965 0.20804
#
# Static dielectric constant tensor:
#      x y z
#    x 1.828690 0.015650 -0.034740 
#    y 0.015650 1.838080 0.007600 
#    z -0.034740 0.007600 1.814670 
# 
# From -- ./inp_files/318017.got.cif
#   From: 2010.05.17/outbox.cif.g08.bks.cpg/sg2_160_cif.got.tgz:318017.got - 2010.06.03 11:33:40.
