data_PCOD9037132
_publ_section_title
;
Structure prediction by ZEFSAII (Michael W. Deem and Ramdas Pophale) SiO2 
 PCOD9037132
Probable space group: P -1
;
_chemical_formula_sum "Si O2"
_cell_formula_units_Z 16
_cell_length_a 8.881074
_cell_length_b 14.806983
_cell_length_c 14.947286
_cell_angle_alpha 152.335815
_cell_angle_beta 96.750489
_cell_angle_gamma 99.674631
_cell_volume 731.544079
_symmetry_space_group_name_H-M "P -1"
_symmetry_group_IT_number 2
_symmetry_cell_setting 'triclinic'
loop_
_space_group_symop_operation_xyz
x,y,z
-x,-y,-z
loop_
_atom_site_type_symbol
_atom_site_label
_atom_site_fract_x
_atom_site_fract_y
_atom_site_fract_z
Si Si1 0.317615 0.279756 0.742598
Si Si2 0.041355 0.226572 0.144540
Si Si3 0.437907 0.675700 0.546591
Si Si4 0.651941 0.587146 0.340447
Si Si5 0.028089 0.752887 0.227120
Si Si6 0.366583 0.065061 0.863812
Si Si7 0.683686 0.010040 0.005548
Si Si8 0.964036 0.931425 0.194425
O O1 0.367883 0.342993 0.698222
O O2 0.142209 0.285305 0.760751
O O3 0.223581 0.991438 0.490127
O O4 0.500000 0.500000 0.000000
O O5 0.245283 0.458770 0.385816
O O6 0.040080 0.190483 0.006011
O O7 0.872171 0.237039 0.174827
O O8 0.000000 0.000000 0.000000
O O9 0.512822 0.596505 0.404446
O O10 0.602063 0.804889 0.744938
O O11 0.388805 0.854150 0.663379
O O12 0.865726 0.786602 0.557048
O O13 0.574669 0.311065 0.092484
O O14 0.006881 0.825782 0.189266
O O15 0.000000 0.500000 0.000000
O O16 0.225915 0.090398 0.818495
O O17 0.280181 0.030785 0.927201
O O18 0.500000 0.000000 0.000000
#
# Coordination Sequence:
#
# PCOD9037132 Si02
#       8
#     2   2   2   2   2   2   2   2
#     4  10  23  45  71 101 135 172 223 286 354 411
#     4  12  23  41  67  96 132 183 219 269 335 388
#     4  11  25  41  64  98 135 178 231 271 330 401
#     4  11  23  42  66  96 133 173 220 278 337 400
#     4  10  24  48  71 102 135 178 229 288 345 412
#     4  11  24  42  64  99 134 178 224 278 328 398
#     4  10  23  40  61  94 134 173 223 273 320 387
#     4  11  23  43  68  96 134 175 225 272 337 399
#
# _framework density 21.871545999999999
#
# number of rings (size 3 to 8) (size 9 to 14) (size 15 to 20)
#    0.000    1.250    3.750    0.750    1.750    7.500 
#    9.000    0.000    0.000    0.000    0.000    0.000 
#    0.000    0.000    0.000    0.000    0.000    0.000 
#
# Total GULP energy -89311.946138 kJ/mol
# GULP energy per Si atom -5581.996634 kJ/mol
# Density = 2.182177 g / cm^3
# Si number density = 21.871546 Si / 1000 Ang^3
#
#
#
# Elastic Constant Matrix: (Units=GPa)
#
#
# Indices 1 2 3 4 5 6 
#
# 1 73.9885 14.1395 29.2699 14.8497 1.1242 2.0123
# 2 14.1395 37.3244 14.2124 4.0043 0.3315 0.0082
# 3 29.2699 14.2124 95.4060 18.0653 -0.2202 -0.1723
# 4 14.8497 4.0043 18.0653 38.0269 -5.2620 4.6026
# 5 1.1242 0.3315 -0.2202 -5.2620 40.7091 8.6557
# 6 2.0123 0.0082 -0.1723 4.6026 8.6557 31.1425
#
#
#
# Elastic Compliance Matrix: (Units=1/GPa)
#
#
# Indices 1 2 3 4 5 6 
#
# 1 0.016715 -0.004466 -0.003622 -0.004452 -0.000985 -0.000167
# 2 -0.004466 0.029646 -0.003046 0.000003 -0.000202 0.000320
# 3 -0.003622 -0.003046 0.012925 -0.004638 -0.000654 0.001174
# 4 -0.004452 0.000003 -0.004638 0.031714 0.005461 -0.005943
# 5 -0.000985 -0.000202 -0.000654 0.005461 0.027053 -0.008266
# 6 -0.000167 0.000320 0.001174 -0.005943 -0.008266 0.035303
#
#
# Mechanical properties :
#
#
# Convention : Reuss Voigt Hill
#
# Bulk Modulus (GPa) = 27.01545 35.77362 31.39454
# Shear Modulus (GPa) = 26.60065 31.91552 29.25809
#
# Velocity S-wave (km/s) = 3.49122 3.82413 3.66146
# Velocity P-wave (km/s) = 5.35072 5.99085 5.67981
#
# Compressibility (1/GPa) = 0.03701585
#
# Stress axis : x y z
#
# Youngs Moduli (GPa) = 59.82564 33.73186 77.36716
#
# Poissons Ratio (x) = 0.15066 0.28025
# Poissons Ratio (y) = 0.26721 0.23569
# Poissons Ratio (z) = 0.21671 0.10276
#
# Static dielectric constant tensor:
#      x y z
#    x 1.870610 -0.047340 0.008300 
#    y -0.047340 1.826450 -0.032000 
#    z 0.008300 -0.032000 1.858850 
# 
# From -- ./inp_files/505845.got.cif
#   From: 2010.05.17/outbox.cif.g08.bks.cpg/sg2_253_cif.got.tgz:505845.got - 2010.06.03 11:33:40.
