data_PCOD9037229
_publ_section_title
;
Structure prediction by ZEFSAII (Michael W. Deem and Ramdas Pophale) SiO2 
 PCOD9037229
Probable space group: P -1
;
_chemical_formula_sum "Si O2"
_cell_formula_units_Z 16
_cell_length_a 11.416053
_cell_length_b 10.398037
_cell_length_c 9.798513
_cell_angle_alpha 48.657740
_cell_angle_beta 110.481698
_cell_angle_gamma 124.706519
_cell_volume 717.233807
_symmetry_space_group_name_H-M "P -1"
_symmetry_group_IT_number 2
_symmetry_cell_setting 'triclinic'
loop_
_space_group_symop_operation_xyz
x,y,z
-x,-y,-z
loop_
_atom_site_type_symbol
_atom_site_label
_atom_site_fract_x
_atom_site_fract_y
_atom_site_fract_z
Si Si1 0.189227 0.110682 0.866123
Si Si2 0.692819 0.654913 0.789219
Si Si3 0.627826 0.059741 0.858625
Si Si4 0.324726 0.743950 0.991216
Si Si5 0.115297 0.688312 0.713835
Si Si6 0.882261 0.801978 0.521336
Si Si7 0.094572 0.281646 0.938014
Si Si8 0.356943 0.005529 0.397506
O O1 0.150180 0.162251 0.669102
O O2 0.187225 0.258617 0.872521
O O3 0.329944 0.090126 0.944092
O O4 0.064176 0.896093 0.009236
O O5 0.739356 0.719019 0.608789
O O6 0.614879 0.770944 0.734960
O O7 0.638114 0.423343 0.928836
O O8 0.836948 0.737160 0.879824
O O9 0.456912 0.950717 0.856918
O O10 0.682959 0.077828 0.714264
O O11 0.682973 0.240543 0.858967
O O12 0.183729 0.714842 0.874681
O O13 0.103346 0.489810 0.790732
O O14 0.960916 0.672092 0.657452
O O15 0.227040 0.869386 0.540379
O O16 0.000000 0.000000 0.500000
O O17 0.500000 0.000000 0.500000
#
# Coordination Sequence:
#
# PCOD9037229 Si02
#       8
#     2   2   2   2   2   2   2   2
#     4  11  23  41  64  92 134 173 210 268 329 383
#     4  11  24  44  67  99 128 174 221 264 329 387
#     4  11  24  44  67  94 132 174 216 268 327 388
#     4  10  25  44  68  95 131 174 220 266 323 389
#     4  11  24  42  67  99 129 171 225 263 324 385
#     4  12  23  40  65  96 133 170 213 273 319 382
#     4  10  23  40  63  97 128 171 214 268 326 386
#     4  12  24  43  69  97 132 170 218 271 323 386
#
# _framework density 22.307928
#
# number of rings (size 3 to 8) (size 9 to 14) (size 15 to 20)
#    0.000    1.000    5.000    0.750    3.500    4.000 
#    0.000    1.250    0.000    0.000    0.000    0.000 
#    0.000    0.000    0.000    0.000    0.000    0.000 
#
# Total GULP energy -89444.249487 kJ/mol
# GULP energy per Si atom -5590.265593 kJ/mol
# Density = 2.225715 g / cm^3
# Si number density = 22.307928 Si / 1000 Ang^3
#
#
#
# Elastic Constant Matrix: (Units=GPa)
#
#
# Indices 1 2 3 4 5 6 
#
# 1 63.1789 19.5956 14.0466 6.0390 15.5868 -17.9198
# 2 19.5956 99.4227 37.6352 13.4902 6.3556 -26.0655
# 3 14.0466 37.6352 84.2709 15.1794 7.5300 -15.0521
# 4 6.0390 13.4902 15.1794 26.9464 -7.9162 1.3447
# 5 15.5868 6.3556 7.5300 -7.9162 40.9894 -0.2848
# 6 -17.9198 -26.0655 -15.0521 1.3447 -0.2848 37.1414
#
#
#
# Elastic Compliance Matrix: (Units=1/GPa)
#
#
# Indices 1 2 3 4 5 6 
#
# 1 0.022262 0.000217 0.000818 -0.009169 -0.010340 0.011477
# 2 0.000217 0.014938 -0.003517 -0.006901 -0.003020 0.009389
# 3 0.000818 -0.003517 0.016192 -0.009094 -0.004463 0.004783
# 4 -0.009169 -0.006901 -0.009094 0.053303 0.016419 -0.014756
# 5 -0.010340 -0.003020 -0.004463 0.016419 0.032723 -0.009261
# 6 0.011477 0.009389 0.004783 -0.014756 -0.009261 0.041452
#
#
# Mechanical properties :
#
#
# Convention : Reuss Voigt Hill
#
# Bulk Modulus (GPa) = 20.64994 43.26971 31.95983
# Shear Modulus (GPa) = 24.75522 32.72178 28.73850
#
# Velocity S-wave (km/s) = 3.33484 3.83407 3.59313
# Velocity P-wave (km/s) = 4.90969 6.24810 5.61889
#
# Compressibility (1/GPa) = 0.04842629
#
# Stress axis : x y z
#
# Youngs Moduli (GPa) = 44.92025 66.94464 61.75808
#
# Poissons Ratio (x) = -0.01450 -0.05052
# Poissons Ratio (y) = -0.00973 0.21722
# Poissons Ratio (z) = -0.03675 0.23547
#
# Static dielectric constant tensor:
#      x y z
#    x 1.864310 -0.042300 0.013050 
#    y -0.042300 1.845320 -0.041340 
#    z 0.013050 -0.041340 1.839080 
# 
# From -- ./inp_files/242659.got.cif
#   From: 2010.05.17/outbox.cif.g08.bks.cpg/sg2_122_cif.got.tgz:242659.got - 2010.06.03 11:33:40.
