data_PCOD9037703
_publ_section_title
;
Structure prediction by ZEFSAII (Michael W. Deem and Ramdas Pophale) SiO2 
 PCOD9037703
Probable space group: P -1
;
_chemical_formula_sum "Si O2"
_cell_formula_units_Z 16
_cell_length_a 6.456069
_cell_length_b 18.647740
_cell_length_c 8.955870
_cell_angle_alpha 116.898568
_cell_angle_beta 133.363106
_cell_angle_gamma 68.942463
_cell_volume 697.094055
_symmetry_space_group_name_H-M "P -1"
_symmetry_group_IT_number 2
_symmetry_cell_setting 'triclinic'
loop_
_space_group_symop_operation_xyz
x,y,z
-x,-y,-z
loop_
_atom_site_type_symbol
_atom_site_label
_atom_site_fract_x
_atom_site_fract_y
_atom_site_fract_z
Si Si1 0.202708 0.098207 0.081295
Si Si2 0.933046 0.263087 0.165869
Si Si3 0.401029 0.376324 0.495222
Si Si4 0.079675 0.088584 0.674699
Si Si5 0.815208 0.250431 0.761844
Si Si6 0.575494 0.038908 0.728605
Si Si7 0.655423 0.515966 0.922710
Si Si8 0.425720 0.321837 0.122595
O O1 0.237800 0.089938 0.913987
O O2 0.878355 0.074145 0.916807
O O3 0.179314 0.190015 0.212549
O O4 0.400242 0.033275 0.206830
O O5 0.085434 0.346282 0.333764
O O6 0.703689 0.261311 0.180571
O O7 0.766621 0.256364 0.920609
O O8 0.471719 0.461758 0.674599
O O9 0.449032 0.366719 0.333870
O O10 0.612549 0.312522 0.628782
O O11 0.828595 0.158339 0.626421
O O12 0.324141 0.106907 0.697281
O O13 0.000000 0.000000 0.500000
O O14 0.138407 0.276754 0.934412
O O15 0.500000 0.000000 0.500000
O O16 0.594460 0.610216 0.950946
O O17 0.500000 0.500000 0.000000
O O18 0.000000 0.500000 0.000000
#
# Coordination Sequence:
#
# PCOD9037703 Si02
#       8
#     2   2   2   2   2   2   2   2
#     4  10  23  41  60  89 131 170 226 288 347 408
#     4  10  24  41  67  96 131 182 225 291 349 423
#     4  11  25  43  70 105 136 180 235 283 358 426
#     4  11  22  39  64  91 127 180 227 284 350 414
#     4  10  23  44  64  95 139 176 232 291 350 427
#     4  11  22  38  59  89 123 168 227 283 348 420
#     4  12  27  48  80 108 149 194 236 295 362 431
#     4  11  24  45  71 101 140 180 233 286 356 425
#
# _framework density 22.952428000000001
#
# number of rings (size 3 to 8) (size 9 to 14) (size 15 to 20)
#    0.000    1.250    2.500    2.250    5.250    2.500 
#    2.250    0.000    0.000    0.000    0.000    0.000 
#    0.000    0.000    0.000    0.000    0.000    0.000 
#
# Total GULP energy -89186.100688 kJ/mol
# GULP energy per Si atom -5574.131293 kJ/mol
# Density = 2.290019 g / cm^3
# Si number density = 22.952428 Si / 1000 Ang^3
#
#
#
# Elastic Constant Matrix: (Units=GPa)
#
#
# Indices 1 2 3 4 5 6 
#
# 1 90.5272 -2.1335 29.3850 7.4787 -4.5689 -9.6927
# 2 -2.1335 66.7998 12.4074 5.9066 -2.7992 2.7182
# 3 29.3850 12.4074 64.5091 22.7315 6.8243 -1.8430
# 4 7.4787 5.9066 22.7315 48.3520 5.8027 -0.7164
# 5 -4.5689 -2.7992 6.8243 5.8027 25.9629 -0.2567
# 6 -9.6927 2.7182 -1.8430 -0.7164 -0.2567 36.0094
#
#
#
# Elastic Compliance Matrix: (Units=1/GPa)
#
#
# Indices 1 2 3 4 5 6 
#
# 1 0.013991 0.001807 -0.007297 0.000557 0.004483 0.003299
# 2 0.001807 0.016013 -0.004007 -0.000756 0.003258 -0.000919
# 3 -0.007297 -0.004007 0.023234 -0.008606 -0.005906 -0.000686
# 4 0.000557 -0.000756 -0.008606 0.025138 -0.003337 0.000243
# 5 0.004483 0.003258 -0.005906 -0.003337 0.041964 0.000891
# 6 0.003299 -0.000919 -0.000686 0.000243 0.000891 0.028704
#
#
# Mechanical properties :
#
#
# Convention : Reuss Voigt Hill
#
# Bulk Modulus (GPa) = 29.20283 33.46154 31.33218
# Shear Modulus (GPa) = 27.86247 34.21001 31.03624
#
# Velocity S-wave (km/s) = 3.48792 3.86485 3.68121
# Velocity P-wave (km/s) = 5.38253 5.87592 5.63463
#
# Compressibility (1/GPa) = 0.03424326
#
# Stress axis : x y z
#
# Youngs Moduli (GPa) = 71.47456 62.44973 43.04033
#
# Poissons Ratio (x) = -0.11282 0.31405
# Poissons Ratio (y) = -0.12912 0.17247
# Poissons Ratio (z) = 0.52153 0.25025
#
# Static dielectric constant tensor:
#      x y z
#    x 1.966190 0.028530 0.026290 
#    y 0.028530 1.814840 -0.026350 
#    z 0.026290 -0.026350 1.784980 
# 
# From -- ./inp_files/140810.got.cif
#   From: 2010.05.17/outbox.cif.g08.bks.cpg/sg2_71_cif.got.tgz:140810.got - 2010.06.03 11:33:40.
