data_PCOD9037209
_publ_section_title
;
Structure prediction by ZEFSAII (Michael W. Deem and Ramdas Pophale) SiO2 
 PCOD9037209
Probable space group: P -1
;
_chemical_formula_sum "Si O2"
_cell_formula_units_Z 14
_cell_length_a 9.570600
_cell_length_b 4.906220
_cell_length_c 13.982339
_cell_angle_alpha 106.481826
_cell_angle_beta 70.355080
_cell_angle_gamma 104.691369
_cell_volume 583.753086
_symmetry_space_group_name_H-M "P -1"
_symmetry_group_IT_number 2
_symmetry_cell_setting 'triclinic'
loop_
_space_group_symop_operation_xyz
x,y,z
-x,-y,-z
loop_
_atom_site_type_symbol
_atom_site_label
_atom_site_fract_x
_atom_site_fract_y
_atom_site_fract_z
Si Si1 0.355401 0.919013 0.958580
Si Si2 0.501681 0.792427 0.388872
Si Si3 0.374989 0.759984 0.729399
Si Si4 0.867902 0.558065 0.125006
Si Si5 0.967173 0.755483 0.635273
Si Si6 0.174843 0.868700 0.434392
Si Si7 0.933035 0.844939 0.876992
O O1 0.417920 0.930737 0.836305
O O2 0.255579 0.597222 0.937984
O O3 0.500000 0.000000 0.000000
O O4 0.227119 0.092604 0.042805
O O5 0.522462 0.461005 0.357992
O O6 0.340432 0.800261 0.378900
O O7 0.500000 0.000000 0.500000
O O8 0.630704 0.978901 0.313596
O O9 0.222409 0.538901 0.765580
O O10 0.011964 0.408649 0.100842
O O11 0.931846 0.881586 0.114421
O O12 0.942143 0.410480 0.601385
O O13 0.934723 0.817748 0.758613
O O14 0.124341 0.891429 0.559365
O O15 0.849394 0.870767 0.602173
#
# Coordination Sequence:
#
# PCOD9037209 Si02
#       7
#     2   2   2   2   2   2   2
#     4  10  26  45  73 104 145 182 228 284 352 405
#     4  12  25  44  70 100 137 185 220 287 347 406
#     4  10  26  44  67 102 140 175 233 280 338 414
#     4  10  25  44  71  97 138 176 230 281 330 412
#     4  10  23  41  65  97 123 180 223 285 329 409
#     4  10  23  40  63  93 137 166 230 279 339 396
#     4  12  23  46  73  99 133 186 228 279 344 408
#
# _framework density 23.982741000000001
#
# number of rings (size 3 to 8) (size 9 to 14) (size 15 to 20)
#    0.857    0.571    0.000    3.857    8.000    1.143 
#    0.000    5.000    0.000    0.000    0.000    0.000 
#    0.000    0.000    0.000    0.000    0.000    0.000 
#
# Total GULP energy -78037.315687 kJ/mol
# GULP energy per Si atom -5574.093978 kJ/mol
# Density = 2.392816 g / cm^3
# Si number density = 23.982741 Si / 1000 Ang^3
#
#
#
# Elastic Constant Matrix: (Units=GPa)
#
#
# Indices 1 2 3 4 5 6 
#
# 1 98.5182 11.3528 13.5100 12.1933 -0.8904 9.8763
# 2 11.3528 95.4777 16.5893 -9.2544 5.2003 -10.5196
# 3 13.5100 16.5893 149.0936 11.2669 18.2877 9.3239
# 4 12.1933 -9.2544 11.2669 27.5085 -2.8376 -13.8471
# 5 -0.8904 5.2003 18.2877 -2.8376 32.1028 0.9725
# 6 9.8763 -10.5196 9.3239 -13.8471 0.9725 12.5902
#
#
#
# Elastic Compliance Matrix: (Units=1/GPa)
#
#
# Indices 1 2 3 4 5 6 
#
# 1 -0.002093 0.013152 -0.009325 0.043287 0.004927 0.066764
# 2 0.013152 -0.005446 0.008625 -0.049883 -0.005783 -0.075671
# 3 -0.009325 0.008625 0.001787 0.028790 -0.001492 0.044977
# 4 0.043287 -0.049883 0.028790 -0.136585 -0.011732 -0.246270
# 5 0.004927 -0.005783 -0.001492 -0.011732 0.032734 -0.023024
# 6 0.066764 -0.075671 0.044977 -0.246270 -0.023024 -0.338558
#
#
# Mechanical properties :
#
#
# Convention : Reuss Voigt Hill
#
# Bulk Modulus (GPa) = 52.20688 47.33264 49.76976
# Shear Modulus (GPa) = -10.71393 34.54947 11.91777
#
# Velocity S-wave (km/s) = -2.11590 3.79964 2.23161
# Velocity P-wave (km/s) = 3.98075 6.24729 5.23808
#
# Compressibility (1/GPa) = 0.01915456
#
# Stress axis : x y z
#
# Youngs Moduli (GPa) = -477.89722 -183.61404 559.60202
#
# Poissons Ratio (x) = 2.41494 5.21806
# Poissons Ratio (y) = 6.28543 -4.82684
# Poissons Ratio (z) = -4.45620 1.58376
#
# Static dielectric constant tensor:
#      x y z
#    x 1.949260 0.013210 -0.061730 
#    y 0.013210 1.866920 0.017480 
#    z -0.061730 0.017480 2.115740 
# 
# From -- ./inp_files/488644.got.cif
#   From: 2010.05.17/outbox.cif.g08.bks.cpg/sg2_245_cif.got.tgz:488644.got - 2010.06.03 11:33:40.
