data_PCOD9037952
_publ_section_title
;
Structure prediction by ZEFSAII (Michael W. Deem and Ramdas Pophale) SiO2 
 PCOD9037952
Probable space group: P -1
;
_chemical_formula_sum "Si O2"
_cell_formula_units_Z 12
_cell_length_a 9.682459
_cell_length_b 4.913511
_cell_length_c 9.884272
_cell_angle_alpha 84.034410
_cell_angle_beta 90.386733
_cell_angle_gamma 69.226526
_cell_volume 436.810238
_symmetry_space_group_name_H-M "P -1"
_symmetry_group_IT_number 2
_symmetry_cell_setting 'triclinic'
loop_
_space_group_symop_operation_xyz
x,y,z
-x,-y,-z
loop_
_atom_site_type_symbol
_atom_site_label
_atom_site_fract_x
_atom_site_fract_y
_atom_site_fract_z
Si Si1 0.650679 0.552152 0.502677
Si Si2 0.211246 0.308843 0.258015
Si Si3 0.073657 0.216371 0.819160
Si Si4 0.815000 0.938234 0.458042
Si Si5 0.435406 0.802657 0.108430
Si Si6 0.264339 0.566148 0.905450
O O1 0.500000 0.500000 0.500000
O O2 0.698723 0.537768 0.660376
O O3 0.667696 0.853249 0.439933
O O4 0.772860 0.283067 0.441606
O O5 0.137373 0.176881 0.384272
O O6 0.086950 0.552995 0.159651
O O7 0.324318 0.038255 0.193673
O O8 0.082194 0.218571 0.655642
O O9 0.190895 0.325692 0.890056
O O10 0.129978 0.871932 0.865401
O O11 0.585659 0.558540 0.180310
O O12 0.344685 0.635284 0.035003
O O13 0.500000 0.000000 0.000000
#
# Coordination Sequence:
#
# PCOD9037952 Si02
#       6
#     2   2   2   2   2   2
#     4  10  23  41  65 105 142 190 229 281 346 420
#     4  10  28  43  76 105 147 185 241 288 354 420
#     4  12  25  47  72 112 141 188 230 295 357 426
#     4  10  24  42  69 102 148 183 225 287 350 430
#     4  11  25  54  72 104 139 191 242 300 346 423
#     4  11  27  47  78 100 144 188 239 293 361 413
#
# _framework density 27.471886000000001
#
# number of rings (size 3 to 8) (size 9 to 14) (size 15 to 20)
#    1.000    0.333    1.667    2.000    4.667    7.333 
#    0.000    0.000    0.000    0.000    0.000    0.000 
#    0.000    0.000    0.000    0.000    0.000    0.000 
#
# Total GULP energy -67163.011326 kJ/mol
# GULP energy per Si atom -5596.917610 kJ/mol
# Density = 2.740936 g / cm^3
# Si number density = 27.471886 Si / 1000 Ang^3
#
#
#
# Elastic Constant Matrix: (Units=GPa)
#
#
# Indices 1 2 3 4 5 6 
#
# 1 109.6372 20.1790 31.2544 19.0884 28.6445 -0.6511
# 2 20.1790 164.0676 44.4968 30.4641 5.6700 -5.5763
# 3 31.2544 44.4968 114.0884 24.8269 -6.4001 -11.7076
# 4 19.0884 30.4641 24.8269 60.5328 -1.8876 0.1156
# 5 28.6445 5.6700 -6.4001 -1.8876 39.9760 1.3765
# 6 -0.6511 -5.5763 -11.7076 0.1156 1.3765 55.8737
#
#
#
# Elastic Compliance Matrix: (Units=1/GPa)
#
#
# Indices 1 2 3 4 5 6 
#
# 1 0.013380 0.000295 -0.003706 -0.003170 -0.010361 -0.000329
# 2 0.000295 0.007304 -0.002380 -0.002849 -0.001773 0.000283
# 3 -0.003706 -0.002380 0.011679 -0.002281 0.004684 0.002056
# 4 -0.003170 -0.002849 -0.002281 0.019993 0.003286 -0.000922
# 5 -0.010361 -0.001773 0.004684 0.003286 0.033601 -0.000151
# 6 -0.000329 0.000283 0.002056 -0.000922 -0.000151 0.018358
#
#
# Mechanical properties :
#
#
# Convention : Reuss Voigt Hill
#
# Bulk Modulus (GPa) = 48.11993 64.40597 56.26295
# Shear Modulus (GPa) = 40.70885 50.73405 45.72145
#
# Velocity S-wave (km/s) = 3.85364 4.30206 4.08401
# Velocity P-wave (km/s) = 6.11186 6.94062 6.53938
#
# Compressibility (1/GPa) = 0.02078141
#
# Stress axis : x y z
#
# Youngs Moduli (GPa) = 74.73842 136.90993 85.62592
#
# Poissons Ratio (x) = -0.04037 0.31729
# Poissons Ratio (y) = -0.02204 0.20379
# Poissons Ratio (z) = 0.27695 0.32585
#
# Static dielectric constant tensor:
#      x y z
#    x 2.154420 -0.016950 -0.098070 
#    y -0.016950 2.089490 -0.104230 
#    z -0.098070 -0.104230 2.232780 
# 
# From -- ./inp_files/372668.got.cif
#   From: 2010.05.17/outbox.cif.g08.bks.cpg/sg2_187_cif.got.tgz:372668.got - 2010.06.03 11:33:40.
