data_PCOD9037893
_publ_section_title
;
Structure prediction by ZEFSAII (Michael W. Deem and Ramdas Pophale) SiO2 
 PCOD9037893
Probable space group: P -1
;
_chemical_formula_sum "Si O2"
_cell_formula_units_Z 16
_cell_length_a 9.424656
_cell_length_b 12.584693
_cell_length_c 15.468126
_cell_angle_alpha 45.268578
_cell_angle_beta 47.534201
_cell_angle_gamma 35.205128
_cell_volume 728.597076
_symmetry_space_group_name_H-M "P -1"
_symmetry_group_IT_number 2
_symmetry_cell_setting 'triclinic'
loop_
_space_group_symop_operation_xyz
x,y,z
-x,-y,-z
loop_
_atom_site_type_symbol
_atom_site_label
_atom_site_fract_x
_atom_site_fract_y
_atom_site_fract_z
Si Si1 0.275774 0.755176 0.214071
Si Si2 0.798085 0.866725 0.955800
Si Si3 0.230738 0.171608 0.198357
Si Si4 0.532964 0.234112 0.590349
Si Si5 0.070568 0.339447 0.633383
Si Si6 0.113879 0.634999 0.115193
Si Si7 0.280445 0.550606 0.658760
Si Si8 0.568132 0.269553 0.025639
O O1 0.487476 0.611960 0.280608
O O2 0.045607 0.754022 0.304369
O O3 0.157006 0.979058 0.147525
O O4 0.430188 0.674744 0.105866
O O5 0.881114 0.757257 0.893007
O O6 0.897414 0.736068 0.074815
O O7 0.500000 0.000000 0.000000
O O8 0.487632 0.137947 0.126021
O O9 0.002815 0.339769 0.256660
O O10 0.308094 0.961987 0.305394
O O11 0.366894 0.218918 0.601153
O O12 0.341477 0.431650 0.613772
O O13 0.703946 0.277012 0.454312
O O14 0.000000 0.500000 0.500000
O O15 0.944511 0.403670 0.744974
O O16 0.356094 0.440964 0.079472
O O17 0.174681 0.782470 0.017347
#
# Coordination Sequence:
#
# PCOD9037893 Si02
#       8
#     2   2   2   2   2   2   2   2
#     4  11  23  41  65  98 133 174 219 268 337 390
#     4  12  24  40  65 100 136 165 217 275 331 400
#     4  12  24  40  71 100 131 172 224 269 338 392
#     4  11  24  44  67  97 133 177 228 268 327 394
#     4  11  23  42  69  92 127 183 221 267 329 393
#     4  10  24  42  64  95 133 170 220 266 333 397
#     4  11  24  43  68  94 139 175 219 279 326 388
#     4  10  23  41  64  94 132 168 216 273 330 392
#
# _framework density 21.960011999999999
#
# number of rings (size 3 to 8) (size 9 to 14) (size 15 to 20)
#    0.000    1.000    3.750    2.625    3.500    2.000 
#    0.000    0.000    0.000    2.250    0.000    0.000 
#    0.000    0.000    0.000    0.000    0.000    0.000 
#
# Total GULP energy -89318.066263 kJ/mol
# GULP energy per Si atom -5582.379141 kJ/mol
# Density = 2.191003 g / cm^3
# Si number density = 21.960012 Si / 1000 Ang^3
#
#
#
# Elastic Constant Matrix: (Units=GPa)
#
#
# Indices 1 2 3 4 5 6 
#
# 1 82.6947 -5.6410 40.3376 -12.5707 -12.0213 -11.0328
# 2 -5.6410 36.0725 19.6087 -2.3276 -4.1148 5.7747
# 3 40.3376 19.6087 109.9813 -13.3699 -10.7894 2.0931
# 4 -12.5707 -2.3276 -13.3699 29.3750 1.2041 -6.4527
# 5 -12.0213 -4.1148 -10.7894 1.2041 47.7569 -7.6866
# 6 -11.0328 5.7747 2.0931 -6.4527 -7.6866 25.3327
#
#
#
# Elastic Compliance Matrix: (Units=1/GPa)
#
#
# Indices 1 2 3 4 5 6 
#
# 1 0.019384 0.006118 -0.006921 0.007885 0.005460 0.011284
# 2 0.006118 0.033834 -0.007903 0.000837 0.002077 -0.003552
# 3 -0.006921 -0.007903 0.013354 0.002106 0.000268 -0.001698
# 4 0.007885 0.000837 0.002106 0.041540 0.003871 0.014825
# 5 0.005460 0.002077 0.000268 0.003871 0.024094 0.010179
# 6 0.011284 -0.003552 -0.001698 0.014825 0.010179 0.052204
#
#
# Mechanical properties :
#
#
# Convention : Reuss Voigt Hill
#
# Bulk Modulus (GPa) = 20.34115 37.48436 28.91276
# Shear Modulus (GPa) = 22.91386 32.12246 27.51816
#
# Velocity S-wave (km/s) = 3.23373 3.82877 3.54376
# Velocity P-wave (km/s) = 4.81929 6.05412 5.47165
#
# Compressibility (1/GPa) = 0.04916142
#
# Stress axis : x y z
#
# Youngs Moduli (GPa) = 51.58945 29.55571 74.88115
#
# Poissons Ratio (x) = -0.18084 0.51824
# Poissons Ratio (y) = -0.31565 0.59181
# Poissons Ratio (z) = 0.35704 0.23359
#
# Static dielectric constant tensor:
#      x y z
#    x 1.889060 0.061500 -0.069600 
#    y 0.061500 1.804080 -0.006130 
#    z -0.069600 -0.006130 1.881180 
# 
# From -- ./inp_files/350013.got.cif
#   From: 2010.05.17/outbox.cif.g08.bks.cpg/sg2_176_cif.got.tgz:350013.got - 2010.06.03 11:33:40.
