data_PCOD9037846
_publ_section_title
;
Structure prediction by ZEFSAII (Michael W. Deem and Ramdas Pophale) SiO2 
 PCOD9037846
Probable space group: P -1
;
_chemical_formula_sum "Si O2"
_cell_formula_units_Z 14
_cell_length_a 18.235558
_cell_length_b 15.947487
_cell_length_c 9.328621
_cell_angle_alpha 126.671236
_cell_angle_beta 140.714618
_cell_angle_gamma 23.867953
_cell_volume 626.969657
_symmetry_space_group_name_H-M "P -1"
_symmetry_group_IT_number 2
_symmetry_cell_setting 'triclinic'
loop_
_space_group_symop_operation_xyz
x,y,z
-x,-y,-z
loop_
_atom_site_type_symbol
_atom_site_label
_atom_site_fract_x
_atom_site_fract_y
_atom_site_fract_z
Si Si1 0.145886 0.985439 0.505722
Si Si2 0.472467 0.361170 0.029118
Si Si3 0.685089 0.327349 0.738495
Si Si4 0.148616 0.442016 0.546816
Si Si5 0.654152 0.967315 0.282426
Si Si6 0.738549 0.676908 0.707453
Si Si7 0.368010 0.479925 0.669310
O O1 0.117884 0.913532 0.275568
O O2 0.326137 0.932908 0.657022
O O3 0.280122 0.833708 0.697016
O O4 0.882852 0.249253 0.417562
O O5 0.384093 0.312828 0.839082
O O6 0.496604 0.374398 0.913571
O O7 0.260621 0.603810 0.036889
O O8 0.500000 0.500000 0.500000
O O9 0.538283 0.387855 0.706188
O O10 0.234440 0.308973 0.401923
O O11 0.000000 0.500000 0.500000
O O12 0.943445 0.694964 0.448521
O O13 0.506486 0.091128 0.336536
O O14 0.500000 0.000000 0.000000
O O15 0.710243 0.574609 0.547234
O O16 0.000000 0.500000 0.000000
#
# Coordination Sequence:
#
# PCOD9037846 Si02
#       7
#     2   2   2   2   2   2   2
#     4  11  22  42  67  91 129 174 216 260 325 380
#     4  10  23  41  63  98 128 169 216 267 318 378
#     4  10  23  41  66  95 129 172 219 266 320 383
#     4  11  24  42  63  97 135 162 217 271 319 389
#     4  12  21  40  68  91 126 175 211 262 331 381
#     4  11  22  38  65  95 123 171 216 258 327 386
#     4  11  22  43  64  93 132 166 219 268 319 384
#
# _framework density 22.329630000000002
#
# number of rings (size 3 to 8) (size 9 to 14) (size 15 to 20)
#    0.000    1.143    5.714    1.286    0.000    3.429 
#    0.000   10.000    0.000    0.000    0.000    0.000 
#    0.000    0.000    0.000    0.000    0.000    0.000 
#
# Total GULP energy -78228.053395 kJ/mol
# GULP energy per Si atom -5587.718100 kJ/mol
# Density = 2.227881 g / cm^3
# Si number density = 22.329630 Si / 1000 Ang^3
#
#
#
# Elastic Constant Matrix: (Units=GPa)
#
#
# Indices 1 2 3 4 5 6 
#
# 1 98.4712 18.4500 39.6343 6.2510 -29.0218 -13.2771
# 2 18.4500 109.6242 20.7271 18.8151 -22.3930 -27.3654
# 3 39.6343 20.7271 93.7899 28.9500 -13.4690 -11.1598
# 4 6.2510 18.8151 28.9500 39.4443 -2.9068 -2.9395
# 5 -29.0218 -22.3930 -13.4690 -2.9068 32.2549 6.2926
# 6 -13.2771 -27.3654 -11.1598 -2.9395 6.2926 40.6424
#
#
#
# Elastic Compliance Matrix: (Units=1/GPa)
#
#
# Indices 1 2 3 4 5 6 
#
# 1 0.016166 0.001277 -0.005596 0.002082 0.012740 0.002782
# 2 0.001277 0.013561 0.000427 -0.005756 0.008681 0.007905
# 3 -0.005596 0.000427 0.016844 -0.011459 0.000848 0.002125
# 4 0.002082 -0.005756 -0.011459 0.035708 -0.003048 -0.003287
# 5 0.012740 0.008681 0.000848 -0.003048 0.048070 0.002577
# 6 0.002782 0.007905 0.002125 -0.003287 0.002577 0.030783
#
#
# Mechanical properties :
#
#
# Convention : Reuss Voigt Hill
#
# Bulk Modulus (GPa) = 25.78112 51.05643 38.41877
# Shear Modulus (GPa) = 27.49599 37.33991 32.41795
#
# Velocity S-wave (km/s) = 3.51289 4.09371 3.81437
# Velocity P-wave (km/s) = 5.29383 6.72749 6.05325
#
# Compressibility (1/GPa) = 0.03878808
#
# Stress axis : x y z
#
# Youngs Moduli (GPa) = 61.85754 73.74180 59.36828
#
# Poissons Ratio (x) = -0.09416 0.33221
# Poissons Ratio (y) = -0.07899 -0.02538
# Poissons Ratio (z) = 0.34614 -0.03152
#
# Static dielectric constant tensor:
#      x y z
#    x 1.894090 0.056770 0.006390 
#    y 0.056770 1.835540 0.010480 
#    z 0.006390 0.010480 1.831100 
# 
# From -- ./inp_files/200088.got.cif
#   From: 2010.05.17/outbox.cif.g08.bks.cpg/sg2_101_cif.got.tgz:200088.got - 2010.06.03 11:33:40.
