data_PCOD9037250
_publ_section_title
;
Structure prediction by ZEFSAII (Michael W. Deem and Ramdas Pophale) SiO2 
 PCOD9037250
Probable space group: P -1
;
_chemical_formula_sum "Si O2"
_cell_formula_units_Z 16
_cell_length_a 8.616900
_cell_length_b 15.749456
_cell_length_c 9.913348
_cell_angle_alpha 52.973666
_cell_angle_beta 60.700275
_cell_angle_gamma 97.549591
_cell_volume 740.785583
_symmetry_space_group_name_H-M "P -1"
_symmetry_group_IT_number 2
_symmetry_cell_setting 'triclinic'
loop_
_space_group_symop_operation_xyz
x,y,z
-x,-y,-z
loop_
_atom_site_type_symbol
_atom_site_label
_atom_site_fract_x
_atom_site_fract_y
_atom_site_fract_z
Si Si1 0.466026 0.742411 0.031698
Si Si2 0.064192 0.074404 0.698402
Si Si3 0.615342 0.344836 0.550952
Si Si4 0.931076 0.805557 0.694294
Si Si5 0.063904 0.643980 0.130623
Si Si6 0.868524 0.789987 0.183922
Si Si7 0.350665 0.034004 0.464213
Si Si8 0.869635 0.341497 0.212836
O O1 0.676249 0.742989 0.902973
O O2 0.533182 0.877320 0.803324
O O3 0.435975 0.732851 0.212801
O O4 0.226110 0.633152 0.167122
O O5 0.997167 0.107996 0.556108
O O6 0.084598 0.165569 0.722866
O O7 0.300739 0.107758 0.523277
O O8 0.922325 0.921330 0.958599
O O9 0.393768 0.328024 0.618283
O O10 0.676459 0.288014 0.456633
O O11 0.827825 0.498595 0.342890
O O12 0.968805 0.694083 0.772843
O O13 0.105350 0.906967 0.637975
O O14 0.010305 0.740675 0.121366
O O15 0.184280 0.700499 0.880171
O O16 0.500000 0.000000 0.500000
O O17 0.000000 0.500000 0.000000
#
# Coordination Sequence:
#
# PCOD9037250 Si02
#       8
#     2   2   2   2   2   2   2   2
#     4  11  23  41  69  99 130 171 229 276 329 395
#     4  10  23  40  64 106 133 173 219 278 332 404
#     4  11  24  42  67  97 131 174 232 284 322 392
#     4  11  23  42  69  94 139 175 218 270 346 394
#     4  11  24  45  67  93 134 185 224 268 342 397
#     4  11  23  42  69  95 142 172 225 275 336 394
#     4  11  22  40  71  97 137 180 216 267 341 409
#     4  10  24  44  66  94 131 174 227 273 329 399
#
# _framework density 21.598693000000001
#
# number of rings (size 3 to 8) (size 9 to 14) (size 15 to 20)
#    0.000    1.250    0.000    6.750    7.000    1.000 
#    0.000    3.750    0.000    0.000    0.000    0.000 
#    0.000    0.000    0.000    0.000    0.000    0.000 
#
# Total GULP energy -89388.625596 kJ/mol
# GULP energy per Si atom -5586.789100 kJ/mol
# Density = 2.154953 g / cm^3
# Si number density = 21.598693 Si / 1000 Ang^3
#
#
#
# Elastic Constant Matrix: (Units=GPa)
#
#
# Indices 1 2 3 4 5 6 
#
# 1 135.9284 54.8270 33.5283 20.6998 -12.6594 -7.8702
# 2 54.8270 127.1559 44.6737 31.7309 -1.9590 -3.0722
# 3 33.5283 44.6737 95.2440 27.8132 -2.3475 -0.6354
# 4 20.6998 31.7309 27.8132 50.0315 9.8557 1.6386
# 5 -12.6594 -1.9590 -2.3475 9.8557 41.7220 -6.9783
# 6 -7.8702 -3.0722 -0.6354 1.6386 -6.9783 35.9909
#
#
#
# Elastic Compliance Matrix: (Units=1/GPa)
#
#
# Indices 1 2 3 4 5 6 
#
# 1 0.009744 -0.003100 -0.001224 -0.002203 0.003708 0.002664
# 2 -0.003100 0.011354 -0.002926 -0.004421 0.000564 0.000550
# 3 -0.001224 -0.002926 0.014036 -0.005787 0.001702 0.000324
# 4 -0.002203 -0.004421 -0.005787 0.028754 -0.008654 -0.003948
# 5 0.003708 0.000564 0.001702 -0.008654 0.028395 0.006789
# 6 0.002664 0.000550 0.000324 -0.003948 0.006789 0.029916
#
#
# Mechanical properties :
#
#
# Convention : Reuss Voigt Hill
#
# Bulk Modulus (GPa) = 48.45980 69.37625 58.91803
# Shear Modulus (GPa) = 34.82422 40.56884 37.69653
#
# Velocity S-wave (km/s) = 4.01974 4.33864 4.18223
# Velocity P-wave (km/s) = 6.63548 7.56893 7.11752
#
# Compressibility (1/GPa) = 0.02063566
#
# Stress axis : x y z
#
# Youngs Moduli (GPa) = 102.62509 88.07211 71.24310
#
# Poissons Ratio (x) = 0.27307 0.08717
# Poissons Ratio (y) = 0.31819 0.20843
# Poissons Ratio (z) = 0.12557 0.25766
#
# Static dielectric constant tensor:
#      x y z
#    x 1.771140 0.024420 -0.020350 
#    y 0.024420 1.806720 -0.019750 
#    z -0.020350 -0.019750 1.840200 
# 
# From -- ./inp_files/205871.got.cif
#   From: 2010.05.17/outbox.cif.g08.bks.cpg/sg2_103_cif.got.tgz:205871.got - 2010.06.03 11:33:40.
