data_PCOD9037356
_publ_section_title
;
Structure prediction by ZEFSAII (Michael W. Deem and Ramdas Pophale) SiO2 
 PCOD9037356
Probable space group: P -1
;
_chemical_formula_sum "Si O2"
_cell_formula_units_Z 12
_cell_length_a 15.159864
_cell_length_b 8.025917
_cell_length_c 11.612013
_cell_angle_alpha 134.451359
_cell_angle_beta 26.250489
_cell_angle_gamma 127.740189
_cell_volume 445.509148
_symmetry_space_group_name_H-M "P -1"
_symmetry_group_IT_number 2
_symmetry_cell_setting 'triclinic'
loop_
_space_group_symop_operation_xyz
x,y,z
-x,-y,-z
loop_
_atom_site_type_symbol
_atom_site_label
_atom_site_fract_x
_atom_site_fract_y
_atom_site_fract_z
Si Si1 0.225219 0.391688 0.285021
Si Si2 0.444131 0.626199 0.940901
Si Si3 0.523598 0.733520 0.461751
Si Si4 0.854904 0.387327 0.022828
Si Si5 0.886410 0.032120 0.496985
Si Si6 0.182434 0.917242 0.665817
O O1 0.305479 0.463260 0.100886
O O2 0.176454 0.639046 0.524394
O O3 0.048886 0.225222 0.397456
O O4 0.403358 0.281515 0.100211
O O5 0.308479 0.843241 0.157383
O O6 0.537255 0.452532 0.653436
O O7 0.720481 0.584537 0.209437
O O8 0.321686 0.758802 0.784733
O O9 0.618659 0.984972 0.462032
O O10 0.000000 0.500000 0.000000
O O11 0.008932 0.204019 0.689833
O O12 0.832013 0.994214 0.407192
O O13 0.000000 0.000000 0.000000
#
# Coordination Sequence:
#
# PCOD9037356 Si02
#       6
#     2   2   2   2   2   2
#     4  10  23  40  65  98 140 171 204 272 345 392
#     4  10  23  41  64  99 133 166 218 264 335 397
#     4  11  25  44  70  99 130 176 229 269 326 393
#     4  11  26  46  68  93 133 181 225 277 321 381
#     4  11  23  42  67  93 137 172 217 273 329 391
#     4  11  22  40  71 104 135 168 219 274 337 398
#
# _framework density 26.935476000000001
#
# number of rings (size 3 to 8) (size 9 to 14) (size 15 to 20)
#    0.000    1.333    1.667    4.000    9.333    2.667 
#    0.000    1.667    0.000    0.000    0.000    0.000 
#    0.000    0.000    0.000    0.000    0.000    0.000 
#
# Total GULP energy -67228.264982 kJ/mol
# GULP energy per Si atom -5602.355415 kJ/mol
# Density = 2.687417 g / cm^3
# Si number density = 26.935476 Si / 1000 Ang^3
#
#
#
# Elastic Constant Matrix: (Units=GPa)
#
#
# Indices 1 2 3 4 5 6 
#
# 1 95.8867 -4.3244 -4.9111 6.8352 -18.5149 9.2236
# 2 -4.3244 95.7722 22.1282 1.4700 -6.9329 19.0189
# 3 -4.9111 22.1282 108.1046 30.0313 -2.2046 -14.4004
# 4 6.8352 1.4700 30.0313 43.1732 -3.5717 -4.9081
# 5 -18.5149 -6.9329 -2.2046 -3.5717 52.5928 2.6603
# 6 9.2236 19.0189 -14.4004 -4.9081 2.6603 29.7166
#
#
#
# Elastic Compliance Matrix: (Units=1/GPa)
#
#
# Indices 1 2 3 4 5 6 
#
# 1 0.012164 0.002067 0.000095 -0.002340 0.004696 -0.005859
# 2 0.002067 0.014242 -0.004753 0.001375 0.003112 -0.012112
# 3 0.000095 -0.004753 0.013679 -0.008506 -0.001019 0.008328
# 4 -0.002340 0.001375 -0.008506 0.029543 0.000981 0.000516
# 5 0.004696 0.003112 -0.001019 0.000981 0.021390 -0.005696
# 6 -0.005859 -0.012112 0.008328 0.000516 -0.005696 0.047852
#
#
# Mechanical properties :
#
#
# Convention : Reuss Voigt Hill
#
# Bulk Modulus (GPa) = 28.65135 36.17211 32.41173
# Shear Modulus (GPa) = 32.11565 44.22123 38.16844
#
# Velocity S-wave (km/s) = 3.45674 4.05624 3.76843
# Velocity P-wave (km/s) = 5.15676 5.94944 5.56723
#
# Compressibility (1/GPa) = 0.03490237
#
# Stress axis : x y z
#
# Youngs Moduli (GPa) = 82.20813 70.21312 73.10460
#
# Poissons Ratio (x) = -0.14511 -0.00693
# Poissons Ratio (y) = -0.16991 0.34748
# Poissons Ratio (z) = -0.00779 0.33374
#
# Static dielectric constant tensor:
#      x y z
#    x 2.165490 -0.085230 -0.025650 
#    y -0.085230 2.079930 0.047850 
#    z -0.025650 0.047850 2.093260 
# 
# From -- ./inp_files/262643.got.cif
#   From: 2010.05.17/outbox.cif.g08.bks.cpg/sg2_132_cif.got.tgz:262643.got - 2010.06.03 11:33:40.
