data_PCOD9037037
_publ_section_title
;
Structure prediction by ZEFSAII (Michael W. Deem and Ramdas Pophale) SiO2 
 PCOD9037037
Probable space group: P -1
;
_chemical_formula_sum "Si O2"
_cell_formula_units_Z 14
_cell_length_a 9.101104
_cell_length_b 11.977889
_cell_length_c 8.203972
_cell_angle_alpha 89.521211
_cell_angle_beta 81.320069
_cell_angle_gamma 130.870520
_cell_volume 661.641086
_symmetry_space_group_name_H-M "P -1"
_symmetry_group_IT_number 2
_symmetry_cell_setting 'triclinic'
loop_
_space_group_symop_operation_xyz
x,y,z
-x,-y,-z
loop_
_atom_site_type_symbol
_atom_site_label
_atom_site_fract_x
_atom_site_fract_y
_atom_site_fract_z
Si Si1 0.040763 0.988318 0.233256
Si Si2 0.218281 0.226935 0.460281
Si Si3 0.440082 0.874519 0.380922
Si Si4 0.891515 0.364694 0.144818
Si Si5 0.012388 0.346695 0.476237
Si Si6 0.806138 0.066842 0.084226
Si Si7 0.375684 0.632662 0.606358
O O1 0.853951 0.829872 0.342998
O O2 0.170810 0.094790 0.362014
O O3 0.170546 0.972635 0.098617
O O4 0.951940 0.053458 0.157427
O O5 0.079643 0.256592 0.421944
O O6 0.448683 0.366472 0.394686
O O7 0.464661 0.766739 0.463354
O O8 0.202307 0.764083 0.400041
O O9 0.500000 0.000000 0.500000
O O10 0.587224 0.953440 0.202635
O O11 0.868452 0.227579 0.083960
O O12 0.687904 0.326601 0.227303
O O13 0.992427 0.401170 0.306907
O O14 0.000000 0.500000 0.000000
O O15 0.183249 0.480692 0.560568
#
# Coordination Sequence:
#
# PCOD9037037 Si02
#       7
#     2   2   2   2   2   2   2
#     4  10  23  39  70 102 137 169 227 292 338 388
#     4  11  22  44  67 100 131 182 234 270 337 405
#     4  11  19  40  71  95 127 176 225 276 334 394
#     4  11  24  44  65  97 142 175 220 281 340 401
#     4  11  24  44  69  95 139 185 220 277 335 406
#     4  11  21  43  68 104 135 175 223 288 340 395
#     4  11  24  43  68  97 135 186 224 269 338 414
#
# _framework density 21.159507999999999
#
# number of rings (size 3 to 8) (size 9 to 14) (size 15 to 20)
#    0.000    1.143    5.714    2.143    4.000    0.000 
#    5.143    2.143    0.000    0.000    0.000    0.000 
#    0.000    0.000    0.000    0.000    0.000    0.000 
#
# Total GULP energy -78160.583443 kJ/mol
# GULP energy per Si atom -5582.898817 kJ/mol
# Density = 2.111135 g / cm^3
# Si number density = 21.159508 Si / 1000 Ang^3
#
#
#
# Elastic Constant Matrix: (Units=GPa)
#
#
# Indices 1 2 3 4 5 6 
#
# 1 98.3592 27.4286 57.3054 -13.7529 -39.7861 11.0144
# 2 27.4286 88.8786 52.8512 -9.5993 -21.8852 7.5501
# 3 57.3054 52.8512 130.9672 -12.3659 -45.7475 -2.3600
# 4 -13.7529 -9.5993 -12.3659 36.7150 -7.1820 -1.4360
# 5 -39.7861 -21.8852 -45.7475 -7.1820 34.1207 -3.1085
# 6 11.0144 7.5501 -2.3600 -1.4360 -3.1085 29.4367
#
#
#
# Elastic Compliance Matrix: (Units=1/GPa)
#
#
# Indices 1 2 3 4 5 6 
#
# 1 0.028538 0.002500 0.003625 0.020891 0.043646 -0.005401
# 2 0.002500 0.015932 -0.004330 0.005041 0.008000 -0.004278
# 3 0.003625 -0.004330 0.020431 0.013621 0.032207 0.005458
# 4 0.020891 0.005041 0.013621 0.052114 0.056873 0.000530
# 5 0.043646 0.008000 0.032207 0.056873 0.140651 0.001826
# 6 -0.005401 -0.004278 0.005458 0.000530 0.001826 0.037745
#
#
# Mechanical properties :
#
#
# Convention : Reuss Voigt Hill
#
# Bulk Modulus (GPa) = 14.60040 65.93059 40.26549
# Shear Modulus (GPa) = 15.89051 32.09581 23.99316
#
# Velocity S-wave (km/s) = 2.74339 3.89890 3.37102
# Velocity P-wave (km/s) = 4.11704 7.17601 5.85000
#
# Compressibility (1/GPa) = 0.06849129
#
# Stress axis : x y z
#
# Youngs Moduli (GPa) = 35.04085 62.76521 48.94458
#
# Poissons Ratio (x) = -0.15688 -0.17743
# Poissons Ratio (y) = -0.08758 0.21193
# Poissons Ratio (z) = -0.12703 0.27177
#
# Static dielectric constant tensor:
#      x y z
#    x 1.804130 0.008090 0.011600 
#    y 0.008090 1.791990 0.012710 
#    z 0.011600 0.012710 1.767850 
# 
# From -- ./inp_files/187508.got.cif
#   From: 2010.05.17/outbox.cif.g08.bks.cpg/sg2_94_cif.got.tgz:187508.got - 2010.06.03 11:33:40.
