data_PCOD9037859
_publ_section_title
;
Structure prediction by ZEFSAII (Michael W. Deem and Ramdas Pophale) SiO2 
 PCOD9037859
Probable space group: P -1
;
_chemical_formula_sum "Si O2"
_cell_formula_units_Z 16
_cell_length_a 24.160590
_cell_length_b 5.091678
_cell_length_c 5.676100
_cell_angle_alpha 97.527805
_cell_angle_beta 90.279379
_cell_angle_gamma 53.893203
_cell_volume 556.993039
_symmetry_space_group_name_H-M "P -1"
_symmetry_group_IT_number 2
_symmetry_cell_setting 'triclinic'
loop_
_space_group_symop_operation_xyz
x,y,z
-x,-y,-z
loop_
_atom_site_type_symbol
_atom_site_label
_atom_site_fract_x
_atom_site_fract_y
_atom_site_fract_z
Si Si1 0.954511 0.777318 0.839146
Si Si2 0.409371 0.843294 0.136569
Si Si3 0.079997 0.572878 0.583519
Si Si4 0.644405 0.455892 0.239431
Si Si5 0.211312 0.144987 0.816506
Si Si6 0.828912 0.367786 0.745091
Si Si7 0.710603 0.628276 0.452644
Si Si8 0.453339 0.258830 0.323639
O O1 0.936713 0.606884 0.624457
O O2 0.008847 0.836821 0.743151
O O3 0.878607 0.110771 0.922281
O O4 0.000000 0.500000 0.000000
O O5 0.467375 0.506045 0.243412
O O6 0.342269 0.104836 0.318756
O O7 0.440916 0.047819 0.121749
O O8 0.383344 0.679548 0.947792
O O9 0.136565 0.299774 0.733884
O O10 0.116587 0.704573 0.461976
O O11 0.643793 0.772377 0.264077
O O12 0.617410 0.487425 0.504202
O O13 0.729147 0.248249 0.242995
O O14 0.245446 0.275268 0.673216
O O15 0.203865 0.278427 0.094770
O O16 0.770055 0.362741 0.623907
O O17 0.500000 0.000000 0.500000
#
# Coordination Sequence:
#
# PCOD9037859 Si02
#       8
#     2   2   2   2   2   2   2   2
#     4  11  24  42  62  91 129 178 234 293 360 432
#     4  11  24  44  73 105 143 192 239 294 357 425
#     4  10  24  41  62  90 130 171 229 288 365 422
#     4  11  24  41  70  99 145 180 240 285 362 419
#     4  11  22  40  65  97 128 177 230 291 360 424
#     4  11  23  41  66  94 131 177 236 290 370 428
#     4  10  23  41  64 101 137 181 230 301 355 431
#     4  11  26  46  72 107 150 192 241 295 351 424
#
# _framework density 28.725669
#
# number of rings (size 3 to 8) (size 9 to 14) (size 15 to 20)
#    0.000    1.250    2.500    2.250    1.750    9.000 
#    0.000    0.000    0.000    0.000    0.000    0.000 
#    0.000    0.000    0.000    0.000    0.000    0.000 
#
# Total GULP energy -89288.023716 kJ/mol
# GULP energy per Si atom -5580.501482 kJ/mol
# Density = 2.866029 g / cm^3
# Si number density = 28.725669 Si / 1000 Ang^3
#
#
#
# Elastic Constant Matrix: (Units=GPa)
#
#
# Indices 1 2 3 4 5 6 
#
# 1 124.4050 57.7673 51.5687 7.7596 25.4380 8.3980
# 2 57.7673 122.7588 22.7016 -3.7880 8.0328 -9.3351
# 3 51.5687 22.7016 110.0030 20.2943 47.6869 -0.9320
# 4 7.7596 -3.7880 20.2943 43.2171 1.2437 -6.3141
# 5 25.4380 8.0328 47.6869 1.2437 59.1977 -2.6619
# 6 8.3980 -9.3351 -0.9320 -6.3141 -2.6619 50.0903
#
#
#
# Elastic Compliance Matrix: (Units=1/GPa)
#
#
# Indices 1 2 3 4 5 6 
#
# 1 0.012936 -0.005563 -0.003905 -0.001445 -0.001788 -0.003555
# 2 -0.005563 0.011178 -0.000954 0.002881 0.001737 0.003454
# 3 -0.003905 -0.000954 0.017931 -0.007561 -0.012515 -0.000808
# 4 -0.001445 0.002881 -0.007561 0.027680 0.005939 0.004443
# 5 -0.001788 0.001737 -0.012515 0.005939 0.027499 0.002601
# 6 -0.003555 0.003454 -0.000808 0.004443 0.002601 0.021887
#
#
# Mechanical properties :
#
#
# Convention : Reuss Voigt Hill
#
# Bulk Modulus (GPa) = 47.16751 69.02691 58.09721
# Shear Modulus (GPa) = 34.00853 45.50964 39.75908
#
# Velocity S-wave (km/s) = 3.44453 3.98463 3.72438
# Velocity P-wave (km/s) = 5.68114 6.72692 6.22603
#
# Compressibility (1/GPa) = 0.02120103
#
# Stress axis : x y z
#
# Youngs Moduli (GPa) = 77.30512 89.45914 55.76817
#
# Poissons Ratio (x) = 0.49767 0.21776
# Poissons Ratio (y) = 0.43006 0.05322
# Poissons Ratio (z) = 0.30185 0.08538
#
# Static dielectric constant tensor:
#      x y z
#    x 2.240810 0.017710 0.028680 
#    y 0.017710 2.966790 0.044470 
#    z 0.028680 0.044470 2.378040 
# 
# From -- ./inp_files/10825.got.cif
#   From: 2010.05.17/outbox.cif.g08.bks.cpg/sg2_6_cif.got.tgz:10825.got - 2010.06.03 11:33:40.
