data_PCOD9037886
_publ_section_title
;
Structure prediction by ZEFSAII (Michael W. Deem and Ramdas Pophale) SiO2 
 PCOD9037886
Probable space group: P -1
;
_chemical_formula_sum "Si O2"
_cell_formula_units_Z 16
_cell_length_a 17.788191
_cell_length_b 13.500438
_cell_length_c 7.601392
_cell_angle_alpha 85.167252
_cell_angle_beta 124.066732
_cell_angle_gamma 141.210142
_cell_volume 695.479471
_symmetry_space_group_name_H-M "P -1"
_symmetry_group_IT_number 2
_symmetry_cell_setting 'triclinic'
loop_
_space_group_symop_operation_xyz
x,y,z
-x,-y,-z
loop_
_atom_site_type_symbol
_atom_site_label
_atom_site_fract_x
_atom_site_fract_y
_atom_site_fract_z
Si Si1 0.221418 0.953130 0.415213
Si Si2 0.133574 0.378354 0.252081
Si Si3 0.591881 0.187226 0.868961
Si Si4 0.821895 0.872703 0.519538
Si Si5 0.977686 0.408085 0.654190
Si Si6 0.443729 0.526409 0.566507
Si Si7 0.656637 0.236029 0.367667
Si Si8 0.132835 0.023711 0.841184
O O1 0.148212 0.814451 0.505512
O O2 0.432448 0.114305 0.618551
O O3 0.214009 0.062124 0.428259
O O4 0.053497 0.766993 0.081129
O O5 0.265130 0.427601 0.307766
O O6 0.284665 0.606348 0.486179
O O7 0.023858 0.215722 0.294837
O O8 0.518122 0.003975 0.758400
O O9 0.803973 0.407689 0.031744
O O10 0.615160 0.215061 0.108746
O O11 0.644819 0.624231 0.364569
O O12 0.839560 0.921240 0.333207
O O13 0.026738 0.013516 0.803232
O O14 0.000000 0.500000 0.500000
O O15 0.845957 0.347779 0.615940
O O16 0.500000 0.500000 0.500000
O O17 0.647324 0.781080 0.832306
#
# Coordination Sequence:
#
# PCOD9037886 Si02
#       8
#     2   2   2   2   2   2   2   2
#     4  11  23  38  61  95 126 163 214 263 315 381
#     4  11  25  40  63 100 131 166 214 266 323 372
#     4   9  20  38  63  88 122 167 207 260 318 377
#     4  10  23  41  64  93 127 168 219 263 308 384
#     4   9  20  38  61  89 122 164 211 256 321 371
#     4  11  23  42  65  92 135 172 208 259 325 379
#     4   9  20  40  61  88 127 160 212 264 310 382
#     4  10  23  42  64  92 129 170 213 267 316 373
#
# _framework density 23.005711000000002
#
# number of rings (size 3 to 8) (size 9 to 14) (size 15 to 20)
#    0.000    2.000    0.000    2.625    5.250    8.000 
#    0.000    1.250    0.000    0.000    0.000    0.000 
#    0.000    0.000    0.000    0.000    0.000    0.000 
#
# Total GULP energy -89354.951051 kJ/mol
# GULP energy per Si atom -5584.684441 kJ/mol
# Density = 2.295335 g / cm^3
# Si number density = 23.005711 Si / 1000 Ang^3
#
#
#
# Elastic Constant Matrix: (Units=GPa)
#
#
# Indices 1 2 3 4 5 6 
#
# 1 62.3553 32.5718 40.8879 9.8196 13.8478 -10.2903
# 2 32.5718 77.1811 17.3496 12.8600 9.6594 -1.4006
# 3 40.8879 17.3496 116.0635 10.7560 32.4371 -3.6447
# 4 9.8196 12.8600 10.7560 38.2895 1.4129 1.5416
# 5 13.8478 9.6594 32.4371 1.4129 40.6611 7.0501
# 6 -10.2903 -1.4006 -3.6447 1.5416 7.0501 36.0169
#
#
#
# Elastic Compliance Matrix: (Units=1/GPa)
#
#
# Indices 1 2 3 4 5 6 
#
# 1 0.027785 -0.009264 -0.007200 -0.002192 -0.002739 0.007479
# 2 -0.009264 0.017359 0.001474 -0.003750 -0.001787 -0.001312
# 3 -0.007200 0.001474 0.013675 -0.002210 -0.008944 0.001229
# 4 -0.002192 -0.003750 -0.002210 0.028565 0.002890 -0.002784
# 5 -0.002739 -0.001787 -0.008944 0.002890 0.034481 -0.008630
# 6 0.007479 -0.001312 0.001229 -0.002784 -0.008630 0.031784
#
#
# Mechanical properties :
#
#
# Convention : Reuss Voigt Hill
#
# Bulk Modulus (GPa) = 34.67344 48.57985 41.62664
# Shear Modulus (GPa) = 25.87442 33.97956 29.92699
#
# Velocity S-wave (km/s) = 3.35729 3.84735 3.61064
# Velocity P-wave (km/s) = 5.48934 6.39519 5.95950
#
# Compressibility (1/GPa) = 0.02884052
#
# Stress axis : x y z
#
# Youngs Moduli (GPa) = 35.99058 57.60635 73.12596
#
# Poissons Ratio (x) = 0.53364 0.52652
# Poissons Ratio (y) = 0.33340 -0.10781
# Poissons Ratio (z) = 0.25914 -0.08493
#
# Static dielectric constant tensor:
#      x y z
#    x 1.850460 -0.012760 -0.002680 
#    y -0.012760 1.927360 -0.043480 
#    z -0.002680 -0.043480 1.875840 
# 
# From -- ./inp_files/333296.got.cif
#   From: 2010.05.17/outbox.cif.g08.bks.cpg/sg2_167_cif.got.tgz:333296.got - 2010.06.03 11:33:40.
