data_PCOD9037451
_publ_section_title
;
Structure prediction by ZEFSAII (Michael W. Deem and Ramdas Pophale) SiO2 
 PCOD9037451
Probable space group: P -1
;
_chemical_formula_sum "Si O2"
_cell_formula_units_Z 12
_cell_length_a 11.362267
_cell_length_b 9.296313
_cell_length_c 8.698442
_cell_angle_alpha 69.538594
_cell_angle_beta 98.442768
_cell_angle_gamma 140.317313
_cell_volume 538.075134
_symmetry_space_group_name_H-M "P -1"
_symmetry_group_IT_number 2
_symmetry_cell_setting 'triclinic'
loop_
_space_group_symop_operation_xyz
x,y,z
-x,-y,-z
loop_
_atom_site_type_symbol
_atom_site_label
_atom_site_fract_x
_atom_site_fract_y
_atom_site_fract_z
Si Si1 0.545717 0.188261 0.826728
Si Si2 0.675034 0.567140 0.954343
Si Si3 0.783068 0.256293 0.588210
Si Si4 0.905950 0.053792 0.664620
Si Si5 0.621943 0.772847 0.462518
Si Si6 0.708405 0.439302 0.322502
O O1 0.694677 0.268528 0.702465
O O2 0.385214 0.112194 0.721061
O O3 0.620644 0.401527 0.866317
O O4 0.500000 0.000000 0.000000
O O5 0.733683 0.519364 0.125379
O O6 0.500000 0.500000 0.000000
O O7 0.842638 0.844030 0.827014
O O8 0.701394 0.249121 0.418676
O O9 0.000000 0.500000 0.500000
O O10 0.787975 0.083089 0.694564
O O11 0.826213 0.954562 0.511981
O O12 0.123764 0.314161 0.637081
O O13 0.500000 0.500000 0.500000
O O14 0.489012 0.702809 0.598229
#
# Coordination Sequence:
#
# PCOD9037451 Si02
#       6
#     2   2   2   2   2   2
#     4  11  24  39  67 100 130 172 223 268 331 388
#     4  12  22  41  65  99 135 169 217 277 327 390
#     4   9  22  44  64  92 131 174 218 264 325 395
#     4  11  22  41  68  90 129 173 218 265 331 381
#     4  11  22  42  63  95 128 170 221 269 322 396
#     4  10  23  40  67  91 130 173 218 264 332 388
#
# _framework density 22.301718999999999
#
# number of rings (size 3 to 8) (size 9 to 14) (size 15 to 20)
#    0.000    1.333    3.333    1.500    2.333    2.000 
#    3.000    3.333    0.000    0.000    0.000    0.000 
#    0.000    0.000    0.000    0.000    0.000    0.000 
#
# Total GULP energy -66931.677277 kJ/mol
# GULP energy per Si atom -5577.639773 kJ/mol
# Density = 2.225096 g / cm^3
# Si number density = 22.301719 Si / 1000 Ang^3
#
#
#
# Elastic Constant Matrix: (Units=GPa)
#
#
# Indices 1 2 3 4 5 6 
#
# 1 60.6522 17.8058 20.4249 1.7679 5.1146 -4.3763
# 2 17.8058 109.4573 32.3979 6.7097 2.8573 14.1564
# 3 20.4249 32.3979 165.9736 -5.7770 33.2505 1.0845
# 4 1.7679 6.7097 -5.7770 40.3354 -1.0542 5.8458
# 5 5.1146 2.8573 33.2505 -1.0542 23.9519 0.7816
# 6 -4.3763 14.1564 1.0845 5.8458 0.7816 42.5460
#
#
#
# Elastic Compliance Matrix: (Units=1/GPa)
#
#
# Indices 1 2 3 4 5 6 
#
# 1 0.018181 -0.002830 -0.001387 -0.001008 -0.001762 0.003018
# 2 -0.002830 0.010768 -0.002291 -0.001396 0.002558 -0.003671
# 3 -0.001387 -0.002291 0.009093 0.001370 -0.012008 0.000420
# 4 -0.001008 -0.001396 0.001370 0.025722 -0.000283 -0.003203
# 5 -0.001762 0.002558 -0.012008 -0.000283 0.058536 -0.001763
# 6 0.003018 -0.003671 0.000420 -0.003203 -0.001763 0.025497
#
#
# Mechanical properties :
#
#
# Convention : Reuss Voigt Hill
#
# Bulk Modulus (GPa) = 39.95540 53.03780 46.49660
# Shear Modulus (GPa) = 29.55892 39.06363 34.31128
#
# Velocity S-wave (km/s) = 3.64457 4.18975 3.92663
# Velocity P-wave (km/s) = 5.97204 6.87306 6.43833
#
# Compressibility (1/GPa) = 0.02502791
#
# Stress axis : x y z
#
# Youngs Moduli (GPa) = 55.00281 92.86888 109.97062
#
# Poissons Ratio (x) = 0.26278 0.15250
# Poissons Ratio (y) = 0.15563 0.25192
# Poissons Ratio (z) = 0.07627 0.21274
#
# Static dielectric constant tensor:
#      x y z
#    x 1.803780 -0.045300 0.042770 
#    y -0.045300 1.919210 0.027650 
#    z 0.042770 0.027650 1.813790 
# 
# From -- ./inp_files/173416.got.cif
#   From: 2010.05.17/outbox.cif.g08.bks.cpg/sg2_87_cif.got.tgz:173416.got - 2010.06.03 11:33:40.
