data_PCOD9037983
_publ_section_title
;
Structure prediction by ZEFSAII (Michael W. Deem and Ramdas Pophale) SiO2 
 PCOD9037983
Probable space group: P -1
;
_chemical_formula_sum "Si O2"
_cell_formula_units_Z 16
_cell_length_a 15.844615
_cell_length_b 11.402286
_cell_length_c 9.226894
_cell_angle_alpha 39.150685
_cell_angle_beta 44.256523
_cell_angle_gamma 56.677980
_cell_volume 734.415930
_symmetry_space_group_name_H-M "P -1"
_symmetry_group_IT_number 2
_symmetry_cell_setting 'triclinic'
loop_
_space_group_symop_operation_xyz
x,y,z
-x,-y,-z
loop_
_atom_site_type_symbol
_atom_site_label
_atom_site_fract_x
_atom_site_fract_y
_atom_site_fract_z
Si Si1 0.299112 0.658360 0.865817
Si Si2 0.106911 0.143070 0.698689
Si Si3 0.935512 0.545553 0.758892
Si Si4 0.878177 0.885313 0.724517
Si Si5 0.176939 0.324483 0.725524
Si Si6 0.531688 0.639582 0.189779
Si Si7 0.692091 0.991778 0.646917
Si Si8 0.388079 0.599821 0.122383
O O1 0.367735 0.472630 0.915932
O O2 0.357543 0.822889 0.540324
O O3 0.164339 0.610096 0.017542
O O4 0.319101 0.696603 0.976690
O O5 0.048662 0.324796 0.525265
O O6 0.168022 0.195554 0.721701
O O7 0.213379 0.076529 0.526975
O O8 0.000000 0.000000 0.000000
O O9 0.897923 0.701608 0.775106
O O10 0.055907 0.447322 0.757614
O O11 0.783601 0.023776 0.635668
O O12 0.820625 0.802281 0.017470
O O13 0.000000 0.000000 0.500000
O O14 0.292988 0.451047 0.441563
O O15 0.500000 0.500000 0.500000
O O16 0.435684 0.687132 0.132920
O O17 0.596113 0.834811 0.962993
O O18 0.500000 0.500000 0.000000
#
# Coordination Sequence:
#
# PCOD9037983 Si02
#       8
#     2   2   2   2   2   2   2   2
#     4  11  22  44  69  95 133 173 221 274 330 397
#     4  11  21  36  61  97 134 168 211 265 333 396
#     4  11  22  40  64  98 134 174 213 269 347 393
#     4  11  23  42  60  99 139 170 211 274 338 404
#     4  12  22  38  67  95 130 174 219 269 331 397
#     4  11  23  46  69  92 133 178 225 272 330 378
#     4  11  24  43  68  93 134 177 216 274 330 387
#     4  10  23  41  65  95 127 175 223 271 318 382
#
# _framework density 21.786021000000002
#
# number of rings (size 3 to 8) (size 9 to 14) (size 15 to 20)
#    0.000    1.000    3.750    5.250    1.750    1.000 
#    0.000    0.000    0.000    0.000    0.000    0.000 
#    0.000    0.000    0.000    0.000    0.000    0.000 
#
# Total GULP energy -89256.492124 kJ/mol
# GULP energy per Si atom -5578.530758 kJ/mol
# Density = 2.173643 g / cm^3
# Si number density = 21.786021 Si / 1000 Ang^3
#
#
#
# Elastic Constant Matrix: (Units=GPa)
#
#
# Indices 1 2 3 4 5 6 
#
# 1 119.7194 11.2083 56.8391 -0.4022 -0.9223 30.0315
# 2 11.2083 30.9049 -4.0758 5.1978 1.0968 -1.3075
# 3 56.8391 -4.0758 150.7048 -7.3633 4.7606 9.2708
# 4 -0.4022 5.1978 -7.3633 32.2638 2.4462 3.1643
# 5 -0.9223 1.0968 4.7606 2.4462 52.3241 2.3591
# 6 30.0315 -1.3075 9.2708 3.1643 2.3591 24.0949
#
#
#
# Elastic Compliance Matrix: (Units=1/GPa)
#
#
# Indices 1 2 3 4 5 6 
#
# 1 0.016409 -0.007856 -0.005165 0.002058 0.001699 -0.019327
# 2 -0.007856 0.037228 0.002983 -0.006450 -0.001414 0.011650
# 3 -0.005165 0.002983 0.008557 0.001174 -0.001134 0.003265
# 4 0.002058 -0.006450 0.001174 0.033160 -0.001142 -0.007610
# 5 0.001699 -0.001414 -0.001134 -0.001142 0.019486 -0.003516
# 6 -0.019327 0.011650 0.003265 -0.007610 -0.003516 0.066312
#
#
# Mechanical properties :
#
#
# Convention : Reuss Voigt Hill
#
# Bulk Modulus (GPa) = 23.74425 47.69693 35.72059
# Shear Modulus (GPa) = 23.22684 37.56041 30.39362
#
# Velocity S-wave (km/s) = 3.26871 4.15668 3.73915
# Velocity P-wave (km/s) = 5.01682 6.70658 5.92228
#
# Compressibility (1/GPa) = 0.04211545
#
# Stress axis : x y z
#
# Youngs Moduli (GPa) = 60.94197 26.86163 116.86802
#
# Poissons Ratio (x) = 0.21104 0.60367
# Poissons Ratio (y) = 0.47878 -0.34859
# Poissons Ratio (z) = 0.31479 -0.08012
#
# Static dielectric constant tensor:
#      x y z
#    x 1.608910 0.056100 -0.012240 
#    y 0.056100 1.679330 -0.009980 
#    z -0.012240 -0.009980 1.753040 
# 
# From -- ./inp_files/258141.got.cif
#   From: 2010.05.17/outbox.cif.g08.bks.cpg/sg2_130_cif.got.tgz:258141.got - 2010.06.03 11:33:40.
