data_PCOD9037894
_publ_section_title
;
Structure prediction by ZEFSAII (Michael W. Deem and Ramdas Pophale) SiO2 
 PCOD9037894
Probable space group: P -1
;
_chemical_formula_sum "Si O2"
_cell_formula_units_Z 16
_cell_length_a 8.999653
_cell_length_b 25.404133
_cell_length_c 9.426420
_cell_angle_alpha 29.115476
_cell_angle_beta 49.735000
_cell_angle_gamma 46.600626
_cell_volume 755.423044
_symmetry_space_group_name_H-M "P -1"
_symmetry_group_IT_number 2
_symmetry_cell_setting 'triclinic'
loop_
_space_group_symop_operation_xyz
x,y,z
-x,-y,-z
loop_
_atom_site_type_symbol
_atom_site_label
_atom_site_fract_x
_atom_site_fract_y
_atom_site_fract_z
Si Si1 0.410457 0.395571 0.314088
Si Si2 0.849262 0.118409 0.745520
Si Si3 0.028932 0.796108 0.269680
Si Si4 0.792711 0.500310 0.550615
Si Si5 0.792985 0.088343 0.353087
Si Si6 0.754920 0.255555 0.233216
Si Si7 0.579432 0.975377 0.170306
Si Si8 0.988405 0.436860 0.301260
O O1 0.373674 0.397678 0.501269
O O2 0.569299 0.293471 0.371208
O O3 0.197330 0.417694 0.307718
O O4 0.500000 0.500000 0.000000
O O5 0.918251 0.158989 0.457088
O O6 0.852932 0.216040 0.625285
O O7 0.650427 0.079480 0.935730
O O8 0.000000 0.000000 0.000000
O O9 0.040739 0.681927 0.446900
O O10 0.788148 0.865509 0.288065
O O11 0.132878 0.869101 0.936415
O O12 0.000000 0.500000 0.500000
O O13 0.810098 0.507545 0.354043
O O14 0.786502 0.373339 0.889967
O O15 0.718132 0.193810 0.261500
O O16 0.602862 0.040073 0.585001
O O17 0.000000 0.000000 0.500000
O O18 0.500000 0.000000 0.000000
O O19 0.000000 0.500000 0.000000
#
# Coordination Sequence:
#
# PCOD9037894 Si02
#       8
#     2   2   2   2   2   2   2   2
#     4   9  21  39  65  92 120 170 222 267 320 393
#     4  10  23  41  64  94 135 172 214 275 328 384
#     4  11  24  41  62  98 133 171 215 271 345 387
#     4   9  20  39  62  95 121 164 221 262 318 403
#     4  12  22  38  69  99 129 173 222 273 327 408
#     4  11  20  40  68  90 128 172 216 267 325 391
#     4  11  21  41  67  94 128 173 224 269 324 398
#     4  11  23  40  65  94 133 168 212 277 342 386
#
# _framework density 21.180184000000001
#
# number of rings (size 3 to 8) (size 9 to 14) (size 15 to 20)
#    0.000    1.500    3.750    1.500    5.250    0.500 
#    0.000    5.000    0.000    0.000    0.000    0.000 
#    0.000    0.000    0.000    0.000    0.000    0.000 
#
# Total GULP energy -89164.407434 kJ/mol
# GULP energy per Si atom -5572.775465 kJ/mol
# Density = 2.113198 g / cm^3
# Si number density = 21.180184 Si / 1000 Ang^3
#
#
#
# Elastic Constant Matrix: (Units=GPa)
#
#
# Indices 1 2 3 4 5 6 
#
# 1 95.8926 23.1853 27.3261 7.1073 -22.5257 21.5695
# 2 23.1853 118.6886 17.4249 14.7816 -9.0918 10.5215
# 3 27.3261 17.4249 90.6359 22.4397 -7.5411 2.0741
# 4 7.1073 14.7816 22.4397 36.3096 10.9147 -1.2370
# 5 -22.5257 -9.0918 -7.5411 10.9147 39.3937 1.8472
# 6 21.5695 10.5215 2.0741 -1.2370 1.8472 34.2653
#
#
#
# Elastic Compliance Matrix: (Units=1/GPa)
#
#
# Indices 1 2 3 4 5 6 
#
# 1 0.016659 -0.000433 -0.002495 -0.005194 0.010902 -0.010978
# 2 -0.000433 0.009679 -0.000160 -0.004900 0.003457 -0.003053
# 3 -0.002495 -0.000160 0.014521 -0.009608 0.003970 0.000180
# 4 -0.005194 -0.004900 -0.009608 0.042165 -0.017991 0.007848
# 5 0.010902 0.003457 0.003970 -0.017991 0.038672 -0.010899
# 6 -0.010978 -0.003053 0.000180 0.007848 -0.010899 0.037892
#
#
# Mechanical properties :
#
#
# Convention : Reuss Voigt Hill
#
# Bulk Modulus (GPa) = 28.83187 49.00998 38.92092
# Shear Modulus (GPa) = 28.19666 37.81244 33.00455
#
# Velocity S-wave (km/s) = 3.65262 4.22983 3.95178
# Velocity P-wave (km/s) = 5.60634 6.85894 6.26403
#
# Compressibility (1/GPa) = 0.03468385
#
# Stress axis : x y z
#
# Youngs Moduli (GPa) = 60.02645 103.31539 68.86547
#
# Poissons Ratio (x) = 0.04472 0.17184
# Poissons Ratio (y) = 0.02598 0.01100
# Poissons Ratio (z) = 0.14978 0.01650
#
# Static dielectric constant tensor:
#      x y z
#    x 1.816860 -0.066440 0.065880 
#    y -0.066440 1.895210 -0.031970 
#    z 0.065880 -0.031970 1.817950 
# 
# From -- ./inp_files/225813.got.cif
#   From: 2010.05.17/outbox.cif.g08.bks.cpg/sg2_113_cif.got.tgz:225813.got - 2010.06.03 11:33:40.
