data_PCOD9037551
_publ_section_title
;
Structure prediction by ZEFSAII (Michael W. Deem and Ramdas Pophale) SiO2 
 PCOD9037551
Probable space group: P -1
;
_chemical_formula_sum "Si O2"
_cell_formula_units_Z 14
_cell_length_a 19.680998
_cell_length_b 9.804406
_cell_length_c 11.437817
_cell_angle_alpha 64.770308
_cell_angle_beta 140.618156
_cell_angle_gamma 143.696786
_cell_volume 706.397049
_symmetry_space_group_name_H-M "P -1"
_symmetry_group_IT_number 2
_symmetry_cell_setting 'triclinic'
loop_
_space_group_symop_operation_xyz
x,y,z
-x,-y,-z
loop_
_atom_site_type_symbol
_atom_site_label
_atom_site_fract_x
_atom_site_fract_y
_atom_site_fract_z
Si Si1 0.974414 0.271099 0.177685
Si Si2 0.208799 0.823364 0.256539
Si Si3 0.129511 0.129567 0.376629
Si Si4 0.066833 0.792734 0.582380
Si Si5 0.726484 0.262848 0.187486
Si Si6 0.095049 0.345042 0.929976
Si Si7 0.419854 0.557515 0.432146
O O1 0.910166 0.194301 0.253907
O O2 0.165899 0.597762 0.302006
O O3 0.014636 0.148970 0.235393
O O4 0.828424 0.178705 0.927337
O O5 0.046482 0.723072 0.152071
O O6 0.413390 0.124218 0.456488
O O7 0.339005 0.417257 0.502739
O O8 0.122700 0.020072 0.523078
O O9 0.030777 0.912701 0.224080
O O10 0.195720 0.816998 0.681075
O O11 0.848587 0.495917 0.362566
O O12 0.789305 0.412185 0.093943
O O13 0.500000 0.000000 0.000000
O O14 0.242136 0.419758 0.174766
O O15 0.500000 0.500000 0.500000
#
# Coordination Sequence:
#
# PCOD9037551 Si02
#       7
#     2   2   2   2   2   2   2
#     4  11  23  45  64  91 137 168 206 265 325 373
#     4  11  24  43  67  94 128 173 211 262 317 374
#     4  11  23  42  66  96 130 170 211 260 323 376
#     4  10  23  43  66  89 133 169 203 266 323 370
#     4  10  23  40  68  97 121 166 221 258 309 385
#     4  11  22  43  68  95 127 168 216 264 311 374
#     4  12  24  38  69  97 128 166 220 262 310 378
#
# _framework density 19.818881000000001
#
# number of rings (size 3 to 8) (size 9 to 14) (size 15 to 20)
#    0.000    1.143    4.286    1.714    4.000    0.571 
#    2.571    0.714    0.000    0.000    0.000    0.000 
#    0.000    0.000    0.000    0.000    0.000    0.000 
#
# Total GULP energy -78277.912610 kJ/mol
# GULP energy per Si atom -5591.279472 kJ/mol
# Density = 1.977377 g / cm^3
# Si number density = 19.818881 Si / 1000 Ang^3
#
#
#
# Elastic Constant Matrix: (Units=GPa)
#
#
# Indices 1 2 3 4 5 6 
#
# 1 57.9689 8.8311 16.9962 -4.3234 -13.8582 11.6335
# 2 8.8311 99.9964 24.1126 -15.1407 -0.3360 1.7799
# 3 16.9962 24.1126 55.4139 6.4505 4.0673 17.3032
# 4 -4.3234 -15.1407 6.4505 34.0441 7.2390 0.3502
# 5 -13.8582 -0.3360 4.0673 7.2390 28.7320 -4.7855
# 6 11.6335 1.7799 17.3032 0.3502 -4.7855 33.9984
#
#
#
# Elastic Compliance Matrix: (Units=1/GPa)
#
#
# Indices 1 2 3 4 5 6 
#
# 1 0.022652 0.000133 -0.007256 0.001991 0.011031 -0.002533
# 2 0.000133 0.012776 -0.007339 0.007067 -0.000038 0.002942
# 3 -0.007256 -0.007339 0.028990 -0.007875 -0.007856 -0.012912
# 4 0.001991 0.007067 -0.007875 0.035636 -0.006543 0.001668
# 5 0.011031 -0.000038 -0.007856 -0.006543 0.043964 0.006481
# 6 -0.002533 0.002942 -0.012912 0.001668 0.006481 0.037592
#
#
# Mechanical properties :
#
#
# Convention : Reuss Voigt Hill
#
# Bulk Modulus (GPa) = 28.17382 34.80653 31.49018
# Shear Modulus (GPa) = 22.48570 30.25086 26.36828
#
# Velocity S-wave (km/s) = 3.37198 3.91111 3.65151
# Velocity P-wave (km/s) = 5.42280 6.16410 5.80530
#
# Compressibility (1/GPa) = 0.03549394
#
# Stress axis : x y z
#
# Youngs Moduli (GPa) = 44.14696 78.27337 34.49505
#
# Poissons Ratio (x) = -0.01039 0.25029
# Poissons Ratio (y) = -0.00586 0.25314
# Poissons Ratio (z) = 0.32032 0.57441
#
# Static dielectric constant tensor:
#      x y z
#    x 1.688670 0.002910 -0.018540 
#    y 0.002910 1.709460 -0.008110 
#    z -0.018540 -0.008110 1.682270 
# 
# From -- ./inp_files/68737.got.cif
#   From: 2010.05.17/outbox.cif.g08.bks.cpg/sg2_35_cif.got.tgz:68737.got - 2010.06.03 11:33:40.
