data_PCOD9037593
_publ_section_title
;
Structure prediction by ZEFSAII (Michael W. Deem and Ramdas Pophale) SiO2 
 PCOD9037593
Probable space group: P -1
;
_chemical_formula_sum "Si O2"
_cell_formula_units_Z 16
_cell_length_a 12.002266
_cell_length_b 12.469975
_cell_length_c 12.103255
_cell_angle_alpha 108.820962
_cell_angle_beta 98.332901
_cell_angle_gamma 141.992282
_cell_volume 769.416322
_symmetry_space_group_name_H-M "P -1"
_symmetry_group_IT_number 2
_symmetry_cell_setting 'triclinic'
loop_
_space_group_symop_operation_xyz
x,y,z
-x,-y,-z
loop_
_atom_site_type_symbol
_atom_site_label
_atom_site_fract_x
_atom_site_fract_y
_atom_site_fract_z
Si Si1 0.359961 0.253601 0.401950
Si Si2 0.347106 0.054781 0.159404
Si Si3 0.244680 0.470501 0.069220
Si Si4 0.456456 0.209158 0.983905
Si Si5 0.316646 0.843679 0.750973
Si Si6 0.473477 0.172198 0.567911
Si Si7 0.843674 0.315659 0.575894
Si Si8 0.880560 0.880984 0.067029
O O1 0.500000 0.500000 0.500000
O O2 0.395014 0.218004 0.510520
O O3 0.446474 0.230847 0.324047
O O4 0.087990 0.036445 0.240255
O O5 0.434149 0.005012 0.173415
O O6 0.046842 0.784061 0.025774
O O7 0.469036 0.209387 0.116542
O O8 0.304119 0.556724 0.980387
O O9 0.413227 0.693082 0.251605
O O10 0.303775 0.390330 0.060722
O O11 0.261607 0.136287 0.918193
O O12 0.346619 0.992637 0.855243
O O13 0.208578 0.755407 0.583677
O O14 0.129111 0.604690 0.721413
O O15 0.686331 0.285580 0.578558
O O16 0.247741 0.879699 0.441878
O O17 0.000000 0.000000 0.000000
#
# Coordination Sequence:
#
# PCOD9037593 Si02
#       8
#     2   2   2   2   2   2   2   2
#     4  11  24  40  73  99 133 185 228 283 345 410
#     4  11  25  45  67 102 139 178 230 288 345 403
#     4  11  24  43  72  97 137 183 225 283 343 416
#     4  12  24  43  70  99 136 180 235 277 352 407
#     4  11  23  43  65 103 133 184 231 286 342 410
#     4  11  22  44  67 103 137 183 232 278 351 404
#     4  10  23  40  69  95 146 179 223 287 343 412
#     4  11  23  45  69  97 138 181 228 285 347 408
#
# _framework density 20.794982999999998
#
# number of rings (size 3 to 8) (size 9 to 14) (size 15 to 20)
#    0.000    1.000    5.000    2.250    1.750    2.500 
#    0.000    0.625    0.000    0.000    0.000    0.000 
#    0.000    0.000    0.000    0.000    0.000    0.000 
#
# Total GULP energy -89261.422099 kJ/mol
# GULP energy per Si atom -5578.838881 kJ/mol
# Density = 2.074765 g / cm^3
# Si number density = 20.794983 Si / 1000 Ang^3
#
#
#
# Elastic Constant Matrix: (Units=GPa)
#
#
# Indices 1 2 3 4 5 6 
#
# 1 120.7279 17.0740 24.2135 23.6080 -17.0647 -19.7724
# 2 17.0740 106.3698 15.4497 5.5488 0.5404 -3.6809
# 3 24.2135 15.4497 42.2692 5.3292 -16.8833 -3.1048
# 4 23.6080 5.5488 5.3292 22.6056 -3.1704 -10.3573
# 5 -17.0647 0.5404 -16.8833 -3.1704 28.0881 -7.6784
# 6 -19.7724 -3.6809 -3.1048 -10.3573 -7.6784 23.4738
#
#
#
# Elastic Compliance Matrix: (Units=1/GPa)
#
#
# Indices 1 2 3 4 5 6 
#
# 1 0.013183 -0.001161 -0.001881 -0.006940 0.009004 0.010557
# 2 -0.001161 0.010348 -0.004954 -0.001938 -0.004764 -0.002424
# 3 -0.001881 -0.004954 0.036946 0.003579 0.024914 0.012255
# 4 -0.006940 -0.001938 0.003579 0.065485 0.012861 0.027425
# 5 0.009004 -0.004764 0.024914 0.012861 0.067993 0.038048
# 6 0.010557 -0.002424 0.012255 0.027425 0.038048 0.077280
#
#
# Mechanical properties :
#
#
# Convention : Reuss Voigt Hill
#
# Bulk Modulus (GPa) = 22.47872 42.53792 32.50832
# Shear Modulus (GPa) = 16.55324 29.00882 22.78103
#
# Velocity S-wave (km/s) = 2.82444 3.73901 3.31343
# Velocity P-wave (km/s) = 4.63355 6.25624 5.50501
#
# Compressibility (1/GPa) = 0.04448653
#
# Stress axis : x y z
#
# Youngs Moduli (GPa) = 75.85398 96.63249 27.06650
#
# Poissons Ratio (x) = 0.11223 0.05090
# Poissons Ratio (y) = 0.08809 0.13408
# Poissons Ratio (z) = 0.14266 0.47868
#
# Static dielectric constant tensor:
#      x y z
#    x 1.761020 -0.008120 0.014910 
#    y -0.008120 1.801630 -0.016090 
#    z 0.014910 -0.016090 1.741870 
# 
# From -- ./inp_files/399170.got.cif
#   From: 2010.05.17/outbox.cif.g08.bks.cpg/sg2_200_cif.got.tgz:399170.got - 2010.06.03 11:33:40.
