data_PCOD9037792
_publ_section_title
;
Structure prediction by ZEFSAII (Michael W. Deem and Ramdas Pophale) SiO2 
 PCOD9037792
Probable space group: P -1
;
_chemical_formula_sum "Si O2"
_cell_formula_units_Z 14
_cell_length_a 9.272975
_cell_length_b 12.931155
_cell_length_c 9.066654
_cell_angle_alpha 99.440649
_cell_angle_beta 112.888099
_cell_angle_gamma 50.480947
_cell_volume 767.289970
_symmetry_space_group_name_H-M "P -1"
_symmetry_group_IT_number 2
_symmetry_cell_setting 'triclinic'
loop_
_space_group_symop_operation_xyz
x,y,z
-x,-y,-z
loop_
_atom_site_type_symbol
_atom_site_label
_atom_site_fract_x
_atom_site_fract_y
_atom_site_fract_z
Si Si1 0.094095 0.565988 0.484119
Si Si2 0.384794 0.940969 0.460116
Si Si3 0.467329 0.688334 0.342375
Si Si4 0.166659 0.493684 0.156138
Si Si5 0.707294 0.374064 0.977416
Si Si6 0.607645 0.231154 0.353288
Si Si7 0.952320 0.204752 0.312598
O O1 0.326956 0.463124 0.605697
O O2 0.089679 0.556630 0.303476
O O3 0.009372 0.710984 0.546040
O O4 0.000000 0.500000 0.500000
O O5 0.157186 0.053773 0.343475
O O6 0.500000 0.000000 0.500000
O O7 0.498719 0.800163 0.384220
O O8 0.372639 0.896364 0.609874
O O9 0.340875 0.707849 0.157158
O O10 0.367920 0.713745 0.470026
O O11 0.221097 0.570868 0.098467
O O12 0.380575 0.344180 0.231962
O O13 0.000000 0.500000 0.000000
O O14 0.500000 0.500000 0.000000
O O15 0.872021 0.284551 0.146141
O O16 0.775967 0.204615 0.306293
#
# Coordination Sequence:
#
# PCOD9037792 Si02
#       7
#     2   2   2   2   2   2   2
#     4  11  21  36  63  93 119 159 208 251 304 362
#     4  10  23  41  63  86 122 164 205 250 307 362
#     4   9  21  39  60  85 124 156 204 245 306 352
#     4  11  23  38  61  94 129 154 200 261 310 353
#     4  12  22  37  62  94 124 157 200 257 303 356
#     4   9  21  41  61  86 119 162 206 245 301 365
#     4  12  22  37  67  89 122 160 211 243 303 371
#
# _framework density 18.246034000000002
#
# number of rings (size 3 to 8) (size 9 to 14) (size 15 to 20)
#    0.857    0.571    2.857    3.000    2.000    2.857 
#    0.000    0.000    0.000    1.714    0.000    0.000 
#    0.000    0.000    0.000    0.000    0.000    0.000 
#
# Total GULP energy -78042.683399 kJ/mol
# GULP energy per Si atom -5574.477386 kJ/mol
# Density = 1.820450 g / cm^3
# Si number density = 18.246034 Si / 1000 Ang^3
#
#
#
# Elastic Constant Matrix: (Units=GPa)
#
#
# Indices 1 2 3 4 5 6 
#
# 1 81.7395 3.2631 34.6862 -2.9702 -17.8461 20.5534
# 2 3.2631 51.6505 18.6021 -15.3039 -2.4534 10.6453
# 3 34.6862 18.6021 115.6143 -12.5821 -2.3859 5.3423
# 4 -2.9702 -15.3039 -12.5821 32.3621 8.1571 2.7244
# 5 -17.8461 -2.4534 -2.3859 8.1571 30.6832 -4.2915
# 6 20.5534 10.6453 5.3423 2.7244 -4.2915 32.3356
#
#
#
# Elastic Compliance Matrix: (Units=1/GPa)
#
#
# Indices 1 2 3 4 5 6 
#
# 1 0.019449 0.003540 -0.005710 -0.000240 0.009636 -0.011285
# 2 0.003540 0.026504 -0.003420 0.012789 -0.001115 -0.011636
# 3 -0.005710 -0.003420 0.011042 0.002753 -0.003149 0.002281
# 4 -0.000240 0.012789 0.002753 0.041649 -0.011307 -0.009523
# 5 0.009636 -0.001115 -0.003149 -0.011307 0.041030 0.001160
# 6 -0.011285 -0.011636 0.002281 -0.009523 0.001160 0.042509
#
#
# Mechanical properties :
#
#
# Convention : Reuss Voigt Hill
#
# Bulk Modulus (GPa) = 21.82708 40.23414 31.03061
# Shear Modulus (GPa) = 23.96547 31.90635 27.93591
#
# Velocity S-wave (km/s) = 3.62810 4.18625 3.91713
# Velocity P-wave (km/s) = 5.43502 6.74278 6.12391
#
# Compressibility (1/GPa) = 0.04581466
#
# Stress axis : x y z
#
# Youngs Moduli (GPa) = 51.41745 37.73054 90.56187
#
# Poissons Ratio (x) = -0.13358 0.51714
# Poissons Ratio (y) = -0.18204 0.30973
# Poissons Ratio (z) = 0.29361 0.12904
#
# Static dielectric constant tensor:
#      x y z
#    x 1.763410 0.028200 0.143150 
#    y 0.028200 1.634690 0.015950 
#    z 0.143150 0.015950 1.824360 
# 
# From -- ./inp_files/180560.got.cif
#   From: 2010.05.17/outbox.cif.g08.bks.cpg/sg2_91_cif.got.tgz:180560.got - 2010.06.03 11:33:40.
