data_PCOD9037782
_publ_section_title
;
Structure prediction by ZEFSAII (Michael W. Deem and Ramdas Pophale) SiO2 
 PCOD9037782
Probable space group: P -1
;
_chemical_formula_sum "Si O2"
_cell_formula_units_Z 16
_cell_length_a 10.237295
_cell_length_b 12.626228
_cell_length_c 5.401615
_cell_angle_alpha 87.786412
_cell_angle_beta 94.864902
_cell_angle_gamma 77.650176
_cell_volume 678.434004
_symmetry_space_group_name_H-M "P -1"
_symmetry_group_IT_number 2
_symmetry_cell_setting 'triclinic'
loop_
_space_group_symop_operation_xyz
x,y,z
-x,-y,-z
loop_
_atom_site_type_symbol
_atom_site_label
_atom_site_fract_x
_atom_site_fract_y
_atom_site_fract_z
Si Si1 0.151040 0.403808 0.764872
Si Si2 0.830596 0.474673 0.732079
Si Si3 0.641117 0.993966 0.151961
Si Si4 0.673306 0.284055 0.779876
Si Si5 0.250413 0.202230 0.095844
Si Si6 0.082667 0.918430 0.223404
Si Si7 0.454351 0.764496 0.746210
Si Si8 0.146034 0.119153 0.498021
O O1 0.205399 0.446438 0.518431
O O2 0.989656 0.425972 0.729271
O O3 0.187089 0.464575 0.012020
O O4 0.207677 0.278622 0.848282
O O5 0.746919 0.381743 0.733761
O O6 0.696335 0.913782 0.393144
O O7 0.634010 0.113914 0.232302
O O8 0.735473 0.924484 0.965444
O O9 0.500000 0.000000 0.000000
O O10 0.788768 0.172483 0.830513
O O11 0.582897 0.272716 0.525937
O O12 0.588154 0.299820 0.019561
O O13 0.391200 0.226649 0.203740
O O14 0.138144 0.214018 0.288097
O O15 0.977008 0.854995 0.333659
O O16 0.126247 0.001184 0.414897
O O17 0.000000 0.000000 0.000000
#
# Coordination Sequence:
#
# PCOD9037782 Si02
#       8
#     2   2   2   2   2   2   2   2
#     4  10  24  47  69 104 129 170 234 289 340 411
#     4  10  24  45  72  96 135 173 224 291 352 399
#     4  10  23  41  62  98 142 185 224 275 330 410
#     4  12  25  46  69  96 140 187 222 276 360 398
#     4  11  26  41  71  97 136 183 231 284 340 399
#     4  11  25  41  62 100 140 176 227 284 334 423
#     4  11  26  44  67 102 141 183 230 273 330 427
#     4  11  23  40  65  99 134 179 229 276 344 400
#
# _framework density 23.583721000000001
#
# number of rings (size 3 to 8) (size 9 to 14) (size 15 to 20)
#    0.000    1.250    1.250    3.000   10.500    3.000 
#    0.000    3.750    0.000    0.000    0.000    0.000 
#    0.000    0.000    0.000    0.000    0.000    0.000 
#
# Total GULP energy -89335.758148 kJ/mol
# GULP energy per Si atom -5583.484884 kJ/mol
# Density = 2.353004 g / cm^3
# Si number density = 23.583721 Si / 1000 Ang^3
#
#
#
# Elastic Constant Matrix: (Units=GPa)
#
#
# Indices 1 2 3 4 5 6 
#
# 1 72.7462 13.2239 36.6344 -15.2896 -7.0171 7.6514
# 2 13.2239 73.4817 19.0293 -8.3330 -1.0391 11.8012
# 3 36.6344 19.0293 122.5887 -28.3103 -0.8849 9.0418
# 4 -15.2896 -8.3330 -28.3103 36.3040 13.7342 -1.0690
# 5 -7.0171 -1.0391 -0.8849 13.7342 38.3452 -5.3873
# 6 7.6514 11.8012 9.0418 -1.0690 -5.3873 25.4999
#
#
#
# Elastic Compliance Matrix: (Units=1/GPa)
#
#
# Indices 1 2 3 4 5 6 
#
# 1 0.017060 -0.001229 -0.003966 0.003170 0.001483 -0.002698
# 2 -0.001229 0.015433 -0.000901 0.002795 -0.001771 -0.006711
# 3 -0.003966 -0.000901 0.011674 0.008652 -0.004003 -0.003016
# 4 0.003170 0.002795 0.008652 0.041764 -0.015050 -0.006742
# 5 0.001483 -0.001771 -0.004003 -0.015050 0.032736 0.008080
# 6 -0.002698 -0.006711 -0.003016 -0.006742 0.008080 0.045625
#
#
# Mechanical properties :
#
#
# Convention : Reuss Voigt Hill
#
# Bulk Modulus (GPa) = 31.27393 45.17686 38.22540
# Shear Modulus (GPa) = 26.71774 33.35843 30.03809
#
# Velocity S-wave (km/s) = 3.36949 3.76502 3.57274
# Velocity P-wave (km/s) = 5.33175 6.17236 5.76739
#
# Compressibility (1/GPa) = 0.03197551
#
# Stress axis : x y z
#
# Youngs Moduli (GPa) = 58.61678 64.79615 85.66080
#
# Poissons Ratio (x) = 0.07967 0.33970
# Poissons Ratio (y) = 0.07207 0.07714
# Poissons Ratio (z) = 0.23245 0.05835
#
# Static dielectric constant tensor:
#      x y z
#    x 1.878170 0.014630 0.025730 
#    y 0.014630 1.934170 0.087220 
#    z 0.025730 0.087220 2.100440 
# 
# From -- ./inp_files/70670.got.cif
#   From: 2010.05.17/outbox.cif.g08.bks.cpg/sg2_36_cif.got.tgz:70670.got - 2010.06.03 11:33:40.
