data_PCOD9037526
_publ_section_title
;
Structure prediction by ZEFSAII (Michael W. Deem and Ramdas Pophale) SiO2 
 PCOD9037526
Probable space group: P -1
;
_chemical_formula_sum "Si O2"
_cell_formula_units_Z 14
_cell_length_a 22.748690
_cell_length_b 9.652456
_cell_length_c 5.354456
_cell_angle_alpha 109.747557
_cell_angle_beta 91.316985
_cell_angle_gamma 37.131167
_cell_volume 601.899518
_symmetry_space_group_name_H-M "P -1"
_symmetry_group_IT_number 2
_symmetry_cell_setting 'triclinic'
loop_
_space_group_symop_operation_xyz
x,y,z
-x,-y,-z
loop_
_atom_site_type_symbol
_atom_site_label
_atom_site_fract_x
_atom_site_fract_y
_atom_site_fract_z
Si Si1 0.265705 0.556101 0.042767
Si Si2 0.833800 0.941053 0.827215
Si Si3 0.227491 0.213176 0.004795
Si Si4 0.743885 0.579429 0.538694
Si Si5 0.048275 0.518771 0.828588
Si Si6 0.529419 0.270678 0.420964
Si Si7 0.494031 0.175428 0.863338
O O1 0.220475 0.558927 0.806802
O O2 0.396049 0.268699 0.878673
O O3 0.224209 0.589970 0.326948
O O4 0.241459 0.778398 0.128240
O O5 0.775794 0.953604 0.026195
O O6 0.880964 0.725001 0.504318
O O7 0.940061 0.802676 0.857919
O O8 0.220889 0.331145 0.319424
O O9 0.126249 0.454724 0.962041
O O10 0.340276 0.015145 0.763749
O O11 0.613371 0.857529 0.686725
O O12 0.000000 0.500000 0.000000
O O13 0.500000 0.500000 0.500000
O O14 0.493302 0.289891 0.699586
O O15 0.479224 0.284471 0.195736
#
# Coordination Sequence:
#
# PCOD9037526 Si02
#       7
#     2   2   2   2   2   2   2
#     4  12  25  42  68  96 135 172 228 267 312 381
#     4  10  23  41  71  96 122 170 223 272 324 394
#     4  10  23  40  68  90 134 172 212 266 336 385
#     4  11  25  42  63  99 135 179 215 262 326 388
#     4   9  21  42  69  93 126 164 219 266 343 391
#     4  11  23  36  62 101 133 167 222 271 316 374
#     4  11  23  41  61  91 137 185 213 254 320 392
#
# _framework density 23.259698
#
# number of rings (size 3 to 8) (size 9 to 14) (size 15 to 20)
#    0.000    1.429    0.000    4.714   12.000    0.000 
#    0.000    1.429    0.000    0.000    0.000    0.000 
#    0.000    0.000    0.000    0.000    0.000    0.000 
#
# Total GULP energy -78312.605850 kJ/mol
# GULP energy per Si atom -5593.757561 kJ/mol
# Density = 2.320676 g / cm^3
# Si number density = 23.259698 Si / 1000 Ang^3
#
#
#
# Elastic Constant Matrix: (Units=GPa)
#
#
# Indices 1 2 3 4 5 6 
#
# 1 110.8990 46.6319 30.9235 -16.8364 6.2367 -7.7867
# 2 46.6319 96.1168 38.6054 -29.1870 2.9488 7.3611
# 3 30.9235 38.6054 47.9171 -24.1462 -1.7093 -10.8238
# 4 -16.8364 -29.1870 -24.1462 34.1259 2.2426 1.6641
# 5 6.2367 2.9488 -1.7093 2.2426 30.4295 -14.7571
# 6 -7.7867 7.3611 -10.8238 1.6641 -14.7571 52.3313
#
#
#
# Elastic Compliance Matrix: (Units=1/GPa)
#
#
# Indices 1 2 3 4 5 6 
#
# 1 0.012170 -0.004328 -0.004686 -0.000942 -0.001797 0.000974
# 2 -0.004328 0.020360 -0.011686 0.007800 -0.006152 -0.007908
# 3 -0.004686 -0.011686 0.046077 0.019072 0.009340 0.012504
# 4 -0.000942 0.007800 0.019072 0.049184 -0.002968 0.000307
# 5 -0.001797 -0.006152 0.009340 -0.002968 0.041521 0.014333
# 6 0.000974 -0.007908 0.012504 0.000307 0.014333 0.026985
#
#
# Mechanical properties :
#
#
# Convention : Reuss Voigt Hill
#
# Bulk Modulus (GPa) = 26.87645 54.13937 40.50791
# Shear Modulus (GPa) = 19.99201 32.62884 26.31042
#
# Velocity S-wave (km/s) = 2.93493 3.74947 3.36692
# Velocity P-wave (km/s) = 4.80261 6.48624 5.70685
#
# Compressibility (1/GPa) = 0.03720729
#
# Stress axis : x y z
#
# Youngs Moduli (GPa) = 82.16879 49.11537 21.70273
#
# Poissons Ratio (x) = 0.21256 0.10170
# Poissons Ratio (y) = 0.35561 0.25362
# Poissons Ratio (z) = 0.38506 0.57396
#
# Static dielectric constant tensor:
#      x y z
#    x 1.903960 -0.020860 -0.025030 
#    y -0.020860 1.909840 -0.044510 
#    z -0.025030 -0.044510 1.886570 
# 
# From -- ./inp_files/53145.got.cif
#   From: 2010.05.17/outbox.cif.g08.bks.cpg/sg2_27_cif.got.tgz:53145.got - 2010.06.03 11:33:40.
