data_PCOD9037401
_publ_section_title
;
Structure prediction by ZEFSAII (Michael W. Deem and Ramdas Pophale) SiO2 
 PCOD9037401
Probable space group: P -1
;
_chemical_formula_sum "Si O2"
_cell_formula_units_Z 14
_cell_length_a 5.670333
_cell_length_b 14.074746
_cell_length_c 8.041378
_cell_angle_alpha 107.177571
_cell_angle_beta 99.786367
_cell_angle_gamma 104.396087
_cell_volume 572.979393
_symmetry_space_group_name_H-M "P -1"
_symmetry_group_IT_number 2
_symmetry_cell_setting 'triclinic'
loop_
_space_group_symop_operation_xyz
x,y,z
-x,-y,-z
loop_
_atom_site_type_symbol
_atom_site_label
_atom_site_fract_x
_atom_site_fract_y
_atom_site_fract_z
Si Si1 0.563807 0.919383 0.586534
Si Si2 0.986803 0.537488 0.325078
Si Si3 0.019229 0.892106 0.149419
Si Si4 0.511330 0.736122 0.975608
Si Si5 0.288096 0.736952 0.276208
Si Si6 0.426181 0.458425 0.279166
Si Si7 0.287363 0.890406 0.863973
O O1 0.535237 0.810373 0.438860
O O2 0.334450 0.894381 0.677596
O O3 0.500000 0.000000 0.500000
O O4 0.838150 0.988614 0.719786
O O5 0.120039 0.657029 0.347975
O O6 0.166059 0.481303 0.223486
O O7 0.000000 0.500000 0.500000
O O8 0.689833 0.512302 0.241883
O O9 0.150424 0.815108 0.217713
O O10 0.056601 0.887442 0.952997
O O11 0.726340 0.840799 0.118536
O O12 0.616525 0.662302 0.835585
O O13 0.338705 0.783517 0.868390
O O14 0.370815 0.683595 0.098791
O O15 0.500000 0.500000 0.500000
O O16 0.500000 0.000000 0.000000
#
# Coordination Sequence:
#
# PCOD9037401 Si02
#       7
#     2   2   2   2   2   2   2
#     4   9  19  39  65  95 133 174 219 282 342 425
#     4  10  24  45  70  98 136 177 240 291 346 407
#     4   9  21  41  63  97 133 174 224 278 350 418
#     4  11  24  40  67  96 135 181 228 285 351 413
#     4  10  23  40  66  95 135 178 228 286 348 410
#     4  10  25  44  69 100 135 181 239 289 342 412
#     4   9  20  38  64  91 131 170 226 276 344 412
#
# _framework density 24.433688
#
# number of rings (size 3 to 8) (size 9 to 14) (size 15 to 20)
#    0.000    2.286    0.000    0.857   10.000    5.143 
#    0.000    2.857    0.000    0.000    0.000    0.000 
#    0.000    0.000    0.000    0.000    0.000    0.000 
#
# Total GULP energy -78040.396345 kJ/mol
# GULP energy per Si atom -5574.314025 kJ/mol
# Density = 2.437808 g / cm^3
# Si number density = 24.433688 Si / 1000 Ang^3
#
#
#
# Elastic Constant Matrix: (Units=GPa)
#
#
# Indices 1 2 3 4 5 6 
#
# 1 93.5730 35.3961 18.4783 6.2198 -10.5940 8.8817
# 2 35.3961 142.0743 57.9721 -12.4459 -7.0166 18.9332
# 3 18.4783 57.9721 94.4813 -3.8017 -15.0759 4.4934
# 4 6.2198 -12.4459 -3.8017 43.8833 3.7910 -5.7480
# 5 -10.5940 -7.0166 -15.0759 3.7910 25.6546 3.5034
# 6 8.8817 18.9332 4.4934 -5.7480 3.5034 46.9581
#
#
#
# Elastic Compliance Matrix: (Units=1/GPa)
#
#
# Indices 1 2 3 4 5 6 
#
# 1 0.012821 -0.003021 0.000159 -0.003388 0.005340 -0.002035
# 2 -0.003021 0.010787 -0.006093 0.002770 -0.001917 -0.002713
# 3 0.000159 -0.006093 0.015450 -0.001035 0.007596 0.000255
# 4 -0.003388 0.002770 -0.001035 0.024826 -0.005336 0.003060
# 5 0.005340 -0.001917 0.007596 -0.005336 0.046609 -0.005095
# 6 -0.002035 -0.002713 0.000255 0.003060 -0.005095 0.023505
#
#
# Mechanical properties :
#
#
# Convention : Reuss Voigt Hill
#
# Bulk Modulus (GPa) = 47.28742 61.53573 54.41158
# Shear Modulus (GPa) = 31.45502 37.85134 34.65318
#
# Velocity S-wave (km/s) = 3.59188 3.94019 3.77006
# Velocity P-wave (km/s) = 6.04959 6.77787 6.42406
#
# Compressibility (1/GPa) = 0.02114727
#
# Stress axis : x y z
#
# Youngs Moduli (GPa) = 77.99590 92.70460 64.72425
#
# Poissons Ratio (x) = 0.28004 -0.01026
# Poissons Ratio (y) = 0.23561 0.39438
# Poissons Ratio (z) = -0.01236 0.56487
#
# Static dielectric constant tensor:
#      x y z
#    x 1.980470 0.020920 0.031710 
#    y 0.020920 1.950290 0.002250 
#    z 0.031710 0.002250 2.040870 
# 
# From -- ./inp_files/35534.got.cif
#   From: 2010.05.17/outbox.cif.g08.bks.cpg/sg2_18_cif.got.tgz:35534.got - 2010.06.03 11:33:40.
