data_PCOD9037147
_publ_section_title
;
Structure prediction by ZEFSAII (Michael W. Deem and Ramdas Pophale) SiO2 
 PCOD9037147
Probable space group: P -1
;
_chemical_formula_sum "Si O2"
_cell_formula_units_Z 16
_cell_length_a 8.524217
_cell_length_b 25.859018
_cell_length_c 6.594879
_cell_angle_alpha 77.697780
_cell_angle_beta 54.989392
_cell_angle_gamma 42.060425
_cell_volume 735.142954
_symmetry_space_group_name_H-M "P -1"
_symmetry_group_IT_number 2
_symmetry_cell_setting 'triclinic'
loop_
_space_group_symop_operation_xyz
x,y,z
-x,-y,-z
loop_
_atom_site_type_symbol
_atom_site_label
_atom_site_fract_x
_atom_site_fract_y
_atom_site_fract_z
Si Si1 0.801921 0.956322 0.701648
Si Si2 0.807506 0.046235 0.308338
Si Si3 0.838467 0.389291 0.457422
Si Si4 0.802666 0.610096 0.048451
Si Si5 0.721195 0.344372 0.191598
Si Si6 0.319968 0.764223 0.507024
Si Si7 0.319935 0.467591 0.035471
Si Si8 0.724644 0.760360 0.445294
O O1 0.990349 0.957338 0.700539
O O2 0.015953 0.859594 0.592679
O O3 0.754991 0.001218 0.496242
O O4 0.500000 0.000000 0.000000
O O5 0.483142 0.144193 0.439935
O O6 0.000000 0.000000 0.000000
O O7 0.578188 0.450493 0.767694
O O8 0.097988 0.298087 0.442115
O O9 0.739652 0.380712 0.333968
O O10 0.970222 0.416683 0.265889
O O11 0.536476 0.708312 0.200696
O O12 0.676548 0.582299 0.083445
O O13 0.991847 0.562819 0.157132
O O14 0.431056 0.421248 0.204284
O O15 0.017617 0.285863 0.877680
O O16 0.719169 0.285317 0.327177
O O17 0.501527 0.762536 0.528699
#
# Coordination Sequence:
#
# PCOD9037147 Si02
#       8
#     2   2   2   2   2   2   2   2
#     4  10  23  43  64  92 131 162 205 262 310 376
#     4  10  23  41  64  94 124 164 207 253 319 375
#     4  11  22  40  64  88 121 164 204 253 306 358
#     4  11  22  41  62  89 126 162 205 253 307 364
#     4  11  22  41  62  90 123 160 209 253 305 360
#     4  11  22  40  64  91 122 167 203 249 313 365
#     4  10  24  42  59  90 126 163 204 255 305 363
#     4  10  23  40  62  89 125 161 202 255 303 370
#
# _framework density 21.764475000000001
#
# number of rings (size 3 to 8) (size 9 to 14) (size 15 to 20)
#    0.000    1.500    2.500    1.875    1.750    3.500 
#    2.250    0.000    0.000    0.000    0.000    0.000 
#    0.000    0.000    0.000    0.000    0.000    0.000 
#
# Total GULP energy -89490.927917 kJ/mol
# GULP energy per Si atom -5593.182995 kJ/mol
# Density = 2.171494 g / cm^3
# Si number density = 21.764475 Si / 1000 Ang^3
#
#
#
# Elastic Constant Matrix: (Units=GPa)
#
#
# Indices 1 2 3 4 5 6 
#
# 1 26.5403 24.7785 7.8234 -5.1237 -15.4943 -2.3620
# 2 24.7785 144.9282 43.3824 4.0827 -7.4913 -3.1826
# 3 7.8234 43.3824 92.6113 -5.0562 -12.4339 6.0245
# 4 -5.1237 4.0827 -5.0562 42.1633 6.3242 -5.0448
# 5 -15.4943 -7.4913 -12.4339 6.3242 29.9375 -5.1542
# 6 -2.3620 -3.1826 6.0245 -5.0448 -5.1542 33.3046
#
#
#
# Elastic Compliance Matrix: (Units=1/GPa)
#
#
# Indices 1 2 3 4 5 6 
#
# 1 0.069446 -0.011142 0.003769 0.005838 0.035121 0.009498
# 2 -0.011142 0.009958 -0.004465 -0.002161 -0.004687 -0.000084
# 3 0.003769 -0.004465 0.013538 0.001453 0.005895 -0.001476
# 4 0.005838 -0.002161 0.001453 0.025488 -0.001690 0.003544
# 5 0.035121 -0.004687 0.005895 -0.001690 0.054797 0.009201
# 6 0.009498 -0.000084 -0.001476 0.003544 0.009201 0.032919
#
#
# Mechanical properties :
#
#
# Convention : Reuss Voigt Hill
#
# Bulk Modulus (GPa) = 14.43713 46.22760 30.33237
# Shear Modulus (GPa) = 19.76975 33.62078 26.69526
#
# Velocity S-wave (km/s) = 3.01715 3.93460 3.50602
# Velocity P-wave (km/s) = 4.33421 6.47514 5.50967
#
# Compressibility (1/GPa) = 0.06926584
#
# Stress axis : x y z
#
# Youngs Moduli (GPa) = 14.39961 100.41823 73.86613
#
# Poissons Ratio (x) = 1.11886 -0.27840
# Poissons Ratio (y) = 0.16044 0.32985
# Poissons Ratio (z) = -0.05427 0.44841
#
# Static dielectric constant tensor:
#      x y z
#    x 1.781280 -0.016740 -0.017510 
#    y -0.016740 1.775460 -0.003810 
#    z -0.017510 -0.003810 1.789580 
# 
# From -- ./inp_files/52298.got.cif
#   From: 2010.05.17/outbox.cif.g08.bks.cpg/sg2_27_cif.got.tgz:52298.got - 2010.06.03 11:33:40.
