data_PCOD9037285
_publ_section_title
;
Structure prediction by ZEFSAII (Michael W. Deem and Ramdas Pophale) SiO2 
 PCOD9037285
Probable space group: P -1
;
_chemical_formula_sum "Si O2"
_cell_formula_units_Z 16
_cell_length_a 11.175720
_cell_length_b 12.165616
_cell_length_c 7.023603
_cell_angle_alpha 62.043123
_cell_angle_beta 119.060833
_cell_angle_gamma 113.681578
_cell_volume 718.342901
_symmetry_space_group_name_H-M "P -1"
_symmetry_group_IT_number 2
_symmetry_cell_setting 'triclinic'
loop_
_space_group_symop_operation_xyz
x,y,z
-x,-y,-z
loop_
_atom_site_type_symbol
_atom_site_label
_atom_site_fract_x
_atom_site_fract_y
_atom_site_fract_z
Si Si1 0.889285 0.363024 0.525697
Si Si2 0.664662 0.379702 0.665579
Si Si3 0.344535 0.375139 0.342664
Si Si4 0.387650 0.234430 0.161749
Si Si5 0.353443 0.735498 0.869037
Si Si6 0.658682 0.989089 0.413629
Si Si7 0.961723 0.097503 0.739355
Si Si8 0.243209 0.143469 0.736462
O O1 0.775835 0.365372 0.603905
O O2 0.795092 0.329784 0.287061
O O3 0.958288 0.239298 0.698883
O O4 0.000000 0.500000 0.500000
O O5 0.514889 0.396543 0.455637
O O6 0.710013 0.502606 0.737794
O O7 0.642173 0.269802 0.896081
O O8 0.302468 0.319597 0.146853
O O9 0.290659 0.272527 0.548075
O O10 0.525087 0.318548 0.096746
O O11 0.418454 0.135445 0.427481
O O12 0.298254 0.162582 0.977733
O O13 0.400217 0.885053 0.729599
O O14 0.809335 0.033500 0.594281
O O15 0.689026 0.954416 0.249750
O O16 0.076169 0.109725 0.650939
O O17 0.000000 0.000000 0.000000
#
# Coordination Sequence:
#
# PCOD9037285 Si02
#       8
#     2   2   2   2   2   2   2   2
#     4  11  26  47  67  94 138 176 220 276 328 401
#     4  11  23  42  66  93 130 171 221 263 335 392
#     4  10  23  40  64  98 128 168 215 278 321 399
#     4  11  21  41  64  98 132 168 215 272 334 386
#     4  11  24  41  65  98 131 173 214 272 334 389
#     4  10  24  40  64  95 135 172 218 272 323 398
#     4  11  23  43  67  97 132 179 223 271 325 391
#     4  11  22  41  66  94 130 171 217 267 335 379
#
# _framework density 22.273486999999999
#
# number of rings (size 3 to 8) (size 9 to 14) (size 15 to 20)
#    0.000    1.250    3.750    1.500    1.750    3.500 
#    0.000    0.000    0.000    0.000    0.000    0.000 
#    0.000    0.000    0.000    0.000    0.000    0.000 
#
# Total GULP energy -89361.594521 kJ/mol
# GULP energy per Si atom -5585.099658 kJ/mol
# Density = 2.222279 g / cm^3
# Si number density = 22.273487 Si / 1000 Ang^3
#
#
#
# Elastic Constant Matrix: (Units=GPa)
#
#
# Indices 1 2 3 4 5 6 
#
# 1 101.6309 14.1082 25.1849 -2.0045 -27.2353 -8.0626
# 2 14.1082 86.9784 12.2947 6.5847 -3.5955 -15.7634
# 3 25.1849 12.2947 67.7084 13.5112 -11.5043 -15.9308
# 4 -2.0045 6.5847 13.5112 25.1265 -4.2656 -9.4479
# 5 -27.2353 -3.5955 -11.5043 -4.2656 33.8746 5.5763
# 6 -8.0626 -15.7634 -15.9308 -9.4479 5.5763 32.2821
#
#
#
# Elastic Compliance Matrix: (Units=1/GPa)
#
#
# Indices 1 2 3 4 5 6 
#
# 1 0.014020 -0.001589 -0.004190 0.005749 0.010312 0.000559
# 2 -0.001589 0.012861 -0.000359 -0.001434 -0.001117 0.005479
# 3 -0.004190 -0.000359 0.019648 -0.008414 0.001253 0.005796
# 4 0.005749 -0.001434 -0.008414 0.050033 0.006242 0.010148
# 5 0.010312 -0.001117 0.001253 0.006242 0.039285 -0.002311
# 6 0.000559 0.005479 0.005796 0.010148 -0.002311 0.040022
#
#
# Mechanical properties :
#
#
# Convention : Reuss Voigt Hill
#
# Bulk Modulus (GPa) = 29.19417 39.94370 34.56894
# Shear Modulus (GPa) = 25.05499 31.90531 28.48015
#
# Velocity S-wave (km/s) = 3.35756 3.78886 3.57971
# Velocity P-wave (km/s) = 5.30722 6.09203 5.71312
#
# Compressibility (1/GPa) = 0.03425342
#
# Stress axis : x y z
#
# Youngs Moduli (GPa) = 71.32891 77.75428 50.89534
#
# Poissons Ratio (x) = 0.12358 0.21323
# Poissons Ratio (y) = 0.11337 0.01825
# Poissons Ratio (z) = 0.29884 0.02788
#
# Static dielectric constant tensor:
#      x y z
#    x 1.798980 -0.004840 0.036520 
#    y -0.004840 1.911730 -0.014200 
#    z 0.036520 -0.014200 1.840250 
# 
# From -- ./inp_files/69390.got.cif
#   From: 2010.05.17/outbox.cif.g08.bks.cpg/sg2_35_cif.got.tgz:69390.got - 2010.06.03 11:33:40.
