data_PCOD9037755
_publ_section_title
;
Structure prediction by ZEFSAII (Michael W. Deem and Ramdas Pophale) SiO2 
 PCOD9037755
Probable space group: P -1
;
_chemical_formula_sum "Si O2"
_cell_formula_units_Z 14
_cell_length_a 9.076841
_cell_length_b 9.565403
_cell_length_c 9.192954
_cell_angle_alpha 71.591542
_cell_angle_beta 78.323386
_cell_angle_gamma 70.298652
_cell_volume 708.868213
_symmetry_space_group_name_H-M "P -1"
_symmetry_group_IT_number 2
_symmetry_cell_setting 'triclinic'
loop_
_space_group_symop_operation_xyz
x,y,z
-x,-y,-z
loop_
_atom_site_type_symbol
_atom_site_label
_atom_site_fract_x
_atom_site_fract_y
_atom_site_fract_z
Si Si1 0.224995 0.240808 0.214417
Si Si2 0.490540 0.946852 0.185874
Si Si3 0.041777 0.784552 0.928294
Si Si4 0.583497 0.597092 0.351225
Si Si5 0.339621 0.496289 0.955832
Si Si6 0.841610 0.917844 0.207209
Si Si7 0.854235 0.650350 0.484042
O O1 0.210237 0.312894 0.353111
O O2 0.056627 0.248682 0.176978
O O3 0.338952 0.067105 0.246836
O O4 0.301887 0.341176 0.062148
O O5 0.485667 0.771368 0.264530
O O6 0.653180 0.957669 0.220486
O O7 0.500000 0.000000 0.000000
O O8 0.190119 0.638807 0.982056
O O9 0.105299 0.929857 0.838503
O O10 0.920702 0.831561 0.072212
O O11 0.500000 0.500000 0.500000
O O12 0.639822 0.505895 0.220926
O O13 0.725807 0.621640 0.409118
O O14 0.500000 0.500000 0.000000
O O15 0.898001 0.798716 0.365970
O O16 0.000000 0.500000 0.500000
#
# Coordination Sequence:
#
# PCOD9037755 Si02
#       7
#     2   2   2   2   2   2   2
#     4  12  23  39  68  93 121 177 210 261 318 382
#     4  11  21  43  67  91 131 164 216 263 316 379
#     4  11  23  39  64  91 125 163 221 257 315 384
#     4  11  25  42  64  94 129 165 208 270 320 372
#     4  12  24  40  65  93 126 166 220 260 317 384
#     4  10  23  41  62  93 128 168 206 268 319 375
#     4  11  24  43  62  90 134 166 209 263 322 374
#
# _framework density 19.749790999999998
#
# number of rings (size 3 to 8) (size 9 to 14) (size 15 to 20)
#    0.000    0.857    2.857    4.714    0.000    5.143 
#    0.000    0.000    0.000    0.000    0.000    0.000 
#    0.000    0.000    0.000    0.000    0.000    0.000 
#
# Total GULP energy -78285.581937 kJ/mol
# GULP energy per Si atom -5591.827281 kJ/mol
# Density = 1.970484 g / cm^3
# Si number density = 19.749791 Si / 1000 Ang^3
#
#
#
# Elastic Constant Matrix: (Units=GPa)
#
#
# Indices 1 2 3 4 5 6 
#
# 1 90.4201 32.2454 6.7480 -4.3298 17.8716 -4.8577
# 2 32.2454 85.0121 12.6732 -12.9723 6.9947 -15.8969
# 3 6.7480 12.6732 92.7751 -5.1973 1.0986 7.8641
# 4 -4.3298 -12.9723 -5.1973 45.7920 9.2063 3.6049
# 5 17.8716 6.9947 1.0986 9.2063 31.5285 -5.2763
# 6 -4.8577 -15.8969 7.8641 3.6049 -5.2763 38.3772
#
#
#
# Elastic Compliance Matrix: (Units=1/GPa)
#
#
# Indices 1 2 3 4 5 6 
#
# 1 0.014310 -0.004780 -0.000087 0.001658 -0.007762 -0.001374
# 2 -0.004780 0.015554 -0.002075 0.003395 -0.000681 0.005850
# 3 -0.000087 -0.002075 0.011432 0.001131 -0.000793 -0.003428
# 4 0.001658 0.003395 0.001131 0.025167 -0.009463 -0.002281
# 5 -0.007762 -0.000681 -0.000793 -0.009463 0.039942 0.005278
# 6 -0.001374 0.005850 -0.003428 -0.002281 0.005278 0.029949
#
#
# Mechanical properties :
#
#
# Convention : Reuss Voigt Hill
#
# Bulk Modulus (GPa) = 36.47954 41.28227 38.88090
# Shear Modulus (GPa) = 31.37267 37.57559 34.47413
#
# Velocity S-wave (km/s) = 3.98993 4.36659 4.18250
# Velocity P-wave (km/s) = 6.30373 6.80961 6.56155
#
# Compressibility (1/GPa) = 0.02741263
#
# Stress axis : x y z
#
# Youngs Moduli (GPa) = 69.87882 64.29397 87.47555
#
# Poissons Ratio (x) = 0.30735 0.00758
# Poissons Ratio (y) = 0.33405 0.18147
# Poissons Ratio (z) = 0.00605 0.13338
#
# Static dielectric constant tensor:
#      x y z
#    x 1.817840 0.017410 -0.057650 
#    y 0.017410 1.704210 -0.018710 
#    z -0.057650 -0.018710 1.716800 
# 
# From -- ./inp_files/157127.got.cif
#   From: 2010.05.17/outbox.cif.g08.bks.cpg/sg2_79_cif.got.tgz:157127.got - 2010.06.03 11:33:40.
