data_PCOD9037924
_publ_section_title
;
Structure prediction by ZEFSAII (Michael W. Deem and Ramdas Pophale) SiO2 
 PCOD9037924
Probable space group: P -1
;
_chemical_formula_sum "Si O2"
_cell_formula_units_Z 16
_cell_length_a 11.212224
_cell_length_b 5.376324
_cell_length_c 13.572284
_cell_angle_alpha 101.562431
_cell_angle_beta 75.410248
_cell_angle_gamma 99.578350
_cell_volume 769.877457
_symmetry_space_group_name_H-M "P -1"
_symmetry_group_IT_number 2
_symmetry_cell_setting 'triclinic'
loop_
_space_group_symop_operation_xyz
x,y,z
-x,-y,-z
loop_
_atom_site_type_symbol
_atom_site_label
_atom_site_fract_x
_atom_site_fract_y
_atom_site_fract_z
Si Si1 0.878775 0.305854 0.740679
Si Si2 0.417705 0.856264 0.421220
Si Si3 0.741896 0.803869 0.838059
Si Si4 0.855604 0.294219 0.509179
Si Si5 0.593556 0.515495 0.385329
Si Si6 0.520701 0.888355 0.753937
Si Si7 0.561017 0.789116 0.033161
Si Si8 0.125475 0.263398 0.608931
O O1 0.819613 0.565096 0.794771
O O2 0.861238 0.272189 0.623672
O O3 0.028623 0.327065 0.717743
O O4 0.813534 0.065815 0.798182
O O5 0.292007 0.730525 0.483967
O O6 0.509294 0.670284 0.345030
O O7 0.500000 0.000000 0.500000
O O8 0.387507 0.026249 0.349554
O O9 0.612371 0.757923 0.798386
O O10 0.699526 0.819477 0.961955
O O11 0.900676 0.562964 0.467663
O O12 0.898761 0.039000 0.432816
O O13 0.500000 0.500000 0.500000
O O14 0.590875 0.262642 0.299528
O O15 0.729659 0.659017 0.388174
O O16 0.467193 0.111782 0.844541
O O17 0.500000 0.500000 0.000000
O O18 0.500000 0.000000 0.000000
#
# Coordination Sequence:
#
# PCOD9037924 Si02
#       8
#     2   2   2   2   2   2   2   2
#     4  12  24  39  63  86 122 170 207 255 309 361
#     4  12  21  35  58  89 128 166 199 244 311 374
#     4  11  23  42  65  92 122 158 208 260 319 365
#     4  12  22  38  58  85 127 163 211 249 303 367
#     4  12  23  38  59  90 128 168 204 250 306 374
#     4  11  23  39  64  91 125 162 199 260 319 371
#     4  10  23  41  64  98 124 153 204 266 320 371
#     4  12  25  40  57  88 127 166 215 249 292 373
#
# _framework density 20.782527000000002
#
# number of rings (size 3 to 8) (size 9 to 14) (size 15 to 20)
#    0.000    0.500    5.000    4.500    3.500    0.000 
#    0.000    0.000    0.000    1.500    0.000    0.000 
#    0.000    0.000    0.000    0.000    0.000    0.000 
#
# Total GULP energy -89106.613053 kJ/mol
# GULP energy per Si atom -5569.163316 kJ/mol
# Density = 2.073522 g / cm^3
# Si number density = 20.782527 Si / 1000 Ang^3
#
#
#
# Elastic Constant Matrix: (Units=GPa)
#
#
# Indices 1 2 3 4 5 6 
#
# 1 66.0632 15.9561 23.9830 4.7849 -25.4797 -2.5940
# 2 15.9561 135.1868 49.1198 3.5069 -14.0409 -12.4164
# 3 23.9830 49.1198 113.9242 9.7607 -18.3901 -1.2551
# 4 4.7849 3.5069 9.7607 41.1978 -2.6215 -5.7892
# 5 -25.4797 -14.0409 -18.3901 -2.6215 36.0758 3.6331
# 6 -2.5940 -12.4164 -1.2551 -5.7892 3.6331 33.8818
#
#
#
# Elastic Compliance Matrix: (Units=1/GPa)
#
#
# Indices 1 2 3 4 5 6 
#
# 1 0.021377 -0.000341 -0.002019 -0.001127 0.013879 -0.000244
# 2 -0.000341 0.009187 -0.003723 0.000662 0.001164 0.003191
# 3 -0.002019 -0.003723 0.011461 -0.002226 0.002986 -0.001795
# 4 -0.001127 0.000662 -0.002226 0.025484 -0.000270 0.004457
# 5 0.013879 0.001164 0.002986 -0.000270 0.039750 -0.002709
# 6 -0.000244 0.003191 -0.001795 0.004457 -0.002709 0.031651
#
#
# Mechanical properties :
#
#
# Convention : Reuss Voigt Hill
#
# Bulk Modulus (GPa) = 33.49061 54.81020 44.15041
# Shear Modulus (GPa) = 31.05012 37.30543 34.17778
#
# Velocity S-wave (km/s) = 3.86949 4.24139 4.05970
# Velocity P-wave (km/s) = 6.00947 7.10044 6.57761
#
# Compressibility (1/GPa) = 0.02985911
#
# Stress axis : x y z
#
# Youngs Moduli (GPa) = 46.77834 108.85017 87.25213
#
# Poissons Ratio (x) = 0.03715 0.17615
# Poissons Ratio (y) = 0.01596 0.32484
# Poissons Ratio (z) = 0.09444 0.40525
#
# Static dielectric constant tensor:
#      x y z
#    x 1.934090 -0.171070 -0.090720 
#    y -0.171070 2.265650 0.084570 
#    z -0.090720 0.084570 1.793010 
# 
# From -- ./inp_files/511154.got.cif
#   From: 2010.05.17/outbox.cif.g08.bks.cpg/sg2_256_cif.got.tgz:511154.got - 2010.06.03 11:33:40.
