data_PCOD9037466
_publ_section_title
;
Structure prediction by ZEFSAII (Michael W. Deem and Ramdas Pophale) SiO2 
 PCOD9037466
Probable space group: P -1
;
_chemical_formula_sum "Si O2"
_cell_formula_units_Z 16
_cell_length_a 29.077473
_cell_length_b 8.762333
_cell_length_c 8.865945
_cell_angle_alpha 136.480972
_cell_angle_beta 148.859774
_cell_angle_gamma 37.088148
_cell_volume 697.918470
_symmetry_space_group_name_H-M "P -1"
_symmetry_group_IT_number 2
_symmetry_cell_setting 'triclinic'
loop_
_space_group_symop_operation_xyz
x,y,z
-x,-y,-z
loop_
_atom_site_type_symbol
_atom_site_label
_atom_site_fract_x
_atom_site_fract_y
_atom_site_fract_z
Si Si1 0.460986 0.418019 0.122514
Si Si2 0.327208 0.598415 0.591974
Si Si3 0.814850 0.901489 0.600941
Si Si4 0.968878 0.084664 0.220630
Si Si5 0.641006 0.850317 0.196838
Si Si6 0.007264 0.411092 0.781176
Si Si7 0.872768 0.390719 0.870705
Si Si8 0.550882 0.760298 0.584139
O O1 0.481128 0.651399 0.386157
O O2 0.563197 0.143542 0.237235
O O3 0.422876 0.488504 0.893535
O O4 0.375761 0.361451 0.916098
O O5 0.243329 0.535095 0.377765
O O6 0.366969 0.472769 0.451772
O O7 0.264612 0.900556 0.600915
O O8 0.753456 0.814070 0.475414
O O9 0.907642 0.658398 0.609236
O O10 0.873979 0.031891 0.940634
O O11 0.995115 0.184440 0.516024
O O12 0.928977 0.283630 0.111916
O O13 0.066703 0.835412 0.244857
O O14 0.604550 0.832832 0.915242
O O15 0.000000 0.500000 0.000000
O O16 0.108857 0.386729 0.976854
O O17 0.500000 0.000000 0.500000
#
# Coordination Sequence:
#
# PCOD9037466 Si02
#       8
#     2   2   2   2   2   2   2   2
#     4  11  24  44  64  96 140 170 221 292 331 405
#     4  11  22  43  66  96 133 172 233 269 328 411
#     4  10  23  40  67  96 129 180 221 272 339 407
#     4   9  20  44  64  93 132 170 224 276 332 405
#     4  11  24  42  68  96 137 175 222 280 349 398
#     4  11  24  41  68  97 137 174 219 281 351 407
#     4   9  21  39  63  94 128 175 221 277 329 397
#     4  12  23  42  67  98 134 185 226 278 338 395
#
# _framework density 22.925312000000002
#
# number of rings (size 3 to 8) (size 9 to 14) (size 15 to 20)
#    0.000    1.500    2.500    2.625    5.250    2.000 
#    2.250    1.250    0.000    0.000    0.000    0.000 
#    0.000    0.000    0.000    0.000    0.000    0.000 
#
# Total GULP energy -89295.533060 kJ/mol
# GULP energy per Si atom -5580.970816 kJ/mol
# Density = 2.287313 g / cm^3
# Si number density = 22.925312 Si / 1000 Ang^3
#
#
#
# Elastic Constant Matrix: (Units=GPa)
#
#
# Indices 1 2 3 4 5 6 
#
# 1 106.9300 18.2906 72.7784 14.1942 30.5259 15.7092
# 2 18.2906 58.0584 17.8389 2.8792 -4.9060 20.6018
# 3 72.7784 17.8389 120.0668 30.9944 11.4075 16.3694
# 4 14.1942 2.8792 30.9944 28.8248 2.8962 6.9599
# 5 30.5259 -4.9060 11.4075 2.8962 57.4072 7.3512
# 6 15.7092 20.6018 16.3694 6.9599 7.3512 28.5600
#
#
#
# Elastic Compliance Matrix: (Units=1/GPa)
#
#
# Indices 1 2 3 4 5 6 
#
# 1 0.019955 -0.003424 -0.011762 0.004168 -0.008707 -0.000539
# 2 -0.003424 0.025496 -0.000761 0.003820 0.006344 -0.018636
# 3 -0.011762 -0.000761 0.019272 -0.014883 0.003270 -0.001242
# 4 0.004168 0.003820 -0.014883 0.050400 -0.000360 -0.008707
# 5 -0.008707 0.006344 0.003270 -0.000360 0.022917 -0.007472
# 6 -0.000539 -0.018636 -0.001242 -0.008707 -0.007472 0.053511
#
#
# Mechanical properties :
#
#
# Convention : Reuss Voigt Hill
#
# Bulk Modulus (GPa) = 30.46021 55.87455 43.16738
# Shear Modulus (GPa) = 21.33231 34.70155 28.01693
#
# Velocity S-wave (km/s) = 3.05374 3.89482 3.49964
# Velocity P-wave (km/s) = 5.07438 6.68218 5.93300
#
# Compressibility (1/GPa) = 0.03282971
#
# Stress axis : x y z
#
# Youngs Moduli (GPa) = 50.11384 39.22179 51.88910
#
# Poissons Ratio (x) = 0.13428 0.61032
# Poissons Ratio (y) = 0.17157 0.03948
# Poissons Ratio (z) = 0.58943 0.02984
#
# Static dielectric constant tensor:
#      x y z
#    x 1.895250 0.065850 0.017070 
#    y 0.065850 1.923440 0.019690 
#    z 0.017070 0.019690 1.856470 
# 
# From -- ./inp_files/358471.got.cif
#   From: 2010.05.17/outbox.cif.g08.bks.cpg/sg2_180_cif.got.tgz:358471.got - 2010.06.03 11:33:40.
