data_PCOD9037622
_publ_section_title
;
Structure prediction by ZEFSAII (Michael W. Deem and Ramdas Pophale) SiO2 
 PCOD9037622
Probable space group: P -1
;
_chemical_formula_sum "Si O2"
_cell_formula_units_Z 16
_cell_length_a 8.625186
_cell_length_b 14.557808
_cell_length_c 25.929105
_cell_angle_alpha 158.556142
_cell_angle_beta 43.358720
_cell_angle_gamma 126.892054
_cell_volume 778.389635
_symmetry_space_group_name_H-M "P -1"
_symmetry_group_IT_number 2
_symmetry_cell_setting 'triclinic'
loop_
_space_group_symop_operation_xyz
x,y,z
-x,-y,-z
loop_
_atom_site_type_symbol
_atom_site_label
_atom_site_fract_x
_atom_site_fract_y
_atom_site_fract_z
Si Si1 0.813411 0.977932 0.685376
Si Si2 0.878297 0.287896 0.440519
Si Si3 0.608260 0.237016 0.303955
Si Si4 0.217253 0.029779 0.430207
Si Si5 0.905184 0.308444 0.960540
Si Si6 0.495303 0.446078 0.055738
Si Si7 0.327292 0.550306 0.707430
Si Si8 0.949667 0.712229 0.970201
O O1 0.612105 0.876124 0.708103
O O2 0.844409 0.914501 0.585389
O O3 0.044249 0.826222 0.580952
O O4 0.697209 0.291466 0.885466
O O5 0.607196 0.458757 0.598380
O O6 0.000000 0.500000 0.500000
O O7 0.953424 0.005472 0.244461
O O8 0.500000 0.500000 0.500000
O O9 0.717304 0.284273 0.248216
O O10 0.802938 0.017540 0.173154
O O11 0.277459 0.275758 0.566841
O O12 0.432287 0.759661 0.237216
O O13 0.000000 0.000000 0.500000
O O14 0.635295 0.343552 0.022575
O O15 0.000000 0.500000 0.000000
O O16 0.941693 0.388560 0.052583
O O17 0.247718 0.397974 0.070209
O O18 0.163746 0.685678 0.864905
#
# Coordination Sequence:
#
# PCOD9037622 Si02
#       8
#     2   2   2   2   2   2   2   2
#     4  10  23  40  70  93 127 179 226 280 336 400
#     4  11  24  44  70 101 135 178 237 288 342 418
#     4  11  21  41  71  97 126 180 234 276 333 410
#     4  12  24  41  65 100 138 176 222 280 350 417
#     4  11  26  44  71 103 134 187 243 285 343 422
#     4  10  24  43  68  97 137 177 233 278 342 413
#     4  12  24  43  68 102 142 176 228 290 352 417
#     4  11  26  44  68 101 142 179 225 292 353 408
#
# _framework density 20.555257000000001
#
# number of rings (size 3 to 8) (size 9 to 14) (size 15 to 20)
#    0.000    1.000    3.750    2.250    8.750    1.000 
#    0.000    2.500    0.000    0.000    0.000    0.000 
#    0.000    0.000    0.000    0.000    0.000    0.000 
#
# Total GULP energy -89200.495201 kJ/mol
# GULP energy per Si atom -5575.030950 kJ/mol
# Density = 2.050847 g / cm^3
# Si number density = 20.555257 Si / 1000 Ang^3
#
#
#
# Elastic Constant Matrix: (Units=GPa)
#
#
# Indices 1 2 3 4 5 6 
#
# 1 116.0312 41.1429 42.4469 -13.8703 -19.7630 -0.4365
# 2 41.1429 106.9533 16.5954 -3.9362 5.3318 0.0584
# 3 42.4469 16.5954 12.1835 17.0245 27.3643 -31.6655
# 4 -13.8703 -3.9362 17.0245 22.4377 -4.1373 1.4300
# 5 -19.7630 5.3318 27.3643 -4.1373 21.7248 11.4562
# 6 -0.4365 0.0584 -31.6655 1.4300 11.4562 19.1614
#
#
#
# Elastic Compliance Matrix: (Units=1/GPa)
#
#
# Indices 1 2 3 4 5 6 
#
# 1 0.007982 -0.003662 0.004433 -0.000002 -0.002029 0.008732
# 2 -0.003662 0.011213 -0.001882 0.000743 -0.002686 -0.001678
# 3 0.004433 -0.001882 -0.001646 0.006961 0.013941 -0.011468
# 4 -0.000002 0.000743 0.006961 0.036720 -0.009607 0.014504
# 5 -0.002029 -0.002686 0.013941 -0.009607 0.018909 0.012412
# 6 0.008732 -0.001678 -0.011468 0.014504 0.012412 0.024937
#
#
# Mechanical properties :
#
#
# Convention : Reuss Voigt Hill
#
# Bulk Modulus (GPa) = 65.24875 48.39314 56.82095
# Shear Modulus (GPa) = 47.41718 21.66363 34.54041
#
# Velocity S-wave (km/s) = 4.80814 3.24994 4.10368
# Velocity P-wave (km/s) = 7.91431 6.13815 7.08213
#
# Compressibility (1/GPa) = 0.01532596
#
# Stress axis : x y z
#
# Youngs Moduli (GPa) = 125.27785 89.18294 -607.53369
#
# Poissons Ratio (x) = 0.32661 2.69323
# Poissons Ratio (y) = 0.45879 -1.14366
# Poissons Ratio (z) = -0.55536 0.16788
#
# Static dielectric constant tensor:
#      x y z
#    x 1.771520 -0.076830 0.069840 
#    y -0.076830 1.245660 0.210330 
#    z 0.069840 0.210330 1.676730 
# 
# From -- ./inp_files/389276.got.cif
#   From: 2010.05.17/outbox.cif.g08.bks.cpg/sg2_195_cif.got.tgz:389276.got - 2010.06.03 11:33:40.
