data_PCOD9037687
_publ_section_title
;
Structure prediction by ZEFSAII (Michael W. Deem and Ramdas Pophale) SiO2 
 PCOD9037687
Probable space group: P -1
;
_chemical_formula_sum "Si O2"
_cell_formula_units_Z 10
_cell_length_a 10.185765
_cell_length_b 5.206515
_cell_length_c 8.960935
_cell_angle_alpha 93.330258
_cell_angle_beta 102.724646
_cell_angle_gamma 113.426586
_cell_volume 419.667165
_symmetry_space_group_name_H-M "P -1"
_symmetry_group_IT_number 2
_symmetry_cell_setting 'triclinic'
loop_
_space_group_symop_operation_xyz
x,y,z
-x,-y,-z
loop_
_atom_site_type_symbol
_atom_site_label
_atom_site_fract_x
_atom_site_fract_y
_atom_site_fract_z
Si Si1 0.407616 0.181026 0.023526
Si Si2 0.066006 0.969312 0.855922
Si Si3 0.450973 0.524531 0.656846
Si Si4 0.650370 0.070590 0.447175
Si Si5 0.962934 0.370428 0.653946
O O1 0.417688 0.251583 0.205826
O O2 0.500000 0.500000 0.000000
O O3 0.500000 0.000000 0.000000
O O4 0.238579 0.043390 0.927272
O O5 0.987314 0.644345 0.769016
O O6 0.044284 0.188100 0.740612
O O7 0.000000 0.000000 0.000000
O O8 0.500000 0.500000 0.500000
O O9 0.328903 0.649472 0.628967
O O10 0.381904 0.197189 0.674975
O O11 0.790961 0.146973 0.588778
O O12 0.500000 0.000000 0.500000
O O13 0.000000 0.500000 0.500000
#
# Coordination Sequence:
#
# PCOD9037687 Si02
#       5
#     2   2   2   2   2
#     4  12  28  48  77 109 153 193 250 316 380 442
#     4  12  30  52  76 112 159 204 247 310 396 455
#     4  10  23  43  73 104 139 188 256 297 361 440
#     4  10  23  40  75 102 142 187 257 296 362 435
#     4  12  28  49  77 111 154 199 254 316 378 446
#
# _framework density 23.828403999999999
#
# number of rings (size 3 to 8) (size 9 to 14) (size 15 to 20)
#    0.000    0.800    0.000    4.800   19.600    0.000 
#    0.000    0.000    0.000    0.000    0.000    0.000 
#    0.000    0.000    0.000    0.000    0.000    0.000 
#
# Total GULP energy -55903.797592 kJ/mol
# GULP energy per Si atom -5590.379759 kJ/mol
# Density = 2.377417 g / cm^3
# Si number density = 23.828404 Si / 1000 Ang^3
#
#
#
# Elastic Constant Matrix: (Units=GPa)
#
#
# Indices 1 2 3 4 5 6 
#
# 1 146.8121 67.5156 72.5096 9.2950 25.4934 -4.4355
# 2 67.5156 143.3693 34.7090 15.1750 5.5198 -46.3463
# 3 72.5096 34.7090 137.1232 22.6160 8.0056 -1.7629
# 4 9.2950 15.1750 22.6160 57.1117 -4.1476 -3.8365
# 5 25.4934 5.5198 8.0056 -4.1476 50.5981 -4.4166
# 6 -4.4355 -46.3463 -1.7629 -3.8365 -4.4166 60.2765
#
#
#
# Elastic Compliance Matrix: (Units=1/GPa)
#
#
# Indices 1 2 3 4 5 6 
#
# 1 0.012897 -0.006069 -0.005175 0.000895 -0.005310 -0.004201
# 2 -0.006069 0.012983 0.000196 -0.001727 0.002307 0.009601
# 3 -0.005175 0.000196 0.010489 -0.003322 0.000647 -0.000087
# 4 0.000895 -0.001727 -0.003322 0.019272 0.001843 0.000002
# 5 -0.005310 0.002307 0.000647 0.001843 0.022513 0.003169
# 6 -0.004201 0.009601 -0.000087 0.000002 0.003169 0.023893
#
#
# Mechanical properties :
#
#
# Convention : Reuss Voigt Hill
#
# Bulk Modulus (GPa) = 70.05981 86.30812 78.18396
# Shear Modulus (GPa) = 38.78991 50.43528 44.61260
#
# Velocity S-wave (km/s) = 4.03908 4.60565 4.33164
# Velocity P-wave (km/s) = 7.15667 8.03629 7.60920
#
# Compressibility (1/GPa) = 0.01427352
#
# Stress axis : x y z
#
# Youngs Moduli (GPa) = 77.53823 77.02422 95.34100
#
# Poissons Ratio (x) = 0.46744 0.49341
# Poissons Ratio (y) = 0.47056 -0.01873
# Poissons Ratio (z) = 0.40128 -0.01513
#
# Static dielectric constant tensor:
#      x y z
#    x 1.685560 -0.173890 0.050340 
#    y -0.173890 1.911370 -0.133580 
#    z 0.050340 -0.133580 2.120290 
# 
# From -- ./inp_files/143855.got.cif
#   From: 2010.05.17/outbox.cif.g08.bks.cpg/sg2_72_cif.got.tgz:143855.got - 2010.06.03 11:33:40.
