data_PCOD9037956
_publ_section_title
;
Structure prediction by ZEFSAII (Michael W. Deem and Ramdas Pophale) SiO2 
 PCOD9037956
Probable space group: P -1
;
_chemical_formula_sum "Si O2"
_cell_formula_units_Z 10
_cell_length_a 14.004832
_cell_length_b 13.261821
_cell_length_c 8.095838
_cell_angle_alpha 44.670709
_cell_angle_beta 130.678059
_cell_angle_gamma 159.438358
_cell_volume 370.669244
_symmetry_space_group_name_H-M "P -1"
_symmetry_group_IT_number 2
_symmetry_cell_setting 'triclinic'
loop_
_space_group_symop_operation_xyz
x,y,z
-x,-y,-z
loop_
_atom_site_type_symbol
_atom_site_label
_atom_site_fract_x
_atom_site_fract_y
_atom_site_fract_z
Si Si1 0.835466 0.634846 0.069540
Si Si2 0.554885 0.272512 0.848237
Si Si3 0.711776 0.211185 0.341395
Si Si4 0.294061 0.119459 0.249132
Si Si5 0.947462 0.085026 0.454934
O O1 0.914813 0.543714 0.236217
O O2 0.117357 0.981575 0.050411
O O3 0.609787 0.434714 0.190397
O O4 0.659498 0.468952 0.896966
O O5 0.259305 0.020797 0.753157
O O6 0.583281 0.141649 0.106519
O O7 0.772674 0.543563 0.641432
O O8 0.793606 0.130855 0.506986
O O9 0.500000 0.000000 0.500000
O O10 0.201339 0.111440 0.314968
O O11 0.000000 0.000000 0.500000
#
# Coordination Sequence:
#
# PCOD9037956 Si02
#       5
#     2   2   2   2   2
#     4   9  20  37  63  93 116 151 200 247 299 363
#     4  10  23  41  65  89 122 157 204 247 308 354
#     4   8  19  36  68  91 125 143 197 256 310 352
#     4  11  20  38  63  91 123 159 193 245 311 355
#     4  12  26  43  58  86 130 166 202 249 292 351
#
# _framework density 26.978225999999999
#
# number of rings (size 3 to 8) (size 9 to 14) (size 15 to 20)
#    1.200    0.800    0.000    3.600    0.000    3.200 
#    0.000    6.000    0.000    0.000    0.000    0.000 
#    0.000    0.000    0.000    0.000    0.000    0.000 
#
# Total GULP energy -55880.520450 kJ/mol
# GULP energy per Si atom -5588.052045 kJ/mol
# Density = 2.691682 g / cm^3
# Si number density = 26.978226 Si / 1000 Ang^3
#
#
#
# Elastic Constant Matrix: (Units=GPa)
#
#
# Indices 1 2 3 4 5 6 
#
# 1 96.4113 11.7599 1.7801 6.2904 -17.5536 15.4963
# 2 11.7599 89.0007 13.0837 7.3247 7.7474 16.6860
# 3 1.7801 13.0837 92.1347 10.2973 -1.0565 10.7939
# 4 6.2904 7.3247 10.2973 43.9137 12.8636 -7.3930
# 5 -17.5536 7.7474 -1.0565 12.8636 47.8856 1.9064
# 6 15.4963 16.6860 10.7939 -7.3930 1.9064 36.9027
#
#
#
# Elastic Compliance Matrix: (Units=1/GPa)
#
#
# Indices 1 2 3 4 5 6 
#
# 1 0.013094 -0.000781 0.001319 -0.005155 0.006615 -0.006905
# 2 -0.000781 0.012847 -0.000913 -0.002307 -0.001542 -0.005596
# 3 0.001319 -0.000913 0.012004 -0.004284 0.002231 -0.004625
# 4 -0.005155 -0.002307 -0.004284 0.029673 -0.010017 0.010923
# 5 0.006615 -0.001542 0.002231 -0.010017 0.026541 -0.006111
# 6 -0.006905 -0.005596 -0.004625 0.010923 -0.006111 0.036385
#
#
# Mechanical properties :
#
#
# Convention : Reuss Voigt Hill
#
# Bulk Modulus (GPa) = 26.88635 36.75488 31.82061
# Shear Modulus (GPa) = 34.79662 42.46861 38.63261
#
# Velocity S-wave (km/s) = 3.59528 3.97190 3.78827
# Velocity P-wave (km/s) = 5.21750 5.88966 5.56374
#
# Compressibility (1/GPa) = 0.03719360
#
# Stress axis : x y z
#
# Youngs Moduli (GPa) = 76.37214 77.84134 83.30473
#
# Poissons Ratio (x) = 0.06079 -0.10987
# Poissons Ratio (y) = 0.05964 0.07609
# Poissons Ratio (z) = -0.10073 0.07110
#
# Static dielectric constant tensor:
#      x y z
#    x 2.166630 -0.059430 0.042510 
#    y -0.059430 2.052590 -0.134770 
#    z 0.042510 -0.134770 2.350210 
# 
# From -- ./inp_files/16524.got.cif
#   From: 2010.05.17/outbox.cif.g08.bks.cpg/sg2_9_cif.got.tgz:16524.got - 2010.06.03 11:33:40.
