data_PCOD9037976
_publ_section_title
;
Structure prediction by ZEFSAII (Michael W. Deem and Ramdas Pophale) SiO2 
 PCOD9037976
Probable space group: P -1
;
_chemical_formula_sum "Si O2"
_cell_formula_units_Z 12
_cell_length_a 15.371134
_cell_length_b 15.882148
_cell_length_c 6.623612
_cell_angle_alpha 130.660252
_cell_angle_beta 61.892957
_cell_angle_gamma 151.969725
_cell_volume 551.355670
_symmetry_space_group_name_H-M "P -1"
_symmetry_group_IT_number 2
_symmetry_cell_setting 'triclinic'
loop_
_space_group_symop_operation_xyz
x,y,z
-x,-y,-z
loop_
_atom_site_type_symbol
_atom_site_label
_atom_site_fract_x
_atom_site_fract_y
_atom_site_fract_z
Si Si1 0.879366 0.084252 0.502238
Si Si2 0.708289 0.249632 0.398264
Si Si3 0.677555 0.515663 0.330198
Si Si4 0.438446 0.117042 0.223279
Si Si5 0.073818 0.638575 0.328687
Si Si6 0.609683 0.652726 0.923815
O O1 0.872795 0.187561 0.531102
O O2 0.097511 0.281560 0.648790
O O3 0.731922 0.964257 0.659182
O O4 0.796750 0.901443 0.181160
O O5 0.543914 0.177760 0.407103
O O6 0.756587 0.267504 0.603055
O O7 0.902314 0.478933 0.431372
O O8 0.649075 0.076016 0.088143
O O9 0.593184 0.326254 0.238747
O O10 0.662459 0.603065 0.640695
O O11 0.539473 0.412140 0.133357
O O12 0.000000 0.500000 0.000000
O O13 0.500000 0.500000 0.000000
#
# Coordination Sequence:
#
# PCOD9037976 Si02
#       6
#     2   2   2   2   2   2
#     4  12  24  43  71 100 130 178 224 270 337 394
#     4  10  23  41  65  94 143 174 217 278 316 397
#     4  11  25  47  69  97 138 169 221 284 331 397
#     4  11  22  44  67 101 133 179 225 266 336 394
#     4  11  22  41  64  99 132 180 222 264 336 390
#     4  11  25  48  70  98 131 174 223 278 342 397
#
# _framework density 21.764534000000001
#
# number of rings (size 3 to 8) (size 9 to 14) (size 15 to 20)
#    0.000    1.000    5.000    1.500    0.000    2.667 
#    6.000    0.000    0.000    0.000    0.000    0.000 
#    0.000    0.000    0.000    0.000    0.000    0.000 
#
# Total GULP energy -67181.841577 kJ/mol
# GULP energy per Si atom -5598.486798 kJ/mol
# Density = 2.171500 g / cm^3
# Si number density = 21.764534 Si / 1000 Ang^3
#
#
#
# Elastic Constant Matrix: (Units=GPa)
#
#
# Indices 1 2 3 4 5 6 
#
# 1 69.9504 -1.7652 -9.5290 -3.1258 20.4427 8.9523
# 2 -1.7652 61.0658 0.5569 19.9807 -4.8142 16.0868
# 3 -9.5290 0.5569 30.3698 4.4669 4.2606 -6.2545
# 4 -3.1258 19.9807 4.4669 30.5090 -2.7383 -11.2088
# 5 20.4427 -4.8142 4.2606 -2.7383 31.3374 4.9097
# 6 8.9523 16.0868 -6.2545 -11.2088 4.9097 45.9061
#
#
#
# Elastic Compliance Matrix: (Units=1/GPa)
#
#
# Indices 1 2 3 4 5 6 
#
# 1 0.019504 0.000209 0.007852 -0.001105 -0.013601 -0.001622
# 2 0.000209 0.029482 -0.001040 -0.024984 0.005039 -0.017153
# 3 0.007852 -0.001040 0.038462 -0.003549 -0.011517 0.004439
# 4 -0.001105 -0.024984 -0.003549 0.057791 -0.001145 0.022720
# 5 -0.013601 0.005039 -0.011517 -0.001145 0.043910 -0.005658
# 6 -0.001622 -0.017153 0.004439 0.022720 -0.005658 0.034868
#
#
# Mechanical properties :
#
#
# Convention : Reuss Voigt Hill
#
# Bulk Modulus (GPa) = 9.85316 15.54571 12.69944
# Shear Modulus (GPa) = 20.50825 33.02538 26.76681
#
# Velocity S-wave (km/s) = 3.07299 3.89960 3.51071
# Velocity P-wave (km/s) = 4.13860 5.23775 4.72028
#
# Compressibility (1/GPa) = 0.10149026
#
# Stress axis : x y z
#
# Youngs Moduli (GPa) = 51.27178 33.91904 25.99960
#
# Poissons Ratio (x) = -0.00707 -0.20416
# Poissons Ratio (y) = -0.01069 0.02704
# Poissons Ratio (z) = -0.40261 0.03527
#
# Static dielectric constant tensor:
#      x y z
#    x 1.799200 0.025360 0.000270 
#    y 0.025360 1.782900 -0.008780 
#    z 0.000270 -0.008780 1.767420 
# 
# From -- ./inp_files/91218.got.cif
#   From: 2010.05.17/outbox.cif.g08.bks.cpg/sg2_46_cif.got.tgz:91218.got - 2010.06.03 11:33:40.
