data_PCOD9037046
_publ_section_title
;
Structure prediction by ZEFSAII (Michael W. Deem and Ramdas Pophale) SiO2 
 PCOD9037046
Probable space group: P -1
;
_chemical_formula_sum "Si O2"
_cell_formula_units_Z 16
_cell_length_a 9.907305
_cell_length_b 18.070927
_cell_length_c 12.216597
_cell_angle_alpha 28.345106
_cell_angle_beta 50.837163
_cell_angle_gamma 46.936709
_cell_volume 755.726028
_symmetry_space_group_name_H-M "P -1"
_symmetry_group_IT_number 2
_symmetry_cell_setting 'triclinic'
loop_
_space_group_symop_operation_xyz
x,y,z
-x,-y,-z
loop_
_atom_site_type_symbol
_atom_site_label
_atom_site_fract_x
_atom_site_fract_y
_atom_site_fract_z
Si Si1 0.664861 0.957115 0.556195
Si Si2 0.211857 0.422423 0.956714
Si Si3 0.088736 0.639417 0.288879
Si Si4 0.490991 0.411336 0.391580
Si Si5 0.968715 0.978013 0.777782
Si Si6 0.139847 0.831030 0.201783
Si Si7 0.629810 0.045301 0.711332
Si Si8 0.448185 0.277781 0.820527
O O1 0.500000 0.000000 0.500000
O O2 0.614892 0.025876 0.614656
O O3 0.729616 0.759614 0.786105
O O4 0.829240 0.019044 0.354025
O O5 0.332640 0.532445 0.791006
O O6 0.275130 0.380083 0.852072
O O7 0.000000 0.500000 0.000000
O O8 0.305600 0.554040 0.260095
O O9 0.078552 0.693952 0.350518
O O10 0.000000 0.500000 0.500000
O O11 0.990941 0.804237 0.052672
O O12 0.516125 0.233045 0.558594
O O13 0.467688 0.384237 0.568483
O O14 0.879459 0.130395 0.709955
O O15 0.837094 0.006972 0.702275
O O16 0.359624 0.780973 0.132014
O O17 0.000000 0.000000 0.000000
O O18 0.569472 0.895694 0.984379
#
# Coordination Sequence:
#
# PCOD9037046 Si02
#       8
#     2   2   2   2   2   2   2   2
#     4  11  26  47  71  94 135 192 238 279 348 429
#     4  11  25  43  67 103 140 181 232 287 348 406
#     4  11  25  40  65 108 145 171 227 294 352 404
#     4  12  23  42  69 103 140 174 229 297 349 399
#     4  11  23  46  68  98 139 186 235 278 348 424
#     4  10  23  39  70  98 139 181 235 279 347 413
#     4  11  25  42  71  99 135 184 236 281 345 423
#     4  11  23  43  70 101 141 185 233 283 349 423
#
# _framework density 21.171693999999999
#
# number of rings (size 3 to 8) (size 9 to 14) (size 15 to 20)
#    0.000    1.000    2.500    3.375    8.750    1.000 
#    0.000    6.250    0.000    0.000    0.000    0.000 
#    0.000    0.000    0.000    0.000    0.000    0.000 
#
# Total GULP energy -89405.032350 kJ/mol
# GULP energy per Si atom -5587.814522 kJ/mol
# Density = 2.112351 g / cm^3
# Si number density = 21.171694 Si / 1000 Ang^3
#
#
#
# Elastic Constant Matrix: (Units=GPa)
#
#
# Indices 1 2 3 4 5 6 
#
# 1 141.1398 54.2592 30.0466 -3.2238 -1.5604 12.5589
# 2 54.2592 122.6713 35.3967 -15.4261 4.3738 2.6545
# 3 30.0466 35.3967 79.5913 -7.2224 -13.3102 17.8362
# 4 -3.2238 -15.4261 -7.2224 34.5945 0.2844 -9.6316
# 5 -1.5604 4.3738 -13.3102 0.2844 42.8403 -9.7719
# 6 12.5589 2.6545 17.8362 -9.6316 -9.7719 25.9210
#
#
#
# Elastic Compliance Matrix: (Units=1/GPa)
#
#
# Indices 1 2 3 4 5 6 
#
# 1 0.009146 -0.003927 -0.001027 -0.002335 -0.000575 -0.004407
# 2 -0.003927 0.011902 -0.004801 0.005453 -0.001657 0.005389
# 3 -0.001027 -0.004801 0.017918 -0.001452 0.003632 -0.010510
# 4 -0.002335 0.005453 -0.001452 0.035098 0.002197 0.015442
# 5 -0.000575 -0.001657 0.003632 0.002197 0.026611 0.008797
# 6 -0.004407 0.005389 -0.010510 0.015442 0.008797 0.056449
#
#
# Mechanical properties :
#
#
# Convention : Reuss Voigt Hill
#
# Bulk Modulus (GPa) = 51.39448 64.75637 58.07543
# Shear Modulus (GPa) = 27.30475 35.58449 31.44462
#
# Velocity S-wave (km/s) = 3.59511 4.10415 3.85804
# Velocity P-wave (km/s) = 6.44677 7.28776 6.88013
#
# Compressibility (1/GPa) = 0.01945734
#
# Stress axis : x y z
#
# Youngs Moduli (GPa) = 109.33948 84.01802 55.81064
#
# Poissons Ratio (x) = 0.32993 0.05730
# Poissons Ratio (y) = 0.42937 0.26793
# Poissons Ratio (z) = 0.11225 0.40334
#
# Static dielectric constant tensor:
#      x y z
#    x 1.761020 0.017350 0.006760 
#    y 0.017350 1.784340 0.014790 
#    z 0.006760 0.014790 1.754060 
# 
# From -- ./inp_files/402622.got.cif
#   From: 2010.05.17/outbox.cif.g08.bks.cpg/sg2_202_cif.got.tgz:402622.got - 2010.06.03 11:33:40.
