data_PCOD9037287
_publ_section_title
;
Structure prediction by ZEFSAII (Michael W. Deem and Ramdas Pophale) SiO2 
 PCOD9037287
Probable space group: P -1
;
_chemical_formula_sum "Si O2"
_cell_formula_units_Z 16
_cell_length_a 11.362702
_cell_length_b 8.557384
_cell_length_c 8.524351
_cell_angle_alpha 87.925999
_cell_angle_beta 123.081417
_cell_angle_gamma 93.254635
_cell_volume 693.369172
_symmetry_space_group_name_H-M "P -1"
_symmetry_group_IT_number 2
_symmetry_cell_setting 'triclinic'
loop_
_space_group_symop_operation_xyz
x,y,z
-x,-y,-z
loop_
_atom_site_type_symbol
_atom_site_label
_atom_site_fract_x
_atom_site_fract_y
_atom_site_fract_z
Si Si1 0.650851 0.423677 0.470299
Si Si2 0.940810 0.799159 0.310893
Si Si3 0.061356 0.336289 0.019989
Si Si4 0.651542 0.521654 0.816956
Si Si5 0.306744 0.229704 0.644263
Si Si6 0.236203 0.869941 0.612037
Si Si7 0.637824 0.212648 0.964492
Si Si8 0.091885 0.918357 0.934423
O O1 0.640930 0.422031 0.651251
O O2 0.499255 0.410698 0.276563
O O3 0.702198 0.605629 0.463791
O O4 0.720903 0.267407 0.469854
O O5 0.796546 0.738478 0.286130
O O6 0.072583 0.817399 0.520481
O O7 0.912184 0.970062 0.218739
O O8 0.985072 0.713102 0.187122
O O9 0.228336 0.346177 0.125991
O O10 0.000441 0.240435 0.126686
O O11 0.000000 0.500000 0.000000
O O12 0.684190 0.397111 0.978860
O O13 0.472157 0.208517 0.804171
O O14 0.253705 0.051657 0.558300
O O15 0.328420 0.852217 0.836705
O O16 0.744626 0.123391 0.929147
O O17 0.000000 0.000000 0.000000
#
# Coordination Sequence:
#
# PCOD9037287 Si02
#       8
#     2   2   2   2   2   2   2   2
#     4  10  26  45  71 104 143 181 236 293 345 422
#     4  11  26  44  64 104 142 179 238 284 353 418
#     4  11  22  39  71  96 135 187 230 282 351 410
#     4  10  23  46  68 102 141 183 237 288 348 418
#     4  11  26  46  73 103 142 185 231 288 359 418
#     4  12  26  44  71 104 145 181 231 294 349 411
#     4  11  24  44  73 102 138 184 235 286 347 424
#     4  10  23  40  64  98 137 178 228 287 331 416
#
# _framework density 23.075731000000001
#
# number of rings (size 3 to 8) (size 9 to 14) (size 15 to 20)
#    0.000    1.250    2.500    1.500    7.000    2.500 
#    0.000    5.625    0.000    0.000    0.000    0.000 
#    0.000    0.000    0.000    0.000    0.000    0.000 
#
# Total GULP energy -89153.776207 kJ/mol
# GULP energy per Si atom -5572.111013 kJ/mol
# Density = 2.302321 g / cm^3
# Si number density = 23.075731 Si / 1000 Ang^3
#
#
#
# Elastic Constant Matrix: (Units=GPa)
#
#
# Indices 1 2 3 4 5 6 
#
# 1 107.8407 22.9666 3.2368 8.6163 13.0822 0.9700
# 2 22.9666 107.2317 11.2701 -3.3805 -8.1126 -1.8034
# 3 3.2368 11.2701 27.0910 10.5617 3.9844 -2.5706
# 4 8.6163 -3.3805 10.5617 24.2236 4.6563 -10.1844
# 5 13.0822 -8.1126 3.9844 4.6563 29.9452 1.6146
# 6 0.9700 -1.8034 -2.5706 -10.1844 1.6146 50.5316
#
#
#
# Elastic Compliance Matrix: (Units=1/GPa)
#
#
# Indices 1 2 3 4 5 6 
#
# 1 0.010892 -0.003164 0.002576 -0.004874 -0.005146 -0.001009
# 2 -0.003164 0.011254 -0.006926 0.005290 0.004474 0.001033
# 3 0.002576 -0.006926 0.049152 -0.023152 -0.005819 -0.002276
# 4 -0.004874 0.005290 -0.023152 0.059131 -0.003151 0.011123
# 5 -0.005146 0.004474 -0.005819 -0.003151 0.038221 -0.001894
# 6 -0.001009 0.001033 -0.002276 0.011123 -0.001894 0.022032
#
#
# Mechanical properties :
#
#
# Convention : Reuss Voigt Hill
#
# Bulk Modulus (GPa) = 17.77129 35.23451 26.50290
# Shear Modulus (GPa) = 22.27515 34.58608 28.43061
#
# Velocity S-wave (km/s) = 3.11031 3.87564 3.51387
# Velocity P-wave (km/s) = 4.54056 5.94388 5.28897
#
# Compressibility (1/GPa) = 0.05627054
#
# Stress axis : x y z
#
# Youngs Moduli (GPa) = 91.80976 88.85959 20.34509
#
# Poissons Ratio (x) = 0.28111 -0.05241
# Poissons Ratio (y) = 0.29044 0.14091
# Poissons Ratio (z) = -0.23649 0.61544
#
# Static dielectric constant tensor:
#      x y z
#    x 1.870410 -0.041660 0.021540 
#    y -0.041660 1.936250 -0.016020 
#    z 0.021540 -0.016020 1.905630 
# 
# From -- ./inp_files/244186.got.cif
#   From: 2010.05.17/outbox.cif.g08.bks.cpg/sg2_123_cif.got.tgz:244186.got - 2010.06.03 11:33:40.
