data_PCOD9037293
_publ_section_title
;
Structure prediction by ZEFSAII (Michael W. Deem and Ramdas Pophale) SiO2 
 PCOD9037293
Probable space group: P -1
;
_chemical_formula_sum "Si O2"
_cell_formula_units_Z 14
_cell_length_a 9.913199
_cell_length_b 10.770328
_cell_length_c 11.082491
_cell_angle_alpha 73.594169
_cell_angle_beta 70.880913
_cell_angle_gamma 133.875563
_cell_volume 534.876660
_symmetry_space_group_name_H-M "P -1"
_symmetry_group_IT_number 2
_symmetry_cell_setting 'triclinic'
loop_
_space_group_symop_operation_xyz
x,y,z
-x,-y,-z
loop_
_atom_site_type_symbol
_atom_site_label
_atom_site_fract_x
_atom_site_fract_y
_atom_site_fract_z
Si Si1 0.729342 0.162547 0.645206
Si Si2 0.547995 0.185386 0.387136
Si Si3 0.624695 0.861778 0.296584
Si Si4 0.715662 0.475502 0.718220
Si Si5 0.702001 0.715201 0.777168
Si Si6 0.823071 0.635187 0.138647
Si Si7 0.158205 0.960349 0.176210
O O1 0.522491 0.121361 0.715374
O O2 0.023232 0.416103 0.415046
O O3 0.569946 0.925472 0.681877
O O4 0.817573 0.163778 0.742200
O O5 0.417384 0.167010 0.540653
O O6 0.844222 0.496391 0.193383
O O7 0.500000 0.000000 0.500000
O O8 0.443036 0.618066 0.336796
O O9 0.951469 0.130013 0.087583
O O10 0.853325 0.709091 0.677362
O O11 0.459657 0.225097 0.947015
O O12 0.487030 0.589776 0.767855
O O13 0.876287 0.963127 0.726920
O O14 0.500000 0.500000 0.000000
O O15 0.912126 0.772378 0.199734
#
# Coordination Sequence:
#
# PCOD9037293 Si02
#       7
#     2   2   2   2   2   2   2
#     4  11  22  40  64  97 134 174 220 273 334 398
#     4  10  23  40  64  99 134 175 217 271 334 393
#     4  10  24  40  67  99 132 178 219 276 337 392
#     4  10  23  41  64  95 131 175 221 272 329 392
#     4  10  23  44  68  99 132 178 225 274 330 390
#     4  11  23  45  68  99 136 171 229 273 330 400
#     4  10  23  42  69  98 130 178 218 273 336 388
#
# _framework density 26.174257999999998
#
# number of rings (size 3 to 8) (size 9 to 14) (size 15 to 20)
#    0.000    1.714    1.429    1.286    4.000   13.714 
#    0.000    1.429    0.000    0.000    0.000    0.000 
#    0.000    0.000    0.000    0.000    0.000    0.000 
#
# Total GULP energy -78217.633977 kJ/mol
# GULP energy per Si atom -5586.973856 kJ/mol
# Density = 2.611468 g / cm^3
# Si number density = 26.174258 Si / 1000 Ang^3
#
#
#
# Elastic Constant Matrix: (Units=GPa)
#
#
# Indices 1 2 3 4 5 6 
#
# 1 86.6997 22.4133 3.6278 4.5296 3.2703 5.9505
# 2 22.4133 173.8457 28.0721 -0.9714 6.0778 1.4403
# 3 3.6278 28.0721 65.1143 4.9351 10.0408 -0.0522
# 4 4.5296 -0.9714 4.9351 42.8614 4.7017 5.3004
# 5 3.2703 6.0778 10.0408 4.7017 27.3619 6.1519
# 6 5.9505 1.4403 -0.0522 5.3004 6.1519 34.4432
#
#
#
# Elastic Compliance Matrix: (Units=1/GPa)
#
#
# Indices 1 2 3 4 5 6 
#
# 1 0.012129 -0.001561 0.000166 -0.001054 -0.000586 -0.001763
# 2 -0.001561 0.006401 -0.002667 0.000662 -0.000361 -0.000039
# 3 0.000166 -0.002667 0.017532 -0.001624 -0.005900 0.001413
# 4 -0.001054 0.000662 -0.001624 0.024344 -0.002917 -0.003073
# 5 -0.000586 -0.000361 -0.005900 -0.002917 0.040880 -0.006745
# 6 -0.001763 -0.000039 0.001413 -0.003073 -0.006745 0.031019
#
#
# Mechanical properties :
#
#
# Convention : Reuss Voigt Hill
#
# Bulk Modulus (GPa) = 35.79393 48.20958 42.00175
# Shear Modulus (GPa) = 33.39057 39.03639 36.21348
#
# Velocity S-wave (km/s) = 3.57557 3.86606 3.72365
# Velocity P-wave (km/s) = 5.54538 6.19574 5.87956
#
# Compressibility (1/GPa) = 0.02793770
#
# Stress axis : x y z
#
# Youngs Moduli (GPa) = 82.44756 156.22937 57.03815
#
# Poissons Ratio (x) = 0.24393 -0.00948
# Poissons Ratio (y) = 0.12873 0.15212
# Poissons Ratio (z) = -0.01371 0.41666
#
# Static dielectric constant tensor:
#      x y z
#    x 2.111220 -0.043140 0.009070 
#    y -0.043140 2.113220 -0.011910 
#    z 0.009070 -0.011910 2.007420 
# 
# From -- ./inp_files/272420.got.cif
#   From: 2010.05.17/outbox.cif.g08.bks.cpg/sg2_137_cif.got.tgz:272420.got - 2010.06.03 11:33:40.
