data_PCOD9037450
_publ_section_title
;
Structure prediction by ZEFSAII (Michael W. Deem and Ramdas Pophale) SiO2 
 PCOD9037450
Probable space group: P -1
;
_chemical_formula_sum "Si O2"
_cell_formula_units_Z 16
_cell_length_a 15.396386
_cell_length_b 9.037928
_cell_length_c 5.344511
_cell_angle_alpha 108.388534
_cell_angle_beta 64.528481
_cell_angle_gamma 96.034050
_cell_volume 636.720599
_symmetry_space_group_name_H-M "P -1"
_symmetry_group_IT_number 2
_symmetry_cell_setting 'triclinic'
loop_
_space_group_symop_operation_xyz
x,y,z
-x,-y,-z
loop_
_atom_site_type_symbol
_atom_site_label
_atom_site_fract_x
_atom_site_fract_y
_atom_site_fract_z
Si Si1 0.287057 0.181619 0.680876
Si Si2 0.555859 0.389636 0.562111
Si Si3 0.155517 0.913923 0.699773
Si Si4 0.184910 0.592371 0.227207
Si Si5 0.001648 0.138952 0.771151
Si Si6 0.644270 0.585737 0.933670
Si Si7 0.861634 0.591728 0.299064
Si Si8 0.501524 0.900845 0.697559
O O1 0.221327 0.282646 0.625503
O O2 0.395213 0.187826 0.454645
O O3 0.253554 0.005087 0.654583
O O4 0.295056 0.264119 0.987332
O O5 0.500000 0.500000 0.500000
O O6 0.639189 0.483691 0.635056
O O7 0.578594 0.226129 0.314232
O O8 0.468322 0.362671 0.856882
O O9 0.165775 0.775002 0.410376
O O10 0.081260 0.061266 0.819540
O O11 0.102598 0.840318 0.962523
O O12 0.298826 0.543033 0.030326
O O13 0.155331 0.500323 0.470557
O O14 0.133960 0.520626 0.010274
O O15 0.047185 0.299214 0.716935
O O16 0.000000 0.000000 0.500000
O O17 0.500000 0.000000 0.500000
O O18 0.500000 0.000000 0.000000
#
# Coordination Sequence:
#
# PCOD9037450 Si02
#       8
#     2   2   2   2   2   2   2   2
#     4   9  22  46  68  93 135 184 223 269 341 402
#     4  10  23  40  67  91 127 183 224 277 332 397
#     4  10  24  44  68 101 134 175 221 280 329 404
#     4  11  25  42  68 104 131 171 225 280 329 382
#     4  10  24  45  71  97 135 182 220 264 342 410
#     4   9  22  40  65  91 132 169 230 267 337 387
#     4  10  25  45  70  97 136 177 220 276 332 403
#     4  11  27  44  65 100 138 177 224 282 335 389
#
# _framework density 25.128761999999998
#
# number of rings (size 3 to 8) (size 9 to 14) (size 15 to 20)
#    0.000    2.000    0.000    0.000   21.000    2.000 
#    2.250    0.000    0.000    0.000    0.000    0.000 
#    0.000    0.000    0.000    0.000    0.000    0.000 
#
# Total GULP energy -89271.961547 kJ/mol
# GULP energy per Si atom -5579.497597 kJ/mol
# Density = 2.507157 g / cm^3
# Si number density = 25.128762 Si / 1000 Ang^3
#
#
#
# Elastic Constant Matrix: (Units=GPa)
#
#
# Indices 1 2 3 4 5 6 
#
# 1 52.4455 26.0266 17.9816 -3.5327 7.5123 1.9582
# 2 26.0266 156.2253 53.4954 13.2974 23.7343 24.6859
# 3 17.9816 53.4954 141.0361 29.0967 34.5333 20.1286
# 4 -3.5327 13.2974 29.0967 43.6139 0.8535 7.3178
# 5 7.5123 23.7343 34.5333 0.8535 48.9782 12.5615
# 6 1.9582 24.6859 20.1286 7.3178 12.5615 46.6354
#
#
#
# Elastic Compliance Matrix: (Units=1/GPa)
#
#
# Indices 1 2 3 4 5 6 
#
# 1 0.021853 -0.003295 -0.002500 0.004223 -0.000413 0.001354
# 2 -0.003295 0.008332 -0.001702 -0.001148 -0.001558 -0.002937
# 3 -0.002500 -0.001702 0.011145 -0.006820 -0.006262 -0.001047
# 4 0.004223 -0.001148 -0.006820 0.028478 0.004836 -0.002397
# 5 -0.000413 -0.001558 -0.006262 0.004836 0.026696 -0.004405
# 6 0.001354 -0.002937 -0.001047 -0.002397 -0.004405 0.024955
#
#
# Mechanical properties :
#
#
# Convention : Reuss Voigt Hill
#
# Bulk Modulus (GPa) = 37.97326 60.52379 49.24853
# Shear Modulus (GPa) = 34.42777 44.65907 39.54342
#
# Velocity S-wave (km/s) = 3.70544 4.22027 3.97121
# Velocity P-wave (km/s) = 5.78371 6.91992 6.37717
#
# Compressibility (1/GPa) = 0.02633432
#
# Stress axis : x y z
#
# Youngs Moduli (GPa) = 45.76058 120.02594 89.72966
#
# Poissons Ratio (x) = 0.39553 0.22428
# Poissons Ratio (y) = 0.15080 0.15276
# Poissons Ratio (z) = 0.11438 0.20434
#
# Static dielectric constant tensor:
#      x y z
#    x 2.078610 0.023880 -0.069160 
#    y 0.023880 2.077350 -0.030940 
#    z -0.069160 -0.030940 2.144910 
# 
# From -- ./inp_files/107505.got.cif
#   From: 2010.05.17/outbox.cif.g08.bks.cpg/sg2_54_cif.got.tgz:107505.got - 2010.06.03 11:33:40.
