data_PCOD9037178
_publ_section_title
;
Structure prediction by ZEFSAII (Michael W. Deem and Ramdas Pophale) SiO2 
 PCOD9037178
Probable space group: P -1
;
_chemical_formula_sum "Si O2"
_cell_formula_units_Z 16
_cell_length_a 12.281074
_cell_length_b 13.604636
_cell_length_c 8.633714
_cell_angle_alpha 81.094184
_cell_angle_beta 55.735237
_cell_angle_gamma 126.038967
_cell_volume 661.588751
_symmetry_space_group_name_H-M "P -1"
_symmetry_group_IT_number 2
_symmetry_cell_setting 'triclinic'
loop_
_space_group_symop_operation_xyz
x,y,z
-x,-y,-z
loop_
_atom_site_type_symbol
_atom_site_label
_atom_site_fract_x
_atom_site_fract_y
_atom_site_fract_z
Si Si1 0.492722 0.980120 0.692342
Si Si2 0.722258 0.067130 0.765247
Si Si3 0.258927 0.557352 0.666536
Si Si4 0.229609 0.451050 0.264660
Si Si5 0.174022 0.271567 0.769288
Si Si6 0.696745 0.923189 0.080756
Si Si7 0.160300 0.585592 0.075396
Si Si8 0.595691 0.577119 0.147526
O O1 0.403939 0.030973 0.806323
O O2 0.500000 0.000000 0.500000
O O3 0.723137 0.085967 0.573823
O O4 0.313576 0.779624 0.915650
O O5 0.973426 0.261009 0.578340
O O6 0.698825 0.941797 0.887456
O O7 0.500000 0.000000 0.000000
O O8 0.161494 0.385277 0.759626
O O9 0.103621 0.540997 0.701747
O O10 0.520070 0.737936 0.350881
O O11 0.228495 0.568936 0.867748
O O12 0.206040 0.546305 0.195327
O O13 0.435766 0.559126 0.194325
O O14 0.290792 0.417860 0.078508
O O15 0.406178 0.398077 0.447915
O O16 0.214405 0.268631 0.917115
O O17 0.954131 0.082874 0.910630
#
# Coordination Sequence:
#
# PCOD9037178 Si02
#       8
#     2   2   2   2   2   2   2   2
#     4  11  22  37  64  99 138 176 208 270 354 402
#     4  10  23  40  62  98 136 173 211 273 345 394
#     4  11  23  38  69 104 136 167 226 285 338 400
#     4  11  22  43  68  94 136 180 222 280 335 392
#     4  11  22  45  69  98 128 183 232 270 334 397
#     4  11  22  42  64  99 138 170 216 277 342 397
#     4  11  22  37  64 106 133 168 227 282 336 412
#     4  10  24  41  70  91 131 187 230 271 325 397
#
# _framework density 24.184207000000001
#
# number of rings (size 3 to 8) (size 9 to 14) (size 15 to 20)
#    0.000    1.250    5.000    1.500    3.500    1.000 
#    0.000    5.000    5.500    3.000    0.000    0.000 
#    0.000    0.000    0.000    0.000    0.000    0.000 
#
# Total GULP energy -89469.313611 kJ/mol
# GULP energy per Si atom -5591.832101 kJ/mol
# Density = 2.412916 g / cm^3
# Si number density = 24.184207 Si / 1000 Ang^3
#
#
#
# Elastic Constant Matrix: (Units=GPa)
#
#
# Indices 1 2 3 4 5 6 
#
# 1 156.6903 23.6800 37.9115 -7.3052 13.7792 28.5255
# 2 23.6800 73.4729 28.4932 -1.1816 -6.2181 3.4221
# 3 37.9115 28.4932 76.9549 -11.8039 -1.2058 -0.1287
# 4 -7.3052 -1.1816 -11.8039 39.6465 0.6408 3.5597
# 5 13.7792 -6.2181 -1.2058 0.6408 40.5493 0.1968
# 6 28.5255 3.4221 -0.1287 3.5597 0.1968 47.7128
#
#
#
# Elastic Compliance Matrix: (Units=1/GPa)
#
#
# Indices 1 2 3 4 5 6 
#
# 1 0.008780 -0.001411 -0.003711 0.000993 -0.003300 -0.005218
# 2 -0.001411 0.016459 -0.005578 -0.001453 0.002862 -0.000255
# 3 -0.003711 -0.005578 0.017541 0.004148 0.000850 0.002353
# 4 0.000993 -0.001453 0.004148 0.026833 -0.000849 -0.002476
# 5 -0.003300 0.002862 0.000850 -0.000849 0.026252 0.001725
# 6 -0.005218 -0.000255 0.002353 -0.002476 0.001725 0.024281
#
#
# Mechanical properties :
#
#
# Convention : Reuss Voigt Hill
#
# Bulk Modulus (GPa) = 46.77012 54.14304 50.45658
# Shear Modulus (GPa) = 33.63107 40.05061 36.84084
#
# Velocity S-wave (km/s) = 3.73315 4.07389 3.90724
# Velocity P-wave (km/s) = 6.16141 6.67571 6.42371
#
# Compressibility (1/GPa) = 0.02138117
#
# Stress axis : x y z
#
# Youngs Moduli (GPa) = 113.90005 60.75756 57.00785
#
# Poissons Ratio (x) = 0.08571 0.21156
# Poissons Ratio (y) = 0.16069 0.31796
# Poissons Ratio (z) = 0.42269 0.33888
#
# Static dielectric constant tensor:
#      x y z
#    x 2.098850 0.097610 0.152920 
#    y 0.097610 1.991210 0.098280 
#    z 0.152920 0.098280 2.124440 
# 
# From -- ./inp_files/272401.got.cif
#   From: 2010.05.17/outbox.cif.g08.bks.cpg/sg2_137_cif.got.tgz:272401.got - 2010.06.03 11:33:40.
