data_PCOD9037271
_publ_section_title
;
Structure prediction by ZEFSAII (Michael W. Deem and Ramdas Pophale) SiO2 
 PCOD9037271
Probable space group: P -1
;
_chemical_formula_sum "Si O2"
_cell_formula_units_Z 16
_cell_length_a 14.656591
_cell_length_b 18.759023
_cell_length_c 6.090490
_cell_angle_alpha 89.612097
_cell_angle_beta 68.039164
_cell_angle_gamma 141.045040
_cell_volume 839.671309
_symmetry_space_group_name_H-M "P -1"
_symmetry_group_IT_number 2
_symmetry_cell_setting 'triclinic'
loop_
_space_group_symop_operation_xyz
x,y,z
-x,-y,-z
loop_
_atom_site_type_symbol
_atom_site_label
_atom_site_fract_x
_atom_site_fract_y
_atom_site_fract_z
Si Si1 0.646526 0.098295 0.664990
Si Si2 0.641994 0.563330 0.683527
Si Si3 0.783460 0.980401 0.890557
Si Si4 0.631585 0.828107 0.632710
Si Si5 0.518849 0.890371 0.479803
Si Si6 0.393217 0.325204 0.613800
Si Si7 0.980572 0.215728 0.411825
Si Si8 0.008497 0.106726 0.076813
O O1 0.625790 0.159570 0.549014
O O2 0.857693 0.211421 0.523297
O O3 0.596475 0.002887 0.548856
O O4 0.500000 0.000000 0.000000
O O5 0.557271 0.447166 0.621845
O O6 0.655077 0.636659 0.498324
O O7 0.830986 0.662187 0.631640
O O8 0.500000 0.500000 0.000000
O O9 0.854907 0.083673 0.660022
O O10 0.660900 0.850933 0.866613
O O11 0.957385 0.061460 0.869927
O O12 0.663662 0.946546 0.179851
O O13 0.502184 0.814013 0.665306
O O14 0.568192 0.717358 0.578605
O O15 0.840288 0.968109 0.357615
O O16 0.211161 0.201576 0.924536
O O17 0.011866 0.191815 0.154322
#
# Coordination Sequence:
#
# PCOD9037271 Si02
#       8
#     2   2   2   2   2   2   2   2
#     4  11  19  31  55  87 116 145 178 231 291 338
#     4  11  24  39  57  77 109 158 199 232 266 327
#     4  10  17  33  51  80 118 145 172 225 283 332
#     4  10  21  34  54  84 116 150 181 232 287 338
#     4  10  19  32  52  85 117 144 176 220 289 349
#     4  11  23  38  55  80 112 152 199 230 273 331
#     4  11  19  35  55  80 118 143 186 231 274 334
#     4  10  19  34  55  83 115 146 181 230 283 345
#
# _framework density 19.055073
#
# number of rings (size 3 to 8) (size 9 to 14) (size 15 to 20)
#    0.000    1.500    7.500    0.375    0.000    2.500 
#    0.000    0.000    0.000    0.750    0.000    4.375 
#    0.000    0.000    0.000    0.000    0.000    0.000 
#
# Total GULP energy -89116.227823 kJ/mol
# GULP energy per Si atom -5569.764239 kJ/mol
# Density = 1.901170 g / cm^3
# Si number density = 19.055073 Si / 1000 Ang^3
#
#
#
# Elastic Constant Matrix: (Units=GPa)
#
#
# Indices 1 2 3 4 5 6 
#
# 1 115.6497 53.2119 13.3063 8.0649 -13.6593 22.5315
# 2 53.2119 127.5505 24.9488 32.7496 -10.3452 14.1313
# 3 13.3063 24.9488 57.8658 22.9240 -4.0695 6.9365
# 4 8.0649 32.7496 22.9240 28.3718 -0.1032 -0.6901
# 5 -13.6593 -10.3452 -4.0695 -0.1032 23.9139 1.2896
# 6 22.5315 14.1313 6.9365 -0.6901 1.2896 29.2866
#
#
#
# Elastic Compliance Matrix: (Units=1/GPa)
#
#
# Indices 1 2 3 4 5 6 
#
# 1 0.012787 -0.004273 -0.000267 0.001342 0.005843 -0.007938
# 2 -0.004273 0.014636 0.002721 -0.017984 0.004548 -0.005043
# 3 -0.000267 0.002721 0.027820 -0.025730 0.006110 -0.008572
# 4 0.001342 -0.017984 -0.025730 0.076761 -0.011927 0.016073
# 5 0.005843 0.004548 0.006110 -0.011927 0.048680 -0.010562
# 6 -0.007938 -0.005043 -0.008572 0.016073 -0.010562 0.045560
#
#
# Mechanical properties :
#
#
# Convention : Reuss Voigt Hill
#
# Bulk Modulus (GPa) = 19.37826 53.77777 36.57801
# Shear Modulus (GPa) = 20.23624 30.28772 25.26198
#
# Velocity S-wave (km/s) = 3.26235 3.99116 3.64501
# Velocity P-wave (km/s) = 4.93784 7.03723 6.07885
#
# Compressibility (1/GPa) = 0.05160423
#
# Stress axis : x y z
#
# Youngs Moduli (GPa) = 78.20527 68.32631 35.94582
#
# Poissons Ratio (x) = 0.29199 0.00960
# Poissons Ratio (y) = 0.33420 -0.09782
# Poissons Ratio (z) = 0.02088 -0.18594
#
# Static dielectric constant tensor:
#      x y z
#    x 1.787940 0.017780 0.043280 
#    y 0.017780 1.685760 0.019320 
#    z 0.043280 0.019320 1.717630 
# 
# From -- ./inp_files/74503.got.cif
#   From: 2010.05.17/outbox.cif.g08.bks.cpg/sg2_38_cif.got.tgz:74503.got - 2010.06.03 11:33:40.
