data_PCOD9037468
_publ_section_title
;
Structure prediction by ZEFSAII (Michael W. Deem and Ramdas Pophale) SiO2 
 PCOD9037468
Probable space group: P -1
;
_chemical_formula_sum "Si O2"
_cell_formula_units_Z 14
_cell_length_a 6.052523
_cell_length_b 18.983509
_cell_length_c 8.864591
_cell_angle_alpha 137.043759
_cell_angle_beta 71.731261
_cell_angle_gamma 85.582788
_cell_volume 580.489569
_symmetry_space_group_name_H-M "P -1"
_symmetry_group_IT_number 2
_symmetry_cell_setting 'triclinic'
loop_
_space_group_symop_operation_xyz
x,y,z
-x,-y,-z
loop_
_atom_site_type_symbol
_atom_site_label
_atom_site_fract_x
_atom_site_fract_y
_atom_site_fract_z
Si Si1 0.783327 0.311223 0.962068
Si Si2 0.136256 0.205650 0.159633
Si Si3 0.280992 0.780838 0.493338
Si Si4 0.824208 0.588700 0.054600
Si Si5 0.590474 0.095980 0.106840
Si Si6 0.214736 0.526836 0.415143
Si Si7 0.012372 0.912110 0.225670
O O1 0.751512 0.249734 0.718672
O O2 0.829997 0.214740 0.926667
O O3 0.029907 0.338460 0.925744
O O4 0.519756 0.434939 0.248814
O O5 0.384710 0.193685 0.185395
O O6 0.968077 0.191212 0.308312
O O7 0.931122 0.332212 0.333069
O O8 0.205174 0.110572 0.860004
O O9 0.539734 0.664386 0.307057
O O10 0.371490 0.872089 0.680617
O O11 0.788748 0.511940 0.814511
O O12 0.000000 0.500000 0.000000
O O13 0.854231 0.053958 0.887531
O O14 0.500000 0.000000 0.000000
O O15 0.000000 0.500000 0.500000
O O16 0.000000 0.000000 0.500000
#
# Coordination Sequence:
#
# PCOD9037468 Si02
#       7
#     2   2   2   2   2   2   2
#     4  11  24  42  68 101 141 176 219 282 334 400
#     4  11  24  45  68  97 136 175 223 279 337 403
#     4  10  23  40  67  96 133 171 223 270 336 394
#     4  11  22  38  65 100 135 176 221 268 334 402
#     4  11  26  45  70  96 129 182 231 278 331 398
#     4  11  23  40  65  97 135 174 220 272 340 402
#     4  11  28  45  68 100 136 179 228 277 339 396
#
# _framework density 24.117574000000001
#
# number of rings (size 3 to 8) (size 9 to 14) (size 15 to 20)
#    0.000    1.143    0.000    5.143    6.000    9.714 
#    0.000    0.000    0.000    0.000    0.000    0.000 
#    0.000    0.000    0.000    0.000    0.000    0.000 
#
# Total GULP energy -78009.111893 kJ/mol
# GULP energy per Si atom -5572.079421 kJ/mol
# Density = 2.406268 g / cm^3
# Si number density = 24.117574 Si / 1000 Ang^3
#
#
#
# Elastic Constant Matrix: (Units=GPa)
#
#
# Indices 1 2 3 4 5 6 
#
# 1 70.1600 0.8091 41.6122 4.2671 20.4714 -10.6823
# 2 0.8091 94.1422 9.2835 12.1734 11.5525 -10.0615
# 3 41.6122 9.2835 130.1080 -2.1118 43.1171 -10.5858
# 4 4.2671 12.1734 -2.1118 29.1343 -0.1443 -0.3434
# 5 20.4714 11.5525 43.1171 -0.1443 52.3415 3.4169
# 6 -10.6823 -10.0615 -10.5858 -0.3434 3.4169 33.8102
#
#
#
# Elastic Compliance Matrix: (Units=1/GPa)
#
#
# Indices 1 2 3 4 5 6 
#
# 1 0.019317 0.001978 -0.004312 -0.003924 -0.004829 0.005790
# 2 0.001978 0.012260 0.000055 -0.005373 -0.003841 0.004624
# 3 -0.004312 0.000055 0.012208 0.001491 -0.008597 0.003360
# 4 -0.003924 -0.005373 0.001491 0.037235 0.001737 -0.002169
# 5 -0.004829 -0.003841 -0.008597 0.001737 0.029472 -0.008321
# 6 0.005790 0.004624 0.003360 -0.002169 -0.008321 0.034653
#
#
# Mechanical properties :
#
#
# Convention : Reuss Voigt Hill
#
# Bulk Modulus (GPa) = 25.49317 44.20223 34.84770
# Shear Modulus (GPa) = 30.71678 39.23756 34.97717
#
# Velocity S-wave (km/s) = 3.57266 4.03790 3.81238
# Velocity P-wave (km/s) = 5.25470 6.33301 5.81889
#
# Compressibility (1/GPa) = 0.03922619
#
# Stress axis : x y z
#
# Youngs Moduli (GPa) = 51.76896 81.56481 81.91601
#
# Poissons Ratio (x) = -0.16132 0.35319
# Poissons Ratio (y) = -0.10239 -0.00447
# Poissons Ratio (z) = 0.22321 -0.00445
#
# Static dielectric constant tensor:
#      x y z
#    x 1.838380 -0.014710 0.076440 
#    y -0.014710 1.912510 0.038680 
#    z 0.076440 0.038680 2.039490 
# 
# From -- ./inp_files/27547.got.cif
#   From: 2010.05.17/outbox.cif.g08.bks.cpg/sg2_14_cif.got.tgz:27547.got - 2010.06.03 11:33:40.
