data_PCOD9037527
_publ_section_title
;
Structure prediction by ZEFSAII (Michael W. Deem and Ramdas Pophale) SiO2 
 PCOD9037527
Probable space group: P -1
;
_chemical_formula_sum "Si O2"
_cell_formula_units_Z 14
_cell_length_a 8.695200
_cell_length_b 20.789930
_cell_length_c 5.190879
_cell_angle_alpha 89.638177
_cell_angle_beta 77.846190
_cell_angle_gamma 139.334743
_cell_volume 577.115995
_symmetry_space_group_name_H-M "P -1"
_symmetry_group_IT_number 2
_symmetry_cell_setting 'triclinic'
loop_
_space_group_symop_operation_xyz
x,y,z
-x,-y,-z
loop_
_atom_site_type_symbol
_atom_site_label
_atom_site_fract_x
_atom_site_fract_y
_atom_site_fract_z
Si Si1 0.901638 0.034783 0.147496
Si Si2 0.777067 0.451227 0.397865
Si Si3 0.094863 0.763014 0.893465
Si Si4 0.195965 0.655467 0.016913
Si Si5 0.637383 0.985947 0.732653
Si Si6 0.958200 0.784931 0.452658
Si Si7 0.372309 0.255826 0.793078
O O1 0.779102 0.987523 0.469827
O O2 0.701261 0.991058 0.004420
O O3 0.131255 0.159339 0.053366
O O4 0.000000 0.000000 0.000000
O O5 0.743187 0.385738 0.190775
O O6 0.540263 0.373533 0.674416
O O7 0.000000 0.500000 0.500000
O O8 0.909125 0.554152 0.218209
O O9 0.189994 0.720083 0.864347
O O10 0.921676 0.730310 0.719021
O O11 0.347103 0.885065 0.796247
O O12 0.966150 0.739832 0.207770
O O13 0.407001 0.720019 0.168638
O O14 0.770875 0.095906 0.629808
O O15 0.775047 0.785466 0.429470
#
# Coordination Sequence:
#
# PCOD9037527 Si02
#       7
#     2   2   2   2   2   2   2
#     4  11  23  36  62 101 133 169 224 274 319 379
#     4   9  21  42  69  93 126 166 220 271 345 395
#     4  12  25  42  69  97 137 174 231 269 317 386
#     4  10  23  41  71  96 123 170 227 273 329 397
#     4  11  23  41  61  91 139 184 217 256 325 395
#     4  11  25  42  64 100 137 183 215 266 330 393
#     4  10  23  40  68  90 135 171 215 266 342 382
#
# _framework density 24.258554
#
# number of rings (size 3 to 8) (size 9 to 14) (size 15 to 20)
#    0.000    1.429    0.000    4.714   12.000    0.000 
#    0.000    1.429    0.000    0.000    0.000    0.000 
#    0.000    0.000    0.000    0.000    0.000    0.000 
#
# Total GULP energy -77969.221188 kJ/mol
# GULP energy per Si atom -5569.230085 kJ/mol
# Density = 2.420334 g / cm^3
# Si number density = 24.258554 Si / 1000 Ang^3
#
#
#
# Elastic Constant Matrix: (Units=GPa)
#
#
# Indices 1 2 3 4 5 6 
#
# 1 93.2504 35.8653 37.9276 7.4087 18.3471 0.9249
# 2 35.8653 66.7108 42.7229 0.8731 5.5588 25.3502
# 3 37.9276 42.7229 86.8512 11.6291 4.5792 -2.3561
# 4 7.4087 0.8731 11.6291 31.1258 8.9815 -11.5363
# 5 18.3471 5.5588 4.5792 8.9815 53.7079 -6.4937
# 6 0.9249 25.3502 -2.3561 -11.5363 -6.4937 30.7127
#
#
#
# Elastic Compliance Matrix: (Units=1/GPa)
#
#
# Indices 1 2 3 4 5 6 
#
# 1 0.015734 -0.009521 -0.001921 0.000773 -0.003535 0.006780
# 2 -0.009521 0.054114 -0.022485 -0.007961 -0.005168 -0.050187
# 3 -0.001921 -0.022485 0.023947 -0.001216 0.003656 0.020770
# 4 0.000773 -0.007961 -0.001216 0.041584 -0.003716 0.021288
# 5 -0.003535 -0.005168 0.003656 -0.003716 0.021618 0.007827
# 6 0.006780 -0.050187 0.020770 0.021288 0.007827 0.085024
#
#
# Mechanical properties :
#
#
# Convention : Reuss Voigt Hill
#
# Bulk Modulus (GPa) = 38.54699 53.31601 45.93150
# Shear Modulus (GPa) = 15.69758 31.79572 23.74665
#
# Velocity S-wave (km/s) = 2.54656 3.62429 3.13213
# Velocity P-wave (km/s) = 4.95694 6.28808 5.66176
#
# Compressibility (1/GPa) = 0.02594236
#
# Stress axis : x y z
#
# Youngs Moduli (GPa) = 63.55788 18.47941 41.75951
#
# Poissons Ratio (x) = 0.17594 0.08020
# Poissons Ratio (y) = 0.60512 0.93895
# Poissons Ratio (z) = 0.12207 0.41550
#
# Static dielectric constant tensor:
#      x y z
#    x 1.994890 0.027170 -0.052420 
#    y 0.027170 1.977500 -0.002470 
#    z -0.052420 -0.002470 2.035810 
# 
# From -- ./inp_files/51355.got.cif
#   From: 2010.05.17/outbox.cif.g08.bks.cpg/sg2_26_cif.got.tgz:51355.got - 2010.06.03 11:33:40.
