data_PCOD9037449
_publ_section_title
;
Structure prediction by ZEFSAII (Michael W. Deem and Ramdas Pophale) SiO2 
 PCOD9037449
Probable space group: P -1
;
_chemical_formula_sum "Si O2"
_cell_formula_units_Z 16
_cell_length_a 14.931737
_cell_length_b 11.826817
_cell_length_c 10.967445
_cell_angle_alpha 83.833818
_cell_angle_beta 139.708488
_cell_angle_gamma 126.071890
_cell_volume 766.073796
_symmetry_space_group_name_H-M "P -1"
_symmetry_group_IT_number 2
_symmetry_cell_setting 'triclinic'
loop_
_space_group_symop_operation_xyz
x,y,z
-x,-y,-z
loop_
_atom_site_type_symbol
_atom_site_label
_atom_site_fract_x
_atom_site_fract_y
_atom_site_fract_z
Si Si1 0.304982 0.120806 0.395920
Si Si2 0.886371 0.533958 0.231000
Si Si3 0.640694 0.191171 0.187622
Si Si4 0.801699 0.862643 0.472744
Si Si5 0.814149 0.458831 0.873706
Si Si6 0.840877 0.734511 0.869258
Si Si7 0.608479 0.568020 0.910183
Si Si8 0.291240 0.136910 0.899436
O O1 0.261652 0.084338 0.499394
O O2 0.558299 0.250844 0.613556
O O3 0.266098 0.230772 0.319757
O O4 0.105901 0.929955 0.140348
O O5 0.748963 0.347065 0.181346
O O6 0.143834 0.704872 0.521131
O O7 0.860432 0.498441 0.062896
O O8 0.770902 0.579206 0.137703
O O9 0.464148 0.147030 0.091559
O O10 0.500000 0.000000 0.000000
O O11 0.628293 0.647052 0.324387
O O12 0.774021 0.898516 0.306557
O O13 0.053947 0.981088 0.740689
O O14 0.815530 0.590149 0.811935
O O15 0.000000 0.500000 0.000000
O O16 0.718354 0.662601 0.881758
O O17 0.595971 0.672937 0.963440
#
# Coordination Sequence:
#
# PCOD9037449 Si02
#       8
#     2   2   2   2   2   2   2   2
#     4  11  21  43  64  93 125 162 207 262 321 357
#     4  10  24  43  63  90 123 170 209 250 315 372
#     4  11  25  43  62  90 134 167 200 254 316 372
#     4  11  22  36  67  93 124 158 206 252 315 364
#     4  11  24  43  65  92 124 171 210 254 313 380
#     4  10  23  40  67  91 123 163 209 265 311 367
#     4  11  21  40  67  90 122 160 209 260 302 366
#     4  11  24  38  61 100 121 162 208 251 306 375
#
# _framework density 20.885717
#
# number of rings (size 3 to 8) (size 9 to 14) (size 15 to 20)
#    0.000    1.250    5.000    0.750    3.500    4.500 
#    2.250    0.000    0.000    0.000    0.000    0.000 
#    0.000    0.000    0.000    0.000    0.000    0.000 
#
# Total GULP energy -89453.009060 kJ/mol
# GULP energy per Si atom -5590.813066 kJ/mol
# Density = 2.083818 g / cm^3
# Si number density = 20.885717 Si / 1000 Ang^3
#
#
#
# Elastic Constant Matrix: (Units=GPa)
#
#
# Indices 1 2 3 4 5 6 
#
# 1 69.1993 -2.0403 17.9512 4.5846 28.9765 -12.6277
# 2 -2.0403 38.1057 9.6364 5.9279 9.5841 -3.4995
# 3 17.9512 9.6364 119.0250 30.7343 30.9427 -2.5826
# 4 4.5846 5.9279 30.7343 17.4890 15.4226 -2.6848
# 5 28.9765 9.5841 30.9427 15.4226 31.4394 0.8435
# 6 -12.6277 -3.4995 -2.5826 -2.6848 0.8435 30.0796
#
#
#
# Elastic Compliance Matrix: (Units=1/GPa)
#
#
# Indices 1 2 3 4 5 6 
#
# 1 0.050891 0.016850 -0.003833 0.062944 -0.079973 0.030857
# 2 0.016850 0.034478 -0.000570 0.017209 -0.034285 0.013534
# 3 -0.003833 -0.000570 0.015902 -0.029518 0.002616 -0.003018
# 4 0.062944 0.017209 -0.029518 0.221516 -0.144205 0.049708
# 5 -0.079973 -0.034285 0.002616 -0.144205 0.185618 -0.055414
# 6 0.030857 0.013534 -0.003018 0.049708 -0.055414 0.053505
#
#
# Mechanical properties :
#
#
# Convention : Reuss Voigt Hill
#
# Bulk Modulus (GPa) = 7.92602 30.82496 19.37549
# Shear Modulus (GPa) = 8.63453 29.18712 18.91083
#
# Velocity S-wave (km/s) = 2.03547 3.74233 3.01232
# Velocity P-wave (km/s) = 3.05408 5.78483 4.62556
#
# Compressibility (1/GPa) = 0.12616675
#
# Stress axis : x y z
#
# Youngs Moduli (GPa) = 19.64995 29.00405 62.88409
#
# Poissons Ratio (x) = -0.48873 0.24101
# Poissons Ratio (y) = -0.33111 0.03583
# Poissons Ratio (z) = 0.07531 0.01653
#
# Static dielectric constant tensor:
#      x y z
#    x 1.740670 0.038990 0.007240 
#    y 0.038990 1.777790 -0.003790 
#    z 0.007240 -0.003790 1.760130 
# 
# From -- ./inp_files/345761.got.cif
#   From: 2010.05.17/outbox.cif.g08.bks.cpg/sg2_173_cif.got.tgz:345761.got - 2010.06.03 11:33:40.
