data_PCOD9037868
_publ_section_title
;
Structure prediction by ZEFSAII (Michael W. Deem and Ramdas Pophale) SiO2 
 PCOD9037868
Probable space group: P -1
;
_chemical_formula_sum "Si O2"
_cell_formula_units_Z 14
_cell_length_a 10.782217
_cell_length_b 9.794353
_cell_length_c 7.807628
_cell_angle_alpha 107.107732
_cell_angle_beta 134.320869
_cell_angle_gamma 86.367210
_cell_volume 551.474201
_symmetry_space_group_name_H-M "P -1"
_symmetry_group_IT_number 2
_symmetry_cell_setting 'triclinic'
loop_
_space_group_symop_operation_xyz
x,y,z
-x,-y,-z
loop_
_atom_site_type_symbol
_atom_site_label
_atom_site_fract_x
_atom_site_fract_y
_atom_site_fract_z
Si Si1 0.236761 0.148974 0.046536
Si Si2 0.296344 0.975651 0.351142
Si Si3 0.655421 0.245687 0.441043
Si Si4 0.192558 0.462048 0.188906
Si Si5 0.129501 0.717468 0.643641
Si Si6 0.803306 0.821498 0.379677
Si Si7 0.762135 0.518060 0.132779
O O1 0.201552 0.025662 0.112835
O O2 0.448318 0.187512 0.234086
O O3 0.183375 0.291032 0.133936
O O4 0.166997 0.132342 0.776283
O O5 0.277329 0.078277 0.533440
O O6 0.500000 0.000000 0.500000
O O7 0.251815 0.812931 0.326992
O O8 0.742509 0.191749 0.337862
O O9 0.996129 0.807239 0.630152
O O10 0.298707 0.579102 0.465268
O O11 0.297355 0.499512 0.124835
O O12 0.000000 0.500000 0.000000
O O13 0.245570 0.634973 0.842372
O O14 0.975625 0.591817 0.361270
O O15 0.693788 0.651713 0.205047
#
# Coordination Sequence:
#
# PCOD9037868 Si02
#       7
#     2   2   2   2   2   2   2
#     4  10  23  41  64  89 119 170 199 249 313 350
#     4  10  24  41  61  87 128 166 201 246 308 359
#     4  11  22  39  57  94 126 151 208 251 298 367
#     4  11  20  38  63  88 122 156 205 256 299 361
#     4   9  18  37  60  89 117 155 199 253 305 345
#     4   9  19  41  64  83 118 164 207 242 300 367
#     4   8  18  35  61  88 113 161 197 241 316 345
#
# _framework density 25.386499000000001
#
# number of rings (size 3 to 8) (size 9 to 14) (size 15 to 20)
#    0.857    1.429    1.429    0.429    4.000    2.857 
#    7.714    4.286    0.000    0.000    0.000    0.000 
#    0.000    0.000    0.000    0.000    0.000    0.000 
#
# Total GULP energy -78131.901505 kJ/mol
# GULP energy per Si atom -5580.850108 kJ/mol
# Density = 2.532872 g / cm^3
# Si number density = 25.386499 Si / 1000 Ang^3
#
#
#
# Elastic Constant Matrix: (Units=GPa)
#
#
# Indices 1 2 3 4 5 6 
#
# 1 106.2844 41.9818 10.0612 5.4837 -2.3149 -21.1713
# 2 41.9818 140.8583 41.9982 -21.3727 -12.9322 -7.4148
# 3 10.0612 41.9982 47.6453 4.0775 -18.5711 -5.4678
# 4 5.4837 -21.3727 4.0775 33.8144 -0.6480 -16.0487
# 5 -2.3149 -12.9322 -18.5711 -0.6480 26.6711 3.3917
# 6 -21.1713 -7.4148 -5.4678 -16.0487 3.3917 37.1788
#
#
#
# Elastic Compliance Matrix: (Units=1/GPa)
#
#
# Indices 1 2 3 4 5 6 
#
# 1 0.012097 -0.004279 0.001846 -0.002369 -0.000474 0.005327
# 2 -0.004279 0.014495 -0.013747 0.013640 -0.003170 0.004610
# 3 0.001846 -0.013747 0.042679 -0.015749 0.023382 -0.004345
# 4 -0.002369 0.013640 -0.015749 0.050527 -0.006054 0.021418
# 5 -0.000474 -0.003170 0.023382 -0.006054 0.052670 -0.004882
# 6 0.005327 0.004610 -0.004345 0.021418 -0.004882 0.039902
#
#
# Mechanical properties :
#
#
# Convention : Reuss Voigt Hill
#
# Bulk Modulus (GPa) = 27.09129 53.65225 40.37177
# Shear Modulus (GPa) = 19.45276 32.91597 26.18437
#
# Velocity S-wave (km/s) = 2.77115 3.60473 3.21507
# Velocity P-wave (km/s) = 4.57534 6.20528 5.45157
#
# Compressibility (1/GPa) = 0.03691223
#
# Stress axis : x y z
#
# Youngs Moduli (GPa) = 82.66486 68.99126 23.43050
#
# Poissons Ratio (x) = 0.29518 -0.04326
# Poissons Ratio (y) = 0.35368 0.32210
# Poissons Ratio (z) = -0.15262 0.94843
#
# Static dielectric constant tensor:
#      x y z
#    x 1.953480 -0.024160 -0.010860 
#    y -0.024160 2.146850 0.043010 
#    z -0.010860 0.043010 2.049180 
# 
# From -- ./inp_files/200809.got.cif
#   From: 2010.05.17/outbox.cif.g08.bks.cpg/sg2_101_cif.got.tgz:200809.got - 2010.06.03 11:33:40.
