data_PCOD9037595
_publ_section_title
;
Structure prediction by ZEFSAII (Michael W. Deem and Ramdas Pophale) SiO2 
 PCOD9037595
Probable space group: P -1
;
_chemical_formula_sum "Si O2"
_cell_formula_units_Z 14
_cell_length_a 7.732365
_cell_length_b 11.478897
_cell_length_c 7.216706
_cell_angle_alpha 108.923664
_cell_angle_beta 60.028271
_cell_angle_gamma 114.504571
_cell_volume 499.305928
_symmetry_space_group_name_H-M "P -1"
_symmetry_group_IT_number 2
_symmetry_cell_setting 'triclinic'
loop_
_space_group_symop_operation_xyz
x,y,z
-x,-y,-z
loop_
_atom_site_type_symbol
_atom_site_label
_atom_site_fract_x
_atom_site_fract_y
_atom_site_fract_z
Si Si1 0.832494 0.803420 0.062071
Si Si2 0.266161 0.956046 0.294972
Si Si3 0.742678 0.054599 0.152849
Si Si4 0.969634 0.340117 0.599716
Si Si5 0.673999 0.427025 0.315363
Si Si6 0.589270 0.382457 0.918701
Si Si7 0.280779 0.233199 0.493606
O O1 0.798334 0.734696 0.245968
O O2 0.826272 0.949849 0.161188
O O3 0.615349 0.740284 0.040854
O O4 0.059363 0.813061 0.857412
O O5 0.159862 0.806530 0.331147
O O6 0.495238 0.006572 0.295302
O O7 0.194109 0.081097 0.439430
O O8 0.262620 0.953673 0.072414
O O9 0.103498 0.480781 0.688498
O O10 0.178084 0.298525 0.422326
O O11 0.762392 0.377369 0.670879
O O12 0.500000 0.500000 0.500000
O O13 0.694166 0.402308 0.073811
O O14 0.533065 0.283886 0.382401
O O15 0.500000 0.500000 0.000000
#
# Coordination Sequence:
#
# PCOD9037595 Si02
#       7
#     2   2   2   2   2   2   2
#     4  11  23  43  63 105 139 171 222 284 338 398
#     4  11  22  43  72 102 133 184 224 278 333 406
#     4  10  23  40  69  96 140 169 233 266 338 397
#     4  11  23  44  68 101 133 180 231 272 332 415
#     4  10  24  46  69 101 130 178 234 274 334 409
#     4  12  25  44  72  94 136 180 225 284 337 397
#     4  11  24  42  71  99 141 178 224 279 337 404
#
# _framework density 28.038924000000002
#
# number of rings (size 3 to 8) (size 9 to 14) (size 15 to 20)
#    0.000    1.143    2.857    3.429    2.000    1.714 
#    2.571    6.429    0.000    1.714    0.000    0.000 
#    0.000    0.000    0.000    0.000    0.000    0.000 
#
# Total GULP energy -77946.407761 kJ/mol
# GULP energy per Si atom -5567.600554 kJ/mol
# Density = 2.797511 g / cm^3
# Si number density = 28.038924 Si / 1000 Ang^3
#
#
#
# Elastic Constant Matrix: (Units=GPa)
#
#
# Indices 1 2 3 4 5 6 
#
# 1 146.6014 39.4533 28.1637 -6.6948 -30.7720 45.7663
# 2 39.4533 166.7210 17.6324 -10.3678 -6.8522 44.3302
# 3 28.1637 17.6324 62.2924 -13.8514 4.7427 17.4607
# 4 -6.6948 -10.3678 -13.8514 32.1534 -0.9293 -12.3938
# 5 -30.7720 -6.8522 4.7427 -0.9293 42.3506 -4.4286
# 6 45.7663 44.3302 17.4607 -12.3938 -4.4286 68.1044
#
#
#
# Elastic Compliance Matrix: (Units=1/GPa)
#
#
# Indices 1 2 3 4 5 6 
#
# 1 0.011181 -0.000392 -0.004250 -0.001701 0.007875 -0.005966
# 2 -0.000392 0.007333 -0.000669 0.000378 0.000542 -0.004234
# 3 -0.004250 -0.000669 0.020452 0.007167 -0.005434 -0.001002
# 4 -0.001701 0.000378 0.007167 0.036093 -0.000601 0.005589
# 5 0.007875 0.000542 -0.005434 -0.000601 0.029764 -0.002426
# 6 -0.005966 -0.004234 -0.001002 0.005589 -0.002426 0.022565
#
#
# Mechanical properties :
#
#
# Convention : Reuss Voigt Hill
#
# Bulk Modulus (GPa) = 35.27920 60.67930 47.97925
# Shear Modulus (GPa) = 33.90789 47.87938 40.89363
#
# Velocity S-wave (km/s) = 3.48129 4.13680 3.82312
# Velocity P-wave (km/s) = 5.36365 6.67125 6.05286
#
# Compressibility (1/GPa) = 0.02834531
#
# Stress axis : x y z
#
# Youngs Moduli (GPa) = 89.43585 136.36554 48.89468
#
# Poissons Ratio (x) = 0.05348 0.20779
# Poissons Ratio (y) = 0.03507 0.03270
# Poissons Ratio (z) = 0.38008 0.09119
#
# Static dielectric constant tensor:
#      x y z
#    x 2.111830 0.324600 -0.110390 
#    y 0.324600 1.703920 0.229310 
#    z -0.110390 0.229310 2.192610 
# 
# From -- ./inp_files/181170.got.cif
#   From: 2010.05.17/outbox.cif.g08.bks.cpg/sg2_91_cif.got.tgz:181170.got - 2010.06.03 11:33:40.
