data_PCOD9037115
_publ_section_title
;
Structure prediction by ZEFSAII (Michael W. Deem and Ramdas Pophale) SiO2 
 PCOD9037115
Probable space group: P -1
;
_chemical_formula_sum "Si O2"
_cell_formula_units_Z 16
_cell_length_a 11.960247
_cell_length_b 25.058697
_cell_length_c 9.465181
_cell_angle_alpha 146.904109
_cell_angle_beta 138.397337
_cell_angle_gamma 28.123206
_cell_volume 729.715849
_symmetry_space_group_name_H-M "P -1"
_symmetry_group_IT_number 2
_symmetry_cell_setting 'triclinic'
loop_
_space_group_symop_operation_xyz
x,y,z
-x,-y,-z
loop_
_atom_site_type_symbol
_atom_site_label
_atom_site_fract_x
_atom_site_fract_y
_atom_site_fract_z
Si Si1 0.238050 0.807070 0.446104
Si Si2 0.562418 0.559420 0.421138
Si Si3 0.598147 0.942652 0.806099
Si Si4 0.728284 0.219936 0.150592
Si Si5 0.491720 0.761536 0.299869
Si Si6 0.746717 0.038368 0.968572
Si Si7 0.964963 0.256595 0.068802
Si Si8 0.043493 0.437550 0.554257
O O1 0.426097 0.660985 0.382811
O O2 0.340768 0.813273 0.415354
O O3 0.170264 0.920236 0.738308
O O4 0.031781 0.821268 0.226506
O O5 0.390306 0.640838 0.571013
O O6 0.693958 0.403049 0.165786
O O7 0.792962 0.533245 0.608725
O O8 0.530583 0.860038 0.517455
O O9 0.884797 0.838293 0.866278
O O10 0.500000 0.000000 0.000000
O O11 0.558381 0.040905 0.866478
O O12 0.653459 0.151282 0.012192
O O13 0.632818 0.244296 0.957243
O O14 0.012512 0.108785 0.187259
O O15 0.746638 0.613725 0.261473
O O16 0.098284 0.302898 0.264295
O O17 0.000000 0.500000 0.500000
#
# Coordination Sequence:
#
# PCOD9037115 Si02
#       8
#     2   2   2   2   2   2   2   2
#     4  11  19  36  64  89 111 155 201 251 285 346
#     4   9  20  38  61  83 124 152 194 244 298 346
#     4  11  22  38  59  89 121 149 194 257 298 341
#     4  10  23  40  61  83 120 164 196 237 297 363
#     4  11  21  35  62  89 113 156 200 241 303 345
#     4  10  23  41  60  85 122 157 200 247 295 348
#     4   9  21  33  59  90 115 146 202 244 290 346
#     4   9  18  36  59  88 121 149 191 250 295 345
#
# _framework density 21.926342000000002
#
# number of rings (size 3 to 8) (size 9 to 14) (size 15 to 20)
#    0.750    1.250    2.500    1.125    1.750    2.000 
#    0.000    2.500    8.250    0.000    0.000    0.000 
#    0.000    0.000    0.000    0.000    0.000    0.000 
#
# Total GULP energy -89157.789769 kJ/mol
# GULP energy per Si atom -5572.361861 kJ/mol
# Density = 2.187644 g / cm^3
# Si number density = 21.926342 Si / 1000 Ang^3
#
#
#
# Elastic Constant Matrix: (Units=GPa)
#
#
# Indices 1 2 3 4 5 6 
#
# 1 72.9768 6.3356 3.5501 4.1341 -4.4151 17.6253
# 2 6.3356 53.2870 10.7423 -0.5277 -1.0154 4.2547
# 3 3.5501 10.7423 59.7150 -0.8705 -13.0504 -0.9003
# 4 4.1341 -0.5277 -0.8705 31.8417 -3.1817 -2.3575
# 5 -4.4151 -1.0154 -13.0504 -3.1817 29.1067 6.1704
# 6 17.6253 4.2547 -0.9003 -2.3575 6.1704 30.6076
#
#
#
# Elastic Compliance Matrix: (Units=1/GPa)
#
#
# Indices 1 2 3 4 5 6 
#
# 1 0.016773 -0.001083 -0.000023 -0.002535 0.004467 -0.010605
# 2 -0.001083 0.019791 -0.003669 0.000148 -0.000660 -0.002091
# 3 -0.000023 -0.003669 0.019343 0.001308 0.008808 -0.000583
# 4 -0.002535 0.000148 0.001308 0.032324 0.003029 0.003357
# 5 0.004467 -0.000660 0.008808 0.003029 0.041486 -0.010352
# 6 -0.010605 -0.002091 -0.000583 0.003357 -0.010352 0.041397
#
#
# Mechanical properties :
#
#
# Convention : Reuss Voigt Hill
#
# Bulk Modulus (GPa) = 21.57202 25.24833 23.41017
# Shear Modulus (GPa) = 25.49511 29.33458 27.41484
#
# Velocity S-wave (km/s) = 3.41363 3.66166 3.53982
# Velocity P-wave (km/s) = 5.03953 5.42375 5.23517
#
# Compressibility (1/GPa) = 0.04635634
#
# Stress axis : x y z
#
# Youngs Moduli (GPa) = 59.61866 50.52896 51.69879
#
# Poissons Ratio (x) = 0.05472 0.00119
# Poissons Ratio (y) = 0.06456 0.18970
# Poissons Ratio (z) = 0.00137 0.18541
#
# Static dielectric constant tensor:
#      x y z
#    x 1.871000 0.024740 0.024630 
#    y 0.024740 1.961890 0.042470 
#    z 0.024630 0.042470 1.784680 
# 
# From -- ./inp_files/171440.got.cif
#   From: 2010.05.17/outbox.cif.g08.bks.cpg/sg2_86_cif.got.tgz:171440.got - 2010.06.03 11:33:40.
