data_PCOD9037296
_publ_section_title
;
Structure prediction by ZEFSAII (Michael W. Deem and Ramdas Pophale) SiO2 
 PCOD9037296
Probable space group: P -1
;
_chemical_formula_sum "Si O2"
_cell_formula_units_Z 14
_cell_length_a 10.052271
_cell_length_b 11.827319
_cell_length_c 5.370388
_cell_angle_alpha 96.375557
_cell_angle_beta 71.812053
_cell_angle_gamma 81.111276
_cell_volume 590.616122
_symmetry_space_group_name_H-M "P -1"
_symmetry_group_IT_number 2
_symmetry_cell_setting 'triclinic'
loop_
_space_group_symop_operation_xyz
x,y,z
-x,-y,-z
loop_
_atom_site_type_symbol
_atom_site_label
_atom_site_fract_x
_atom_site_fract_y
_atom_site_fract_z
Si Si1 0.912949 0.938600 0.334327
Si Si2 0.941536 0.595453 0.765714
Si Si3 0.778485 0.537404 0.250882
Si Si4 0.760520 0.772006 0.647172
Si Si5 0.810715 0.148080 0.081652
Si Si6 0.614760 0.352405 0.474694
Si Si7 0.532209 0.251735 0.006489
O O1 0.790640 0.881449 0.509920
O O2 0.845135 0.026883 0.178719
O O3 0.000000 0.000000 0.500000
O O4 0.041089 0.840627 0.127135
O O5 0.896899 0.725835 0.731737
O O6 0.000000 0.500000 0.500000
O O7 0.077578 0.565062 0.854988
O O8 0.793119 0.571435 0.962594
O O9 0.773640 0.658434 0.429623
O O10 0.664602 0.471487 0.419542
O O11 0.612451 0.796945 0.892299
O O12 0.752838 0.247801 0.339781
O O13 0.682249 0.161293 0.954647
O O14 0.528809 0.329574 0.274250
O O15 0.543572 0.325349 0.767947
#
# Coordination Sequence:
#
# PCOD9037296 Si02
#       7
#     2   2   2   2   2   2   2
#     4  11  24  45  70 103 131 181 230 294 339 410
#     4   9  22  37  60  99 136 175 224 278 340 392
#     4  10  23  40  65 100 137 186 221 283 336 409
#     4  11  26  40  68  99 141 175 234 279 346 401
#     4   9  24  43  71  98 136 180 229 281 346 405
#     4  10  24  44  73  95 146 179 232 267 346 409
#     4  10  25  45  68 106 138 186 222 281 336 417
#
# _framework density 23.704059000000001
#
# number of rings (size 3 to 8) (size 9 to 14) (size 15 to 20)
#    0.857    1.143    0.000    0.857   16.000    2.857 
#    0.000    1.429    0.000    0.000    0.000    0.000 
#    0.000    0.000    0.000    0.000    0.000    0.000 
#
# Total GULP energy -77993.375925 kJ/mol
# GULP energy per Si atom -5570.955423 kJ/mol
# Density = 2.365011 g / cm^3
# Si number density = 23.704059 Si / 1000 Ang^3
#
#
#
# Elastic Constant Matrix: (Units=GPa)
#
#
# Indices 1 2 3 4 5 6 
#
# 1 -79.6579 -87.8224 74.6417 61.7273 -25.7315 93.7953
# 2 -87.8224 -17.3682 57.9454 38.2514 -17.2905 73.6955
# 3 74.6417 57.9454 134.8578 -46.6197 -14.0851 -18.3143
# 4 61.7273 38.2514 -46.6197 14.1393 4.5887 -55.4611
# 5 -25.7315 -17.2905 -14.0851 4.5887 41.9275 2.1202
# 6 93.7953 73.6955 -18.3143 -55.4611 2.1202 -26.2541
#
#
#
# Elastic Compliance Matrix: (Units=1/GPa)
#
#
# Indices 1 2 3 4 5 6 
#
# 1 0.013008 -0.007751 0.000266 0.006595 0.003604 0.010888
# 2 -0.007751 0.016917 0.000251 0.007091 0.001288 0.004743
# 3 0.000266 0.000251 0.007091 0.000927 0.002801 -0.005023
# 4 0.006595 0.007091 0.000927 0.020862 0.005043 -0.000843
# 5 0.003604 0.001288 0.002801 0.005043 0.026677 0.006037
# 6 0.010888 0.004743 -0.005023 -0.000843 0.006037 0.019897
#
#
# Mechanical properties :
#
#
# Convention : Reuss Voigt Hill
#
# Bulk Modulus (GPa) = 44.35080 14.15124 29.25102
# Shear Modulus (GPa) = 39.54590 5.50032 22.52311
#
# Velocity S-wave (km/s) = 4.08894 1.52494 3.08584
# Velocity P-wave (km/s) = 6.40651 3.01389 5.00634
#
# Compressibility (1/GPa) = 0.02254751
#
# Stress axis : x y z
#
# Youngs Moduli (GPa) = 76.87568 59.11360 141.02478
#
# Poissons Ratio (x) = 0.45819 -0.03748
# Poissons Ratio (y) = 0.59587 -0.03544
# Poissons Ratio (z) = -0.02043 -0.01486
#
# Static dielectric constant tensor:
#      x y z
#    x 1.888670 -0.052750 -0.067110 
#    y -0.052750 1.937020 -0.069840 
#    z -0.067110 -0.069840 1.971970 
# 
# From -- ./inp_files/70260.got.cif
#   From: 2010.05.17/outbox.cif.g08.bks.cpg/sg2_36_cif.got.tgz:70260.got - 2010.06.03 11:33:40.
