data_PCOD9037539
_publ_section_title
;
Structure prediction by ZEFSAII (Michael W. Deem and Ramdas Pophale) SiO2 
 PCOD9037539
Probable space group: P -1
;
_chemical_formula_sum "Si O2"
_cell_formula_units_Z 16
_cell_length_a 17.578978
_cell_length_b 15.041946
_cell_length_c 13.188080
_cell_angle_alpha 128.044446
_cell_angle_beta 149.203608
_cell_angle_gamma 30.266210
_cell_volume 786.034009
_symmetry_space_group_name_H-M "P -1"
_symmetry_group_IT_number 2
_symmetry_cell_setting 'triclinic'
loop_
_space_group_symop_operation_xyz
x,y,z
-x,-y,-z
loop_
_atom_site_type_symbol
_atom_site_label
_atom_site_fract_x
_atom_site_fract_y
_atom_site_fract_z
Si Si1 0.154692 0.725823 0.826192
Si Si2 0.283230 0.380221 0.757394
Si Si3 0.300854 0.032436 0.171795
Si Si4 0.698065 0.400543 0.747534
Si Si5 0.607914 0.058742 0.553162
Si Si6 0.559928 0.237109 0.174548
Si Si7 0.934870 0.179386 0.445219
Si Si8 0.519144 0.610486 0.327214
O O1 0.252840 0.533972 0.813832
O O2 0.118842 0.785436 0.711293
O O3 0.353045 0.679694 0.085425
O O4 0.867330 0.911250 0.679107
O O5 0.000000 0.500000 0.500000
O O6 0.501477 0.186996 0.798185
O O7 0.378511 0.296011 0.922207
O O8 0.422722 0.076272 0.311429
O O9 0.295733 0.035910 0.290534
O O10 0.998305 0.205159 0.914788
O O11 0.500000 0.500000 0.500000
O O12 0.622184 0.569386 0.827316
O O13 0.640604 0.347575 0.734118
O O14 0.465453 0.267448 0.550523
O O15 0.755168 0.196248 0.304289
O O16 0.760309 0.033748 0.325408
O O17 0.808600 0.373149 0.481203
#
# Coordination Sequence:
#
# PCOD9037539 Si02
#       8
#     2   2   2   2   2   2   2   2
#     4  12  22  42  65 104 129 174 232 284 333 392
#     4  12  24  43  70  94 134 178 229 275 331 404
#     4  11  25  42  67  98 134 180 217 277 341 399
#     4  11  25  42  70  98 135 180 224 275 343 399
#     4  11  24  41  65  98 136 169 222 281 339 396
#     4  10  24  44  64  99 133 170 227 274 335 412
#     4  10  23  40  68  95 132 169 217 286 340 382
#     4  11  23  41  65 103 133 172 232 284 326 406
#
# _framework density 20.355353999999998
#
# number of rings (size 3 to 8) (size 9 to 14) (size 15 to 20)
#    0.000    1.000    5.000    1.500   10.500    0.000 
#    0.000    1.250    0.000    0.000    0.000    0.000 
#    0.000    0.000    0.000    0.000    0.000    0.000 
#
# Total GULP energy -89506.243136 kJ/mol
# GULP energy per Si atom -5594.140196 kJ/mol
# Density = 2.030902 g / cm^3
# Si number density = 20.355354 Si / 1000 Ang^3
#
#
#
# Elastic Constant Matrix: (Units=GPa)
#
#
# Indices 1 2 3 4 5 6 
#
# 1 51.6193 36.3604 14.5533 -6.8622 -15.9500 -12.3036
# 2 36.3604 107.1807 33.0187 -3.9608 0.1935 3.8371
# 3 14.5533 33.0187 96.8991 -16.4858 -18.0773 -4.5571
# 4 -6.8622 -3.9608 -16.4858 34.4340 -1.1872 2.2277
# 5 -15.9500 0.1935 -18.0773 -1.1872 22.0112 -4.3566
# 6 -12.3036 3.8371 -4.5571 2.2277 -4.3566 35.0204
#
#
#
# Elastic Compliance Matrix: (Units=1/GPa)
#
#
# Indices 1 2 3 4 5 6 
#
# 1 0.071833 -0.031204 0.019562 0.020199 0.077307 0.039534
# 2 -0.031204 0.024434 -0.013358 -0.009858 -0.038188 -0.019502
# 3 0.019562 -0.013358 0.021447 0.012902 0.035518 0.014725
# 4 0.020199 -0.009858 0.012902 0.038412 0.029587 0.011093
# 5 0.077307 -0.038188 0.035518 0.029587 0.142814 0.051850
# 6 0.039534 -0.019502 0.014725 0.011093 0.051850 0.052242
#
#
# Mechanical properties :
#
#
# Convention : Reuss Voigt Hill
#
# Bulk Modulus (GPa) = 14.76786 47.06266 30.91526
# Shear Modulus (GPa) = 11.79935 29.74422 20.77178
#
# Velocity S-wave (km/s) = 2.41024 3.82677 3.19793
# Velocity P-wave (km/s) = 3.87511 6.53424 5.37181
#
# Compressibility (1/GPa) = 0.06771463
#
# Stress axis : x y z
#
# Youngs Moduli (GPa) = 13.92126 40.92712 46.62561
#
# Poissons Ratio (x) = 1.27708 -0.91210
# Poissons Ratio (y) = 0.43439 0.62283
# Poissons Ratio (z) = -0.27233 0.54671
#
# Static dielectric constant tensor:
#      x y z
#    x 1.726930 0.004070 -0.000650 
#    y 0.004070 1.732670 -0.002110 
#    z -0.000650 -0.002110 1.708160 
# 
# From -- ./inp_files/184383.got.cif
#   From: 2010.05.17/outbox.cif.g08.bks.cpg/sg2_93_cif.got.tgz:184383.got - 2010.06.03 11:33:40.
