data_PCOD9037352
_publ_section_title
;
Structure prediction by ZEFSAII (Michael W. Deem and Ramdas Pophale) SiO2 
 PCOD9037352
Probable space group: P -1
;
_chemical_formula_sum "Si O2"
_cell_formula_units_Z 16
_cell_length_a 9.186026
_cell_length_b 16.970366
_cell_length_c 12.269474
_cell_angle_alpha 123.500254
_cell_angle_beta 47.057218
_cell_angle_gamma 85.908430
_cell_volume 794.369079
_symmetry_space_group_name_H-M "P -1"
_symmetry_group_IT_number 2
_symmetry_cell_setting 'triclinic'
loop_
_space_group_symop_operation_xyz
x,y,z
-x,-y,-z
loop_
_atom_site_type_symbol
_atom_site_label
_atom_site_fract_x
_atom_site_fract_y
_atom_site_fract_z
Si Si1 0.897826 0.272563 0.064286
Si Si2 0.758410 0.804521 0.385688
Si Si3 0.873979 0.263134 0.466286
Si Si4 0.339583 0.370696 0.710731
Si Si5 0.267692 0.461868 0.578984
Si Si6 0.281152 0.649450 0.162072
Si Si7 0.870227 0.484887 0.651322
Si Si8 0.864736 0.940129 0.024000
O O1 0.554375 0.373471 0.289957
O O2 0.884851 0.383721 0.205460
O O3 0.006263 0.162307 0.016640
O O4 0.101941 0.199379 0.797501
O O5 0.612825 0.755635 0.389149
O O6 0.029087 0.697130 0.249095
O O7 0.484901 0.946423 0.694512
O O8 0.538013 0.364998 0.680504
O O9 0.880337 0.237989 0.572278
O O10 0.942422 0.350233 0.489643
O O11 0.046205 0.140680 0.197218
O O12 0.394451 0.382578 0.568623
O O13 0.000000 0.500000 0.000000
O O14 0.038865 0.465304 0.655938
O O15 0.500000 0.500000 0.000000
O O16 0.523815 0.619900 0.946244
O O17 0.000000 0.500000 0.500000
O O18 0.000000 0.000000 0.000000
#
# Coordination Sequence:
#
# PCOD9037352 Si02
#       8
#     2   2   2   2   2   2   2   2
#     4  11  24  41  68 102 134 166 228 283 329 388
#     4  12  24  42  67  97 135 178 222 272 329 401
#     4  11  23  42  62  94 135 167 223 265 323 402
#     4  12  20  37  67  98 124 169 216 275 333 381
#     4  11  22  38  69 100 133 167 217 278 344 389
#     4  10  23  40  65  98 132 168 215 270 337 395
#     4  11  22  37  63  97 134 165 206 272 346 385
#     4  12  25  45  67  94 131 185 229 270 324 396
#
# _framework density 20.141770000000001
#
# number of rings (size 3 to 8) (size 9 to 14) (size 15 to 20)
#    0.000    0.750    3.750    5.625    1.750    0.500 
#    0.000    0.000    0.000    4.500    0.000    0.000 
#    0.000    0.000    0.000    0.000    0.000    0.000 
#
# Total GULP energy -89280.511677 kJ/mol
# GULP energy per Si atom -5580.031980 kJ/mol
# Density = 2.009593 g / cm^3
# Si number density = 20.141770 Si / 1000 Ang^3
#
#
#
# Elastic Constant Matrix: (Units=GPa)
#
#
# Indices 1 2 3 4 5 6 
#
# 1 125.8161 28.3261 36.0523 -6.5078 -4.6975 13.2331
# 2 28.3261 88.0855 38.1911 -28.3612 5.2644 2.9088
# 3 36.0523 38.1911 166.9287 -21.9072 4.9063 5.9038
# 4 -6.5078 -28.3612 -21.9072 27.8553 -6.4469 0.3560
# 5 -4.6975 5.2644 4.9063 -6.4469 39.4355 -2.6063
# 6 13.2331 2.9088 5.9038 0.3560 -2.6063 30.7098
#
#
#
# Elastic Compliance Matrix: (Units=1/GPa)
#
#
# Indices 1 2 3 4 5 6 
#
# 1 0.009324 -0.002807 -0.001489 -0.001530 0.001199 -0.003346
# 2 -0.002807 0.018306 -0.001344 0.016962 0.000132 -0.000452
# 3 -0.001489 -0.001344 0.007158 0.003852 -0.000304 -0.000677
# 4 -0.001530 0.016962 0.003852 0.057329 0.006326 -0.001815
# 5 0.001199 0.000132 -0.000304 0.006326 0.026669 0.001719
# 6 -0.003346 -0.000452 -0.000677 -0.001815 0.001719 0.034345
#
#
# Mechanical properties :
#
#
# Convention : Reuss Voigt Hill
#
# Bulk Modulus (GPa) = 42.53697 65.10768 53.82233
# Shear Modulus (GPa) = 29.02798 38.15085 33.58941
#
# Velocity S-wave (km/s) = 3.80041 4.35687 4.08812
# Velocity P-wave (km/s) = 6.35784 7.59635 7.00452
#
# Compressibility (1/GPa) = 0.02350896
#
# Stress axis : x y z
#
# Youngs Moduli (GPa) = 107.24609 54.62610 139.70204
#
# Poissons Ratio (x) = 0.15331 0.20808
# Poissons Ratio (y) = 0.30099 0.18775
# Poissons Ratio (z) = 0.15974 0.07341
#
# Static dielectric constant tensor:
#      x y z
#    x 1.719350 0.001100 0.027570 
#    y 0.001100 1.767650 -0.011580 
#    z 0.027570 -0.011580 1.809700 
# 
# From -- ./inp_files/187630.got.cif
#   From: 2010.05.17/outbox.cif.g08.bks.cpg/sg2_94_cif.got.tgz:187630.got - 2010.06.03 11:33:40.
