data_PCOD9037588
_publ_section_title
;
Structure prediction by ZEFSAII (Michael W. Deem and Ramdas Pophale) SiO2 
 PCOD9037588
Probable space group: P -1
;
_chemical_formula_sum "Si O2"
_cell_formula_units_Z 16
_cell_length_a 5.461405
_cell_length_b 18.694532
_cell_length_c 9.737020
_cell_angle_alpha 86.215332
_cell_angle_beta 43.490975
_cell_angle_gamma 82.714684
_cell_volume 678.187613
_symmetry_space_group_name_H-M "P -1"
_symmetry_group_IT_number 2
_symmetry_cell_setting 'triclinic'
loop_
_space_group_symop_operation_xyz
x,y,z
-x,-y,-z
loop_
_atom_site_type_symbol
_atom_site_label
_atom_site_fract_x
_atom_site_fract_y
_atom_site_fract_z
Si Si1 0.961273 0.276344 0.551053
Si Si2 0.037051 0.207752 0.265730
Si Si3 0.743615 0.828538 0.343110
Si Si4 0.927636 0.564722 0.128867
Si Si5 0.730959 0.991553 0.237435
Si Si6 0.876180 0.432072 0.637328
Si Si7 0.892680 0.722696 0.061088
Si Si8 0.749560 0.950969 0.796814
O O1 0.100056 0.270245 0.339066
O O2 0.081194 0.350404 0.554311
O O3 0.538809 0.278489 0.756103
O O4 0.119352 0.200214 0.562108
O O5 0.670845 0.184172 0.480367
O O6 0.298643 0.133361 0.162993
O O7 0.000396 0.240277 0.125740
O O8 0.776877 0.908771 0.273038
O O9 0.959389 0.772730 0.156594
O O10 0.495474 0.576303 0.290751
O O11 0.058279 0.640093 0.017800
O O12 0.095705 0.549980 0.213665
O O13 0.000000 0.500000 0.000000
O O14 0.358486 0.021386 0.314216
O O15 0.858374 0.037633 0.306076
O O16 0.000000 0.000000 0.000000
O O17 0.000000 0.500000 0.500000
O O18 0.500000 0.000000 0.000000
#
# Coordination Sequence:
#
# PCOD9037588 Si02
#       8
#     2   2   2   2   2   2   2   2
#     4  10  25  44  67 103 138 181 235 286 352 417
#     4  11  26  42  71 100 133 187 235 291 353 418
#     4  11  24  44  68  99 138 178 235 295 345 425
#     4  11  24  44  70 108 139 185 237 281 345 423
#     4  10  23  40  69  92 131 179 227 278 352 409
#     4  11  24  46  73 101 147 186 227 291 350 407
#     4  10  23  45  68  96 142 183 229 289 353 412
#     4  10  23  43  64  98 130 177 232 278 353 413
#
# _framework density 23.592290999999999
#
# number of rings (size 3 to 8) (size 9 to 14) (size 15 to 20)
#    0.000    1.500    1.250    2.250   10.500    3.000 
#    0.000    0.000    0.000    0.000    0.000    0.000 
#    0.000    0.000    0.000    0.000    0.000    0.000 
#
# Total GULP energy -89328.095971 kJ/mol
# GULP energy per Si atom -5583.005998 kJ/mol
# Density = 2.353859 g / cm^3
# Si number density = 23.592291 Si / 1000 Ang^3
#
#
#
# Elastic Constant Matrix: (Units=GPa)
#
#
# Indices 1 2 3 4 5 6 
#
# 1 100.6978 6.4222 9.7026 -9.8565 23.0529 1.1542
# 2 6.4222 146.9502 49.1299 -16.1081 11.8292 3.9290
# 3 9.7026 49.1299 94.4131 -4.4311 24.6241 4.0359
# 4 -9.8565 -16.1081 -4.4311 38.9672 3.7167 12.4442
# 5 23.0529 11.8292 24.6241 3.7167 35.6953 -2.9638
# 6 1.1542 3.9290 4.0359 12.4442 -2.9638 35.9680
#
#
#
# Elastic Compliance Matrix: (Units=1/GPa)
#
#
# Indices 1 2 3 4 5 6 
#
# 1 0.012705 0.000469 0.001552 0.005666 -0.010307 -0.003443
# 2 0.000469 0.008707 -0.004056 0.003977 -0.000968 -0.001967
# 3 0.001552 -0.004056 0.015664 0.002552 -0.010991 -0.003153
# 4 0.005666 0.003977 0.002552 0.034531 -0.011479 -0.013795
# 5 -0.010307 -0.000968 -0.010991 -0.011479 0.044543 0.009312
# 6 -0.003443 -0.001967 -0.003153 -0.013795 0.009312 0.034022
#
#
# Mechanical properties :
#
#
# Convention : Reuss Voigt Hill
#
# Bulk Modulus (GPa) = 30.29838 52.50784 41.40311
# Shear Modulus (GPa) = 30.25836 40.57988 35.41912
#
# Velocity S-wave (km/s) = 3.58516 4.15185 3.87887
# Velocity P-wave (km/s) = 5.47797 6.72967 6.13582
#
# Compressibility (1/GPa) = 0.03300507
#
# Stress axis : x y z
#
# Youngs Moduli (GPa) = 78.70962 114.85041 63.84009
#
# Poissons Ratio (x) = -0.05385 -0.09905
# Poissons Ratio (y) = -0.03690 0.25893
# Poissons Ratio (z) = -0.12213 0.46583
#
# Static dielectric constant tensor:
#      x y z
#    x 1.659540 0.085890 0.333140 
#    y 0.085890 1.894490 -0.062600 
#    z 0.333140 -0.062600 1.547860 
# 
# From -- ./inp_files/138923.got.cif
#   From: 2010.05.17/outbox.cif.g08.bks.cpg/sg2_70_cif.got.tgz:138923.got - 2010.06.03 11:33:40.
