data_PCOD9037659
_publ_section_title
;
Structure prediction by ZEFSAII (Michael W. Deem and Ramdas Pophale) SiO2 
 PCOD9037659
Probable space group: P -1
;
_chemical_formula_sum "Si O2"
_cell_formula_units_Z 15
_cell_length_a 11.365133
_cell_length_b 11.620170
_cell_length_c 13.215363
_cell_angle_alpha 82.541523
_cell_angle_beta 131.330987
_cell_angle_gamma 58.161038
_cell_volume 736.900600
_symmetry_space_group_name_H-M "P -1"
_symmetry_group_IT_number 2
_symmetry_cell_setting 'triclinic'
loop_
_space_group_symop_operation_xyz
x,y,z
-x,-y,-z
loop_
_atom_site_type_symbol
_atom_site_label
_atom_site_fract_x
_atom_site_fract_y
_atom_site_fract_z
Si Si1 0.291835 0.383963 0.658194
Si Si2 0.465508 0.635362 0.529007
Si Si3 0.036985 0.083016 0.218494
Si Si4 0.547569 0.833873 0.031668
Si Si5 0.821209 0.597238 0.630022
Si Si6 0.776710 0.158439 0.267937
Si Si7 0.503217 0.492150 0.220745
Si Si8 0.500000 0.000000 0.500000
O O1 0.484799 0.207885 0.872291
O O2 0.347419 0.325681 0.578759
O O3 0.291919 0.521954 0.660984
O O4 0.000000 0.500000 0.500000
O O5 0.500000 0.500000 0.500000
O O6 0.720991 0.564355 0.658728
O O7 0.453114 0.608675 0.642147
O O8 0.187978 0.869135 0.309731
O O9 0.282833 0.025307 0.364226
O O10 0.903973 0.148636 0.246361
O O11 0.799392 0.266703 0.986001
O O12 0.857493 0.618950 0.190804
O O13 0.343185 0.890549 0.834144
O O14 0.500000 0.000000 0.000000
O O15 0.743189 0.770489 0.607642
O O16 0.549047 0.379735 0.164923
O O17 0.000000 0.000000 0.500000
#
# Coordination Sequence:
#
# PCOD9037659 Si02
#       8
#     2   2   2   2   2   2   2   1
#     4  10  23  40  71  99 134 187 226 291 362 401
#     4  11  24  44  67  97 142 181 227 286 342 426
#     4  11  25  45  69  99 135 182 234 286 351 413
#     4  11  26  45  71 108 139 177 239 297 353 426
#     4  10  23  46  68  98 141 185 231 286 353 412
#     4  12  26  43  73 103 138 185 232 300 356 406
#     4  12  24  45  73 101 140 181 239 290 351 422
#     4  10  24  46  68  94 142 186 230 284 340 424
#
# _framework density 20.355526000000001
#
# number of rings (size 3 to 8) (size 9 to 14) (size 15 to 20)
#    0.000    1.067    4.000    1.200    9.333    0.533 
#    7.200    2.000    0.000    0.000    0.000    0.000 
#    0.000    0.000    0.000    0.000    0.000    0.000 
#
# Total GULP energy -83522.814968 kJ/mol
# GULP energy per Si atom -5568.187665 kJ/mol
# Density = 2.030920 g / cm^3
# Si number density = 20.355526 Si / 1000 Ang^3
#
#
#
# Elastic Constant Matrix: (Units=GPa)
#
#
# Indices 1 2 3 4 5 6 
#
# 1 80.6046 23.8630 20.9536 6.4553 9.0602 9.8705
# 2 23.8630 156.7088 40.1823 -9.3348 2.9938 21.8341
# 3 20.9536 40.1823 95.9063 -4.3308 6.6795 13.6278
# 4 6.4553 -9.3348 -4.3308 36.2934 0.9202 6.1897
# 5 9.0602 2.9938 6.6795 0.9202 26.4532 -2.9692
# 6 9.8705 21.8341 13.6278 6.1897 -2.9692 32.7975
#
#
#
# Elastic Compliance Matrix: (Units=1/GPa)
#
#
# Indices 1 2 3 4 5 6 
#
# 1 0.014352 -0.001399 -0.002009 -0.002620 -0.004435 -0.002460
# 2 -0.001399 0.007975 -0.002231 0.002819 -0.000467 -0.004535
# 3 -0.002009 -0.002231 0.012619 0.002003 -0.002739 -0.003779
# 4 -0.002620 0.002819 0.002003 0.030364 -0.001861 -0.007820
# 5 -0.004435 -0.000467 -0.002739 -0.001861 0.040898 0.006838
# 6 -0.002460 -0.004535 -0.003779 -0.007820 0.006838 0.037915
#
#
# Mechanical properties :
#
#
# Convention : Reuss Voigt Hill
#
# Bulk Modulus (GPa) = 42.25297 55.91305 49.08301
# Shear Modulus (GPa) = 30.61984 35.65688 33.13836
#
# Velocity S-wave (km/s) = 3.88268 4.18988 4.03920
# Velocity P-wave (km/s) = 6.39553 7.13685 6.77634
#
# Compressibility (1/GPa) = 0.02366697
#
# Stress axis : x y z
#
# Youngs Moduli (GPa) = 69.67502 125.38817 79.24515
#
# Poissons Ratio (x) = 0.17540 0.15924
# Poissons Ratio (y) = 0.09747 0.17683
# Poissons Ratio (z) = 0.14001 0.27980
#
# Static dielectric constant tensor:
#      x y z
#    x 1.711390 -0.042130 -0.006400 
#    y -0.042130 1.699300 -0.030670 
#    z -0.006400 -0.030670 1.756160 
# 
# From -- ./inp_files/426038.got.cif
#   From: 2010.05.17/outbox.cif.g08.bks.cpg/sg2_214_cif.got.tgz:426038.got - 2010.06.03 11:33:40.
