data_PCOD9037044
_publ_section_title
;
Structure prediction by ZEFSAII (Michael W. Deem and Ramdas Pophale) SiO2 
 PCOD9037044
Probable space group: P -1
;
_chemical_formula_sum "Si O2"
_cell_formula_units_Z 12
_cell_length_a 11.808727
_cell_length_b 10.225922
_cell_length_c 9.477386
_cell_angle_alpha 106.290123
_cell_angle_beta 128.808661
_cell_angle_gamma 37.887592
_cell_volume 489.787025
_symmetry_space_group_name_H-M "P -1"
_symmetry_group_IT_number 2
_symmetry_cell_setting 'triclinic'
loop_
_space_group_symop_operation_xyz
x,y,z
-x,-y,-z
loop_
_atom_site_type_symbol
_atom_site_label
_atom_site_fract_x
_atom_site_fract_y
_atom_site_fract_z
Si Si1 0.656762 0.795111 0.754513
Si Si2 0.661862 0.507491 0.595977
Si Si3 0.099259 0.321731 0.396670
Si Si4 0.700507 0.210909 0.839501
Si Si5 0.398317 0.452881 0.008122
Si Si6 0.235705 0.037470 0.921813
O O1 0.689763 0.610959 0.756313
O O2 0.823044 0.691805 0.708074
O O3 0.361760 0.056405 0.575759
O O4 0.729334 0.838174 0.954040
O O5 0.500000 0.500000 0.500000
O O6 0.493559 0.703083 0.397647
O O7 0.949635 0.242370 0.706150
O O8 0.000000 0.500000 0.500000
O O9 0.868727 0.393054 0.215323
O O10 0.626724 0.426914 0.845568
O O11 0.692179 0.112982 0.933290
O O12 0.000000 0.000000 0.000000
O O13 0.500000 0.500000 0.000000
O O14 0.567630 0.190307 0.095143
#
# Coordination Sequence:
#
# PCOD9037044 Si02
#       6
#     2   2   2   2   2   2
#     4  11  24  43  71 101 144 185 236 292 348 420
#     4  12  26  42  70 102 139 190 235 288 353 418
#     4  11  22  43  73 108 137 186 239 286 353 420
#     4  11  21  42  69  98 136 181 232 282 347 411
#     4  10  23  39  70 105 142 178 234 294 346 419
#     4  11  23  45  67 102 138 182 232 288 352 410
#
# _framework density 24.500444000000002
#
# number of rings (size 3 to 8) (size 9 to 14) (size 15 to 20)
#    0.000    1.000    3.333    4.500    4.667    0.667 
#    0.000    2.500    0.000    0.000    0.000    0.000 
#    0.000    0.000    0.000    0.000    0.000    0.000 
#
# Total GULP energy -66848.984125 kJ/mol
# GULP energy per Si atom -5570.748677 kJ/mol
# Density = 2.444468 g / cm^3
# Si number density = 24.500444 Si / 1000 Ang^3
#
#
#
# Elastic Constant Matrix: (Units=GPa)
#
#
# Indices 1 2 3 4 5 6 
#
# 1 81.1125 31.3242 21.2560 -2.2412 24.4217 3.3316
# 2 31.3242 169.9095 52.2028 8.2999 18.4229 -2.5501
# 3 21.2560 52.2028 158.7606 -13.8623 34.6085 -11.6069
# 4 -2.2412 8.2999 -13.8623 52.3130 7.2201 9.6249
# 5 24.4217 18.4229 34.6085 7.2201 44.9694 2.1085
# 6 3.3316 -2.5501 -11.6069 9.6249 2.1085 31.8339
#
#
#
# Elastic Compliance Matrix: (Units=1/GPa)
#
#
# Indices 1 2 3 4 5 6 
#
# 1 0.015758 -0.002335 0.000588 0.002707 -0.008400 -0.001884
# 2 -0.002335 0.007062 -0.002221 -0.001965 0.000373 0.000570
# 3 0.000588 -0.002221 0.008922 0.003237 -0.006913 0.002493
# 4 0.002707 -0.001965 0.003237 0.022322 -0.006479 -0.005580
# 5 -0.008400 0.000373 -0.006913 -0.006479 0.033093 -0.001844
# 6 -0.001884 0.000570 0.002493 -0.005580 -0.001844 0.034374
#
#
# Mechanical properties :
#
#
# Convention : Reuss Voigt Hill
#
# Bulk Modulus (GPa) = 42.00731 68.81652 55.41191
# Shear Modulus (GPa) = 36.38928 46.15656 41.27292
#
# Velocity S-wave (km/s) = 3.85807 4.34511 4.10881
# Velocity P-wave (km/s) = 6.08515 7.30220 6.72128
#
# Compressibility (1/GPa) = 0.02380538
#
# Stress axis : x y z
#
# Youngs Moduli (GPa) = 63.46162 141.59317 112.08131
#
# Poissons Ratio (x) = 0.33068 -0.06589
# Poissons Ratio (y) = 0.14821 0.24891
# Poissons Ratio (z) = -0.03731 0.31445
#
# Static dielectric constant tensor:
#      x y z
#    x 0.984170 0.554680 0.626010 
#    y 0.554680 1.741870 -0.452620 
#    z 0.626010 -0.452620 1.400980 
# 
# From -- ./inp_files/449318.got.cif
#   From: 2010.05.17/outbox.cif.g08.bks.cpg/sg2_225_cif.got.tgz:449318.got - 2010.06.03 11:33:40.
