data_PCOD9037201
_publ_section_title
;
Structure prediction by ZEFSAII (Michael W. Deem and Ramdas Pophale) SiO2 
 PCOD9037201
Probable space group: P -1
;
_chemical_formula_sum "Si O2"
_cell_formula_units_Z 14
_cell_length_a 15.285597
_cell_length_b 6.603102
_cell_length_c 15.181568
_cell_angle_alpha 70.244937
_cell_angle_beta 29.360782
_cell_angle_gamma 82.598564
_cell_volume 659.889926
_symmetry_space_group_name_H-M "P -1"
_symmetry_group_IT_number 2
_symmetry_cell_setting 'triclinic'
loop_
_space_group_symop_operation_xyz
x,y,z
-x,-y,-z
loop_
_atom_site_type_symbol
_atom_site_label
_atom_site_fract_x
_atom_site_fract_y
_atom_site_fract_z
Si Si1 0.113373 0.325774 0.435245
Si Si2 0.397884 0.132023 0.450185
Si Si3 0.723957 0.948167 0.226690
Si Si4 0.567447 0.413996 0.741285
Si Si5 0.906727 0.619647 0.133707
Si Si6 0.824767 0.264210 0.411386
Si Si7 0.162250 0.193422 0.215562
O O1 0.289100 0.441618 0.329709
O O2 0.186066 0.276946 0.283448
O O3 0.000000 0.500000 0.500000
O O4 0.963552 0.078648 0.634631
O O5 0.326475 0.090905 0.619381
O O6 0.461204 0.395399 0.327031
O O7 0.562958 0.023310 0.313018
O O8 0.233703 0.977678 0.552142
O O9 0.757209 0.715996 0.204261
O O10 0.922730 0.159936 0.010666
O O11 0.676515 0.270390 0.615587
O O12 0.365232 0.257217 0.981347
O O13 0.821405 0.446549 0.313271
O O14 0.000000 0.500000 0.000000
O O15 0.032520 0.317291 0.262777
#
# Coordination Sequence:
#
# PCOD9037201 Si02
#       7
#     2   2   2   2   2   2   2
#     4  11  24  48  75 101 137 173 224 283 338 423
#     4  11  23  42  64  95 135 177 234 283 331 408
#     4  10  23  40  63  92 131 183 230 283 341 386
#     4  12  25  46  70 102 142 180 222 284 348 402
#     4  11  22  40  65  93 134 182 231 284 336 397
#     4  12  24  43  66 102 137 178 236 279 336 415
#     4  11  26  45  72 103 136 178 223 277 348 413
#
# _framework density 21.215658999999999
#
# number of rings (size 3 to 8) (size 9 to 14) (size 15 to 20)
#    0.000    0.857    5.714    1.286    0.000    4.571 
#    2.571    0.000    0.000    0.000    0.000    0.000 
#    0.000    0.000    0.000    0.000    0.000    0.000 
#
# Total GULP energy -78305.089683 kJ/mol
# GULP energy per Si atom -5593.220692 kJ/mol
# Density = 2.116737 g / cm^3
# Si number density = 21.215659 Si / 1000 Ang^3
#
#
#
# Elastic Constant Matrix: (Units=GPa)
#
#
# Indices 1 2 3 4 5 6 
#
# 1 65.4887 6.0420 8.1336 8.8522 -8.7721 2.6011
# 2 6.0420 69.0967 5.4094 17.3664 0.4985 -8.9326
# 3 8.1336 5.4094 101.0831 13.6969 -1.8771 3.7564
# 4 8.8522 17.3664 13.6969 36.1877 -7.2403 -1.3384
# 5 -8.7721 0.4985 -1.8771 -7.2403 19.1147 5.7268
# 6 2.6011 -8.9326 3.7564 -1.3384 5.7268 33.6870
#
#
#
# Elastic Compliance Matrix: (Units=1/GPa)
#
#
# Indices 1 2 3 4 5 6 
#
# 1 0.016919 -0.001452 -0.000799 -0.001650 0.008006 -0.003029
# 2 -0.001452 0.017658 0.000099 -0.009203 -0.006245 0.005479
# 3 -0.000799 0.000099 0.010525 -0.003978 -0.000495 -0.001159
# 4 -0.001650 -0.009203 -0.003978 0.036616 0.013788 -0.002759
# 5 0.008006 -0.006245 -0.000495 0.013788 0.065146 -0.012746
# 6 -0.003029 0.005479 -0.001159 -0.002759 -0.012746 0.033558
#
#
# Mechanical properties :
#
#
# Convention : Reuss Voigt Hill
#
# Bulk Modulus (GPa) = 24.51019 30.53760 27.52390
# Shear Modulus (GPa) = 25.21133 32.20344 28.70738
#
# Velocity S-wave (km/s) = 3.45096 3.90026 3.68247
# Velocity P-wave (km/s) = 5.23993 5.89134 5.57515
#
# Compressibility (1/GPa) = 0.04079936
#
# Stress axis : x y z
#
# Youngs Moduli (GPa) = 59.10628 56.63117 95.01454
#
# Poissons Ratio (x) = 0.08220 0.07591
# Poissons Ratio (y) = 0.08579 -0.00944
# Poissons Ratio (z) = 0.04722 -0.00563
#
# Static dielectric constant tensor:
#      x y z
#    x 1.780530 -0.007680 -0.022620 
#    y -0.007680 1.794610 -0.001110 
#    z -0.022620 -0.001110 1.735480 
# 
# From -- ./inp_files/43015.got.cif
#   From: 2010.05.17/outbox.cif.g08.bks.cpg/sg2_22_cif.got.tgz:43015.got - 2010.06.03 11:33:40.
