data_PCOD9037808
_publ_section_title
;
Structure prediction by ZEFSAII (Michael W. Deem and Ramdas Pophale) SiO2 
 PCOD9037808
Probable space group: P -1
;
_chemical_formula_sum "Si O2"
_cell_formula_units_Z 16
_cell_length_a 5.074926
_cell_length_b 17.897161
_cell_length_c 21.048076
_cell_angle_alpha 161.478928
_cell_angle_beta 94.487411
_cell_angle_gamma 87.010565
_cell_volume 603.938128
_symmetry_space_group_name_H-M "P -1"
_symmetry_group_IT_number 2
_symmetry_cell_setting 'triclinic'
loop_
_space_group_symop_operation_xyz
x,y,z
-x,-y,-z
loop_
_atom_site_type_symbol
_atom_site_label
_atom_site_fract_x
_atom_site_fract_y
_atom_site_fract_z
Si Si1 0.715330 0.850855 0.797419
Si Si2 0.010002 0.248250 0.032874
Si Si3 0.360591 0.791915 0.222704
Si Si4 0.097441 0.244085 0.579417
Si Si5 0.730881 0.621565 0.491834
Si Si6 0.358547 0.214592 0.118558
Si Si7 0.872913 0.656376 0.195175
Si Si8 0.774894 0.118800 0.351592
O O1 0.718236 0.628696 0.573110
O O2 0.798797 0.802525 0.831973
O O3 0.869462 0.046439 0.912767
O O4 0.432268 0.959197 0.890403
O O5 0.845096 0.475551 0.203434
O O6 0.241896 0.342508 0.160221
O O7 0.143524 0.128857 0.878147
O O8 0.648593 0.769912 0.239945
O O9 0.148698 0.692061 0.191555
O O10 0.315421 0.059387 0.421225
O O11 0.265457 0.611972 0.019312
O O12 0.066395 0.234043 0.646679
O O13 0.863844 0.146046 0.448434
O O14 0.627238 0.367134 0.261901
O O15 0.017289 0.698918 0.533626
O O16 0.517952 0.806367 0.611362
#
# Coordination Sequence:
#
# PCOD9037808 Si02
#       8
#     2   2   2   2   2   2   2   2
#     4  10  23  41  63  92 130 171 227 280 335 388
#     4  11  23  43  61  95 135 172 220 277 333 391
#     4  10  23  45  69 103 132 170 215 267 316 384
#     4  12  23  42  68  99 133 177 219 260 331 387
#     4  11  23  44  62  94 126 172 223 279 325 393
#     4  11  21  40  67  91 122 179 225 279 334 393
#     4  10  23  45  70  99 136 168 217 263 319 384
#     4  11  25  42  63  93 137 169 216 272 330 387
#
# _framework density 26.49278
#
# number of rings (size 3 to 8) (size 9 to 14) (size 15 to 20)
#    0.000    1.250    2.500    3.000    0.000    2.000 
#    4.500    5.625    0.000    0.000    0.000    0.000 
#    0.000    0.000    0.000    0.000    0.000    0.000 
#
# Total GULP energy -89488.631597 kJ/mol
# GULP energy per Si atom -5593.039475 kJ/mol
# Density = 2.643248 g / cm^3
# Si number density = 26.492780 Si / 1000 Ang^3
#
#
#
# Elastic Constant Matrix: (Units=GPa)
#
#
# Indices 1 2 3 4 5 6 
#
# 1 82.1686 35.3374 10.6655 -9.3336 -7.6149 1.2954
# 2 35.3374 112.7484 51.3827 -26.1506 -8.0509 -4.3015
# 3 10.6655 51.3827 126.3545 -12.1242 -17.4859 -6.6639
# 4 -9.3336 -26.1506 -12.1242 66.4812 -9.0063 -2.6818
# 5 -7.6149 -8.0509 -17.4859 -9.0063 28.9775 11.0606
# 6 1.2954 -4.3015 -6.6639 -2.6818 11.0606 26.2505
#
#
#
# Elastic Compliance Matrix: (Units=1/GPa)
#
#
# Indices 1 2 3 4 5 6 
#
# 1 0.014636 -0.004724 0.001275 0.000952 0.004778 -0.003089
# 2 -0.004724 0.013411 -0.004550 0.003893 0.000370 0.001518
# 3 0.001275 -0.004550 0.010564 0.001106 0.005996 -0.000540
# 4 0.000952 0.003893 0.001106 0.017942 0.007797 -0.000581
# 5 0.004778 0.000370 0.005996 0.007797 0.048966 -0.018488
# 6 -0.003089 0.001518 -0.000540 -0.000581 -0.018488 0.046089
#
#
# Mechanical properties :
#
#
# Convention : Reuss Voigt Hill
#
# Bulk Modulus (GPa) = 44.22197 57.33806 50.78001
# Shear Modulus (GPa) = 28.54793 39.26756 33.90775
#
# Velocity S-wave (km/s) = 3.28620 3.85411 3.58143
# Velocity P-wave (km/s) = 5.57917 6.44170 6.02589
#
# Compressibility (1/GPa) = 0.02261319
#
# Stress axis : x y z
#
# Youngs Moduli (GPa) = 68.32527 74.56621 94.65827
#
# Poissons Ratio (x) = 0.35227 -0.12073
# Poissons Ratio (y) = 0.32279 0.43070
# Poissons Ratio (z) = -0.08714 0.33928
#
# Static dielectric constant tensor:
#      x y z
#    x 2.078240 -0.028580 0.043020 
#    y -0.028580 2.083530 0.006970 
#    z 0.043020 0.006970 2.186810 
# 
# From -- ./inp_files/584091.got.cif
#   From: 2010.05.17/outbox.cif.g08.bks.cpg/sg2_293_cif.got.tgz:584091.got - 2010.06.03 11:33:40.
