data_PCOD9037769
_publ_section_title
;
Structure prediction by ZEFSAII (Michael W. Deem and Ramdas Pophale) SiO2 
 PCOD9037769
Probable space group: P -1
;
_chemical_formula_sum "Si O2"
_cell_formula_units_Z 16
_cell_length_a 20.798447
_cell_length_b 17.330516
_cell_length_c 7.883470
_cell_angle_alpha 43.578371
_cell_angle_beta 64.236029
_cell_angle_gamma 30.769231
_cell_volume 848.204529
_symmetry_space_group_name_H-M "P -1"
_symmetry_group_IT_number 2
_symmetry_cell_setting 'triclinic'
loop_
_space_group_symop_operation_xyz
x,y,z
-x,-y,-z
loop_
_atom_site_type_symbol
_atom_site_label
_atom_site_fract_x
_atom_site_fract_y
_atom_site_fract_z
Si Si1 0.674393 0.339648 0.205737
Si Si2 0.109298 0.748416 0.344864
Si Si3 0.940335 0.425327 0.820662
Si Si4 0.170242 0.850649 0.315782
Si Si5 0.892666 0.865660 0.561747
Si Si6 0.395766 0.695314 0.162221
Si Si7 0.838979 0.814898 0.354325
Si Si8 0.178339 0.628195 0.096064
O O1 0.757021 0.214649 0.489910
O O2 0.502268 0.557466 0.097879
O O3 0.749803 0.139881 0.325660
O O4 0.717432 0.408019 0.998169
O O5 0.206221 0.676739 0.489316
O O6 0.194296 0.583218 0.349678
O O7 0.014616 0.784045 0.483145
O O8 0.000000 0.000000 0.000000
O O9 0.858173 0.656476 0.564363
O O10 0.826241 0.478660 0.838730
O O11 0.044657 0.289655 0.747630
O O12 0.043814 0.268427 0.118927
O O13 0.247101 0.822791 0.129180
O O14 0.995026 0.096728 0.160332
O O15 0.867093 0.813767 0.519637
O O16 0.500000 0.500000 0.500000
O O17 0.324209 0.913870 0.936012
#
# Coordination Sequence:
#
# PCOD9037769 Si02
#       8
#     2   2   2   2   2   2   2   2
#     4  11  21  31  57  87 114 147 185 236 295 348
#     4  10  18  29  54  84 119 142 182 251 285 331
#     4  11  22  37  62  83 115 160 195 240 285 342
#     4  10  17  33  52  81 118 143 186 237 290 337
#     4  12  20  36  59  92 119 145 197 241 295 341
#     4  10  21  38  57  85 119 153 188 237 296 346
#     4  11  23  40  56  85 121 154 196 239 287 344
#     4  11  18  34  54  87 110 148 192 239 287 333
#
# _framework density 18.863375999999999
#
# number of rings (size 3 to 8) (size 9 to 14) (size 15 to 20)
#    0.000    1.250    6.250    3.000    0.000    0.500 
#    0.000    0.625    0.000    0.000    0.000    2.625 
#    0.000    0.000    0.000    0.000    0.000    0.000 
#
# Total GULP energy -89101.112912 kJ/mol
# GULP energy per Si atom -5568.819557 kJ/mol
# Density = 1.882044 g / cm^3
# Si number density = 18.863376 Si / 1000 Ang^3
#
#
#
# Elastic Constant Matrix: (Units=GPa)
#
#
# Indices 1 2 3 4 5 6 
#
# 1 82.1966 38.0815 29.8481 -3.5180 -9.1177 24.0393
# 2 38.0815 112.7899 32.6213 2.4790 -15.3153 4.0420
# 3 29.8481 32.6213 79.8847 -3.9465 -13.4472 9.7041
# 4 -3.5180 2.4790 -3.9465 23.8104 7.0292 -2.6772
# 5 -9.1177 -15.3153 -13.4472 7.0292 29.1783 4.3740
# 6 24.0393 4.0420 9.7041 -2.6772 4.3740 36.8515
#
#
#
# Elastic Compliance Matrix: (Units=1/GPa)
#
#
# Indices 1 2 3 4 5 6 
#
# 1 0.019363 -0.004676 -0.003256 0.000387 0.003753 -0.011678
# 2 -0.004676 0.011802 -0.002781 -0.003361 0.003997 0.001770
# 3 -0.003256 -0.002781 0.016049 0.000697 0.005105 -0.002353
# 4 0.000387 -0.003361 0.000697 0.047030 -0.013392 0.004939
# 5 0.003753 0.003997 0.005105 -0.013392 0.044697 -0.010509
# 6 -0.011678 0.001770 -0.002353 0.004939 -0.010509 0.036785
#
#
# Mechanical properties :
#
#
# Convention : Reuss Voigt Hill
#
# Bulk Modulus (GPa) = 38.77534 52.88589 45.83062
# Shear Modulus (GPa) = 24.30152 29.58939 26.94546
#
# Velocity S-wave (km/s) = 3.59317 3.96487 3.78359
# Velocity P-wave (km/s) = 6.14939 7.00410 6.59062
#
# Compressibility (1/GPa) = 0.02578958
#
# Stress axis : x y z
#
# Youngs Moduli (GPa) = 51.64490 84.72944 62.30753
#
# Poissons Ratio (x) = 0.39623 0.20285
# Poissons Ratio (y) = 0.24151 0.17325
# Poissons Ratio (z) = 0.16814 0.23559
#
# Static dielectric constant tensor:
#      x y z
#    x 1.746070 0.017550 0.028870 
#    y 0.017550 1.697360 0.030940 
#    z 0.028870 0.030940 1.712690 
# 
# From -- ./inp_files/277361.got.cif
#   From: 2010.05.17/outbox.cif.g08.bks.cpg/sg2_139_cif.got.tgz:277361.got - 2010.06.03 11:33:40.
