data_PCOD9037198
_publ_section_title
;
Structure prediction by ZEFSAII (Michael W. Deem and Ramdas Pophale) SiO2 
 PCOD9037198
Probable space group: P -1
;
_chemical_formula_sum "Si O2"
_cell_formula_units_Z 12
_cell_length_a 9.244021
_cell_length_b 7.197835
_cell_length_c 12.408599
_cell_angle_alpha 132.919495
_cell_angle_beta 77.035745
_cell_angle_gamma 129.773987
_cell_volume 430.698711
_symmetry_space_group_name_H-M "P -1"
_symmetry_group_IT_number 2
_symmetry_cell_setting 'triclinic'
loop_
_space_group_symop_operation_xyz
x,y,z
-x,-y,-z
loop_
_atom_site_type_symbol
_atom_site_label
_atom_site_fract_x
_atom_site_fract_y
_atom_site_fract_z
Si Si1 0.305126 0.524321 0.346466
Si Si2 0.625019 0.006933 0.123186
Si Si3 0.047678 0.353183 0.126064
Si Si4 0.087307 0.133435 0.419386
Si Si5 0.347741 0.269811 0.767883
Si Si6 0.294699 0.981581 0.207534
O O1 0.534004 0.755213 0.354713
O O2 0.185677 0.540731 0.283864
O O3 0.235175 0.141364 0.202251
O O4 0.232974 0.500530 0.471331
O O5 0.648941 0.885249 0.182943
O O6 0.521139 0.154848 0.220139
O O7 0.845709 0.281964 0.143548
O O8 0.480715 0.672005 0.937785
O O9 0.167531 0.578228 0.088194
O O10 0.000000 0.000000 0.000000
O O11 0.878148 0.918343 0.301764
O O12 0.236721 0.064373 0.357748
O O13 0.000000 0.000000 0.500000
#
# Coordination Sequence:
#
# PCOD9037198 Si02
#       6
#     2   2   2   2   2   2
#     4  10  23  40  63  92 127 168 209 259 314 372
#     4  11  21  36  65 100 129 157 208 258 323 388
#     4  12  21  40  63  96 138 164 197 258 325 389
#     4  10  25  46  62  87 129 172 220 265 306 367
#     4  11  21  39  66  93 129 169 201 262 324 375
#     4  10  25  38  64  96 127 167 217 254 314 386
#
# _framework density 27.861704
#
# number of rings (size 3 to 8) (size 9 to 14) (size 15 to 20)
#    1.000    0.333    5.000    1.000    2.333    4.000 
#    0.000    1.667    0.000    0.000    0.000    0.000 
#    0.000    0.000    0.000    0.000    0.000    0.000 
#
# Total GULP energy -67051.160498 kJ/mol
# GULP energy per Si atom -5587.596708 kJ/mol
# Density = 2.779829 g / cm^3
# Si number density = 27.861704 Si / 1000 Ang^3
#
#
#
# Elastic Constant Matrix: (Units=GPa)
#
#
# Indices 1 2 3 4 5 6 
#
# 1 183.3173 44.5713 41.6644 -24.1279 4.1850 26.7172
# 2 44.5713 143.7592 29.5389 -33.9803 10.7404 7.6263
# 3 41.6644 29.5389 106.1818 -27.1530 7.8600 15.0568
# 4 -24.1279 -33.9803 -27.1530 55.2041 4.5161 -7.2472
# 5 4.1850 10.7404 7.8600 4.5161 42.6596 -30.1392
# 6 26.7172 7.6263 15.0568 -7.2472 -30.1392 65.1631
#
#
#
# Elastic Compliance Matrix: (Units=1/GPa)
#
#
# Indices 1 2 3 4 5 6 
#
# 1 0.006771 -0.001113 -0.001295 0.001408 -0.002736 -0.003456
# 2 -0.001113 0.008905 -0.000235 0.004964 -0.003863 -0.001766
# 3 -0.001295 -0.000235 0.012386 0.005278 -0.005745 -0.004374
# 4 0.001408 0.004964 0.005278 0.024575 -0.006997 -0.002881
# 5 -0.002736 -0.003863 -0.005745 -0.006997 0.041563 0.021347
# 6 -0.003456 -0.001766 -0.004374 -0.002881 0.021347 0.027533
#
#
# Mechanical properties :
#
#
# Convention : Reuss Voigt Hill
#
# Bulk Modulus (GPa) = 43.90330 73.86749 58.88539
# Shear Modulus (GPa) = 37.14387 53.77094 45.45741
#
# Velocity S-wave (km/s) = 3.65520 4.39785 4.04361
# Velocity P-wave (km/s) = 5.79704 7.23588 6.55605
#
# Compressibility (1/GPa) = 0.02277733
#
# Stress axis : x y z
#
# Youngs Moduli (GPa) = 147.68250 112.29781 80.73433
#
# Poissons Ratio (x) = 0.12497 0.10454
# Poissons Ratio (y) = 0.16435 0.01897
# Poissons Ratio (z) = 0.19122 0.02638
#
# Static dielectric constant tensor:
#      x y z
#    x 2.060100 -0.045040 -0.098380 
#    y -0.045040 2.271440 0.086590 
#    z -0.098380 0.086590 2.343410 
# 
# From -- ./inp_files/380312.got.cif
#   From: 2010.05.17/outbox.cif.g08.bks.cpg/sg2_191_cif.got.tgz:380312.got - 2010.06.03 11:33:40.
