data_PCOD9037134
_publ_section_title
;
Structure prediction by ZEFSAII (Michael W. Deem and Ramdas Pophale) SiO2 
 PCOD9037134
Probable space group: P -1
;
_chemical_formula_sum "Si O2"
_cell_formula_units_Z 16
_cell_length_a 9.249503
_cell_length_b 12.639714
_cell_length_c 11.708942
_cell_angle_alpha 49.665658
_cell_angle_beta 140.081954
_cell_angle_gamma 129.485730
_cell_volume 641.802065
_symmetry_space_group_name_H-M "P -1"
_symmetry_group_IT_number 2
_symmetry_cell_setting 'triclinic'
loop_
_space_group_symop_operation_xyz
x,y,z
-x,-y,-z
loop_
_atom_site_type_symbol
_atom_site_label
_atom_site_fract_x
_atom_site_fract_y
_atom_site_fract_z
Si Si1 0.683303 0.808517 0.908626
Si Si2 0.031685 0.174403 0.302920
Si Si3 0.338415 0.600404 0.669179
Si Si4 0.611455 0.984153 0.349835
Si Si5 0.056687 0.658439 0.260263
Si Si6 0.970724 0.542564 0.821148
Si Si7 0.628552 0.156018 0.911717
Si Si8 0.484795 0.649642 0.113380
O O1 0.528199 0.693316 0.806139
O O2 0.551856 0.935367 0.738687
O O3 0.943299 0.786997 0.066390
O O4 0.659243 0.765641 0.058358
O O5 0.821870 0.086573 0.324008
O O6 0.142866 0.325502 0.330160
O O7 0.891288 0.192954 0.092318
O O8 0.226304 0.100133 0.431549
O O9 0.144867 0.481319 0.709265
O O10 0.450918 0.498023 0.733251
O O11 0.231729 0.691664 0.451608
O O12 0.437857 0.870854 0.240122
O O13 0.125892 0.580971 0.243662
O O14 0.248233 0.616546 0.916970
O O15 0.000000 0.500000 0.000000
O O16 0.529024 0.275313 0.828449
O O17 0.500000 0.000000 0.000000
#
# Coordination Sequence:
#
# PCOD9037134 Si02
#       8
#     2   2   2   2   2   2   2   2
#     4  11  17  33  52  77 117 132 168 228 280 322
#     4   9  19  32  48  79 106 136 180 215 269 318
#     4  10  19  31  54  78 111 135 172 235 269 324
#     4  10  18  30  54  79 109 139 166 230 275 320
#     4  10  20  32  50  82 100 144 179 213 279 315
#     4  11  20  36  56  75 115 153 179 217 261 323
#     4   9  16  29  45  74 108 137 164 214 274 327
#     4  10  17  33  51  77 115 139 174 224 276 317
#
# _framework density 24.929805999999999
#
# number of rings (size 3 to 8) (size 9 to 14) (size 15 to 20)
#    0.000    2.000    6.250    0.750    1.750    1.000 
#    6.750    0.625    0.000    0.750    0.000    4.375 
#    0.000    0.000    0.000    0.000    0.000    0.000 
#
# Total GULP energy -89212.375743 kJ/mol
# GULP energy per Si atom -5575.773484 kJ/mol
# Density = 2.487306 g / cm^3
# Si number density = 24.929806 Si / 1000 Ang^3
#
#
#
# Elastic Constant Matrix: (Units=GPa)
#
#
# Indices 1 2 3 4 5 6 
#
# 1 82.5853 32.9095 25.5282 -4.6736 0.3388 -21.2940
# 2 32.9095 123.8118 39.8356 -9.2429 22.4110 -38.2362
# 3 25.5282 39.8356 117.4502 -8.4800 25.4710 -24.8151
# 4 -4.6736 -9.2429 -8.4800 33.7860 -11.7354 9.2639
# 5 0.3388 22.4110 25.4710 -11.7354 29.9495 -4.4713
# 6 -21.2940 -38.2362 -24.8151 9.2639 -4.4713 36.6512
#
#
#
# Elastic Compliance Matrix: (Units=1/GPa)
#
#
# Indices 1 2 3 4 5 6 
#
# 1 0.015167 -0.002598 -0.002404 0.001212 0.005005 0.004778
# 2 -0.002598 0.014428 0.000591 -0.003700 -0.010693 0.013574
# 3 -0.002404 0.000591 0.012539 -0.002828 -0.011132 0.007066
# 4 0.001212 -0.003700 -0.002828 0.037728 0.018092 -0.012399
# 5 0.005005 -0.010693 -0.011132 0.018092 0.055870 -0.013542
# 6 0.004778 0.013574 0.007066 -0.012399 -0.013542 0.050487
#
#
# Mechanical properties :
#
#
# Convention : Reuss Voigt Hill
#
# Bulk Modulus (GPa) = 30.01839 57.82153 43.91996
# Shear Modulus (GPa) = 24.25464 35.11558 29.68511
#
# Velocity S-wave (km/s) = 3.12255 3.75717 3.45446
# Velocity P-wave (km/s) = 5.00677 6.48582 5.79369
#
# Compressibility (1/GPa) = 0.03331292
#
# Stress axis : x y z
#
# Youngs Moduli (GPa) = 65.93214 69.30741 79.74849
#
# Poissons Ratio (x) = 0.18005 0.19170
# Poissons Ratio (y) = 0.17128 -0.04710
# Poissons Ratio (z) = 0.15849 -0.04093
#
# Static dielectric constant tensor:
#      x y z
#    x 2.277680 0.128700 0.033550 
#    y 0.128700 1.986370 -0.085660 
#    z 0.033550 -0.085660 1.957710 
# 
# From -- ./inp_files/425529.got.cif
#   From: 2010.05.17/outbox.cif.g08.bks.cpg/sg2_213_cif.got.tgz:425529.got - 2010.06.03 11:33:40.
