data_PCOD9037430
_publ_section_title
;
Structure prediction by ZEFSAII (Michael W. Deem and Ramdas Pophale) SiO2 
 PCOD9037430
Probable space group: P -1
;
_chemical_formula_sum "Si O2"
_cell_formula_units_Z 16
_cell_length_a 9.753169
_cell_length_b 16.286396
_cell_length_c 12.062402
_cell_angle_alpha 135.878932
_cell_angle_beta 129.256740
_cell_angle_gamma 29.021906
_cell_volume 647.061972
_symmetry_space_group_name_H-M "P -1"
_symmetry_group_IT_number 2
_symmetry_cell_setting 'triclinic'
loop_
_space_group_symop_operation_xyz
x,y,z
-x,-y,-z
loop_
_atom_site_type_symbol
_atom_site_label
_atom_site_fract_x
_atom_site_fract_y
_atom_site_fract_z
Si Si1 0.213575 0.495604 0.396392
Si Si2 0.774309 0.707511 0.952443
Si Si3 0.580127 0.149657 0.532847
Si Si4 0.343645 0.911385 0.244548
Si Si5 0.126594 0.795855 0.563163
Si Si6 0.737099 0.454757 0.294620
Si Si7 0.639630 0.568724 0.921585
Si Si8 0.330749 0.089467 0.199698
O O1 0.147297 0.401530 0.225017
O O2 0.103992 0.665269 0.434439
O O3 0.553536 0.332745 0.410990
O O4 0.120171 0.564168 0.540707
O O5 0.052289 0.624504 0.062803
O O6 0.694720 0.636396 0.920400
O O7 0.513107 0.930605 0.045664
O O8 0.509775 0.135258 0.607227
O O9 0.462673 0.342428 0.661820
O O10 0.455936 0.148092 0.361867
O O11 0.917945 0.954936 0.517727
O O12 0.466923 0.726299 0.081679
O O13 0.372789 0.987955 0.234161
O O14 0.014890 0.079238 0.275432
O O15 0.459715 0.551161 0.775095
O O16 0.999940 0.271058 0.180676
#
# Coordination Sequence:
#
# PCOD9037430 Si02
#       8
#     2   2   2   2   2   2   2   2
#     4  11  22  40  68  98 131 167 215 276 325 377
#     4  10  25  41  68  98 135 160 224 279 322 374
#     4  10  24  41  66  95 135 174 217 263 325 397
#     4   9  21  39  68  92 127 169 221 265 321 380
#     4   9  21  38  67  96 127 167 223 262 315 385
#     4  12  25  42  69  95 137 173 219 260 331 394
#     4  10  23  40  67 100 129 171 217 276 324 382
#     4  11  23  42  67  98 129 172 222 273 317 378
#
# _framework density 24.727153000000001
#
# number of rings (size 3 to 8) (size 9 to 14) (size 15 to 20)
#    0.750    1.000    1.250    2.250   10.500    2.000 
#    0.000    0.625    0.000    0.000    0.000    0.000 
#    0.000    0.000    0.000    0.000    0.000    0.000 
#
# Total GULP energy -89524.675779 kJ/mol
# GULP energy per Si atom -5595.292236 kJ/mol
# Density = 2.467087 g / cm^3
# Si number density = 24.727153 Si / 1000 Ang^3
#
#
#
# Elastic Constant Matrix: (Units=GPa)
#
#
# Indices 1 2 3 4 5 6 
#
# 1 52.8851 40.0200 12.4178 5.3093 -0.5437 5.1404
# 2 40.0200 149.5969 27.2918 25.4740 5.2781 -6.7887
# 3 12.4178 27.2918 82.9667 19.4367 -2.5559 -3.1957
# 4 5.3093 25.4740 19.4367 41.9083 -7.3034 -10.3155
# 5 -0.5437 5.2781 -2.5559 -7.3034 23.6548 -1.3983
# 6 5.1404 -6.7887 -3.1957 -10.3155 -1.3983 32.9985
#
#
#
# Elastic Compliance Matrix: (Units=1/GPa)
#
#
# Indices 1 2 3 4 5 6 
#
# 1 0.024890 -0.006770 -0.001845 0.000887 0.001856 -0.005093
# 2 -0.006770 0.009728 -0.001108 -0.004912 -0.003889 0.001248
# 3 -0.001845 -0.001108 0.014011 -0.005691 -0.000060 -0.000365
# 4 0.000887 -0.004912 -0.005691 0.033660 0.011444 0.009307
# 5 0.001856 -0.003889 -0.000060 0.011444 0.046976 0.004473
# 6 -0.005093 0.001248 -0.000365 0.009307 0.004473 0.034418
#
#
# Mechanical properties :
#
#
# Convention : Reuss Voigt Hill
#
# Bulk Modulus (GPa) = 34.26566 49.43420 41.84993
# Shear Modulus (GPa) = 25.92594 33.42691 29.67642
#
# Velocity S-wave (km/s) = 3.24154 3.68071 3.46808
# Velocity P-wave (km/s) = 5.28182 6.17242 5.74441
#
# Compressibility (1/GPa) = 0.02918374
#
# Stress axis : x y z
#
# Youngs Moduli (GPa) = 40.17671 102.79544 71.37230
#
# Poissons Ratio (x) = 0.69589 0.13171
# Poissons Ratio (y) = 0.27198 0.07906
# Poissons Ratio (z) = 0.07414 0.11387
#
# Static dielectric constant tensor:
#      x y z
#    x 1.968070 0.020330 -0.050250 
#    y 0.020330 1.970150 -0.016570 
#    z -0.050250 -0.016570 1.972360 
# 
# From -- ./inp_files/436914.got.cif
#   From: 2010.05.17/outbox.cif.g08.bks.cpg/sg2_219_cif.got.tgz:436914.got - 2010.06.03 11:33:40.
