data_PCOD9037742
_publ_section_title
;
Structure prediction by ZEFSAII (Michael W. Deem and Ramdas Pophale) SiO2 
 PCOD9037742
Probable space group: P -1
;
_chemical_formula_sum "Si O2"
_cell_formula_units_Z 16
_cell_length_a 11.899743
_cell_length_b 8.663755
_cell_length_c 11.654202
_cell_angle_alpha 60.357577
_cell_angle_beta 124.806596
_cell_angle_gamma 94.892166
_cell_volume 824.099109
_symmetry_space_group_name_H-M "P -1"
_symmetry_group_IT_number 2
_symmetry_cell_setting 'triclinic'
loop_
_space_group_symop_operation_xyz
x,y,z
-x,-y,-z
loop_
_atom_site_type_symbol
_atom_site_label
_atom_site_fract_x
_atom_site_fract_y
_atom_site_fract_z
Si Si1 0.402186 0.369425 0.019790
Si Si2 0.742576 0.390380 0.953903
Si Si3 0.302233 0.240193 0.333330
Si Si4 0.024557 0.174663 0.300414
Si Si5 0.526804 0.155123 0.870081
Si Si6 0.031271 0.756525 0.489514
Si Si7 0.438269 0.015712 0.285838
Si Si8 0.761093 0.629978 0.306841
O O1 0.284835 0.483750 0.995422
O O2 0.492764 0.186283 0.205293
O O3 0.500000 0.500000 0.000000
O O4 0.320489 0.325180 0.878385
O O5 0.710586 0.545753 0.779520
O O6 0.632257 0.266859 0.938802
O O7 0.901997 0.263739 0.104449
O O8 0.166777 0.224987 0.330333
O O9 0.317968 0.119282 0.268433
O O10 0.444485 0.138155 0.522146
O O11 0.976624 0.245941 0.375290
O O12 0.050219 0.954578 0.396417
O O13 0.369810 0.297630 0.708170
O O14 0.594908 0.072275 0.819316
O O15 0.500000 0.000000 0.000000
O O16 0.155346 0.586792 0.573051
O O17 0.881587 0.733136 0.363303
#
# Coordination Sequence:
#
# PCOD9037742 Si02
#       8
#     2   2   2   2   2   2   2   2
#     4  11  20  36  64  91 125 160 196 258 315 364
#     4  11  23  38  61  91 122 164 209 247 307 374
#     4  10  24  42  62  85 125 172 206 251 295 379
#     4  11  22  42  64  87 124 164 213 250 317 361
#     4  12  22  38  66  96 124 156 202 266 312 362
#     4  10  24  37  64  94 124 160 203 268 306 374
#     4  10  23  41  62  90 123 160 215 248 303 370
#     4  11  21  38  57  98 128 152 194 255 325 356
#
# _framework density 19.415143
#
# number of rings (size 3 to 8) (size 9 to 14) (size 15 to 20)
#    0.000    1.250    3.750    1.875    1.750    2.500 
#    0.000    3.125    0.000    0.000    0.000    0.000 
#    0.000    0.000    0.000    0.000    0.000    0.000 
#
# Total GULP energy -89211.899725 kJ/mol
# GULP energy per Si atom -5575.743733 kJ/mol
# Density = 1.937095 g / cm^3
# Si number density = 19.415143 Si / 1000 Ang^3
#
#
#
# Elastic Constant Matrix: (Units=GPa)
#
#
# Indices 1 2 3 4 5 6 
#
# 1 29.8662 11.4455 17.7629 -19.9594 2.9291 6.8499
# 2 11.4455 87.3214 29.9681 -7.7400 -7.9281 6.2102
# 3 17.7629 29.9681 85.7088 -15.4914 -4.5674 13.9854
# 4 -19.9594 -7.7400 -15.4914 30.4510 -0.9648 -5.9636
# 5 2.9291 -7.9281 -4.5674 -0.9648 28.9622 0.8980
# 6 6.8499 6.2102 13.9854 -5.9636 0.8980 30.7371
#
#
#
# Elastic Compliance Matrix: (Units=1/GPa)
#
#
# Indices 1 2 3 4 5 6 
#
# 1 0.064913 -0.003782 -0.004997 0.038071 -0.007001 -0.003838
# 2 -0.003782 0.013534 -0.003873 -0.000982 0.003457 -0.000421
# 3 -0.004997 -0.003873 0.015425 0.002743 0.002113 -0.004652
# 4 0.038071 -0.000982 0.002743 0.059279 -0.001775 0.002019
# 5 -0.007001 0.003457 0.002113 -0.001775 0.036503 -0.001510
# 6 -0.003838 -0.000421 -0.004652 0.002019 -0.001510 0.036027
#
#
# Mechanical properties :
#
#
# Convention : Reuss Voigt Hill
#
# Bulk Modulus (GPa) = 14.58382 35.69439 25.13911
# Shear Modulus (GPa) = 18.25892 27.61138 22.93515
#
# Velocity S-wave (km/s) = 3.07000 3.77524 3.44074
# Velocity P-wave (km/s) = 4.48268 6.11784 5.36295
#
# Compressibility (1/GPa) = 0.06856912
#
# Stress axis : x y z
#
# Youngs Moduli (GPa) = 15.40517 73.89064 64.83149
#
# Poissons Ratio (x) = 0.27944 0.32393
# Poissons Ratio (y) = 0.05826 0.25108
# Poissons Ratio (z) = 0.07697 0.28617
#
# Static dielectric constant tensor:
#      x y z
#    x 1.684940 -0.047180 -0.015240 
#    y -0.047180 1.689470 -0.021530 
#    z -0.015240 -0.021530 1.700480 
# 
# From -- ./inp_files/259127.got.cif
#   From: 2010.05.17/outbox.cif.g08.bks.cpg/sg2_130_cif.got.tgz:259127.got - 2010.06.03 11:33:40.
