data_PCOD9037471
_publ_section_title
;
Structure prediction by ZEFSAII (Michael W. Deem and Ramdas Pophale) SiO2 
 PCOD9037471
Probable space group: P -1
;
_chemical_formula_sum "Si O2"
_cell_formula_units_Z 16
_cell_length_a 24.734066
_cell_length_b 13.731623
_cell_length_c 6.423706
_cell_angle_alpha 44.239378
_cell_angle_beta 48.504256
_cell_angle_gamma 27.189899
_cell_volume 693.319665
_symmetry_space_group_name_H-M "P -1"
_symmetry_group_IT_number 2
_symmetry_cell_setting 'triclinic'
loop_
_space_group_symop_operation_xyz
x,y,z
-x,-y,-z
loop_
_atom_site_type_symbol
_atom_site_label
_atom_site_fract_x
_atom_site_fract_y
_atom_site_fract_z
Si Si1 0.118863 0.221936 0.086711
Si Si2 0.225432 0.260226 0.430015
Si Si3 0.910505 0.278382 0.867550
Si Si4 0.900083 0.145731 0.712267
Si Si5 0.445979 0.949244 0.600064
Si Si6 0.213045 0.780590 0.480512
Si Si7 0.332814 0.957155 0.242611
Si Si8 0.478742 0.406822 0.354163
O O1 0.183784 0.185346 0.771322
O O2 0.210825 0.093935 0.239968
O O3 0.000000 0.500000 0.000000
O O4 0.120492 0.051984 0.313748
O O5 0.285886 0.147103 0.228905
O O6 0.322470 0.182855 0.449423
O O7 0.115075 0.530051 0.279712
O O8 0.827374 0.292361 0.173816
O O9 0.043192 0.039323 0.971232
O O10 0.885139 0.305929 0.644047
O O11 0.787862 0.263619 0.693272
O O12 0.000000 0.000000 0.500000
O O13 0.509231 0.759810 0.547376
O O14 0.500000 0.000000 0.500000
O O15 0.413084 0.891474 0.953540
O O16 0.344928 0.622034 0.450528
O O17 0.419512 0.738124 0.508183
O O18 0.500000 0.500000 0.000000
#
# Coordination Sequence:
#
# PCOD9037471 Si02
#       8
#     2   2   2   2   2   2   2   2
#     4  11  27  45  67  98 135 179 224 270 337 414
#     4  10  24  42  66  98 134 174 219 270 342 397
#     4  10  23  40  67  97 128 173 220 272 337 391
#     4   9  22  40  61  92 135 163 214 275 330 383
#     4  10  24  40  67 100 135 173 227 274 335 407
#     4  11  25  41  68 100 130 171 229 275 329 400
#     4  10  24  46  68  94 140 177 213 284 337 386
#     4  11  25  45  68  99 137 179 229 277 338 407
#
# _framework density 23.077378
#
# number of rings (size 3 to 8) (size 9 to 14) (size 15 to 20)
#    0.000    1.750    0.000    2.250   12.250    7.500 
#    0.000    0.000    0.000    0.000    0.000    0.000 
#    0.000    0.000    0.000    0.000    0.000    0.000 
#
# Total GULP energy -89240.388638 kJ/mol
# GULP energy per Si atom -5577.524290 kJ/mol
# Density = 2.302485 g / cm^3
# Si number density = 23.077378 Si / 1000 Ang^3
#
#
#
# Elastic Constant Matrix: (Units=GPa)
#
#
# Indices 1 2 3 4 5 6 
#
# 1 95.2351 13.8738 31.8313 -7.1441 14.1059 -9.6871
# 2 13.8738 94.9440 15.0584 -9.9427 10.9240 -0.6956
# 3 31.8313 15.0584 61.4764 0.0631 8.4612 0.6224
# 4 -7.1441 -9.9427 0.0631 24.3834 2.2969 3.6760
# 5 14.1059 10.9240 8.4612 2.2969 39.3752 0.1522
# 6 -9.6871 -0.6956 0.6224 3.6760 0.1522 37.3214
#
#
#
# Elastic Compliance Matrix: (Units=1/GPa)
#
#
# Indices 1 2 3 4 5 6 
#
# 1 0.013955 -0.000106 -0.006719 0.003911 -0.003767 0.003362
# 2 -0.000106 0.011814 -0.002426 0.005115 -0.003016 -0.000258
# 3 -0.006719 -0.002426 0.020522 -0.002619 -0.001170 -0.001869
# 4 0.003911 0.005115 -0.002619 0.045204 -0.004882 -0.003278
# 5 -0.003767 -0.003016 -0.001170 -0.004882 0.028122 -0.000648
# 6 0.003362 -0.000258 -0.001869 -0.003278 -0.000648 0.028019
#
#
# Mechanical properties :
#
#
# Convention : Reuss Voigt Hill
#
# Bulk Modulus (GPa) = 35.98697 41.46473 38.72585
# Shear Modulus (GPa) = 28.50607 32.94213 30.72410
#
# Velocity S-wave (km/s) = 3.51841 3.78228 3.65273
# Velocity P-wave (km/s) = 5.66864 6.08941 5.88279
#
# Compressibility (1/GPa) = 0.02778784
#
# Stress axis : x y z
#
# Youngs Moduli (GPa) = 71.65915 84.64818 48.72713
#
# Poissons Ratio (x) = 0.00896 0.32741
# Poissons Ratio (y) = 0.00759 0.11823
# Poissons Ratio (z) = 0.48149 0.20540
#
# Static dielectric constant tensor:
#      x y z
#    x 1.948830 0.029950 0.004780 
#    y 0.029950 2.329340 0.143160 
#    z 0.004780 0.143160 1.888880 
# 
# From -- ./inp_files/123564.got.cif
#   From: 2010.05.17/outbox.cif.g08.bks.cpg/sg2_62_cif.got.tgz:123564.got - 2010.06.03 11:33:40.
