data_PCOD9037139
_publ_section_title
;
Structure prediction by ZEFSAII (Michael W. Deem and Ramdas Pophale) SiO2 
 PCOD9037139
Probable space group: P -1
;
_chemical_formula_sum "Si O2"
_cell_formula_units_Z 16
_cell_length_a 16.622618
_cell_length_b 7.341489
_cell_length_c 17.427015
_cell_angle_alpha 51.094067
_cell_angle_beta 152.831862
_cell_angle_gamma 122.587526
_cell_volume 754.438988
_symmetry_space_group_name_H-M "P -1"
_symmetry_group_IT_number 2
_symmetry_cell_setting 'triclinic'
loop_
_space_group_symop_operation_xyz
x,y,z
-x,-y,-z
loop_
_atom_site_type_symbol
_atom_site_label
_atom_site_fract_x
_atom_site_fract_y
_atom_site_fract_z
Si Si1 0.792605 0.528213 0.549724
Si Si2 0.975933 0.885591 0.091585
Si Si3 0.567362 0.287836 0.055893
Si Si4 0.786238 0.687194 0.330111
Si Si5 0.598213 0.956392 0.304845
Si Si6 0.073370 0.806209 0.452094
Si Si7 0.822385 0.405012 0.102048
Si Si8 0.802611 0.034496 0.049243
O O1 0.767011 0.575593 0.426142
O O2 0.629427 0.676299 0.409253
O O3 0.971491 0.656563 0.688314
O O4 0.052736 0.149466 0.592236
O O5 0.907557 0.067258 0.050814
O O6 0.833589 0.682151 0.020696
O O7 0.154125 0.735823 0.310035
O O8 0.000000 0.000000 0.000000
O O9 0.700887 0.365410 0.083102
O O10 0.641182 0.071064 0.227847
O O11 0.500000 0.500000 0.000000
O O12 0.393510 0.209405 0.885374
O O13 0.161932 0.549425 0.610682
O O14 0.394234 0.032296 0.122083
O O15 0.756324 0.053758 0.462570
O O16 0.927639 0.838146 0.252003
O O17 0.778991 0.248336 0.033108
#
# Coordination Sequence:
#
# PCOD9037139 Si02
#       8
#     2   2   2   2   2   2   2   2
#     4  10  23  40  61  98 135 171 231 278 332 409
#     4  10  24  48  74  97 130 177 231 296 355 402
#     4  12  23  36  61  99 149 191 226 266 329 412
#     4  11  22  34  58  90 139 183 223 265 319 395
#     4  12  24  38  64  99 145 181 218 274 325 407
#     4  11  21  36  58  93 132 185 220 259 322 396
#     4  10  24  41  65 102 132 172 238 272 332 411
#     4  12  23  44  71 100 135 182 226 277 344 403
#
# _framework density 21.207812000000001
#
# number of rings (size 3 to 8) (size 9 to 14) (size 15 to 20)
#    0.750    0.250    5.000    2.250    3.500    2.500 
#    0.000    0.625    0.000    5.250    0.000    0.000 
#    0.000    0.000    0.000    0.000    0.000    0.000 
#
# Total GULP energy -89138.576164 kJ/mol
# GULP energy per Si atom -5571.161010 kJ/mol
# Density = 2.115954 g / cm^3
# Si number density = 21.207812 Si / 1000 Ang^3
#
#
#
# Elastic Constant Matrix: (Units=GPa)
#
#
# Indices 1 2 3 4 5 6 
#
# 1 112.9454 31.7718 35.1249 -17.4275 -5.0472 0.6713
# 2 31.7718 45.7485 15.5771 -9.7258 3.3169 -5.9691
# 3 35.1249 15.5771 114.8398 0.8753 22.3741 3.0696
# 4 -17.4275 -9.7258 0.8753 26.1372 5.9687 -1.7171
# 5 -5.0472 3.3169 22.3741 5.9687 30.5826 -4.5639
# 6 0.6713 -5.9691 3.0696 -1.7171 -4.5639 26.1755
#
#
#
# Elastic Compliance Matrix: (Units=1/GPa)
#
#
# Indices 1 2 3 4 5 6 
#
# 1 0.013087 -0.007015 -0.004021 0.005131 0.004818 -0.000287
# 2 -0.007015 0.030103 -0.001433 0.007919 -0.003866 0.007058
# 3 -0.004021 -0.001433 0.012095 -0.001665 -0.009542 -0.003415
# 4 0.005131 0.007919 -0.001665 0.046600 -0.007345 0.003646
# 5 0.004818 -0.003866 -0.009542 -0.007345 0.043401 0.007199
# 6 -0.000287 0.007058 -0.003415 0.003646 0.007199 0.041715
#
#
# Mechanical properties :
#
#
# Convention : Reuss Voigt Hill
#
# Bulk Modulus (GPa) = 32.95411 48.72014 40.83713
# Shear Modulus (GPa) = 22.51683 29.31639 25.91661
#
# Velocity S-wave (km/s) = 3.26195 3.72202 3.49955
# Velocity P-wave (km/s) = 5.45522 6.44157 5.96880
#
# Compressibility (1/GPa) = 0.03034522
#
# Stress axis : x y z
#
# Youngs Moduli (GPa) = 76.41461 33.21889 82.67812
#
# Poissons Ratio (x) = 0.23304 0.33247
# Poissons Ratio (y) = 0.53607 0.11851
# Poissons Ratio (z) = 0.30728 0.04762
#
# Static dielectric constant tensor:
#      x y z
#    x 1.823490 -0.094200 0.002990 
#    y -0.094200 1.893090 0.071880 
#    z 0.002990 0.071880 1.783350 
# 
# From -- ./inp_files/529444.got.cif
#   From: 2010.05.17/outbox.cif.g08.bks.cpg/sg2_265_cif.got.tgz:529444.got - 2010.06.03 11:33:40.
