data_PCOD9037174
_publ_section_title
;
Structure prediction by ZEFSAII (Michael W. Deem and Ramdas Pophale) SiO2 
 PCOD9037174
Probable space group: P -1
;
_chemical_formula_sum "Si O2"
_cell_formula_units_Z 14
_cell_length_a 11.548428
_cell_length_b 9.760369
_cell_length_c 6.486821
_cell_angle_alpha 74.987465
_cell_angle_beta 109.619382
_cell_angle_gamma 127.871034
_cell_volume 542.298103
_symmetry_space_group_name_H-M "P -1"
_symmetry_group_IT_number 2
_symmetry_cell_setting 'triclinic'
loop_
_space_group_symop_operation_xyz
x,y,z
-x,-y,-z
loop_
_atom_site_type_symbol
_atom_site_label
_atom_site_fract_x
_atom_site_fract_y
_atom_site_fract_z
Si Si1 0.428721 0.867543 0.317868
Si Si2 0.551451 0.410680 0.215591
Si Si3 0.781113 0.887272 0.904058
Si Si4 0.708127 0.027976 0.163018
Si Si5 0.228809 0.476758 0.408106
Si Si6 0.931916 0.214805 0.573726
Si Si7 0.842106 0.592247 0.073399
O O1 0.304947 0.681017 0.411804
O O2 0.500000 0.000000 0.500000
O O3 0.561195 0.879808 0.260655
O O4 0.348794 0.909814 0.079970
O O5 0.396653 0.223204 0.218963
O O6 0.627017 0.517231 0.429620
O O7 0.500000 0.500000 0.000000
O O8 0.694334 0.440519 0.166491
O O9 0.832903 0.759081 0.999070
O O10 0.866814 0.033731 0.722836
O O11 0.794464 0.964573 0.110123
O O12 0.812274 0.171570 0.342026
O O13 0.178615 0.457848 0.153560
O O14 0.089045 0.313996 0.505514
O O15 0.000761 0.353023 0.751865
#
# Coordination Sequence:
#
# PCOD9037174 Si02
#       7
#     2   2   2   2   2   2   2
#     4  11  25  47  70  93 122 163 219 273 320 377
#     4   9  20  36  59  90 122 162 213 259 304 366
#     4  11  22  40  64  96 133 169 214 258 314 383
#     4  11  24  42  68  93 121 170 217 265 320 368
#     4  11  23  41  64  93 133 171 207 262 323 375
#     4  11  24  40  63  96 134 172 212 255 315 387
#     4  10  23  40  62  96 135 171 209 258 315 383
#
# _framework density 25.816058999999999
#
# number of rings (size 3 to 8) (size 9 to 14) (size 15 to 20)
#    0.000    1.429    0.000    4.714    0.000   10.857 
#    0.000    3.571    0.000    0.000    0.000    0.000 
#    0.000    0.000    0.000    0.000    0.000    0.000 
#
# Total GULP energy -78179.062677 kJ/mol
# GULP energy per Si atom -5584.218763 kJ/mol
# Density = 2.575730 g / cm^3
# Si number density = 25.816059 Si / 1000 Ang^3
#
#
#
# Elastic Constant Matrix: (Units=GPa)
#
#
# Indices 1 2 3 4 5 6 
#
# 1 67.5220 58.4935 31.4591 -0.3064 -3.9971 21.6176
# 2 58.4935 163.0302 84.1953 -11.2515 -8.9596 44.7050
# 3 31.4591 84.1953 218.5816 13.2699 9.9424 18.8129
# 4 -0.3064 -11.2515 13.2699 62.3056 18.6749 -0.8027
# 5 -3.9971 -8.9596 9.9424 18.6749 39.8066 6.5188
# 6 21.6176 44.7050 18.8129 -0.8027 6.5188 47.4526
#
#
#
# Elastic Compliance Matrix: (Units=1/GPa)
#
#
# Indices 1 2 3 4 5 6 
#
# 1 0.022157 -0.006721 -0.000250 -0.001782 0.002267 -0.004005
# 2 -0.006721 0.012988 -0.003608 0.001895 0.003605 -0.008207
# 3 -0.000250 -0.003608 0.006054 -0.001343 -0.001942 0.001357
# 4 -0.001782 0.001895 -0.001343 0.019271 -0.008633 0.001071
# 5 0.002267 0.003605 -0.001942 -0.008633 0.032039 -0.008206
# 6 -0.004005 -0.008207 0.001357 0.001071 -0.008206 0.031237
#
#
# Mechanical properties :
#
#
# Convention : Reuss Voigt Hill
#
# Bulk Modulus (GPa) = 49.90005 88.60328 69.25167
# Shear Modulus (GPa) = 32.98502 48.24537 40.61520
#
# Velocity S-wave (km/s) = 3.57836 4.32767 3.97073
# Velocity P-wave (km/s) = 6.03688 7.70500 6.92138
#
# Compressibility (1/GPa) = 0.02004006
#
# Stress axis : x y z
#
# Youngs Moduli (GPa) = 45.13277 76.99543 165.18487
#
# Poissons Ratio (x) = 0.51746 0.04136
# Poissons Ratio (y) = 0.30332 0.59601
# Poissons Ratio (z) = 0.01130 0.27781
#
# Static dielectric constant tensor:
#      x y z
#    x 2.132940 -0.042270 0.039980 
#    y -0.042270 2.082870 0.018210 
#    z 0.039980 0.018210 2.142680 
# 
# From -- ./inp_files/69494.got.cif
#   From: 2010.05.17/outbox.cif.g08.bks.cpg/sg2_35_cif.got.tgz:69494.got - 2010.06.03 11:33:40.
