data_PCOD9037931
_publ_section_title
;
Structure prediction by ZEFSAII (Michael W. Deem and Ramdas Pophale) SiO2 
 PCOD9037931
Probable space group: P -1
;
_chemical_formula_sum "Si O2"
_cell_formula_units_Z 14
_cell_length_a 15.833702
_cell_length_b 16.010746
_cell_length_c 27.048567
_cell_angle_alpha 17.785961
_cell_angle_beta 19.470724
_cell_angle_gamma 18.220379
_cell_volume 599.801056
_symmetry_space_group_name_H-M "P -1"
_symmetry_group_IT_number 2
_symmetry_cell_setting 'triclinic'
loop_
_space_group_symop_operation_xyz
x,y,z
-x,-y,-z
loop_
_atom_site_type_symbol
_atom_site_label
_atom_site_fract_x
_atom_site_fract_y
_atom_site_fract_z
Si Si1 0.107566 0.948164 0.525248
Si Si2 0.640153 0.216418 0.963078
Si Si3 0.628911 0.233727 0.793682
Si Si4 0.721336 0.035414 0.240745
Si Si5 0.505070 0.264757 0.733387
Si Si6 0.586474 0.138376 0.148914
Si Si7 0.662979 0.084838 0.404933
O O1 0.274808 0.578223 0.654787
O O2 0.312038 0.095712 0.333016
O O3 0.000000 0.000000 0.500000
O O4 0.828109 0.135957 0.607427
O O5 0.402500 0.589628 0.891242
O O6 0.678000 0.055607 0.087681
O O7 0.952820 0.171782 0.799794
O O8 0.560125 0.018620 0.081096
O O9 0.523676 0.354849 0.727948
O O10 0.452343 0.544466 0.749265
O O11 0.980174 0.090613 0.688754
O O12 0.500000 0.000000 0.000000
O O13 0.773424 0.964269 0.192994
O O14 0.484914 0.963171 0.436697
O O15 0.500000 0.500000 0.000000
O O16 0.500000 0.000000 0.500000
#
# Coordination Sequence:
#
# PCOD9037931 Si02
#       7
#     2   2   2   2   2   2   2
#     4  12  25  44  68 102 143 193 234 295 355 439
#     4  11  24  40  68 103 136 188 231 295 349 431
#     4  12  28  50  78 113 145 194 247 316 370 443
#     4  11  24  42  68  97 144 180 240 292 359 423
#     4  12  26  44  73 100 148 186 248 288 375 429
#     4  10  23  41  64  98 135 179 233 286 345 421
#     4  12  28  50  78 109 147 192 248 306 383 441
#
# _framework density 23.341070999999999
#
# number of rings (size 3 to 8) (size 9 to 14) (size 15 to 20)
#    0.000    0.571    1.429    6.000    6.000    3.429 
#    0.000    0.000    0.000    0.000    0.000    0.000 
#    0.000    0.000    0.000    0.000    0.000    0.000 
#
# Total GULP energy -78286.032114 kJ/mol
# GULP energy per Si atom -5591.859437 kJ/mol
# Density = 2.328795 g / cm^3
# Si number density = 23.341071 Si / 1000 Ang^3
#
#
#
# Elastic Constant Matrix: (Units=GPa)
#
#
# Indices 1 2 3 4 5 6 
#
# 1 102.1709 10.3027 7.3641 -16.0285 -16.2785 -2.3301
# 2 10.3027 89.6681 12.4520 -13.1960 -14.0781 -13.6113
# 3 7.3641 12.4520 96.0953 -16.2977 -33.4516 -6.8448
# 4 -16.0285 -13.1960 -16.2977 43.2283 0.9424 -11.1197
# 5 -16.2785 -14.0781 -33.4516 0.9424 51.9704 -0.3166
# 6 -2.3301 -13.6113 -6.8448 -11.1197 -0.3166 25.7887
#
#
#
# Elastic Compliance Matrix: (Units=1/GPa)
#
#
# Indices 1 2 3 4 5 6 
#
# 1 0.011517 0.000920 0.002307 0.006606 0.005252 0.005051
# 2 0.000920 0.014800 0.002396 0.008829 0.005755 0.012408
# 3 0.002307 0.002396 0.016541 0.010246 0.011896 0.010427
# 4 0.006606 0.008829 0.010246 0.038237 0.010512 0.024592
# 5 0.005252 0.005755 0.011896 0.010512 0.029983 0.011570
# 6 0.005051 0.012408 0.010427 0.024592 0.011570 0.059296
#
#
# Mechanical properties :
#
#
# Convention : Reuss Voigt Hill
#
# Bulk Modulus (GPa) = 18.48318 38.68578 28.58448
# Shear Modulus (GPa) = 28.22285 41.38517 34.80401
#
# Velocity S-wave (km/s) = 3.48106 4.21534 3.86567
# Velocity P-wave (km/s) = 4.90845 6.34841 5.67429
#
# Compressibility (1/GPa) = 0.05410323
#
# Stress axis : x y z
#
# Youngs Moduli (GPa) = 86.82964 67.56689 60.45753
#
# Poissons Ratio (x) = -0.06215 -0.13946
# Poissons Ratio (y) = -0.07987 -0.14488
# Poissons Ratio (z) = -0.20029 -0.16191
#
# Static dielectric constant tensor:
#      x y z
#    x 2.398390 -0.689160 -0.148530 
#    y -0.689160 3.115750 0.226380 
#    z -0.148530 0.226380 1.940340 
# 
# From -- ./inp_files/619625.got.cif
#   From: 2010.05.17/outbox.cif.g08.bks.cpg/sg2_310_cif.got.tgz:619625.got - 2010.06.03 11:33:40.
