data_PCOD9037898
_publ_section_title
;
Structure prediction by ZEFSAII (Michael W. Deem and Ramdas Pophale) SiO2 
 PCOD9037898
Probable space group: P -1
;
_chemical_formula_sum "Si O2"
_cell_formula_units_Z 16
_cell_length_a 12.052548
_cell_length_b 9.261685
_cell_length_c 11.970774
_cell_angle_alpha 121.367756
_cell_angle_beta 55.142754
_cell_angle_gamma 86.109584
_cell_volume 798.884114
_symmetry_space_group_name_H-M "P -1"
_symmetry_group_IT_number 2
_symmetry_cell_setting 'triclinic'
loop_
_space_group_symop_operation_xyz
x,y,z
-x,-y,-z
loop_
_atom_site_type_symbol
_atom_site_label
_atom_site_fract_x
_atom_site_fract_y
_atom_site_fract_z
Si Si1 0.437956 0.536576 0.830965
Si Si2 0.201923 0.650218 0.830046
Si Si3 0.432900 0.209145 0.062195
Si Si4 0.246357 0.254486 0.573972
Si Si5 0.744756 0.271611 0.400562
Si Si6 0.851732 0.833046 0.186625
Si Si7 0.572839 0.829064 0.207090
Si Si8 0.863264 0.539394 0.510422
O O1 0.273101 0.658051 0.909573
O O2 0.460952 0.689851 0.953111
O O3 0.576043 0.433668 0.615119
O O4 0.444211 0.354533 0.818663
O O5 0.286363 0.420695 0.651906
O O6 0.247783 0.749707 0.746214
O O7 0.015489 0.736268 0.985549
O O8 0.286989 0.352661 0.280375
O O9 0.387947 0.195438 0.956341
O O10 0.500000 0.000000 0.000000
O O11 0.130332 0.266488 0.743251
O O12 0.166576 0.322732 0.525338
O O13 0.405844 0.038514 0.398877
O O14 0.867111 0.343684 0.386114
O O15 0.795736 0.059842 0.333835
O O16 0.711450 0.827199 0.198894
O O17 0.000000 0.500000 0.500000
#
# Coordination Sequence:
#
# PCOD9037898 Si02
#       8
#     2   2   2   2   2   2   2   2
#     4  11  23  43  64  93 132 173 217 263 323 388
#     4  11  24  39  64  99 132 165 215 278 319 377
#     4  11  25  42  66  97 125 175 222 261 319 387
#     4  11  22  43  64  95 129 171 216 258 326 388
#     4  10  23  41  64  95 130 170 216 262 327 390
#     4  12  24  40  68 101 132 166 218 269 332 377
#     4  12  24  42  68  93 135 176 214 265 317 400
#     4  10  24  44  68  91 133 173 212 271 324 386
#
# _framework density 20.027934999999999
#
# number of rings (size 3 to 8) (size 9 to 14) (size 15 to 20)
#    0.000    1.000    3.750    2.625    5.250    1.000 
#    0.000    0.625    0.000    0.000    0.000    0.000 
#    0.000    0.000    0.000    0.000    0.000    0.000 
#
# Total GULP energy -89332.349580 kJ/mol
# GULP energy per Si atom -5583.271849 kJ/mol
# Density = 1.998235 g / cm^3
# Si number density = 20.027935 Si / 1000 Ang^3
#
#
#
# Elastic Constant Matrix: (Units=GPa)
#
#
# Indices 1 2 3 4 5 6 
#
# 1 114.7100 50.7538 18.0885 4.2965 2.9587 -9.4731
# 2 50.7538 82.7441 14.7508 -14.0996 -7.6622 2.0128
# 3 18.0885 14.7508 55.3613 -10.2284 9.4134 -3.8616
# 4 4.2965 -14.0996 -10.2284 39.6755 -5.2069 16.0074
# 5 2.9587 -7.6622 9.4134 -5.2069 20.3830 -4.1631
# 6 -9.4731 2.0128 -3.8616 16.0074 -4.1631 24.3237
#
#
#
# Elastic Compliance Matrix: (Units=1/GPa)
#
#
# Indices 1 2 3 4 5 6 
#
# 1 0.017167 -0.013637 -0.002381 -0.014644 -0.007017 0.015872
# 2 -0.013637 0.025920 -0.002570 0.019165 0.014117 -0.018060
# 3 -0.002381 -0.002570 0.021914 0.004435 -0.009989 -0.001864
# 4 -0.014644 0.019165 0.004435 0.051994 0.012673 -0.038633
# 5 -0.007017 0.014117 -0.009989 0.012673 0.062601 -0.003113
# 6 0.015872 -0.018060 -0.001864 -0.038633 -0.003113 0.073384
#
#
# Mechanical properties :
#
#
# Convention : Reuss Voigt Hill
#
# Bulk Modulus (GPa) = 35.93790 46.66684 41.30237
# Shear Modulus (GPa) = 16.69837 28.15792 22.42815
#
# Velocity S-wave (km/s) = 2.89061 3.75364 3.35004
# Velocity P-wave (km/s) = 5.39664 6.49137 5.96915
#
# Compressibility (1/GPa) = 0.02782578
#
# Stress axis : x y z
#
# Youngs Moduli (GPa) = 58.25164 38.57972 45.63371
#
# Poissons Ratio (x) = 0.52610 0.10864
# Poissons Ratio (y) = 0.79436 0.11728
# Poissons Ratio (z) = 0.13868 0.09915
#
# Static dielectric constant tensor:
#      x y z
#    x 1.721790 0.009550 0.004040 
#    y 0.009550 1.742260 0.004180 
#    z 0.004040 0.004180 1.713640 
# 
# From -- ./inp_files/205021.got.cif
#   From: 2010.05.17/outbox.cif.g08.bks.cpg/sg2_103_cif.got.tgz:205021.got - 2010.06.03 11:33:40.
