data_PCOD9037884
_publ_section_title
;
Structure prediction by ZEFSAII (Michael W. Deem and Ramdas Pophale) SiO2 
 PCOD9037884
Probable space group: P -1
;
_chemical_formula_sum "Si O2"
_cell_formula_units_Z 14
_cell_length_a 15.186118
_cell_length_b 9.868121
_cell_length_c 9.031259
_cell_angle_alpha 45.440689
_cell_angle_beta 140.132367
_cell_angle_gamma 114.408360
_cell_volume 594.441606
_symmetry_space_group_name_H-M "P -1"
_symmetry_group_IT_number 2
_symmetry_cell_setting 'triclinic'
loop_
_space_group_symop_operation_xyz
x,y,z
-x,-y,-z
loop_
_atom_site_type_symbol
_atom_site_label
_atom_site_fract_x
_atom_site_fract_y
_atom_site_fract_z
Si Si1 0.792026 0.808056 0.709890
Si Si2 0.663714 0.766726 0.164452
Si Si3 0.170124 0.778610 0.484323
Si Si4 0.518855 0.212595 0.706669
Si Si5 0.446541 0.552251 0.142030
Si Si6 0.871945 0.728807 0.208647
Si Si7 0.902652 0.403531 0.733485
O O1 0.649368 0.764890 0.501761
O O2 0.777763 0.039642 0.526525
O O3 0.811418 0.745071 0.954349
O O4 0.945553 0.698092 0.920528
O O5 0.538973 0.656608 0.076214
O O6 0.737674 0.822311 0.070054
O O7 0.790027 0.580683 0.535677
O O8 0.600347 0.981025 0.990290
O O9 0.158904 0.759432 0.305511
O O10 0.011634 0.809961 0.321855
O O11 0.292626 0.587486 0.842365
O O12 0.522321 0.330564 0.466522
O O13 0.572864 0.324136 0.823742
O O14 0.928107 0.520918 0.527596
#
# Coordination Sequence:
#
# PCOD9037884 Si02
#       7
#     2   2   2   2   2   2   2
#     4  11  20  37  65  92 123 170 202 243 311 377
#     4  10  23  41  64  93 126 157 200 269 303 355
#     4  11  20  37  65  92 123 170 202 243 311 377
#     4  11  24  43  66  86 123 168 212 247 303 371
#     4  11  24  43  66  86 123 168 212 247 303 371
#     4   9  20  37  60  91 127 153 198 258 302 360
#     4   9  20  37  60  91 127 153 198 258 302 360
#
# _framework density 23.551513
#
# number of rings (size 3 to 8) (size 9 to 14) (size 15 to 20)
#    0.857    0.857    1.429    5.571    0.000    3.429 
#    0.000    1.429    0.000    0.000    0.000    0.000 
#    0.000    0.000    0.000    0.000    0.000    0.000 
#
# Total GULP energy -77997.133866 kJ/mol
# GULP energy per Si atom -5571.223848 kJ/mol
# Density = 2.349791 g / cm^3
# Si number density = 23.551513 Si / 1000 Ang^3
#
#
#
# Elastic Constant Matrix: (Units=GPa)
#
#
# Indices 1 2 3 4 5 6 
#
# 1 73.1477 14.3517 34.9677 6.8800 17.6003 8.1984
# 2 14.3517 77.5928 26.2032 -4.7559 4.5612 10.3451
# 3 34.9677 26.2032 106.9217 -2.2284 15.9406 -15.2292
# 4 6.8800 -4.7559 -2.2284 36.1753 -5.6186 -3.2115
# 5 17.6003 4.5612 15.9406 -5.6186 31.0781 -5.5989
# 6 8.1984 10.3451 -15.2292 -3.2115 -5.5989 19.7985
#
#
#
# Elastic Compliance Matrix: (Units=1/GPa)
#
#
# Indices 1 2 3 4 5 6 
#
# 1 0.026268 0.002748 -0.010873 -0.010249 -0.016416 -0.026982
# 2 0.002748 0.017087 -0.006915 -0.000733 -0.003627 -0.016530
# 3 -0.010873 -0.006915 0.017539 0.004812 0.003245 0.023305
# 4 -0.010249 -0.000733 0.004812 0.033280 0.012574 0.017283
# 5 -0.016416 -0.003627 0.003245 0.012574 0.047414 0.026637
# 6 -0.026982 -0.016530 0.023305 0.017283 0.026637 0.098582
#
#
# Mechanical properties :
#
#
# Convention : Reuss Voigt Hill
#
# Bulk Modulus (GPa) = 32.45411 45.41195 38.93303
# Shear Modulus (GPa) = 17.82392 29.55302 23.68847
#
# Velocity S-wave (km/s) = 2.75399 3.54619 3.17490
# Velocity P-wave (km/s) = 4.89108 6.00759 5.47785
#
# Compressibility (1/GPa) = 0.03081274
#
# Stress axis : x y z
#
# Youngs Moduli (GPa) = 38.06927 58.52434 57.01506
#
# Poissons Ratio (x) = -0.16080 0.61994
# Poissons Ratio (y) = -0.10460 0.39425
# Poissons Ratio (z) = 0.41394 0.40469
#
# Static dielectric constant tensor:
#      x y z
#    x 1.960430 -0.010080 0.033270 
#    y -0.010080 1.972270 -0.042890 
#    z 0.033270 -0.042890 1.909930 
# 
# From -- ./inp_files/464330.got.cif
#   From: 2010.05.17/outbox.cif.g08.bks.cpg/sg2_233_cif.got.tgz:464330.got - 2010.06.03 11:33:40.
