data_PCOD9037117
_publ_section_title
;
Structure prediction by ZEFSAII (Michael W. Deem and Ramdas Pophale) SiO2 
 PCOD9037117
Probable space group: P -1
;
_chemical_formula_sum "Si O2"
_cell_formula_units_Z 14
_cell_length_a 8.860051
_cell_length_b 16.178196
_cell_length_c 6.557907
_cell_angle_alpha 63.678812
_cell_angle_beta 116.905449
_cell_angle_gamma 123.603666
_cell_volume 674.199141
_symmetry_space_group_name_H-M "P -1"
_symmetry_group_IT_number 2
_symmetry_cell_setting 'triclinic'
loop_
_space_group_symop_operation_xyz
x,y,z
-x,-y,-z
loop_
_atom_site_type_symbol
_atom_site_label
_atom_site_fract_x
_atom_site_fract_y
_atom_site_fract_z
Si Si1 0.588343 0.395216 0.302529
Si Si2 0.930819 0.409712 0.218725
Si Si3 0.135302 0.113269 0.386253
Si Si4 0.524941 0.221258 0.756230
Si Si5 0.916391 0.252103 0.056244
Si Si6 0.320330 0.230114 0.009196
Si Si7 0.194932 0.385329 0.729431
O O1 0.759753 0.407355 0.248419
O O2 0.590289 0.334742 0.575124
O O3 0.614508 0.509633 0.235067
O O4 0.411746 0.314784 0.153142
O O5 0.886947 0.307564 0.175853
O O6 0.089799 0.422866 0.462110
O O7 0.000000 0.500000 0.000000
O O8 0.332142 0.152171 0.590661
O O9 0.017395 0.180786 0.255572
O O10 0.193598 0.127622 0.166445
O O11 0.000000 0.000000 0.500000
O O12 0.463251 0.218185 0.955775
O O13 0.708178 0.198830 0.881998
O O14 0.059676 0.338850 0.893810
O O15 0.217588 0.287509 0.762216
#
# Coordination Sequence:
#
# PCOD9037117 Si02
#       7
#     2   2   2   2   2   2   2
#     4  11  21  35  57  89 127 163 206 242 285 358
#     4  12  21  34  58  89 125 166 208 236 286 359
#     4  10  25  46  65  91 118 149 206 265 310 366
#     4  11  22  41  63  89 122 159 200 253 304 359
#     4  11  22  40  65  89 124 166 200 244 305 358
#     4  10  23  40  61  86 123 159 203 254 301 360
#     4  11  22  36  56  89 126 172 204 236 291 353
#
# _framework density 20.765377999999998
#
# number of rings (size 3 to 8) (size 9 to 14) (size 15 to 20)
#    0.000    1.143    4.286    2.571    0.000    1.714 
#    0.000    0.714    0.000    0.000    0.000    0.000 
#    0.000    0.000    0.000    0.000    0.000    0.000 
#
# Total GULP energy -78086.828221 kJ/mol
# GULP energy per Si atom -5577.630587 kJ/mol
# Density = 2.071812 g / cm^3
# Si number density = 20.765378 Si / 1000 Ang^3
#
#
#
# Elastic Constant Matrix: (Units=GPa)
#
#
# Indices 1 2 3 4 5 6 
#
# 1 78.0332 19.2557 22.5747 -10.2607 -2.2158 18.5776
# 2 19.2557 87.5285 46.1277 -21.6618 3.1889 26.7128
# 3 22.5747 46.1277 84.9546 -19.4814 4.9423 8.8204
# 4 -10.2607 -21.6618 -19.4814 33.0952 13.8407 -2.4866
# 5 -2.2158 3.1889 4.9423 13.8407 39.8992 2.0660
# 6 18.5776 26.7128 8.8204 -2.4866 2.0660 25.2121
#
#
#
# Elastic Compliance Matrix: (Units=1/GPa)
#
#
# Indices 1 2 3 4 5 6 
#
# 1 0.017221 0.004131 -0.004322 0.004145 0.000510 -0.015188
# 2 0.004131 0.027287 -0.009957 0.012840 -0.003779 -0.026896
# 3 -0.004322 -0.009957 0.019052 0.005713 -0.004199 0.007977
# 4 0.004145 0.012840 0.005713 0.049960 -0.018201 -0.012238
# 5 0.000510 -0.003779 -0.004199 -0.018201 0.032193 0.000664
# 6 -0.015188 -0.026896 0.007977 -0.012238 0.000664 0.075299
#
#
# Mechanical properties :
#
#
# Convention : Reuss Voigt Hill
#
# Bulk Modulus (GPa) = 23.11326 47.38137 35.24732
# Shear Modulus (GPa) = 19.55193 30.47852 25.01522
#
# Velocity S-wave (km/s) = 3.07182 3.83529 3.47459
# Velocity P-wave (km/s) = 4.87199 6.51764 5.75395
#
# Compressibility (1/GPa) = 0.04326520
#
# Stress axis : x y z
#
# Youngs Moduli (GPa) = 58.06830 36.64742 52.48785
#
# Poissons Ratio (x) = -0.15140 0.22683
# Poissons Ratio (y) = -0.23990 0.52263
# Poissons Ratio (z) = 0.25095 0.36491
#
# Static dielectric constant tensor:
#      x y z
#    x 1.797530 -0.011310 0.069130 
#    y -0.011310 1.792580 0.040220 
#    z 0.069130 0.040220 1.836300 
# 
# From -- ./inp_files/27243.got.cif
#   From: 2010.05.17/outbox.cif.g08.bks.cpg/sg2_14_cif.got.tgz:27243.got - 2010.06.03 11:33:40.
