data_PCOD9037560
_publ_section_title
;
Structure prediction by ZEFSAII (Michael W. Deem and Ramdas Pophale) SiO2 
 PCOD9037560
Probable space group: P -1
;
_chemical_formula_sum "Si O2"
_cell_formula_units_Z 14
_cell_length_a 5.305374
_cell_length_b 8.546521
_cell_length_c 12.013657
_cell_angle_alpha 82.083221
_cell_angle_beta 82.422454
_cell_angle_gamma 87.831885
_cell_volume 534.718454
_symmetry_space_group_name_H-M "P -1"
_symmetry_group_IT_number 2
_symmetry_cell_setting 'triclinic'
loop_
_space_group_symop_operation_xyz
x,y,z
-x,-y,-z
loop_
_atom_site_type_symbol
_atom_site_label
_atom_site_fract_x
_atom_site_fract_y
_atom_site_fract_z
Si Si1 0.169750 0.399301 0.912409
Si Si2 0.202315 0.804427 0.197213
Si Si3 0.215875 0.150507 0.114698
Si Si4 0.909770 0.859581 0.443128
Si Si5 0.664539 0.275649 0.217990
Si Si6 0.563579 0.692572 0.354879
Si Si7 0.807330 0.385939 0.429393
O O1 0.338504 0.541502 0.840622
O O2 0.969662 0.316660 0.848321
O O3 0.287686 0.259653 0.995541
O O4 0.000000 0.500000 0.000000
O O5 0.471001 0.735049 0.233731
O O6 0.074207 0.853644 0.319249
O O7 0.226196 0.964082 0.110402
O O8 0.420551 0.189516 0.194096
O O9 0.929122 0.196999 0.166302
O O10 0.633865 0.847873 0.405137
O O11 0.940417 0.707912 0.539152
O O12 0.000000 0.000000 0.500000
O O13 0.681189 0.284482 0.349375
O O14 0.791744 0.562822 0.365794
O O15 0.342925 0.613584 0.445807
#
# Coordination Sequence:
#
# PCOD9037560 Si02
#       7
#     2   2   2   2   2   2   2
#     4  10  24  49  73 104 141 190 248 306 359 434
#     4  11  25  44  71 106 147 188 241 301 370 428
#     4  11  26  47  72 108 143 189 242 306 368 425
#     4  11  24  41  66 103 148 185 240 289 363 435
#     4  11  25  45  77 105 142 189 248 299 362 435
#     4  10  24  41  66 102 141 189 236 296 355 439
#     4  10  23  40  68  97 141 187 238 288 357 429
#
# _framework density 26.182006000000001
#
# number of rings (size 3 to 8) (size 9 to 14) (size 15 to 20)
#    0.000    1.429    0.000    3.000   12.000    2.286 
#    5.143    3.571    0.000    0.000    0.000    0.000 
#    0.000    0.000    0.000    0.000    0.000    0.000 
#
# Total GULP energy -78293.273207 kJ/mol
# GULP energy per Si atom -5592.376658 kJ/mol
# Density = 2.612241 g / cm^3
# Si number density = 26.182006 Si / 1000 Ang^3
#
#
#
# Elastic Constant Matrix: (Units=GPa)
#
#
# Indices 1 2 3 4 5 6 
#
# 1 80.9903 42.3775 14.5865 3.3857 31.8704 10.2718
# 2 42.3775 143.9821 29.6613 4.2114 16.1196 16.5009
# 3 14.5865 29.6613 118.7091 6.4922 18.5149 -0.3490
# 4 3.3857 4.2114 6.4922 59.5105 9.8087 14.0027
# 5 31.8704 16.1196 18.5149 9.8087 48.9019 8.4407
# 6 10.2718 16.5009 -0.3490 14.0027 8.4407 35.5243
#
#
#
# Elastic Compliance Matrix: (Units=1/GPa)
#
#
# Indices 1 2 3 4 5 6 
#
# 1 0.019052 -0.004322 0.000405 0.001343 -0.011178 -0.001371
# 2 -0.004322 0.008849 -0.001884 0.000422 0.001099 -0.003307
# 3 0.000405 -0.001884 0.009424 -0.000826 -0.003387 0.001981
# 4 0.001343 0.000422 -0.000826 0.019048 -0.003258 -0.007327
# 5 -0.011178 0.001099 -0.003387 -0.003258 0.029846 -0.003119
# 6 -0.001371 -0.003307 0.001981 -0.007327 -0.003119 0.033731
#
#
# Mechanical properties :
#
#
# Convention : Reuss Voigt Hill
#
# Bulk Modulus (GPa) = 38.87579 57.43692 48.15635
# Shear Modulus (GPa) = 35.68200 45.92441 40.80320
#
# Velocity S-wave (km/s) = 3.69568 4.19268 3.95200
# Velocity P-wave (km/s) = 5.75250 6.73967 6.26556
#
# Compressibility (1/GPa) = 0.02572295
#
# Stress axis : x y z
#
# Youngs Moduli (GPa) = 52.48852 113.00718 106.10859
#
# Poissons Ratio (x) = 0.48836 -0.04295
# Poissons Ratio (y) = 0.22683 0.19994
# Poissons Ratio (z) = -0.02124 0.21294
#
# Static dielectric constant tensor:
#      x y z
#    x 2.211140 -0.119880 -0.064410 
#    y -0.119880 2.127830 0.019720 
#    z -0.064410 0.019720 2.053380 
# 
# From -- ./inp_files/45834.got.cif
#   From: 2010.05.17/outbox.cif.g08.bks.cpg/sg2_23_cif.got.tgz:45834.got - 2010.06.03 11:33:40.
