data_PCOD9037680
_publ_section_title
;
Structure prediction by ZEFSAII (Michael W. Deem and Ramdas Pophale) SiO2 
 PCOD9037680
Probable space group: P -1
;
_chemical_formula_sum "Si O2"
_cell_formula_units_Z 12
_cell_length_a 7.746329
_cell_length_b 18.818003
_cell_length_c 7.839050
_cell_angle_alpha 44.898912
_cell_angle_beta 76.812638
_cell_angle_gamma 42.738318
_cell_volume 433.829499
_symmetry_space_group_name_H-M "P -1"
_symmetry_group_IT_number 2
_symmetry_cell_setting 'triclinic'
loop_
_space_group_symop_operation_xyz
x,y,z
-x,-y,-z
loop_
_atom_site_type_symbol
_atom_site_label
_atom_site_fract_x
_atom_site_fract_y
_atom_site_fract_z
Si Si1 0.740641 0.826526 0.119137
Si Si2 0.338863 0.489984 0.380209
Si Si3 0.205261 0.051557 0.355645
Si Si4 0.741349 0.136358 0.087071
Si Si5 0.188724 0.415301 0.278045
Si Si6 0.176178 0.769558 0.545139
O O1 0.878511 0.340279 0.736540
O O2 0.772541 0.704624 0.416273
O O3 0.610062 0.942370 0.776168
O O4 0.500000 0.000000 0.000000
O O5 0.095725 0.546589 0.210991
O O6 0.643379 0.382682 0.377674
O O7 0.492017 0.326326 0.732194
O O8 0.009079 0.081036 0.206649
O O9 0.956969 0.211534 0.282280
O O10 0.384097 0.877005 0.711797
O O11 0.894922 0.979135 0.192248
O O12 0.541456 0.288601 0.367148
O O13 0.000000 0.500000 0.000000
#
# Coordination Sequence:
#
# PCOD9037680 Si02
#       6
#     2   2   2   2   2   2
#     4  12  26  43  62 102 142 173 224 275 335 393
#     4  10  23  40  73  97 130 180 229 269 327 413
#     4   9  21  39  69  98 137 170 218 281 334 393
#     4   9  18  41  69 102 125 177 219 270 342 395
#     4  10  24  46  69  93 132 188 221 270 338 406
#     4   8  19  40  71  92 128 169 228 266 329 392
#
# _framework density 27.660634999999999
#
# number of rings (size 3 to 8) (size 9 to 14) (size 15 to 20)
#    2.000    0.333    0.000    2.000    2.333    1.333 
#    0.000    3.333    0.000    0.000    0.000    0.000 
#    0.000    0.000    0.000    0.000    0.000    0.000 
#
# Total GULP energy -66809.591892 kJ/mol
# GULP energy per Si atom -5567.465991 kJ/mol
# Density = 2.759768 g / cm^3
# Si number density = 27.660635 Si / 1000 Ang^3
#
#
#
# Elastic Constant Matrix: (Units=GPa)
#
#
# Indices 1 2 3 4 5 6 
#
# 1 107.8807 39.5924 41.6432 22.2976 -13.4767 5.9384
# 2 39.5924 205.6702 31.9500 -12.6545 -11.2180 -13.4727
# 3 41.6432 31.9500 68.7538 8.0500 -19.3337 -5.2274
# 4 22.2976 -12.6545 8.0500 73.5061 -9.0007 -11.1525
# 5 -13.4767 -11.2180 -19.3337 -9.0007 52.9683 13.0977
# 6 5.9384 -13.4727 -5.2274 -11.1525 13.0977 38.1184
#
#
#
# Elastic Compliance Matrix: (Units=1/GPa)
#
#
# Indices 1 2 3 4 5 6 
#
# 1 0.014290 -0.002237 -0.007177 -0.004665 0.001176 -0.005770
# 2 -0.002237 0.005840 -0.001459 0.002265 -0.000209 0.002947
# 3 -0.007177 -0.001459 0.021112 0.000534 0.005200 0.001867
# 4 -0.004665 0.002265 0.000534 0.016374 0.000754 0.006132
# 5 0.001176 -0.000209 0.005200 0.000754 0.022942 -0.007206
# 6 -0.005770 0.002947 0.001867 0.006132 -0.007206 0.032701
#
#
# Mechanical properties :
#
#
# Convention : Reuss Voigt Hill
#
# Bulk Modulus (GPa) = 51.29451 67.63068 59.46260
# Shear Modulus (GPa) = 35.33479 50.85983 43.09731
#
# Velocity S-wave (km/s) = 3.57801 4.29267 3.95153
# Velocity P-wave (km/s) = 5.97110 7.00518 6.50871
#
# Compressibility (1/GPa) = 0.01949526
#
# Stress axis : x y z
#
# Youngs Moduli (GPa) = 69.98032 171.21930 47.36741
#
# Poissons Ratio (x) = 0.38297 0.33997
# Poissons Ratio (y) = 0.15653 0.06912
# Poissons Ratio (z) = 0.50228 0.24983
#
# Static dielectric constant tensor:
#      x y z
#    x 2.158860 0.010340 0.041220 
#    y 0.010340 2.202830 -0.002490 
#    z 0.041220 -0.002490 2.194580 
# 
# From -- ./inp_files/223006.got.cif
#   From: 2010.05.17/outbox.cif.g08.bks.cpg/sg2_112_cif.got.tgz:223006.got - 2010.06.03 11:33:40.
