data_PCOD9037267
_publ_section_title
;
Structure prediction by ZEFSAII (Michael W. Deem and Ramdas Pophale) SiO2 
 PCOD9037267
Probable space group: P -1
;
_chemical_formula_sum "Si O2"
_cell_formula_units_Z 14
_cell_length_a 11.921124
_cell_length_b 19.865017
_cell_length_c 8.560736
_cell_angle_alpha 138.256608
_cell_angle_beta 114.558113
_cell_angle_gamma 33.753714
_cell_volume 624.621941
_symmetry_space_group_name_H-M "P -1"
_symmetry_group_IT_number 2
_symmetry_cell_setting 'triclinic'
loop_
_space_group_symop_operation_xyz
x,y,z
-x,-y,-z
loop_
_atom_site_type_symbol
_atom_site_label
_atom_site_fract_x
_atom_site_fract_y
_atom_site_fract_z
Si Si1 0.963454 0.879810 0.214635
Si Si2 0.064196 0.371411 0.943731
Si Si3 0.248168 0.553598 0.279845
Si Si4 0.037912 0.079986 0.078222
Si Si5 0.419475 0.255432 0.091263
Si Si6 0.604304 0.294017 0.758132
Si Si7 0.191169 0.509473 0.698825
O O1 0.182329 0.775926 0.257577
O O2 0.722292 0.100490 0.525834
O O3 0.980753 0.911640 0.104512
O O4 0.991253 0.739994 0.973106
O O5 0.993647 0.316604 0.724681
O O6 0.325431 0.216792 0.895535
O O7 0.000000 0.500000 0.000000
O O8 0.882253 0.503677 0.215543
O O9 0.363715 0.383021 0.155206
O O10 0.168960 0.699944 0.596881
O O11 0.438892 0.443834 0.065800
O O12 0.303513 0.935555 0.025696
O O13 0.000000 0.000000 0.000000
O O14 0.247813 0.404834 0.398444
O O15 0.438440 0.394123 0.685008
#
# Coordination Sequence:
#
# PCOD9037267 Si02
#       7
#     2   2   2   2   2   2   2
#     4  11  23  40  62  97 131 172 219 258 323 391
#     4   9  22  43  68  95 126 170 219 266 327 381
#     4  10  23  43  66  94 132 170 217 268 321 377
#     4  12  26  40  65 100 135 173 215 260 324 388
#     4  11  22  42  66  96 131 171 217 269 319 381
#     4  10  23  40  64  94 133 171 213 267 318 386
#     4  11  21  40  69  93 129 171 213 270 327 373
#
# _framework density 22.413558999999999
#
# number of rings (size 3 to 8) (size 9 to 14) (size 15 to 20)
#    0.000    1.429    2.857    1.714    2.000    8.571 
#    0.000    6.429    0.000    0.000    0.000    0.000 
#    0.000    0.000    0.000    0.000    0.000    0.000 
#
# Total GULP energy -78245.160133 kJ/mol
# GULP energy per Si atom -5588.940010 kJ/mol
# Density = 2.236254 g / cm^3
# Si number density = 22.413559 Si / 1000 Ang^3
#
#
#
# Elastic Constant Matrix: (Units=GPa)
#
#
# Indices 1 2 3 4 5 6 
#
# 1 55.5826 9.6800 12.3086 2.1363 -6.7050 11.5719
# 2 9.6800 80.2670 4.3743 -6.7158 -1.8226 -6.0939
# 3 12.3086 4.3743 99.4230 5.5504 -3.2472 4.1634
# 4 2.1363 -6.7158 5.5504 30.5978 7.6170 -4.9426
# 5 -6.7050 -1.8226 -3.2472 7.6170 15.5199 -7.3793
# 6 11.5719 -6.0939 4.1634 -4.9426 -7.3793 33.8718
#
#
#
# Elastic Compliance Matrix: (Units=1/GPa)
#
#
# Indices 1 2 3 4 5 6 
#
# 1 0.021459 -0.003242 -0.001705 -0.004916 0.007744 -0.006735
# 2 -0.003242 0.013536 -0.000587 0.003952 0.000133 0.004221
# 3 -0.001705 -0.000587 0.010547 -0.002622 0.002361 -0.000688
# 4 -0.004916 0.003952 -0.002622 0.039986 -0.019822 0.004229
# 5 0.007744 0.000133 0.002361 -0.019822 0.083954 0.012486
# 6 -0.006735 0.004221 -0.000688 0.004229 0.012486 0.036005
#
#
# Mechanical properties :
#
#
# Convention : Reuss Voigt Hill
#
# Bulk Modulus (GPa) = 29.00721 31.99981 30.50351
# Shear Modulus (GPa) = 21.92550 29.92520 25.92535
#
# Velocity S-wave (km/s) = 3.13105 3.65792 3.40469
# Velocity P-wave (km/s) = 5.10306 5.66996 5.39396
#
# Compressibility (1/GPa) = 0.03447419
#
# Stress axis : x y z
#
# Youngs Moduli (GPa) = 46.60140 73.87974 94.81200
#
# Poissons Ratio (x) = 0.23950 0.16161
# Poissons Ratio (y) = 0.15107 0.05568
# Poissons Ratio (z) = 0.07943 0.04338
#
# Static dielectric constant tensor:
#      x y z
#    x 1.843210 -0.033690 0.046630 
#    y -0.033690 1.862870 -0.011730 
#    z 0.046630 -0.011730 1.889130 
# 
# From -- ./inp_files/27613.got.cif
#   From: 2010.05.17/outbox.cif.g08.bks.cpg/sg2_14_cif.got.tgz:27613.got - 2010.06.03 11:33:40.
