data_PCOD9037695
_publ_section_title
;
Structure prediction by ZEFSAII (Michael W. Deem and Ramdas Pophale) SiO2 
 PCOD9037695
Probable space group: P -1
;
_chemical_formula_sum "Si O2"
_cell_formula_units_Z 14
_cell_length_a 15.218646
_cell_length_b 7.105084
_cell_length_c 12.380254
_cell_angle_alpha 100.948094
_cell_angle_beta 26.845751
_cell_angle_gamma 94.905367
_cell_volume 582.795013
_symmetry_space_group_name_H-M "P -1"
_symmetry_group_IT_number 2
_symmetry_cell_setting 'triclinic'
loop_
_space_group_symop_operation_xyz
x,y,z
-x,-y,-z
loop_
_atom_site_type_symbol
_atom_site_label
_atom_site_fract_x
_atom_site_fract_y
_atom_site_fract_z
Si Si1 0.450763 0.717433 0.205563
Si Si2 0.669174 0.635322 0.630670
Si Si3 0.408459 0.295605 0.717709
Si Si4 0.230389 0.421099 0.721586
Si Si5 0.113739 0.026901 0.540269
Si Si6 0.298152 0.980925 0.098905
Si Si7 0.777803 0.976102 0.228466
O O1 0.364456 0.521160 0.258433
O O2 0.576214 0.657849 0.170363
O O3 0.251379 0.883128 0.456543
O O4 0.598900 0.828463 0.989559
O O5 0.705830 0.529280 0.461976
O O6 0.847965 0.752817 0.465010
O O7 0.472288 0.801041 0.860639
O O8 0.329053 0.458425 0.732789
O O9 0.262161 0.139208 0.848200
O O10 0.619433 0.172812 0.432883
O O11 0.268385 0.184001 0.652751
O O12 0.000000 0.500000 0.000000
O O13 0.885784 0.010599 0.779573
O O14 0.211353 0.954154 0.309491
O O15 0.000000 0.000000 0.000000
#
# Coordination Sequence:
#
# PCOD9037695 Si02
#       7
#     2   2   2   2   2   2   2
#     4  11  23  40  67  98 133 170 217 269 330 394
#     4  11  24  42  66  99 132 174 218 272 328 389
#     4   9  22  39  56  92 125 169 219 259 312 381
#     4  10  23  41  56  91 134 169 217 264 312 375
#     4  10  24  46  70  96 131 166 219 273 341 399
#     4  10  24  46  69  97 129 170 213 280 336 401
#     4   9  19  38  61  79 116 175 217 259 313 366
#
# _framework density 24.022167
#
# number of rings (size 3 to 8) (size 9 to 14) (size 15 to 20)
#    0.857    1.143    0.000    3.429    2.000    8.571 
#    0.000    2.857    0.000    0.000    0.000    0.000 
#    0.000    0.000    0.000    0.000    0.000    0.000 
#
# Total GULP energy -78097.426102 kJ/mol
# GULP energy per Si atom -5578.387579 kJ/mol
# Density = 2.396749 g / cm^3
# Si number density = 24.022167 Si / 1000 Ang^3
#
#
#
# Elastic Constant Matrix: (Units=GPa)
#
#
# Indices 1 2 3 4 5 6 
#
# 1 70.8252 8.9970 13.8812 2.3349 -24.5742 5.6160
# 2 8.9970 117.4732 21.2501 -11.7172 -13.7392 11.1542
# 3 13.8812 21.2501 62.7250 -9.1388 -15.7382 -9.9069
# 4 2.3349 -11.7172 -9.1388 26.4762 3.4351 -3.0521
# 5 -24.5742 -13.7392 -15.7382 3.4351 50.1288 -5.1054
# 6 5.6160 11.1542 -9.9069 -3.0521 -5.1054 36.5405
#
#
#
# Elastic Compliance Matrix: (Units=1/GPa)
#
#
# Indices 1 2 3 4 5 6 
#
# 1 0.017743 -0.000044 -0.002981 -0.003937 0.007738 -0.002769
# 2 -0.000044 0.009825 -0.003190 0.002704 0.001131 -0.003473
# 3 -0.002981 -0.003190 0.021131 0.006498 0.004705 0.008361
# 4 -0.003937 0.002704 0.006498 0.042318 -0.001553 0.004859
# 5 0.007738 0.001131 0.004705 -0.001553 0.025965 0.003239
# 6 -0.002769 -0.003473 0.008361 0.004859 0.003239 0.031978
#
#
# Mechanical properties :
#
#
# Convention : Reuss Voigt Hill
#
# Bulk Modulus (GPa) = 27.57204 37.69778 32.63491
# Shear Modulus (GPa) = 28.82187 36.42212 32.62199
#
# Velocity S-wave (km/s) = 3.46758 3.89805 3.68910
# Velocity P-wave (km/s) = 5.24736 5.99889 5.63567
#
# Compressibility (1/GPa) = 0.03626862
#
# Stress axis : x y z
#
# Youngs Moduli (GPa) = 56.35932 101.78489 47.32466
#
# Poissons Ratio (x) = 0.00451 0.14108
# Poissons Ratio (y) = 0.00250 0.15094
# Poissons Ratio (z) = 0.16801 0.32465
#
# Static dielectric constant tensor:
#      x y z
#    x 2.048440 0.029310 0.018600 
#    y 0.029310 1.999570 -0.056440 
#    z 0.018600 -0.056440 1.870990 
# 
# From -- ./inp_files/442988.got.cif
#   From: 2010.05.17/outbox.cif.g08.bks.cpg/sg2_222_cif.got.tgz:442988.got - 2010.06.03 11:33:40.
