data_PCOD9037057
_publ_section_title
;
Structure prediction by ZEFSAII (Michael W. Deem and Ramdas Pophale) SiO2 
 PCOD9037057
Probable space group: P -1
;
_chemical_formula_sum "Si O2"
_cell_formula_units_Z 14
_cell_length_a 17.478342
_cell_length_b 11.902372
_cell_length_c 8.054771
_cell_angle_alpha 98.143852
_cell_angle_beta 73.694608
_cell_angle_gamma 31.700588
_cell_volume 554.646897
_symmetry_space_group_name_H-M "P -1"
_symmetry_group_IT_number 2
_symmetry_cell_setting 'triclinic'
loop_
_space_group_symop_operation_xyz
x,y,z
-x,-y,-z
loop_
_atom_site_type_symbol
_atom_site_label
_atom_site_fract_x
_atom_site_fract_y
_atom_site_fract_z
Si Si1 0.510039 0.287449 0.683827
Si Si2 0.788059 0.633668 0.084439
Si Si3 0.612771 0.388215 0.740068
Si Si4 0.658960 0.768543 0.694387
Si Si5 0.064570 0.435956 0.686985
Si Si6 0.941089 0.183790 0.791939
Si Si7 0.317367 0.510977 0.494089
O O1 0.554610 0.361001 0.648964
O O2 0.430908 0.342045 0.567690
O O3 0.740892 0.919491 0.519327
O O4 0.313427 0.525460 0.989625
O O5 0.913840 0.346868 0.912882
O O6 0.843526 0.659176 0.921189
O O7 0.881078 0.558547 0.183729
O O8 0.520719 0.965397 0.289820
O O9 0.533980 0.608865 0.746227
O O10 0.500000 0.500000 0.000000
O O11 0.888936 0.030920 0.513366
O O12 0.880483 0.553584 0.497081
O O13 0.730294 0.543804 0.576508
O O14 0.500000 0.000000 0.000000
O O15 0.094869 0.887526 0.736616
#
# Coordination Sequence:
#
# PCOD9037057 Si02
#       7
#     2   2   2   2   2   2   2
#     4  12  20  43  71  95 131 173 218 275 320 384
#     4  11  22  44  68  99 126 177 226 267 326 394
#     4  10  25  42  63  95 134 167 215 265 332 387
#     4  12  26  44  66  97 139 173 215 276 331 394
#     4  11  23  39  73  95 134 175 221 270 329 385
#     4  10  23  39  71  94 130 168 226 262 327 382
#     4  10  24  44  63 102 129 169 226 269 320 387
#
# _framework density 25.241282999999999
#
# number of rings (size 3 to 8) (size 9 to 14) (size 15 to 20)
#    0.857    0.286    4.286    2.143    2.000    1.143 
#    5.143    0.000    0.000    0.000    0.000    0.000 
#    0.000    0.000    0.000    0.000    0.000    0.000 
#
# Total GULP energy -78246.307336 kJ/mol
# GULP energy per Si atom -5589.021953 kJ/mol
# Density = 2.518383 g / cm^3
# Si number density = 25.241283 Si / 1000 Ang^3
#
#
#
# Elastic Constant Matrix: (Units=GPa)
#
#
# Indices 1 2 3 4 5 6 
#
# 1 131.5150 27.7636 39.7008 -6.9960 -16.8342 36.0589
# 2 27.7636 55.2241 19.6812 -0.8398 12.8319 15.5011
# 3 39.7008 19.6812 112.0948 -15.6345 -22.6286 11.7687
# 4 -6.9960 -0.8398 -15.6345 34.0814 -0.1214 -2.6569
# 5 -16.8342 12.8319 -22.6286 -0.1214 40.8004 -0.6985
# 6 36.0589 15.5011 11.7687 -2.6569 -0.6985 51.2383
#
#
#
# Elastic Compliance Matrix: (Units=1/GPa)
#
#
# Indices 1 2 3 4 5 6 
#
# 1 0.011462 -0.004799 -0.001313 0.001170 0.005407 -0.006178
# 2 -0.004799 0.026795 -0.005850 -0.003349 -0.013726 -0.003747
# 3 -0.001313 -0.005850 0.012878 0.005535 0.008459 0.000138
# 4 0.001170 -0.003349 0.005535 0.032106 0.004712 0.000648
# 5 0.005407 -0.013726 0.008459 0.004712 0.035748 -0.000864
# 6 -0.006178 -0.003747 0.000138 0.000648 -0.000864 0.024988
#
#
# Mechanical properties :
#
#
# Convention : Reuss Voigt Hill
#
# Bulk Modulus (GPa) = 36.74881 52.56948 44.65915
# Shear Modulus (GPa) = 28.25319 39.33657 33.79488
#
# Velocity S-wave (km/s) = 3.34926 3.95197 3.66303
# Velocity P-wave (km/s) = 5.43575 6.45725 5.96839
#
# Compressibility (1/GPa) = 0.02721176
#
# Stress axis : x y z
#
# Youngs Moduli (GPa) = 87.24808 37.32003 77.64942
#
# Poissons Ratio (x) = 0.17909 0.10199
# Poissons Ratio (y) = 0.41867 0.45422
# Poissons Ratio (z) = 0.11460 0.21831
#
# Static dielectric constant tensor:
#      x y z
#    x 2.024400 0.002380 0.034250 
#    y 0.002380 1.989170 -0.057870 
#    z 0.034250 -0.057870 2.064680 
# 
# From -- ./inp_files/331089.got.cif
#   From: 2010.05.17/outbox.cif.g08.bks.cpg/sg2_166_cif.got.tgz:331089.got - 2010.06.03 11:33:40.
