data_PCOD9037470
_publ_section_title
;
Structure prediction by ZEFSAII (Michael W. Deem and Ramdas Pophale) SiO2 
 PCOD9037470
Probable space group: P -1
;
_chemical_formula_sum "Si O2"
_cell_formula_units_Z 14
_cell_length_a 17.423997
_cell_length_b 5.446151
_cell_length_c 14.807631
_cell_angle_alpha 62.199313
_cell_angle_beta 152.085519
_cell_angle_gamma 116.467924
_cell_volume 579.982022
_symmetry_space_group_name_H-M "P -1"
_symmetry_group_IT_number 2
_symmetry_cell_setting 'triclinic'
loop_
_space_group_symop_operation_xyz
x,y,z
-x,-y,-z
loop_
_atom_site_type_symbol
_atom_site_label
_atom_site_fract_x
_atom_site_fract_y
_atom_site_fract_z
Si Si1 0.334568 0.600876 0.591854
Si Si2 0.058717 0.826983 0.006412
Si Si3 0.148057 0.647611 0.570672
Si Si4 0.377704 0.042327 0.219993
Si Si5 0.759651 0.353233 0.012539
Si Si6 0.903488 0.801248 0.665710
Si Si7 0.598599 0.288470 0.031538
O O1 0.192646 0.592942 0.522014
O O2 0.425313 0.881104 0.594780
O O3 0.264133 0.394610 0.475848
O O4 0.478676 0.476844 0.821539
O O5 0.966269 0.934977 0.802592
O O6 0.000000 0.500000 0.000000
O O7 0.257651 0.859433 0.194906
O O8 0.000000 0.000000 0.000000
O O9 0.311359 0.596073 0.805657
O O10 0.000000 0.500000 0.500000
O O11 0.115713 0.971750 0.471166
O O12 0.308656 0.344344 0.114855
O O13 0.332564 0.883750 0.105882
O O14 0.741501 0.249975 0.113861
O O15 0.945667 0.376936 0.170638
O O16 0.500000 0.000000 0.000000
#
# Coordination Sequence:
#
# PCOD9037470 Si02
#       7
#     2   2   2   2   2   2   2
#     4  11  25  42  67  99 147 191 231 287 352 413
#     4  11  25  48  79 105 131 179 238 296 363 432
#     4  12  27  40  68 102 147 193 242 284 332 417
#     4  10  23  45  73 102 137 183 229 293 359 416
#     4  10  23  40  67  96 140 187 234 280 342 410
#     4  11  26  44  68 104 142 180 237 299 352 416
#     4  11  22  40  59  96 139 192 239 278 335 409
#
# _framework density 24.138680999999998
#
# number of rings (size 3 to 8) (size 9 to 14) (size 15 to 20)
#    0.000    1.143    1.429    3.857   18.000    1.143 
#    0.000    1.429    0.000    0.000    0.000    0.000 
#    0.000    0.000    0.000    0.000    0.000    0.000 
#
# Total GULP energy -78110.970618 kJ/mol
# GULP energy per Si atom -5579.355044 kJ/mol
# Density = 2.408374 g / cm^3
# Si number density = 24.138681 Si / 1000 Ang^3
#
#
#
# Elastic Constant Matrix: (Units=GPa)
#
#
# Indices 1 2 3 4 5 6 
#
# 1 141.9139 44.3682 15.8212 21.3052 0.8453 4.6949
# 2 44.3682 120.6909 16.9004 25.0243 13.6222 14.1911
# 3 15.8212 16.9004 73.2966 22.9037 0.5074 -1.8434
# 4 21.3052 25.0243 22.9037 43.9091 -0.3229 6.3762
# 5 0.8453 13.6222 0.5074 -0.3229 24.7568 8.0275
# 6 4.6949 14.1911 -1.8434 6.3762 8.0275 54.3368
#
#
#
# Elastic Compliance Matrix: (Units=1/GPa)
#
#
# Indices 1 2 3 4 5 6 
#
# 1 0.008253 -0.002634 -0.000476 -0.002255 0.001130 0.000056
# 2 -0.002634 0.011073 -0.000541 -0.004601 -0.005627 -0.001311
# 3 -0.000476 -0.000541 0.016533 -0.008356 -0.000728 0.001831
# 4 -0.002255 -0.004601 -0.008356 0.031344 0.004223 -0.003189
# 5 0.001130 -0.005627 -0.000728 0.004223 0.045420 -0.005858
# 6 0.000056 -0.001311 0.001831 -0.003189 -0.005858 0.020043
#
#
# Mechanical properties :
#
#
# Convention : Reuss Voigt Hill
#
# Bulk Modulus (GPa) = 35.01696 54.45346 44.73521
# Shear Modulus (GPa) = 33.44803 41.85465 37.65134
#
# Velocity S-wave (km/s) = 3.72648 4.16856 3.95371
# Velocity P-wave (km/s) = 5.74923 6.76585 6.27815
#
# Compressibility (1/GPa) = 0.02855759
#
# Stress axis : x y z
#
# Youngs Moduli (GPa) = 121.16820 90.31004 60.48603
#
# Poissons Ratio (x) = 0.23787 0.02878
# Poissons Ratio (y) = 0.31914 0.03271
# Poissons Ratio (z) = 0.05766 0.04884
#
# Static dielectric constant tensor:
#      x y z
#    x 2.012210 -0.017860 0.049210 
#    y -0.017860 1.976520 -0.021580 
#    z 0.049210 -0.021580 1.945060 
# 
# From -- ./inp_files/488683.got.cif
#   From: 2010.05.17/outbox.cif.g08.bks.cpg/sg2_245_cif.got.tgz:488683.got - 2010.06.03 11:33:40.
