data_PCOD9037031
_publ_section_title
;
Structure prediction by ZEFSAII (Michael W. Deem and Ramdas Pophale) SiO2 
 PCOD9037031
Probable space group: P -1
;
_chemical_formula_sum "Si O2"
_cell_formula_units_Z 16
_cell_length_a 11.548420
_cell_length_b 18.839196
_cell_length_c 5.158905
_cell_angle_alpha 48.444551
_cell_angle_beta 60.918660
_cell_angle_gamma 46.494872
_cell_volume 608.294678
_symmetry_space_group_name_H-M "P -1"
_symmetry_group_IT_number 2
_symmetry_cell_setting 'triclinic'
loop_
_space_group_symop_operation_xyz
x,y,z
-x,-y,-z
loop_
_atom_site_type_symbol
_atom_site_label
_atom_site_fract_x
_atom_site_fract_y
_atom_site_fract_z
Si Si1 0.610398 0.029453 0.960836
Si Si2 0.299932 0.796176 0.083142
Si Si3 0.159756 0.381365 0.032812
Si Si4 0.586144 0.735300 0.589559
Si Si5 0.975861 0.296375 0.176932
Si Si6 0.778337 0.353425 0.745753
Si Si7 0.191281 0.033822 0.612433
Si Si8 0.568235 0.591909 0.578209
O O1 0.753480 0.987935 0.696845
O O2 0.493379 0.167515 0.778248
O O3 0.681749 0.975053 0.293710
O O4 0.500000 0.000000 0.000000
O O5 0.236487 0.752509 0.034073
O O6 0.389358 0.692217 0.442280
O O7 0.449785 0.794360 0.810717
O O8 0.181424 0.927723 0.970685
O O9 0.248268 0.300065 0.380851
O O10 0.110054 0.320891 0.030019
O O11 0.291263 0.401800 0.730931
O O12 0.000000 0.500000 0.000000
O O13 0.593514 0.623786 0.758962
O O14 0.841733 0.367385 0.369561
O O15 0.042665 0.164041 0.473315
O O16 0.904066 0.328536 0.892241
O O17 0.615343 0.467818 0.742607
#
# Coordination Sequence:
#
# PCOD9037031 Si02
#       8
#     2   2   2   2   2   2   2   2
#     4  11  22  39  66 100 133 175 223 275 336 395
#     4  10  25  46  68 100 132 179 233 286 329 391
#     4  11  23  42  65  98 143 175 222 275 340 418
#     4  10  23  39  69  99 132 177 222 279 345 392
#     4  12  28  45  67 105 136 185 223 271 348 408
#     4  12  28  45  70  98 139 181 232 278 331 403
#     4  11  24  44  67  96 139 174 227 278 332 403
#     4  11  23  43  71 100 132 179 226 283 343 396
#
# _framework density 26.303042000000001
#
# number of rings (size 3 to 8) (size 9 to 14) (size 15 to 20)
#    0.000    1.000    2.500    3.000    7.000    2.500 
#    0.000    0.000    0.000    0.000    0.000    0.000 
#    0.000    0.000    0.000    0.000    0.000    0.000 
#
# Total GULP energy -89545.077322 kJ/mol
# GULP energy per Si atom -5596.567333 kJ/mol
# Density = 2.624317 g / cm^3
# Si number density = 26.303042 Si / 1000 Ang^3
#
#
#
# Elastic Constant Matrix: (Units=GPa)
#
#
# Indices 1 2 3 4 5 6 
#
# 1 121.5538 41.3368 20.9090 1.2733 14.5229 30.4541
# 2 41.3368 135.4960 23.3239 -20.7185 7.3912 15.2806
# 3 20.9090 23.3239 48.0071 -8.6937 11.5131 6.2226
# 4 1.2733 -20.7185 -8.6937 51.4267 7.9371 -3.2424
# 5 14.5229 7.3912 11.5131 7.9371 42.9370 -3.1296
# 6 30.4541 15.2806 6.2226 -3.2424 -3.1296 49.0198
#
#
#
# Elastic Compliance Matrix: (Units=1/GPa)
#
#
# Indices 1 2 3 4 5 6 
#
# 1 0.011446 -0.002427 -0.002586 -0.001647 -0.002917 -0.006322
# 2 -0.002427 0.009215 -0.002498 0.003417 -0.000791 -0.000872
# 3 -0.002586 -0.002498 0.025625 0.004320 -0.006437 -0.000993
# 4 -0.001647 0.003417 0.004320 0.022446 -0.005298 0.000556
# 5 -0.002917 -0.000791 -0.006437 -0.005298 0.027430 0.004277
# 6 -0.006322 -0.000872 -0.000993 0.000556 0.004277 0.025035
#
#
# Mechanical properties :
#
#
# Convention : Reuss Voigt Hill
#
# Bulk Modulus (GPa) = 31.98493 52.91070 42.44781
# Shear Modulus (GPa) = 34.09711 43.30918 38.70314
#
# Velocity S-wave (km/s) = 3.60435 4.06217 3.84009
# Velocity P-wave (km/s) = 5.43216 6.49316 5.98621
#
# Compressibility (1/GPa) = 0.03126473
#
# Stress axis : x y z
#
# Youngs Moduli (GPa) = 87.36377 108.52221 39.02419
#
# Poissons Ratio (x) = 0.26335 0.10090
# Poissons Ratio (y) = 0.21200 0.09750
# Poissons Ratio (z) = 0.22589 0.27114
#
# Static dielectric constant tensor:
#      x y z
#    x 2.054430 -0.012950 -0.059890 
#    y -0.012950 2.076950 -0.030650 
#    z -0.059890 -0.030650 2.192520 
# 
# From -- ./inp_files/66253.got.cif
#   From: 2010.05.17/outbox.cif.g08.bks.cpg/sg2_34_cif.got.tgz:66253.got - 2010.06.03 11:33:40.
