data_PCOD9037016
_publ_section_title
;
Structure prediction by ZEFSAII (Michael W. Deem and Ramdas Pophale) SiO2 
 PCOD9037016
Probable space group: P -1
;
_chemical_formula_sum "Si O2"
_cell_formula_units_Z 12
_cell_length_a 12.464472
_cell_length_b 13.998256
_cell_length_c 12.332765
_cell_angle_alpha 41.980561
_cell_angle_beta 23.964034
_cell_angle_gamma 39.568607
_cell_volume 550.388635
_symmetry_space_group_name_H-M "P -1"
_symmetry_group_IT_number 2
_symmetry_cell_setting 'triclinic'
loop_
_space_group_symop_operation_xyz
x,y,z
-x,-y,-z
loop_
_atom_site_type_symbol
_atom_site_label
_atom_site_fract_x
_atom_site_fract_y
_atom_site_fract_z
Si Si1 0.286283 0.995334 0.294496
Si Si2 0.847535 0.975122 0.051024
Si Si3 0.307323 0.232900 0.251926
Si Si4 0.899701 0.356108 0.707498
Si Si5 0.653310 0.460564 0.061605
Si Si6 0.407883 0.812827 0.540342
O O1 0.415367 0.850101 0.375659
O O2 0.238836 0.134813 0.303302
O O3 0.000000 0.000000 0.500000
O O4 0.500000 0.000000 0.000000
O O5 0.131398 0.238114 0.520376
O O6 0.626927 0.135055 0.075714
O O7 0.640432 0.872598 0.333130
O O8 0.000000 0.000000 0.000000
O O9 0.096304 0.907378 0.791908
O O10 0.217046 0.407727 0.143874
O O11 0.614236 0.427711 0.846559
O O12 0.000000 0.500000 0.500000
O O13 0.823839 0.337682 0.917523
O O14 0.560300 0.361035 0.318400
#
# Coordination Sequence:
#
# PCOD9037016 Si02
#       6
#     2   2   2   2   2   2
#     4  11  25  49  72  93 128 179 235 296 346 384
#     4  11  26  41  65 101 145 180 224 265 334 417
#     4  10  24  43  69  98 136 186 227 274 339 408
#     4   9  21  38  63  97 145 185 212 252 342 414
#     4  10  23  39  68  99 143 178 219 268 338 415
#     4  11  26  44  67 101 134 177 228 288 335 396
#
# _framework density 21.802775
#
# number of rings (size 3 to 8) (size 9 to 14) (size 15 to 20)
#    0.000    1.667    0.000    2.500   18.667    0.000 
#    0.000    1.667    0.000    0.000    0.000    0.000 
#    0.000    0.000    0.000    0.000    0.000    0.000 
#
# Total GULP energy -66966.817622 kJ/mol
# GULP energy per Si atom -5580.568135 kJ/mol
# Density = 2.175315 g / cm^3
# Si number density = 21.802775 Si / 1000 Ang^3
#
#
#
# Elastic Constant Matrix: (Units=GPa)
#
#
# Indices 1 2 3 4 5 6 
#
# 1 137.6476 45.4025 52.8360 -9.2651 -3.6450 -1.3238
# 2 45.4025 115.2551 49.9843 -15.1280 -3.5897 -2.1485
# 3 52.8360 49.9843 139.5793 -7.2123 6.0981 -7.3184
# 4 -9.2651 -15.1280 -7.2123 65.2807 -13.2257 0.7540
# 5 -3.6450 -3.5897 6.0981 -13.2257 39.3192 -0.7039
# 6 -1.3238 -2.1485 -7.3184 0.7540 -0.7039 27.5910
#
#
#
# Elastic Compliance Matrix: (Units=1/GPa)
#
#
# Indices 1 2 3 4 5 6 
#
# 1 0.009131 -0.002311 -0.002670 0.000731 0.001288 -0.000437
# 2 -0.002311 0.011332 -0.003157 0.002377 0.002108 -0.000077
# 3 -0.002670 -0.003157 0.009482 -0.000522 -0.002144 0.002101
# 4 0.000731 0.002377 -0.000522 0.017161 0.006134 -0.000231
# 5 0.001288 0.002108 -0.002144 0.006134 0.028144 0.000208
# 6 -0.000437 -0.000077 0.002101 -0.000231 0.000208 0.036786
#
#
# Mechanical properties :
#
#
# Convention : Reuss Voigt Hill
#
# Bulk Modulus (GPa) = 73.15335 76.54752 74.85043
# Shear Modulus (GPa) = 37.63101 42.72213 40.17657
#
# Velocity S-wave (km/s) = 4.15899 4.43141 4.29736
# Velocity P-wave (km/s) = 7.52915 7.83380 7.68298
#
# Compressibility (1/GPa) = 0.01366991
#
# Stress axis : x y z
#
# Youngs Moduli (GPa) = 109.51266 88.24561 105.45785
#
# Poissons Ratio (x) = 0.20394 0.28161
# Poissons Ratio (y) = 0.25309 0.33288
# Poissons Ratio (z) = 0.29244 0.27855
#
# Static dielectric constant tensor:
#      x y z
#    x 1.706930 -0.065070 0.111220 
#    y -0.065070 1.798360 0.041960 
#    z 0.111220 0.041960 1.706540 
# 
# From -- ./inp_files/429479.got.cif
#   From: 2010.05.17/outbox.cif.g08.bks.cpg/sg2_215_cif.got.tgz:429479.got - 2010.06.03 11:33:40.
