data_PCOD9037493
_publ_section_title
;
Structure prediction by ZEFSAII (Michael W. Deem and Ramdas Pophale) SiO2 
 PCOD9037493
Probable space group: P -1
;
_chemical_formula_sum "Si O2"
_cell_formula_units_Z 16
_cell_length_a 11.823579
_cell_length_b 11.241573
_cell_length_c 11.306430
_cell_angle_alpha 97.674823
_cell_angle_beta 60.573969
_cell_angle_gamma 48.433305
_cell_volume 694.385678
_symmetry_space_group_name_H-M "P -1"
_symmetry_group_IT_number 2
_symmetry_cell_setting 'triclinic'
loop_
_space_group_symop_operation_xyz
x,y,z
-x,-y,-z
loop_
_atom_site_type_symbol
_atom_site_label
_atom_site_fract_x
_atom_site_fract_y
_atom_site_fract_z
Si Si1 0.259840 0.737419 0.828028
Si Si2 0.713241 0.558267 0.573420
Si Si3 0.451766 0.700777 0.298872
Si Si4 0.379611 0.134475 0.457677
Si Si5 0.883677 0.184472 0.342528
Si Si6 0.249341 0.297589 0.918722
Si Si7 0.387599 0.717310 0.081803
Si Si8 0.161399 0.469142 0.238522
O O1 0.462290 0.681791 0.732284
O O2 0.337298 0.565891 0.847272
O O3 0.250936 0.688203 0.694417
O O4 0.000000 0.000000 0.000000
O O5 0.685614 0.674253 0.496765
O O6 0.891052 0.307052 0.422569
O O7 0.791765 0.575644 0.649830
O O8 0.273217 0.794459 0.505602
O O9 0.587394 0.721267 0.222378
O O10 0.299167 0.814447 0.272299
O O11 0.119551 0.272135 0.594131
O O12 0.500000 0.000000 0.500000
O O13 0.583068 0.947005 0.229712
O O14 0.154333 0.924381 0.150756
O O15 0.196303 0.349020 0.093793
O O16 0.000000 0.500000 0.000000
O O17 0.500000 0.500000 0.000000
O O18 0.620204 0.613426 0.916982
#
# Coordination Sequence:
#
# PCOD9037493 Si02
#       8
#     2   2   2   2   2   2   2   2
#     4  11  24  42  68 101 139 186 229 287 353 416
#     4  11  26  47  68 105 141 184 240 286 360 420
#     4  10  23  40  67  99 136 176 233 284 344 418
#     4  12  28  47  75 102 142 188 239 299 346 425
#     4  11  24  43  71 102 140 190 226 294 355 415
#     4  11  26  46  71 107 138 188 239 292 357 407
#     4  11  23  41  69 104 140 179 227 290 349 421
#     4  11  26  48  69 105 142 184 238 290 358 418
#
# _framework density 23.04195
#
# number of rings (size 3 to 8) (size 9 to 14) (size 15 to 20)
#    0.000    1.000    1.250    5.250   10.500    0.500 
#    2.250    0.000    0.000    0.000    0.000    0.000 
#    0.000    0.000    0.000    0.000    0.000    0.000 
#
# Total GULP energy -89250.386504 kJ/mol
# GULP energy per Si atom -5578.149156 kJ/mol
# Density = 2.298951 g / cm^3
# Si number density = 23.041950 Si / 1000 Ang^3
#
#
#
# Elastic Constant Matrix: (Units=GPa)
#
#
# Indices 1 2 3 4 5 6 
#
# 1 78.3095 29.3198 18.2265 3.5682 3.1540 -18.0019
# 2 29.3198 101.2647 11.4199 12.3387 -4.2963 -12.7178
# 3 18.2265 11.4199 80.6778 34.1152 2.3491 0.7594
# 4 3.5682 12.3387 34.1152 48.5788 -12.8132 -0.8689
# 5 3.1540 -4.2963 2.3491 -12.8132 31.8223 -5.9943
# 6 -18.0019 -12.7178 0.7594 -0.8689 -5.9943 47.8662
#
#
#
# Elastic Compliance Matrix: (Units=1/GPa)
#
#
# Indices 1 2 3 4 5 6 
#
# 1 0.016355 -0.003927 -0.004567 0.003225 0.000483 0.005299
# 2 -0.003927 0.011551 0.000233 -0.002444 0.001268 0.001703
# 3 -0.004567 0.000233 0.020623 -0.016452 -0.008288 -0.003319
# 4 0.003225 -0.002444 -0.016452 0.036819 0.016050 0.003503
# 5 0.000483 0.001268 -0.008288 0.016050 0.039737 0.005918
# 6 0.005299 0.001703 -0.003319 0.003503 0.005918 0.024194
#
#
# Mechanical properties :
#
#
# Convention : Reuss Voigt Hill
#
# Bulk Modulus (GPa) = 31.24365 42.02050 36.63207
# Shear Modulus (GPa) = 28.33328 39.07251 33.70289
#
# Velocity S-wave (km/s) = 3.51043 4.12237 3.82864
# Velocity P-wave (km/s) = 5.47902 6.39802 5.95627
#
# Compressibility (1/GPa) = 0.03200650
#
# Stress axis : x y z
#
# Youngs Moduli (GPa) = 61.14378 86.56918 48.48907
#
# Poissons Ratio (x) = 0.33999 0.22144
# Poissons Ratio (y) = 0.24013 -0.01128
# Poissons Ratio (z) = 0.27923 -0.02014
#
# Static dielectric constant tensor:
#      x y z
#    x 1.933120 0.000790 0.105420 
#    y 0.000790 1.813850 -0.040030 
#    z 0.105420 -0.040030 1.932400 
# 
# From -- ./inp_files/428357.got.cif
#   From: 2010.05.17/outbox.cif.g08.bks.cpg/sg2_215_cif.got.tgz:428357.got - 2010.06.03 11:33:40.
