data_PCOD9037171
_publ_section_title
;
Structure prediction by ZEFSAII (Michael W. Deem and Ramdas Pophale) SiO2 
 PCOD9037171
Probable space group: P -1
;
_chemical_formula_sum "Si O2"
_cell_formula_units_Z 16
_cell_length_a 17.154348
_cell_length_b 12.188225
_cell_length_c 9.510089
_cell_angle_alpha 144.730036
_cell_angle_beta 137.588238
_cell_angle_gamma 36.795740
_cell_volume 666.843840
_symmetry_space_group_name_H-M "P -1"
_symmetry_group_IT_number 2
_symmetry_cell_setting 'triclinic'
loop_
_space_group_symop_operation_xyz
x,y,z
-x,-y,-z
loop_
_atom_site_type_symbol
_atom_site_label
_atom_site_fract_x
_atom_site_fract_y
_atom_site_fract_z
Si Si1 0.833147 0.801070 0.431023
Si Si2 0.768765 0.226726 0.384750
Si Si3 0.120468 0.583838 0.048297
Si Si4 0.492655 0.554605 0.212751
Si Si5 0.631861 0.978166 0.578950
Si Si6 0.807725 0.814623 0.906942
Si Si7 0.129921 0.641878 0.583258
Si Si8 0.782981 0.284879 0.930076
O O1 0.744999 0.790087 0.431568
O O2 0.995504 0.665738 0.496595
O O3 0.808604 0.047513 0.666488
O O4 0.805622 0.681539 0.139032
O O5 0.800457 0.324824 0.664319
O O6 0.630099 0.407068 0.318899
O O7 0.883536 0.195675 0.391417
O O8 0.762804 0.005021 0.163180
O O9 0.118154 0.665243 0.972290
O O10 0.968423 0.691899 0.007701
O O11 0.374079 0.538337 0.114253
O O12 0.437919 0.813594 0.400562
O O13 0.500000 0.500000 0.000000
O O14 0.727590 0.964574 0.820918
O O15 0.500000 0.000000 0.500000
O O16 0.788673 0.604104 0.634941
O O17 0.196044 0.698291 0.859163
#
# Coordination Sequence:
#
# PCOD9037171 Si02
#       8
#     2   2   2   2   2   2   2   2
#     4  10  23  40  62  96 129 169 216 262 318 387
#     4  12  24  43  64  95 133 173 214 263 317 383
#     4  11  26  41  64  96 134 172 211 261 328 383
#     4  11  22  41  63  94 123 167 219 258 315 382
#     4  11  22  39  67  96 126 164 216 272 320 373
#     4  11  23  39  64  97 127 166 221 262 316 384
#     4  11  22  39  68  94 127 171 215 269 318 372
#     4  11  22  41  65  91 130 168 214 270 320 370
#
# _framework density 23.993622999999999
#
# number of rings (size 3 to 8) (size 9 to 14) (size 15 to 20)
#    0.000    1.000    2.500    4.500    1.750    5.500 
#    0.000    2.500    0.000    0.000    0.000    0.000 
#    0.000    0.000    0.000    0.000    0.000    0.000 
#
# Total GULP energy -89154.472457 kJ/mol
# GULP energy per Si atom -5572.154529 kJ/mol
# Density = 2.393901 g / cm^3
# Si number density = 23.993623 Si / 1000 Ang^3
#
#
#
# Elastic Constant Matrix: (Units=GPa)
#
#
# Indices 1 2 3 4 5 6 
#
# 1 53.0991 7.5754 5.6382 1.9816 14.2555 -6.1495
# 2 7.5754 51.8136 53.2958 17.3708 -0.1489 -15.1499
# 3 5.6382 53.2958 136.3208 28.4015 -23.4301 -7.5362
# 4 1.9816 17.3708 28.4015 38.1406 -2.3771 8.1335
# 5 14.2555 -0.1489 -23.4301 -2.3771 33.8891 0.0627
# 6 -6.1495 -15.1499 -7.5362 8.1335 0.0627 35.7883
#
#
#
# Elastic Compliance Matrix: (Units=1/GPa)
#
#
# Indices 1 2 3 4 5 6 
#
# 1 0.022609 0.001317 -0.002988 -0.001149 -0.011659 0.004095
# 2 0.001317 0.046260 -0.016330 -0.013937 -0.012655 0.019560
# 3 -0.002988 -0.016330 0.016450 -0.003193 0.012340 -0.003259
# 4 -0.001149 -0.013937 -0.003193 0.038365 0.000935 -0.015490
# 5 -0.011659 -0.012655 0.012340 0.000935 0.042964 -0.005050
# 6 0.004095 0.019560 -0.003259 -0.015490 -0.005050 0.039769
#
#
# Mechanical properties :
#
#
# Convention : Reuss Voigt Hill
#
# Bulk Modulus (GPa) = 20.27725 41.58359 30.93042
# Shear Modulus (GPa) = 19.31561 33.21185 26.26373
#
# Velocity S-wave (km/s) = 2.84039 3.72451 3.31208
# Velocity P-wave (km/s) = 4.38480 5.98872 5.24839
#
# Compressibility (1/GPa) = 0.04931636
#
# Stress axis : x y z
#
# Youngs Moduli (GPa) = 44.22955 21.61688 60.79117
#
# Poissons Ratio (x) = -0.02847 0.18165
# Poissons Ratio (y) = -0.05826 0.99275
# Poissons Ratio (z) = 0.13216 0.35301
#
# Static dielectric constant tensor:
#      x y z
#    x 2.024500 0.041310 0.090170 
#    y 0.041310 2.037090 0.177000 
#    z 0.090170 0.177000 2.095130 
# 
# From -- ./inp_files/472035.got.cif
#   From: 2010.05.17/outbox.cif.g08.bks.cpg/sg2_237_cif.got.tgz:472035.got - 2010.06.03 11:33:40.
