data_PCOD9037382
_publ_section_title
;
Structure prediction by ZEFSAII (Michael W. Deem and Ramdas Pophale) SiO2 
 PCOD9037382
Probable space group: P -1
;
_chemical_formula_sum "Si O2"
_cell_formula_units_Z 14
_cell_length_a 11.692063
_cell_length_b 12.134890
_cell_length_c 14.226902
_cell_angle_alpha 77.215355
_cell_angle_beta 21.153660
_cell_angle_gamma 80.486382
_cell_volume 705.512917
_symmetry_space_group_name_H-M "P -1"
_symmetry_group_IT_number 2
_symmetry_cell_setting 'triclinic'
loop_
_space_group_symop_operation_xyz
x,y,z
-x,-y,-z
loop_
_atom_site_type_symbol
_atom_site_label
_atom_site_fract_x
_atom_site_fract_y
_atom_site_fract_z
Si Si1 0.883801 0.481799 0.699487
Si Si2 0.787935 0.924136 0.289995
Si Si3 0.043820 0.016051 0.575510
Si Si4 0.721702 0.293096 0.609909
Si Si5 0.356046 0.107734 0.806007
Si Si6 0.368184 0.189328 0.082383
Si Si7 0.963430 0.221377 0.719421
O O1 0.962451 0.356370 0.690641
O O2 0.000000 0.500000 0.500000
O O3 0.131639 0.576786 0.543488
O O4 0.500000 0.500000 0.000000
O O5 0.767703 0.878442 0.207671
O O6 0.830643 0.820715 0.346036
O O7 0.500000 0.000000 0.500000
O O8 0.080432 0.017566 0.075230
O O9 0.063345 0.145569 0.569527
O O10 0.337636 0.960597 0.405476
O O11 0.000000 0.000000 0.500000
O O12 0.735934 0.931835 0.863442
O O13 0.455036 0.227850 0.758251
O O14 0.042867 0.234767 0.355027
O O15 0.568952 0.268749 0.835775
O O16 0.584451 0.181002 0.010213
#
# Coordination Sequence:
#
# PCOD9037382 Si02
#       7
#     2   2   2   2   2   2   2
#     4  12  25  45  66  99 138 175 221 277 333 402
#     4  11  23  43  60  97 130 176 223 273 330 400
#     4  11  22  37  64 106 132 166 217 278 353 409
#     4  11  22  43  66  97 130 175 214 273 333 396
#     4  10  23  40  66  89 136 173 217 277 335 393
#     4  11  22  38  65  96 135 161 211 274 342 400
#     4  12  22  39  68  92 137 175 220 267 343 394
#
# _framework density 19.843719
#
# number of rings (size 3 to 8) (size 9 to 14) (size 15 to 20)
#    0.000    0.857    4.286    3.857    2.000    1.143 
#    0.000    0.714    0.000    0.857    0.000    0.000 
#    0.000    0.000    0.000    0.000    0.000    0.000 
#
# Total GULP energy -77961.319804 kJ/mol
# GULP energy per Si atom -5568.665700 kJ/mol
# Density = 1.979855 g / cm^3
# Si number density = 19.843719 Si / 1000 Ang^3
#
#
#
# Elastic Constant Matrix: (Units=GPa)
#
#
# Indices 1 2 3 4 5 6 
#
# 1 94.1546 59.4228 5.7428 -8.7372 -6.5737 -7.1273
# 2 59.4228 177.7600 45.7593 -7.5044 -14.5203 0.7269
# 3 5.7428 45.7593 90.9948 -11.2144 -7.0686 -9.7387
# 4 -8.7372 -7.5044 -11.2144 24.3343 7.3693 -10.1426
# 5 -6.5737 -14.5203 -7.0686 7.3693 35.1770 -3.2422
# 6 -7.1273 0.7269 -9.7387 -10.1426 -3.2422 33.6227
#
#
#
# Elastic Compliance Matrix: (Units=1/GPa)
#
#
# Indices 1 2 3 4 5 6 
#
# 1 0.015325 -0.005742 0.003698 0.008294 0.000141 0.006960
# 2 -0.005742 0.008794 -0.004754 -0.003701 0.002036 -0.003705
# 3 0.003698 -0.004754 0.015367 0.010358 0.000430 0.008504
# 4 0.008294 -0.003701 0.010358 0.059368 -0.008311 0.021946
# 5 0.000141 0.002036 0.000430 -0.008311 0.031178 0.000610
# 6 0.006960 -0.003705 0.008504 0.021946 0.000610 0.040439
#
#
# Mechanical properties :
#
#
# Convention : Reuss Voigt Hill
#
# Bulk Modulus (GPa) = 38.62424 64.97326 51.79875
# Shear Modulus (GPa) = 25.94723 35.42576 30.68649
#
# Velocity S-wave (km/s) = 3.61997 4.22979 3.93671
# Velocity P-wave (km/s) = 6.08101 7.52784 6.84277
#
# Compressibility (1/GPa) = 0.02589048
#
# Stress axis : x y z
#
# Youngs Moduli (GPa) = 65.25102 113.71283 65.07363
#
# Poissons Ratio (x) = 0.65293 -0.24066
# Poissons Ratio (y) = 0.37467 0.30939
# Poissons Ratio (z) = -0.24132 0.54065
#
# Static dielectric constant tensor:
#      x y z
#    x 1.803140 -0.015170 0.014580 
#    y -0.015170 1.831800 0.004280 
#    z 0.014580 0.004280 1.810420 
# 
# From -- ./inp_files/80681.got.cif
#   From: 2010.05.17/outbox.cif.g08.bks.cpg/sg2_41_cif.got.tgz:80681.got - 2010.06.03 11:33:40.
