data_PCOD9037504
_publ_section_title
;
Structure prediction by ZEFSAII (Michael W. Deem and Ramdas Pophale) SiO2 
 PCOD9037504
Probable space group: P -1
;
_chemical_formula_sum "Si O2"
_cell_formula_units_Z 14
_cell_length_a 4.969369
_cell_length_b 11.674013
_cell_length_c 12.950820
_cell_angle_alpha 111.446216
_cell_angle_beta 123.177404
_cell_angle_gamma 78.868185
_cell_volume 585.267649
_symmetry_space_group_name_H-M "P -1"
_symmetry_group_IT_number 2
_symmetry_cell_setting 'triclinic'
loop_
_space_group_symop_operation_xyz
x,y,z
-x,-y,-z
loop_
_atom_site_type_symbol
_atom_site_label
_atom_site_fract_x
_atom_site_fract_y
_atom_site_fract_z
Si Si1 0.869967 0.408653 0.355679
Si Si2 0.723988 0.013244 0.250538
Si Si3 0.083162 0.710742 0.123391
Si Si4 0.697052 0.746662 0.721154
Si Si5 0.383068 0.938616 0.350391
Si Si6 0.536012 0.534142 0.898883
Si Si7 0.204942 0.874961 0.003054
O O1 0.523785 0.355550 0.302109
O O2 0.776174 0.459642 0.238089
O O3 0.000000 0.500000 0.500000
O O4 0.164374 0.313148 0.372946
O O5 0.541065 0.138451 0.277304
O O6 0.661790 0.943827 0.324348
O O7 0.083308 0.027361 0.291888
O O8 0.560387 0.931783 0.099054
O O9 0.256495 0.580928 0.136966
O O10 0.193379 0.792798 0.076443
O O11 0.200036 0.805252 0.269478
O O12 0.731012 0.663265 0.995545
O O13 0.033573 0.789619 0.856850
O O14 0.500000 0.000000 0.500000
O O15 0.500000 0.500000 0.000000
O O16 0.000000 0.000000 0.000000
#
# Coordination Sequence:
#
# PCOD9037504 Si02
#       7
#     2   2   2   2   2   2   2
#     4  12  27  46  69 104 143 191 246 301 358 426
#     4  10  23  40  68 101 131 179 225 290 372 420
#     4  10  23  42  67 100 141 184 244 298 356 434
#     4  11  23  44  70  97 145 179 231 300 360 431
#     4  11  24  43  65 100 139 181 235 291 363 439
#     4  11  25  44  72 101 141 199 246 297 359 428
#     4   9  19  39  69 103 134 178 234 298 358 425
#
# _framework density 23.920679
#
# number of rings (size 3 to 8) (size 9 to 14) (size 15 to 20)
#    0.000    1.429    1.429    2.571    8.000    2.286 
#    2.571    5.714    0.000    0.000    0.000    0.000 
#    0.000    0.000    0.000    0.000    0.000    0.000 
#
# Total GULP energy -77995.399519 kJ/mol
# GULP energy per Si atom -5571.099966 kJ/mol
# Density = 2.386623 g / cm^3
# Si number density = 23.920679 Si / 1000 Ang^3
#
#
#
# Elastic Constant Matrix: (Units=GPa)
#
#
# Indices 1 2 3 4 5 6 
#
# 1 90.8565 15.4952 27.0121 12.3048 -2.9618 -11.0497
# 2 15.4952 82.9001 48.5164 20.8799 -3.8941 -10.0357
# 3 27.0121 48.5164 167.5587 29.2694 -10.2734 3.4368
# 4 12.3048 20.8799 29.2694 33.0863 -18.6032 -8.6124
# 5 -2.9618 -3.8941 -10.2734 -18.6032 31.2130 3.7762
# 6 -11.0497 -10.0357 3.4368 -8.6124 3.7762 36.6490
#
#
#
# Elastic Compliance Matrix: (Units=1/GPa)
#
#
# Indices 1 2 3 4 5 6 
#
# 1 0.012264 -0.000319 -0.001507 -0.003098 -0.001605 0.003189
# 2 -0.000319 0.016669 -0.003524 -0.009296 -0.005030 0.003132
# 3 -0.001507 -0.003524 0.008297 -0.006051 -0.001033 -0.003513
# 4 -0.003098 -0.009296 -0.006051 0.063637 0.033443 0.008596
# 5 -0.001605 -0.005030 -0.001033 0.033443 0.050745 0.000866
# 6 0.003189 0.003132 -0.003513 0.008596 0.000866 0.031365
#
#
# Mechanical properties :
#
#
# Convention : Reuss Voigt Hill
#
# Bulk Modulus (GPa) = 37.69377 58.15141 47.92259
# Shear Modulus (GPa) = 24.68878 36.87577 30.78227
#
# Velocity S-wave (km/s) = 3.21613 3.93056 3.59116
# Velocity P-wave (km/s) = 5.43906 6.70537 6.10513
#
# Compressibility (1/GPa) = 0.02652959
#
# Stress axis : x y z
#
# Youngs Moduli (GPa) = 81.53933 59.99163 120.52510
#
# Poissons Ratio (x) = 0.01915 0.18166
# Poissons Ratio (y) = 0.02603 0.42471
# Poissons Ratio (z) = 0.12290 0.21140
#
# Static dielectric constant tensor:
#      x y z
#    x 1.990230 -0.025860 -0.078260 
#    y -0.025860 2.068420 0.013980 
#    z -0.078260 0.013980 2.082140 
# 
# From -- ./inp_files/482307.got.cif
#   From: 2010.05.17/outbox.cif.g08.bks.cpg/sg2_242_cif.got.tgz:482307.got - 2010.06.03 11:33:40.
