data_PCOD9037258
_publ_section_title
;
Structure prediction by ZEFSAII (Michael W. Deem and Ramdas Pophale) SiO2 
 PCOD9037258
Probable space group: P -1
;
_chemical_formula_sum "Si O2"
_cell_formula_units_Z 16
_cell_length_a 14.415716
_cell_length_b 9.356621
_cell_length_c 13.699564
_cell_angle_alpha 98.268821
_cell_angle_beta 30.939151
_cell_angle_gamma 78.223336
_cell_volume 719.551625
_symmetry_space_group_name_H-M "P -1"
_symmetry_group_IT_number 2
_symmetry_cell_setting 'triclinic'
loop_
_space_group_symop_operation_xyz
x,y,z
-x,-y,-z
loop_
_atom_site_type_symbol
_atom_site_label
_atom_site_fract_x
_atom_site_fract_y
_atom_site_fract_z
Si Si1 0.508076 0.422771 0.589971
Si Si2 0.065522 0.379790 0.594058
Si Si3 0.174520 0.047709 0.331487
Si Si4 0.028726 0.954243 0.851908
Si Si5 0.521567 0.131049 0.255743
Si Si6 0.957503 0.286970 0.886435
Si Si7 0.329795 0.176488 0.040287
Si Si8 0.333508 0.220313 0.648557
O O1 0.500000 0.500000 0.500000
O O2 0.776872 0.267594 0.361629
O O3 0.404694 0.314146 0.662236
O O4 0.319339 0.600587 0.843012
O O5 0.073944 0.239822 0.499172
O O6 0.338781 0.287595 0.355673
O O7 0.993920 0.351517 0.760619
O O8 0.877877 0.599642 0.758754
O O9 0.223799 0.089819 0.183673
O O10 0.000000 0.000000 0.500000
O O11 0.440103 0.882037 0.116104
O O12 0.098852 0.065267 0.745077
O O13 0.000000 0.000000 0.000000
O O14 0.785628 0.040260 0.030549
O O15 0.399793 0.225113 0.478334
O O16 0.559304 0.944129 0.171567
O O17 0.061490 0.314219 0.891765
O O18 0.500000 0.000000 0.500000
#
# Coordination Sequence:
#
# PCOD9037258 Si02
#       8
#     2   2   2   2   2   2   2   2
#     4  12  24  38  60  87 120 172 227 272 325 383
#     4  10  24  44  67 100 136 165 223 272 331 407
#     4  10  23  46  75 105 134 174 212 263 348 412
#     4  12  22  42  59  88 134 175 224 284 325 374
#     4  10  23  40  64  91 132 175 218 270 339 374
#     4  11  24  38  61  92 125 171 224 271 329 392
#     4  10  23  45  72 101 139 173 214 276 333 412
#     4  11  21  39  61  82 126 173 217 276 323 373
#
# _framework density 22.236072
#
# number of rings (size 3 to 8) (size 9 to 14) (size 15 to 20)
#    0.000    1.250    3.750    0.750    3.500    4.500 
#    2.250    0.000    0.000    0.000    0.000    0.000 
#    0.000    0.000    0.000    0.000    0.000    0.000 
#
# Total GULP energy -89225.859522 kJ/mol
# GULP energy per Si atom -5576.616220 kJ/mol
# Density = 2.218546 g / cm^3
# Si number density = 22.236072 Si / 1000 Ang^3
#
#
#
# Elastic Constant Matrix: (Units=GPa)
#
#
# Indices 1 2 3 4 5 6 
#
# 1 70.6547 23.2027 30.4982 7.0649 -19.5047 0.3789
# 2 23.2027 94.0641 38.4786 16.3914 -26.6644 -17.4187
# 3 30.4982 38.4786 135.2186 23.2299 -33.5297 -12.3401
# 4 7.0649 16.3914 23.2299 51.2774 -4.9241 -1.6268
# 5 -19.5047 -26.6644 -33.5297 -4.9241 36.8667 -1.1220
# 6 0.3789 -17.4187 -12.3401 -1.6268 -1.1220 20.7984
#
#
#
# Elastic Compliance Matrix: (Units=1/GPa)
#
#
# Indices 1 2 3 4 5 6 
#
# 1 0.017417 -0.002506 -0.002183 -0.000211 0.005284 -0.003443
# 2 -0.002506 0.018144 0.000598 -0.004040 0.012286 0.015942
# 3 -0.002183 0.000598 0.011391 -0.003916 0.009343 0.007497
# 4 -0.000211 -0.004040 -0.003916 0.022102 -0.003770 -0.004177
# 5 0.005284 0.012286 0.009343 -0.003770 0.047347 0.017996
# 6 -0.003443 0.015942 0.007497 -0.004177 0.017996 0.066587
#
#
# Mechanical properties :
#
#
# Convention : Reuss Voigt Hill
#
# Bulk Modulus (GPa) = 25.79401 53.81072 39.80236
# Shear Modulus (GPa) = 24.49858 35.63902 30.06880
#
# Velocity S-wave (km/s) = 3.32286 4.00779 3.68129
# Velocity P-wave (km/s) = 5.13295 6.75787 6.00066
#
# Compressibility (1/GPa) = 0.03876869
#
# Stress axis : x y z
#
# Youngs Moduli (GPa) = 57.41590 55.11582 87.78669
#
# Poissons Ratio (x) = 0.13813 0.19163
# Poissons Ratio (y) = 0.14390 -0.05246
# Poissons Ratio (z) = 0.12533 -0.03294
#
# Static dielectric constant tensor:
#      x y z
#    x 1.876890 0.034500 0.000180 
#    y 0.034500 1.875620 -0.039540 
#    z 0.000180 -0.039540 1.826370 
# 
# From -- ./inp_files/529870.got.cif
#   From: 2010.05.17/outbox.cif.g08.bks.cpg/sg2_265_cif.got.tgz:529870.got - 2010.06.03 11:33:40.
