data_PCOD9037071
_publ_section_title
;
Structure prediction by ZEFSAII (Michael W. Deem and Ramdas Pophale) SiO2 
 PCOD9037071
Probable space group: P -1
;
_chemical_formula_sum "Si O2"
_cell_formula_units_Z 16
_cell_length_a 14.914260
_cell_length_b 24.328681
_cell_length_c 24.697211
_cell_angle_alpha 17.781183
_cell_angle_beta 27.994205
_cell_angle_gamma 19.300573
_cell_volume 893.480893
_symmetry_space_group_name_H-M "P -1"
_symmetry_group_IT_number 2
_symmetry_cell_setting 'triclinic'
loop_
_space_group_symop_operation_xyz
x,y,z
-x,-y,-z
loop_
_atom_site_type_symbol
_atom_site_label
_atom_site_fract_x
_atom_site_fract_y
_atom_site_fract_z
Si Si1 0.736550 0.194459 0.651359
Si Si2 0.004705 0.494430 0.067427
Si Si3 0.778383 0.286691 0.426135
Si Si4 0.466517 0.063465 0.863237
Si Si5 0.916393 0.188191 0.787430
Si Si6 0.186328 0.887396 0.197001
Si Si7 0.599151 0.125307 0.090290
Si Si8 0.572036 0.750101 0.403168
O O1 0.500000 0.500000 0.500000
O O2 0.870564 0.146620 0.566601
O O3 0.911788 0.080140 0.719974
O O4 0.570385 0.120872 0.801760
O O5 0.298373 0.377372 0.036418
O O6 0.969843 0.314815 0.276059
O O7 0.000000 0.500000 0.000000
O O8 0.743558 0.781552 0.957948
O O9 0.478894 0.584913 0.315633
O O10 0.710403 0.170935 0.529514
O O11 0.347918 0.262629 0.690188
O O12 0.256455 0.049994 0.002451
O O13 0.988855 0.060034 0.809860
O O14 0.774895 0.476891 0.581963
O O15 0.700851 0.194970 0.924202
O O16 0.172640 0.028214 0.840875
O O17 0.567066 0.946453 0.250340
#
# Coordination Sequence:
#
# PCOD9037071 Si02
#       8
#     2   2   2   2   2   2   2   2
#     4   9  17  30  49  77 103 133 167 221 267 300
#     4  11  19  34  51  76 113 143 167 205 269 313
#     4   8  18  29  48  78 106 128 170 213 255 319
#     4  10  18  30  52  81 106 130 172 211 263 323
#     4  10  21  35  52  77 103 138 185 216 247 309
#     4   9  15  31  51  72 101 131 168 216 264 297
#     4  11  21  35  52  73 109 143 174 215 256 307
#     4  10  17  33  51  74 107 134 168 214 255 302
#
# _framework density 17.907489999999999
#
# number of rings (size 3 to 8) (size 9 to 14) (size 15 to 20)
#    0.000    2.250    2.500    3.000    0.000    0.500 
#    4.500    0.000    0.000    1.500    0.000    0.000 
#    0.000    0.000    0.000    0.000    0.000    0.000 
#
# Total GULP energy -89147.846682 kJ/mol
# GULP energy per Si atom -5571.740418 kJ/mol
# Density = 1.786673 g / cm^3
# Si number density = 17.907490 Si / 1000 Ang^3
#
#
#
# Elastic Constant Matrix: (Units=GPa)
#
#
# Indices 1 2 3 4 5 6 
#
# 1 105.2902 17.3876 34.6689 7.4679 8.0376 1.4438
# 2 17.3876 37.4226 17.5774 8.2399 5.3065 -10.5841
# 3 34.6689 17.5774 104.4149 12.5049 4.7874 -3.3648
# 4 7.4679 8.2399 12.5049 17.8058 2.2312 -3.4964
# 5 8.0376 5.3065 4.7874 2.2312 37.2959 -2.2681
# 6 1.4438 -10.5841 -3.3648 -3.4964 -2.2681 13.8521
#
#
#
# Elastic Compliance Matrix: (Units=1/GPa)
#
#
# Indices 1 2 3 4 5 6 
#
# 1 0.011676 -0.005377 -0.002936 -0.001446 -0.001694 -0.006681
# 2 -0.005377 0.040932 -0.003053 -0.008680 -0.002016 0.028574
# 3 -0.002936 -0.003053 0.011735 -0.005706 -0.000137 -0.000639
# 4 -0.001446 -0.008680 -0.005706 0.066660 -0.001176 0.008766
# 5 -0.001694 -0.002016 -0.000137 -0.001176 0.027725 0.002846
# 6 -0.006681 0.028574 -0.000639 0.008766 0.002846 0.097244
#
#
# Mechanical properties :
#
#
# Convention : Reuss Voigt Hill
#
# Bulk Modulus (GPa) = 24.03136 42.93283 33.48210
# Shear Modulus (GPa) = 17.08971 25.62368 21.35670
#
# Velocity S-wave (km/s) = 3.09258 3.78682 3.45717
# Velocity P-wave (km/s) = 5.11868 6.56862 5.88845
#
# Compressibility (1/GPa) = 0.04161229
#
# Stress axis : x y z
#
# Youngs Moduli (GPa) = 85.64788 24.43058 85.21602
#
# Poissons Ratio (x) = 0.13136 0.25019
# Poissons Ratio (y) = 0.46050 0.26014
# Poissons Ratio (z) = 0.25146 0.07458
#
# Static dielectric constant tensor:
#      x y z
#    x 1.643540 0.019390 0.001560 
#    y 0.019390 1.601000 0.005510 
#    z 0.001560 0.005510 1.661880 
# 
# From -- ./inp_files/407405.got.cif
#   From: 2010.05.17/outbox.cif.g08.bks.cpg/sg2_204_cif.got.tgz:407405.got - 2010.06.03 11:33:40.
