data_PCOD9037768
_publ_section_title
;
Structure prediction by ZEFSAII (Michael W. Deem and Ramdas Pophale) SiO2 
 PCOD9037768
Probable space group: P -1
;
_chemical_formula_sum "Si O2"
_cell_formula_units_Z 16
_cell_length_a 26.416892
_cell_length_b 5.995518
_cell_length_c 6.655559
_cell_angle_alpha 95.901447
_cell_angle_beta 41.464565
_cell_angle_gamma 101.054815
_cell_volume 683.689263
_symmetry_space_group_name_H-M "P -1"
_symmetry_group_IT_number 2
_symmetry_cell_setting 'triclinic'
loop_
_space_group_symop_operation_xyz
x,y,z
-x,-y,-z
loop_
_atom_site_type_symbol
_atom_site_label
_atom_site_fract_x
_atom_site_fract_y
_atom_site_fract_z
Si Si1 0.664391 0.325079 0.670319
Si Si2 0.461025 0.733099 0.628576
Si Si3 0.992931 0.698385 0.328614
Si Si4 0.873549 0.896781 0.940605
Si Si5 0.783672 0.346217 0.682914
Si Si6 0.073139 0.337074 0.883984
Si Si7 0.272372 0.002365 0.859832
Si Si8 0.664263 0.535815 0.304872
O O1 0.731597 0.344356 0.638277
O O2 0.660775 0.540125 0.556848
O O3 0.685899 0.158236 0.419129
O O4 0.585893 0.262387 0.022580
O O5 0.500000 0.500000 0.500000
O O6 0.398783 0.655879 0.627783
O O7 0.500000 0.000000 0.500000
O O8 0.914709 0.718634 0.678745
O O9 0.975929 0.784994 0.164354
O O10 0.065650 0.866358 0.221729
O O11 0.015746 0.452107 0.206576
O O12 0.874672 0.805511 0.156238
O O13 0.794095 0.929619 0.080350
O O14 0.869450 0.452543 0.371199
O O15 0.747262 0.499581 0.966703
O O16 0.769160 0.110601 0.826479
O O17 0.338642 0.212752 0.741476
#
# Coordination Sequence:
#
# PCOD9037768 Si02
#       8
#     2   2   2   2   2   2   2   2
#     4  10  24  44  70  99 138 180 229 276 344 404
#     4  11  28  48  76 111 151 188 231 285 347 416
#     4  10  24  38  58  89 128 171 225 285 343 417
#     4  11  23  40  62  93 127 170 227 280 349 408
#     4  10  23  41  62  95 132 172 231 287 347 402
#     4  11  22  40  62  87 127 177 225 280 349 405
#     4  11  24  41  68  97 132 175 228 289 341 412
#     4  10  24  44  70 100 136 182 229 277 339 411
#
# _framework density 23.402446000000001
#
# number of rings (size 3 to 8) (size 9 to 14) (size 15 to 20)
#    0.000    1.500    0.000    3.000    7.000   13.000 
#    0.000    0.000    0.000    0.000    0.000    0.000 
#    0.000    0.000    0.000    0.000    0.000    0.000 
#
# Total GULP energy -89286.869061 kJ/mol
# GULP energy per Si atom -5580.429316 kJ/mol
# Density = 2.334918 g / cm^3
# Si number density = 23.402446 Si / 1000 Ang^3
#
#
#
# Elastic Constant Matrix: (Units=GPa)
#
#
# Indices 1 2 3 4 5 6 
#
# 1 99.7555 39.2493 31.2329 -10.5412 9.1974 -7.9766
# 2 39.2493 62.5448 36.3194 -23.6476 -2.5787 2.4715
# 3 31.2329 36.3194 115.1788 -5.0673 1.1679 -4.0929
# 4 -10.5412 -23.6476 -5.0673 38.9086 -4.3413 -0.4747
# 5 9.1974 -2.5787 1.1679 -4.3413 36.3597 -6.2361
# 6 -7.9766 2.4715 -4.0929 -0.4747 -6.2361 36.6615
#
#
#
# Elastic Compliance Matrix: (Units=1/GPa)
#
#
# Indices 1 2 3 4 5 6 
#
# 1 0.014528 -0.009963 -0.000765 -0.002646 -0.004157 0.003006
# 2 -0.009963 0.033468 -0.007292 0.017373 0.006533 -0.003902
# 3 -0.000765 -0.007292 0.011103 -0.003270 -0.000834 0.001380
# 4 -0.002646 0.017373 -0.003270 0.035799 0.006178 -0.000597
# 5 -0.004157 0.006533 -0.000834 0.006178 0.030438 0.003819
# 6 0.003006 -0.003902 0.001380 -0.000597 0.003819 0.028990
#
#
# Mechanical properties :
#
#
# Convention : Reuss Voigt Hill
#
# Bulk Modulus (GPa) = 43.37095 54.56471 48.96783
# Shear Modulus (GPa) = 25.24583 33.76446 29.50514
#
# Velocity S-wave (km/s) = 3.28802 3.80251 3.55459
# Velocity P-wave (km/s) = 5.74349 6.53033 6.14951
#
# Compressibility (1/GPa) = 0.02305691
#
# Stress axis : x y z
#
# Youngs Moduli (GPa) = 68.83115 29.87969 90.06740
#
# Poissons Ratio (x) = 0.29770 0.06893
# Poissons Ratio (y) = 0.68579 0.65679
# Poissons Ratio (z) = 0.05268 0.21789
#
# Static dielectric constant tensor:
#      x y z
#    x 1.918330 -0.069960 0.036040 
#    y -0.069960 2.017520 -0.030760 
#    z 0.036040 -0.030760 1.879010 
# 
# From -- ./inp_files/125811.got.cif
#   From: 2010.05.17/outbox.cif.g08.bks.cpg/sg2_63_cif.got.tgz:125811.got - 2010.06.03 11:33:40.
