data_PCOD9037911
_publ_section_title
;
Structure prediction by ZEFSAII (Michael W. Deem and Ramdas Pophale) SiO2 
 PCOD9037911
Probable space group: P -1
;
_chemical_formula_sum "Si O2"
_cell_formula_units_Z 16
_cell_length_a 11.729071
_cell_length_b 13.984945
_cell_length_c 13.736943
_cell_angle_alpha 46.615291
_cell_angle_beta 112.692417
_cell_angle_gamma 148.253544
_cell_volume 736.669421
_symmetry_space_group_name_H-M "P -1"
_symmetry_group_IT_number 2
_symmetry_cell_setting 'triclinic'
loop_
_space_group_symop_operation_xyz
x,y,z
-x,-y,-z
loop_
_atom_site_type_symbol
_atom_site_label
_atom_site_fract_x
_atom_site_fract_y
_atom_site_fract_z
Si Si1 0.596212 0.028083 0.909861
Si Si2 0.000681 0.743445 0.242663
Si Si3 0.853182 0.496283 0.970848
Si Si4 0.557508 0.481500 0.182020
Si Si5 0.509252 0.327555 0.071259
Si Si6 0.710630 0.393450 0.571827
Si Si7 0.173585 0.022832 0.644540
Si Si8 0.981428 0.132070 0.517608
O O1 0.855324 0.191914 0.847184
O O2 0.609506 0.163279 0.744530
O O3 0.500000 0.000000 0.000000
O O4 0.369704 0.715078 0.034172
O O5 0.796362 0.661471 0.198064
O O6 0.854053 0.513242 0.431809
O O7 0.218060 0.015175 0.188957
O O8 0.674328 0.348105 0.108421
O O9 0.043820 0.794504 0.830158
O O10 0.000000 0.500000 0.000000
O O11 0.619365 0.505690 0.074309
O O12 0.472987 0.554913 0.096989
O O13 0.311977 0.166040 0.344454
O O14 0.468065 0.261770 0.567009
O O15 0.890227 0.632368 0.543763
O O16 0.125827 0.128018 0.586248
O O17 0.033198 0.865727 0.605175
#
# Coordination Sequence:
#
# PCOD9037911 Si02
#       8
#     2   2   2   2   2   2   2   2
#     4  11  26  45  65  95 135 173 226 271 326 407
#     4  11  24  42  67  98 128 173 222 273 336 385
#     4  11  22  41  67  92 128 175 216 268 324 393
#     4  11  21  41  66  93 132 171 217 272 326 397
#     4  10  23  41  64  96 131 169 219 273 324 394
#     4  12  23  44  67  97 134 174 217 278 333 388
#     4  11  23  42  66  97 132 172 219 269 333 391
#     4  11  23  41  65  98 133 168 222 269 328 400
#
# _framework density 21.719376
#
# number of rings (size 3 to 8) (size 9 to 14) (size 15 to 20)
#    0.000    1.000    5.000    1.875    1.750    0.000 
#    0.000    0.625    0.000    0.000    0.000    0.000 
#    0.000    0.000    0.000    0.000    0.000    0.000 
#
# Total GULP energy -89104.189435 kJ/mol
# GULP energy per Si atom -5569.011840 kJ/mol
# Density = 2.166994 g / cm^3
# Si number density = 21.719376 Si / 1000 Ang^3
#
#
#
# Elastic Constant Matrix: (Units=GPa)
#
#
# Indices 1 2 3 4 5 6 
#
# 1 97.3374 29.5693 2.4340 -1.5914 -2.4493 9.8933
# 2 29.5693 60.5616 21.0700 -12.4828 -5.8055 13.1320
# 3 2.4340 21.0700 72.9911 -4.8116 -5.1834 5.8956
# 4 -1.5914 -12.4828 -4.8116 28.8042 1.5866 -3.4684
# 5 -2.4493 -5.8055 -5.1834 1.5866 28.2630 -2.5874
# 6 9.8933 13.1320 5.8956 -3.4684 -2.5874 38.3869
#
#
#
# Elastic Compliance Matrix: (Units=1/GPa)
#
#
# Indices 1 2 3 4 5 6 
#
# 1 0.012375 -0.006719 0.001490 -0.002136 -0.000035 -0.001315
# 2 -0.006719 0.024930 -0.005818 0.008726 0.002529 -0.004944
# 3 0.001490 -0.005818 0.015504 -0.000023 0.001718 -0.000661
# 4 -0.002136 0.008726 -0.000023 0.038525 -0.000466 0.001018
# 5 -0.000035 0.002529 0.001718 -0.000466 0.036358 0.001288
# 6 -0.001315 -0.004944 -0.000661 0.001018 0.001288 0.028361
#
#
# Mechanical properties :
#
#
# Convention : Reuss Voigt Hill
#
# Bulk Modulus (GPa) = 32.55781 37.44854 35.00317
# Shear Modulus (GPa) = 26.54123 30.94527 28.74325
#
# Velocity S-wave (km/s) = 3.49951 3.77872 3.64179
# Velocity P-wave (km/s) = 5.59925 6.02642 5.81675
#
# Compressibility (1/GPa) = 0.03071460
#
# Stress axis : x y z
#
# Youngs Moduli (GPa) = 80.80654 40.11231 64.49945
#
# Poissons Ratio (x) = 0.26951 -0.09609
# Poissons Ratio (y) = 0.54293 0.37527
# Poissons Ratio (z) = -0.12039 0.23338
#
# Static dielectric constant tensor:
#      x y z
#    x 1.983580 -0.012680 0.046680 
#    y -0.012680 1.790550 0.056250 
#    z 0.046680 0.056250 1.954300 
# 
# From -- ./inp_files/433133.got.cif
#   From: 2010.05.17/outbox.cif.g08.bks.cpg/sg2_217_cif.got.tgz:433133.got - 2010.06.03 11:33:40.
