data_PCOD9037130
_publ_section_title
;
Structure prediction by ZEFSAII (Michael W. Deem and Ramdas Pophale) SiO2 
 PCOD9037130
Probable space group: P -1
;
_chemical_formula_sum "Si O2"
_cell_formula_units_Z 16
_cell_length_a 14.780600
_cell_length_b 8.491826
_cell_length_c 13.213167
_cell_angle_alpha 77.684678
_cell_angle_beta 28.842717
_cell_angle_gamma 94.310132
_cell_volume 649.744993
_symmetry_space_group_name_H-M "P -1"
_symmetry_group_IT_number 2
_symmetry_cell_setting 'triclinic'
loop_
_space_group_symop_operation_xyz
x,y,z
-x,-y,-z
loop_
_atom_site_type_symbol
_atom_site_label
_atom_site_fract_x
_atom_site_fract_y
_atom_site_fract_z
Si Si1 0.844874 0.697554 0.468733
Si Si2 0.312136 0.148803 0.231781
Si Si3 0.886788 0.288664 0.089549
Si Si4 0.871104 0.757384 0.782709
Si Si5 0.814661 0.387496 0.784961
Si Si6 0.670353 0.515527 0.480868
Si Si7 0.455615 0.231056 0.556292
Si Si8 0.036363 0.082254 0.113485
O O1 0.756543 0.719352 0.659136
O O2 0.661090 0.508866 0.611378
O O3 0.078975 0.715406 0.248467
O O4 0.876895 0.875448 0.348527
O O5 0.263091 0.172697 0.160898
O O6 0.568714 0.237593 0.999345
O O7 0.133437 0.926539 0.472723
O O8 0.628205 0.201298 0.331085
O O9 0.904882 0.155568 0.171494
O O10 0.000000 0.500000 0.000000
O O11 0.061025 0.343882 0.821437
O O12 0.814666 0.548438 0.832491
O O13 0.843760 0.774888 0.927106
O O14 0.000000 0.500000 0.500000
O O15 0.580711 0.326771 0.527643
O O16 0.564324 0.619588 0.514321
O O17 0.207758 0.084782 0.864243
#
# Coordination Sequence:
#
# PCOD9037130 Si02
#       8
#     2   2   2   2   2   2   2   2
#     4  11  25  43  60  98 131 167 217 274 324 387
#     4  10  24  48  65  98 139 166 223 276 325 393
#     4   9  19  37  59  90 124 157 214 261 313 393
#     4  10  23  45  70  94 135 179 210 279 333 379
#     4  12  26  43  68 100 130 176 227 265 329 400
#     4   9  20  37  60  88 127 161 209 267 313 386
#     4   9  19  37  63  90 118 170 210 255 327 382
#     4  10  23  40  61  93 128 162 216 266 322 387
#
# _framework density 24.625046000000001
#
# number of rings (size 3 to 8) (size 9 to 14) (size 15 to 20)
#    0.000    2.000    1.250    1.125    5.250    5.500 
#    0.000    1.250    0.000    0.000    0.000    0.000 
#    0.000    0.000    0.000    0.000    0.000    0.000 
#
# Total GULP energy -89429.945590 kJ/mol
# GULP energy per Si atom -5589.371599 kJ/mol
# Density = 2.456900 g / cm^3
# Si number density = 24.625046 Si / 1000 Ang^3
#
#
#
# Elastic Constant Matrix: (Units=GPa)
#
#
# Indices 1 2 3 4 5 6 
#
# 1 97.7728 17.4752 24.9740 13.6217 -13.0655 3.3932
# 2 17.4752 46.9763 18.2910 8.3048 -6.6997 -2.3035
# 3 24.9740 18.2910 116.5823 4.0085 -20.3435 -16.2858
# 4 13.6217 8.3048 4.0085 38.8839 -2.7805 -9.1029
# 5 -13.0655 -6.6997 -20.3435 -2.7805 42.9077 -1.8574
# 6 3.3932 -2.3035 -16.2858 -9.1029 -1.8574 41.2984
#
#
#
# Elastic Compliance Matrix: (Units=1/GPa)
#
#
# Indices 1 2 3 4 5 6 
#
# 1 0.012173 -0.002888 -0.002074 -0.003945 0.001897 -0.002763
# 2 -0.002888 0.024339 -0.002890 -0.003877 0.001285 -0.000342
# 3 -0.002074 -0.002890 0.010862 0.001675 0.004386 0.004859
# 4 -0.003945 -0.003877 0.001675 0.029560 0.001221 0.007339
# 5 0.001897 0.001285 0.004386 0.001221 0.026377 0.003101
# 6 -0.002763 -0.000342 0.004859 0.007339 0.003101 0.028095
#
#
# Mechanical properties :
#
#
# Convention : Reuss Voigt Hill
#
# Bulk Modulus (GPa) = 31.57666 42.53466 37.05566
# Shear Modulus (GPa) = 31.71248 37.99076 34.85162
#
# Velocity S-wave (km/s) = 3.59251 3.93207 3.76612
# Velocity P-wave (km/s) = 5.48260 6.15835 5.83028
#
# Compressibility (1/GPa) = 0.03166896
#
# Stress axis : x y z
#
# Youngs Moduli (GPa) = 82.15071 41.08650 92.06550
#
# Poissons Ratio (x) = 0.11867 0.19092
# Poissons Ratio (y) = 0.23728 0.26608
# Poissons Ratio (z) = 0.17036 0.11875
#
# Static dielectric constant tensor:
#      x y z
#    x 1.969610 0.063810 -0.019960 
#    y 0.063810 2.020110 -0.016180 
#    z -0.019960 -0.016180 2.046360 
# 
# From -- ./inp_files/529532.got.cif
#   From: 2010.05.17/outbox.cif.g08.bks.cpg/sg2_265_cif.got.tgz:529532.got - 2010.06.03 11:33:40.
