data_PCOD9037428
_publ_section_title
;
Structure prediction by ZEFSAII (Michael W. Deem and Ramdas Pophale) SiO2 
 PCOD9037428
Probable space group: P -1
;
_chemical_formula_sum "Si O2"
_cell_formula_units_Z 14
_cell_length_a 11.294009
_cell_length_b 6.946696
_cell_length_c 15.210613
_cell_angle_alpha 134.634499
_cell_angle_beta 131.413900
_cell_angle_gamma 65.440548
_cell_volume 634.156546
_symmetry_space_group_name_H-M "P -1"
_symmetry_group_IT_number 2
_symmetry_cell_setting 'triclinic'
loop_
_space_group_symop_operation_xyz
x,y,z
-x,-y,-z
loop_
_atom_site_type_symbol
_atom_site_label
_atom_site_fract_x
_atom_site_fract_y
_atom_site_fract_z
Si Si1 0.558433 0.277668 0.074652
Si Si2 0.101268 0.237145 0.574215
Si Si3 0.078196 0.214363 0.350928
Si Si4 0.263798 0.483315 0.892537
Si Si5 0.577826 0.745413 0.556290
Si Si6 0.119982 0.353493 0.953671
Si Si7 0.453789 0.645995 0.269314
O O1 0.684359 0.243648 0.047962
O O2 0.588222 0.479957 0.237199
O O3 0.411388 0.391728 0.989243
O O4 0.500000 0.000000 0.000000
O O5 0.127547 0.167557 0.462494
O O6 0.236418 0.293951 0.733149
O O7 0.007516 0.509085 0.611180
O O8 0.000000 0.000000 0.500000
O O9 0.234666 0.240579 0.374092
O O10 0.948878 0.961050 0.184839
O O11 0.127641 0.461574 0.890654
O O12 0.500000 0.500000 0.500000
O O13 0.486963 0.694873 0.403108
O O14 0.553512 0.050574 0.676556
O O15 0.290316 0.457355 0.112644
O O16 0.000000 0.500000 0.000000
#
# Coordination Sequence:
#
# PCOD9037428 Si02
#       7
#     2   2   2   2   2   2   2
#     4  10  23  42  69  98 136 170 220 278 336 400
#     4  11  24  43  70  98 135 170 228 281 332 402
#     4  11  25  44  70 102 132 184 225 279 343 395
#     4  10  23  40  67 100 127 178 221 268 340 388
#     4  11  25  46  67  94 134 182 227 268 341 408
#     4  11  22  45  70  97 139 173 222 284 337 403
#     4  10  24  44  68  96 134 173 226 284 331 397
#
# _framework density 22.076567000000001
#
# number of rings (size 3 to 8) (size 9 to 14) (size 15 to 20)
#    0.000    1.429    2.857    0.857    4.000    9.143 
#    0.000    1.429    0.000    0.000    0.000    0.000 
#    0.000    0.000    0.000    0.000    0.000    0.000 
#
# Total GULP energy -77968.661641 kJ/mol
# GULP energy per Si atom -5569.190117 kJ/mol
# Density = 2.202632 g / cm^3
# Si number density = 22.076567 Si / 1000 Ang^3
#
#
#
# Elastic Constant Matrix: (Units=GPa)
#
#
# Indices 1 2 3 4 5 6 
#
# 1 136.5608 47.8993 17.5942 27.2571 -6.0252 41.0469
# 2 47.8993 104.0124 33.9387 31.3789 -5.7337 39.4174
# 3 17.5942 33.9387 122.9737 11.7290 6.4072 14.7784
# 4 27.2571 31.3789 11.7290 44.0587 -0.2092 7.5197
# 5 -6.0252 -5.7337 6.4072 -0.2092 32.6736 8.6834
# 6 41.0469 39.4174 14.7784 7.5197 8.6834 39.4031
#
#
#
# Elastic Compliance Matrix: (Units=1/GPa)
#
#
# Indices 1 2 3 4 5 6 
#
# 1 0.013166 0.003106 -0.000399 -0.007327 0.007503 -0.016929
# 2 0.003106 0.023853 -0.003249 -0.013552 0.012214 -0.025984
# 3 -0.000399 -0.003249 0.009126 -0.000024 -0.002654 0.000832
# 4 -0.007327 -0.013552 -0.000024 0.034045 -0.007875 0.016436
# 5 0.007503 0.012214 -0.002654 -0.007875 0.041706 -0.026728
# 6 -0.016929 -0.025984 0.000832 0.016436 -0.026728 0.071449
#
#
# Mechanical properties :
#
#
# Convention : Reuss Voigt Hill
#
# Bulk Modulus (GPa) = 22.19115 62.49015 42.34065
# Shear Modulus (GPa) = 23.87219 40.83471 32.35345
#
# Velocity S-wave (km/s) = 3.29193 4.30546 3.83235
# Velocity P-wave (km/s) = 4.95205 7.28585 6.22922
#
# Compressibility (1/GPa) = 0.04506300
#
# Stress axis : x y z
#
# Youngs Moduli (GPa) = 75.95081 41.92386 109.57691
#
# Poissons Ratio (x) = -0.13022 0.04369
# Poissons Ratio (y) = -0.23592 0.35597
# Poissons Ratio (z) = 0.03028 0.13619
#
# Static dielectric constant tensor:
#      x y z
#    x 2.080710 0.049310 0.195120 
#    y 0.049310 1.854000 0.082200 
#    z 0.195120 0.082200 2.005300 
# 
# From -- ./inp_files/69549.got.cif
#   From: 2010.05.17/outbox.cif.g08.bks.cpg/sg2_35_cif.got.tgz:69549.got - 2010.06.03 11:33:40.
