data_PCOD9037848
_publ_section_title
;
Structure prediction by ZEFSAII (Michael W. Deem and Ramdas Pophale) SiO2 
 PCOD9037848
Probable space group: P -1
;
_chemical_formula_sum "Si O2"
_cell_formula_units_Z 16
_cell_length_a 8.518859
_cell_length_b 20.294083
_cell_length_c 6.152758
_cell_angle_alpha 58.657386
_cell_angle_beta 57.815299
_cell_angle_gamma 48.550919
_cell_volume 650.811364
_symmetry_space_group_name_H-M "P -1"
_symmetry_group_IT_number 2
_symmetry_cell_setting 'triclinic'
loop_
_space_group_symop_operation_xyz
x,y,z
-x,-y,-z
loop_
_atom_site_type_symbol
_atom_site_label
_atom_site_fract_x
_atom_site_fract_y
_atom_site_fract_z
Si Si1 0.437783 0.992314 0.309092
Si Si2 0.766068 0.785778 0.458047
Si Si3 0.455084 0.738808 0.702465
Si Si4 0.186969 0.785765 0.222630
Si Si5 0.048693 0.910846 0.481638
Si Si6 0.630207 0.383195 0.284254
Si Si7 0.163123 0.490901 0.587034
Si Si8 0.047808 0.367736 0.110169
O O1 0.545421 0.883640 0.428441
O O2 0.500000 0.000000 0.500000
O O3 0.186847 0.074925 0.350576
O O4 0.500000 0.000000 0.000000
O O5 0.684920 0.727266 0.489341
O O6 0.977487 0.792409 0.242702
O O7 0.822854 0.737646 0.735231
O O8 0.252566 0.824510 0.587112
O O9 0.444345 0.651562 0.804126
O O10 0.385866 0.762345 0.961320
O O11 0.106188 0.882906 0.232951
O O12 0.275071 0.700531 0.468317
O O13 0.000000 0.000000 0.500000
O O14 0.403178 0.468944 0.386354
O O15 0.835858 0.393134 0.078562
O O16 0.054726 0.574504 0.691150
O O17 0.000000 0.500000 0.500000
O O18 0.192094 0.403425 0.843930
#
# Coordination Sequence:
#
# PCOD9037848 Si02
#       8
#     2   2   2   2   2   2   2   2
#     4  12  26  47  71 106 145 193 249 305 364 437
#     4  11  22  45  68  98 135 185 236 289 362 425
#     4  11  23  40  65  96 134 179 235 288 353 423
#     4  10  23  42  64  93 137 177 231 295 348 429
#     4  11  23  41  60  97 137 179 236 289 358 417
#     4  10  23  41  63  98 131 170 229 278 355 419
#     4  11  23  43  68  99 135 172 231 282 348 435
#     4  10  24  43  67  99 136 179 222 287 356 418
#
# _framework density 24.584697999999999
#
# number of rings (size 3 to 8) (size 9 to 14) (size 15 to 20)
#    0.000    1.250    2.500    2.625    0.000    6.000 
#    4.500    0.000    0.000    0.000    0.000    0.000 
#    0.000    0.000    0.000    0.000    0.000    0.000 
#
# Total GULP energy -89089.889610 kJ/mol
# GULP energy per Si atom -5568.118101 kJ/mol
# Density = 2.452874 g / cm^3
# Si number density = 24.584698 Si / 1000 Ang^3
#
#
#
# Elastic Constant Matrix: (Units=GPa)
#
#
# Indices 1 2 3 4 5 6 
#
# 1 136.7963 30.0065 30.9392 7.4966 -2.9998 -7.0618
# 2 30.0065 65.0168 17.4279 -11.1642 8.2169 -0.2971
# 3 30.9392 17.4279 53.1228 1.3283 3.4773 2.3978
# 4 7.4966 -11.1642 1.3283 34.0718 5.5435 10.7245
# 5 -2.9998 8.2169 3.4773 5.5435 24.5646 3.5985
# 6 -7.0618 -0.2971 2.3978 10.7245 3.5985 48.0428
#
#
#
# Elastic Compliance Matrix: (Units=1/GPa)
#
#
# Indices 1 2 3 4 5 6 
#
# 1 0.009842 -0.004726 -0.004441 -0.004989 0.004180 0.002440
# 2 -0.004726 0.021551 -0.003880 0.010391 -0.009290 -0.001991
# 3 -0.004441 -0.003880 0.022906 -0.000335 -0.002180 -0.001582
# 4 -0.004989 0.010391 -0.000335 0.038362 -0.011471 -0.008357
# 5 0.004180 -0.009290 -0.002180 -0.011471 0.047270 -0.000314
# 6 0.002440 -0.001991 -0.001582 -0.008357 -0.000314 0.023129
#
#
# Mechanical properties :
#
#
# Convention : Reuss Voigt Hill
#
# Bulk Modulus (GPa) = 35.45279 45.74258 40.59768
# Shear Modulus (GPa) = 25.18209 33.10668 29.14438
#
# Velocity S-wave (km/s) = 3.20394 3.67364 3.44680
# Velocity P-wave (km/s) = 5.30462 6.05315 5.69120
#
# Compressibility (1/GPa) = 0.02820652
#
# Stress axis : x y z
#
# Youngs Moduli (GPa) = 101.60468 46.40209 43.65690
#
# Poissons Ratio (x) = 0.21928 0.19387
# Poissons Ratio (y) = 0.48015 0.16938
# Poissons Ratio (z) = 0.45120 0.18003
#
# Static dielectric constant tensor:
#      x y z
#    x 2.073430 0.096180 -0.069180 
#    y 0.096180 1.975050 0.097040 
#    z -0.069180 0.097040 1.807200 
# 
# From -- ./inp_files/52372.got.cif
#   From: 2010.05.17/outbox.cif.g08.bks.cpg/sg2_27_cif.got.tgz:52372.got - 2010.06.03 11:33:40.
