data_PCOD9037995
_publ_section_title
;
Structure prediction by ZEFSAII (Michael W. Deem and Ramdas Pophale) SiO2 
 PCOD9037995
Probable space group: P -1
;
_chemical_formula_sum "Si O2"
_cell_formula_units_Z 16
_cell_length_a 19.366525
_cell_length_b 8.336225
_cell_length_c 13.508745
_cell_angle_alpha 132.976939
_cell_angle_beta 146.579635
_cell_angle_gamma 42.864183
_cell_volume 802.767162
_symmetry_space_group_name_H-M "P -1"
_symmetry_group_IT_number 2
_symmetry_cell_setting 'triclinic'
loop_
_space_group_symop_operation_xyz
x,y,z
-x,-y,-z
loop_
_atom_site_type_symbol
_atom_site_label
_atom_site_fract_x
_atom_site_fract_y
_atom_site_fract_z
Si Si1 0.353339 0.534550 0.787928
Si Si2 0.146681 0.958798 0.603231
Si Si3 0.755149 0.301069 0.068225
Si Si4 0.587587 0.153884 0.660045
Si Si5 0.519529 0.365680 0.363390
Si Si6 0.042332 0.234216 0.392416
Si Si7 0.290359 0.083347 0.496464
Si Si8 0.640888 0.805603 0.036196
O O1 0.270127 0.695850 0.662540
O O2 0.251350 0.683485 0.815669
O O3 0.361433 0.269754 0.667381
O O4 0.500000 0.500000 0.000000
O O5 0.106471 0.041809 0.476467
O O6 0.234473 0.116978 0.801839
O O7 0.000000 0.000000 0.500000
O O8 0.689079 0.577280 0.069903
O O9 0.911384 0.198219 0.180783
O O10 0.674343 0.160933 0.862139
O O11 0.487735 0.431871 0.637580
O O12 0.500000 0.000000 0.500000
O O13 0.682872 0.045658 0.631968
O O14 0.500000 0.500000 0.500000
O O15 0.648095 0.119875 0.431143
O O16 0.401302 0.283266 0.153387
O O17 0.136754 0.221502 0.406675
O O18 0.000000 0.500000 0.500000
O O19 0.500000 0.000000 0.000000
#
# Coordination Sequence:
#
# PCOD9037995 Si02
#       8
#     2   2   2   2   2   2   2   2
#     4  12  23  37  64 101 129 164 219 274 328 375
#     4  12  23  38  62  98 135 168 209 278 332 373
#     4  11  22  40  62  89 128 172 213 263 322 396
#     4  10  23  41  65  96 128 161 213 281 329 373
#     4   9  20  39  60  91 121 166 211 259 318 385
#     4  12  22  42  63  91 131 174 218 260 318 400
#     4  11  22  40  65  89 127 175 211 260 325 393
#     4  11  21  36  63  93 120 170 221 262 319 393
#
# _framework density 19.931058
#
# number of rings (size 3 to 8) (size 9 to 14) (size 15 to 20)
#    0.000    1.000    3.750    3.750    0.000    4.500 
#    0.000    0.000    0.000    1.500    0.000    0.000 
#    0.000    0.000    0.000    0.000    0.000    0.000 
#
# Total GULP energy -89115.094247 kJ/mol
# GULP energy per Si atom -5569.693390 kJ/mol
# Density = 1.988569 g / cm^3
# Si number density = 19.931058 Si / 1000 Ang^3
#
#
#
# Elastic Constant Matrix: (Units=GPa)
#
#
# Indices 1 2 3 4 5 6 
#
# 1 74.8363 20.1056 23.5844 1.4477 3.5393 -11.1604
# 2 20.1056 91.5813 37.2424 -1.0326 0.3798 4.2025
# 3 23.5844 37.2424 124.7454 9.3591 9.0493 0.6385
# 4 1.4477 -1.0326 9.3591 31.6036 2.9706 0.3527
# 5 3.5393 0.3798 9.0493 2.9706 35.2193 -2.2962
# 6 -11.1604 4.2025 0.6385 0.3527 -2.2962 20.7137
#
#
#
# Elastic Compliance Matrix: (Units=1/GPa)
#
#
# Indices 1 2 3 4 5 6 
#
# 1 0.016318 -0.003146 -0.002143 -0.000282 -0.000415 0.009455
# 2 -0.003146 0.013245 -0.003506 0.001600 0.000664 -0.004228
# 3 -0.002143 -0.003506 0.009830 -0.002719 -0.002104 -0.000933
# 4 -0.000282 0.001600 -0.002719 0.032726 -0.002128 -0.001186
# 5 -0.000415 0.000664 -0.002104 -0.002128 0.029343 0.002996
# 6 0.009455 -0.004228 -0.000933 -0.001186 0.002996 0.054611
#
#
# Mechanical properties :
#
#
# Convention : Reuss Voigt Hill
#
# Bulk Modulus (GPa) = 45.86649 50.33642 48.10145
# Shear Modulus (GPa) = 27.63486 31.52267 29.57877
#
# Velocity S-wave (km/s) = 3.72764 3.98123 3.85652
# Velocity P-wave (km/s) = 6.44900 6.81496 6.63451
#
# Compressibility (1/GPa) = 0.02180241
#
# Stress axis : x y z
#
# Youngs Moduli (GPa) = 61.28075 75.49984 101.73385
#
# Poissons Ratio (x) = 0.23755 0.21801
# Poissons Ratio (y) = 0.19281 0.35667
# Poissons Ratio (z) = 0.13132 0.26470
#
# Static dielectric constant tensor:
#      x y z
#    x 1.757890 0.022590 0.013950 
#    y 0.022590 1.774220 -0.050530 
#    z 0.013950 -0.050530 1.728850 
# 
# From -- ./inp_files/312348.got.cif
#   From: 2010.05.17/outbox.cif.g08.bks.cpg/sg2_157_cif.got.tgz:312348.got - 2010.06.03 11:33:40.
