data_PCOD9037654
_publ_section_title
;
Structure prediction by ZEFSAII (Michael W. Deem and Ramdas Pophale) SiO2 
 PCOD9037654
Probable space group: P -1
;
_chemical_formula_sum "Si O2"
_cell_formula_units_Z 10
_cell_length_a 5.346874
_cell_length_b 9.640600
_cell_length_c 9.728812
_cell_angle_alpha 63.655831
_cell_angle_beta 109.500888
_cell_angle_gamma 97.009590
_cell_volume 423.427112
_symmetry_space_group_name_H-M "P -1"
_symmetry_group_IT_number 2
_symmetry_cell_setting 'triclinic'
loop_
_space_group_symop_operation_xyz
x,y,z
-x,-y,-z
loop_
_atom_site_type_symbol
_atom_site_label
_atom_site_fract_x
_atom_site_fract_y
_atom_site_fract_z
Si Si1 0.508433 0.179673 0.587493
Si Si2 0.760957 0.123564 0.388131
Si Si3 0.098659 0.364027 0.247354
Si Si4 0.163348 0.306711 0.979976
Si Si5 0.610770 0.170899 0.924644
O O1 0.722346 0.196407 0.499344
O O2 0.272878 0.289894 0.434401
O O3 0.566650 0.217655 0.736857
O O4 0.463564 0.992350 0.652018
O O5 0.844077 0.256220 0.243499
O O6 0.000000 0.000000 0.500000
O O7 0.998836 0.538892 0.167218
O O8 0.244115 0.340581 0.137984
O O9 0.411428 0.271077 0.942358
O O10 0.929503 0.181002 0.998473
O O11 0.500000 0.000000 0.000000
#
# Coordination Sequence:
#
# PCOD9037654 Si02
#       5
#     2   2   2   2   2
#     4  10  23  40  71  97 131 179 226 272 330 397
#     4   9  20  38  67  98 129 173 227 271 320 399
#     4  10  24  44  70  95 134 178 228 268 328 410
#     4  11  28  45  69 100 137 179 218 279 340 389
#     4  12  28  46  68 101 139 173 221 284 339 391
#
# _framework density 23.616814999999999
#
# number of rings (size 3 to 8) (size 9 to 14) (size 15 to 20)
#    0.000    1.600    0.000    1.800   19.600    3.200 
#    0.000    0.000    0.000    0.000    0.000    0.000 
#    0.000    0.000    0.000    0.000    0.000    0.000 
#
# Total GULP energy -55855.151928 kJ/mol
# GULP energy per Si atom -5585.515193 kJ/mol
# Density = 2.356306 g / cm^3
# Si number density = 23.616815 Si / 1000 Ang^3
#
#
#
# Elastic Constant Matrix: (Units=GPa)
#
#
# Indices 1 2 3 4 5 6 
#
# 1 100.4131 10.1649 20.7898 24.7655 -12.6414 -22.7541
# 2 10.1649 57.9566 13.2670 -2.2647 -6.8545 -12.0975
# 3 20.7898 13.2670 112.0338 35.6224 -4.9540 -7.8267
# 4 24.7655 -2.2647 35.6224 46.8015 -6.1207 -18.4990
# 5 -12.6414 -6.8545 -4.9540 -6.1207 39.5039 7.5499
# 6 -22.7541 -12.0975 -7.8267 -18.4990 7.5499 34.6527
#
#
#
# Elastic Compliance Matrix: (Units=1/GPa)
#
#
# Indices 1 2 3 4 5 6 
#
# 1 0.012598 -0.000891 -0.000510 -0.003957 0.002195 0.005255
# 2 -0.000891 0.021207 -0.004470 0.009251 0.002310 0.010244
# 3 -0.000510 -0.004470 0.012966 -0.011931 -0.000148 -0.005304
# 4 -0.003957 0.009251 -0.011931 0.040861 0.001460 0.019432
# 5 0.002195 0.002310 -0.000148 0.001460 0.027185 -0.002929
# 6 0.005255 0.010244 -0.005304 0.019432 -0.002929 0.045699
#
#
# Mechanical properties :
#
#
# Convention : Reuss Voigt Hill
#
# Bulk Modulus (GPa) = 28.54669 39.87187 34.20928
# Shear Modulus (GPa) = 27.18386 39.27042 33.22714
#
# Velocity S-wave (km/s) = 3.39638 4.08219 3.75497
# Velocity P-wave (km/s) = 5.24349 6.25608 5.77203
#
# Compressibility (1/GPa) = 0.03503033
#
# Stress axis : x y z
#
# Youngs Moduli (GPa) = 79.37917 47.15525 77.12209
#
# Poissons Ratio (x) = 0.04201 0.03932
# Poissons Ratio (y) = 0.07071 0.34470
# Poissons Ratio (z) = 0.04048 0.21076
#
# Static dielectric constant tensor:
#      x y z
#    x 2.017530 0.095630 0.062730 
#    y 0.095630 1.947510 0.031890 
#    z 0.062730 0.031890 1.930220 
# 
# From -- ./inp_files/15517.got.cif
#   From: 2010.05.17/outbox.cif.g08.bks.cpg/sg2_8_cif.got.tgz:15517.got - 2010.06.03 11:33:40.
