data_PCOD9037700
_publ_section_title
;
Structure prediction by ZEFSAII (Michael W. Deem and Ramdas Pophale) SiO2 
 PCOD9037700
Probable space group: P -1
;
_chemical_formula_sum "Si O2"
_cell_formula_units_Z 16
_cell_length_a 9.014839
_cell_length_b 11.762811
_cell_length_c 14.701389
_cell_angle_alpha 37.218114
_cell_angle_beta 54.004456
_cell_angle_gamma 61.974448
_cell_volume 762.877689
_symmetry_space_group_name_H-M "P -1"
_symmetry_group_IT_number 2
_symmetry_cell_setting 'triclinic'
loop_
_space_group_symop_operation_xyz
x,y,z
-x,-y,-z
loop_
_atom_site_type_symbol
_atom_site_label
_atom_site_fract_x
_atom_site_fract_y
_atom_site_fract_z
Si Si1 0.069676 0.669782 0.430374
Si Si2 0.632126 0.252038 0.875708
Si Si3 0.282901 0.158243 0.623108
Si Si4 0.911450 0.490529 0.268355
Si Si5 0.684151 0.522729 0.858555
Si Si6 0.382832 0.574724 0.727530
Si Si7 0.187269 0.109906 0.887501
Si Si8 0.451490 0.828962 0.691300
O O1 0.249312 0.732131 0.269979
O O2 0.093715 0.602614 0.568675
O O3 0.000000 0.500000 0.500000
O O4 0.903796 0.818549 0.381791
O O5 0.696325 0.381709 0.857056
O O6 0.440063 0.356885 0.857980
O O7 0.665637 0.038751 0.031599
O O8 0.433383 0.309910 0.440227
O O9 0.251056 0.199027 0.713383
O O10 0.347649 0.939880 0.736684
O O11 0.769195 0.395457 0.312232
O O12 0.858440 0.710255 0.150560
O O13 0.119620 0.481869 0.163793
O O14 0.643328 0.733188 0.706416
O O15 0.500000 0.500000 0.000000
O O16 0.336910 0.672939 0.777725
O O17 0.000000 0.000000 0.000000
O O18 0.500000 0.000000 0.500000
#
# Coordination Sequence:
#
# PCOD9037700 Si02
#       8
#     2   2   2   2   2   2   2   2
#     4  12  18  38  64  91 118 159 208 247 295 366
#     4  11  21  38  60  89 124 161 202 248 299 364
#     4  11  20  38  66  91 119 161 208 246 299 361
#     4  12  24  39  63  94 122 159 202 258 309 357
#     4  11  21  38  62  86 116 163 208 243 298 368
#     4  10  23  41  59  89 128 160 201 250 311 355
#     4  12  21  35  63  96 120 152 210 255 294 364
#     4   9  20  38  62  85 114 164 206 246 284 361
#
# _framework density 20.973219
#
# number of rings (size 3 to 8) (size 9 to 14) (size 15 to 20)
#    0.000    1.000    6.250    2.250    0.000    2.500 
#    0.000    8.125    0.000    0.000    0.000    0.000 
#    0.000    0.000    0.000    0.000    0.000    0.000 
#
# Total GULP energy -89175.115761 kJ/mol
# GULP energy per Si atom -5573.444735 kJ/mol
# Density = 2.092548 g / cm^3
# Si number density = 20.973219 Si / 1000 Ang^3
#
#
#
# Elastic Constant Matrix: (Units=GPa)
#
#
# Indices 1 2 3 4 5 6 
#
# 1 112.4368 42.6641 13.5913 -2.1046 20.7931 -8.8888
# 2 42.6641 106.9395 17.5200 -19.1631 3.6669 -23.8457
# 3 13.5913 17.5200 66.9980 -1.1820 17.1593 -12.6027
# 4 -2.1046 -19.1631 -1.1820 38.8629 -11.6122 9.5717
# 5 20.7931 3.6669 17.1593 -11.6122 21.9322 -6.1496
# 6 -8.8888 -23.8457 -12.6027 9.5717 -6.1496 21.1753
#
#
#
# Elastic Compliance Matrix: (Units=1/GPa)
#
#
# Indices 1 2 3 4 5 6 
#
# 1 0.015068 -0.008091 0.003862 -0.008767 -0.021360 -0.002729
# 2 -0.008091 0.017723 -0.004598 0.009847 0.017578 0.014479
# 3 0.003862 -0.004598 0.022787 -0.010471 -0.024094 0.007741
# 4 -0.008767 0.009847 -0.010471 0.042155 0.035015 -0.007709
# 5 -0.021360 0.017578 -0.024094 0.035015 0.103285 0.010657
# 6 -0.002729 0.014479 0.007741 -0.007709 0.010657 0.073570
#
#
# Mechanical properties :
#
#
# Convention : Reuss Voigt Hill
#
# Bulk Modulus (GPa) = 26.36906 48.21388 37.29147
# Shear Modulus (GPa) = 16.39978 30.56736 23.48357
#
# Velocity S-wave (km/s) = 2.79935 3.82179 3.34981
# Velocity P-wave (km/s) = 4.80089 6.52020 5.72545
#
# Compressibility (1/GPa) = 0.03792323
#
# Stress axis : x y z
#
# Youngs Moduli (GPa) = 66.36786 56.42511 43.88462
#
# Poissons Ratio (x) = 0.45653 -0.16948
# Poissons Ratio (y) = 0.53698 0.20178
# Poissons Ratio (z) = -0.25631 0.25944
#
# Static dielectric constant tensor:
#      x y z
#    x 1.808410 -0.086280 0.069690 
#    y -0.086280 1.988290 0.014380 
#    z 0.069690 0.014380 1.888170 
# 
# From -- ./inp_files/419774.got.cif
#   From: 2010.05.17/outbox.cif.g08.bks.cpg/sg2_210_cif.got.tgz:419774.got - 2010.06.03 11:33:40.
