data_PCOD9037667
_publ_section_title
;
Structure prediction by ZEFSAII (Michael W. Deem and Ramdas Pophale) SiO2 
 PCOD9037667
Probable space group: P -1
;
_chemical_formula_sum "Si O2"
_cell_formula_units_Z 14
_cell_length_a 7.976284
_cell_length_b 8.959379
_cell_length_c 7.736412
_cell_angle_alpha 88.612460
_cell_angle_beta 103.388036
_cell_angle_gamma 74.079301
_cell_volume 514.929749
_symmetry_space_group_name_H-M "P -1"
_symmetry_group_IT_number 2
_symmetry_cell_setting 'triclinic'
loop_
_space_group_symop_operation_xyz
x,y,z
-x,-y,-z
loop_
_atom_site_type_symbol
_atom_site_label
_atom_site_fract_x
_atom_site_fract_y
_atom_site_fract_z
Si Si1 0.650708 0.326049 0.376891
Si Si2 0.057894 0.292460 0.598044
Si Si3 0.456109 0.694586 0.282544
Si Si4 0.570355 0.742155 0.953184
Si Si5 0.174454 0.176065 0.277990
Si Si6 0.922891 0.110211 0.819373
Si Si7 0.879808 0.465652 0.122990
O O1 0.854543 0.306865 0.484068
O O2 0.557579 0.510160 0.316961
O O3 0.552895 0.270373 0.515630
O O4 0.610901 0.243736 0.196887
O O5 0.076054 0.160897 0.752834
O O6 0.921869 0.557704 0.299702
O O7 0.192235 0.244758 0.470695
O O8 0.242900 0.738008 0.183826
O O9 0.530633 0.784896 0.145507
O O10 0.692628 0.809622 0.847527
O O11 0.682092 0.559441 0.011175
O O12 0.974302 0.284302 0.176867
O O13 0.165358 0.002273 0.308298
O O14 0.000000 0.000000 0.000000
O O15 0.000000 0.500000 0.000000
#
# Coordination Sequence:
#
# PCOD9037667 Si02
#       7
#     2   2   2   2   2   2   2
#     4  10  24  42  76 103 136 183 240 292 347 409
#     4  11  24  47  73 101 140 187 237 291 341 427
#     4  10  24  42  69 100 143 178 238 281 353 405
#     4  11  24  42  72 106 139 184 233 300 347 404
#     4  11  25  41  68 105 141 181 234 284 359 410
#     4  11  25  44  69  97 141 196 233 279 349 435
#     4  10  23  40  72 103 140 176 233 291 350 405
#
# _framework density 27.188175999999999
#
# number of rings (size 3 to 8) (size 9 to 14) (size 15 to 20)
#    0.000    1.429    0.000    3.857   18.000    0.571 
#    0.000    2.857    0.000    0.000    0.000    0.000 
#    0.000    0.000    0.000    0.000    0.000    0.000 
#
# Total GULP energy -78204.285034 kJ/mol
# GULP energy per Si atom -5586.020360 kJ/mol
# Density = 2.712629 g / cm^3
# Si number density = 27.188176 Si / 1000 Ang^3
#
#
#
# Elastic Constant Matrix: (Units=GPa)
#
#
# Indices 1 2 3 4 5 6 
#
# 1 143.6684 6.7727 69.5115 3.6790 -20.4508 4.6106
# 2 6.7727 87.3494 24.6954 -7.1207 -10.2477 15.7385
# 3 69.5115 24.6954 194.5813 18.9205 -43.1915 4.5087
# 4 3.6790 -7.1207 18.9205 44.6969 -3.2640 2.6297
# 5 -20.4508 -10.2477 -43.1915 -3.2640 73.0609 -0.9501
# 6 4.6106 15.7385 4.5087 2.6297 -0.9501 17.0665
#
#
#
# Elastic Compliance Matrix: (Units=1/GPa)
#
#
# Indices 1 2 3 4 5 6 
#
# 1 0.008540 0.000765 -0.003020 0.000886 0.000722 -0.002311
# 2 0.000765 0.014943 -0.001989 0.004067 0.001134 -0.014025
# 3 -0.003020 -0.001989 0.007438 -0.003065 0.003153 0.001333
# 4 0.000886 0.004067 -0.003065 0.024657 0.000018 -0.006979
# 5 0.000722 0.001134 0.003153 0.000018 0.015897 -0.001191
# 6 -0.002311 -0.014025 0.001333 -0.006979 -0.001191 0.072809
#
#
# Mechanical properties :
#
#
# Convention : Reuss Voigt Hill
#
# Bulk Modulus (GPa) = 44.57800 69.72871 57.15335
# Shear Modulus (GPa) = 31.20132 48.60616 39.90374
#
# Velocity S-wave (km/s) = 3.39131 4.23279 3.83520
# Velocity P-wave (km/s) = 5.63616 7.04209 6.37798
#
# Compressibility (1/GPa) = 0.02243259
#
# Stress axis : x y z
#
# Youngs Moduli (GPa) = 117.09692 66.92203 134.45256
#
# Poissons Ratio (x) = -0.05120 0.40608
# Poissons Ratio (y) = -0.08959 0.26738
# Poissons Ratio (z) = 0.35366 0.13308
#
# Static dielectric constant tensor:
#      x y z
#    x 2.156290 -0.009910 0.026350 
#    y -0.009910 2.142570 0.052000 
#    z 0.026350 0.052000 2.254460 
# 
# From -- ./inp_files/167520.got.cif
#   From: 2010.05.17/outbox.cif.g08.bks.cpg/sg2_84_cif.got.tgz:167520.got - 2010.06.03 11:33:40.
