data_PCOD9037865
_publ_section_title
;
Structure prediction by ZEFSAII (Michael W. Deem and Ramdas Pophale) SiO2 
 PCOD9037865
Probable space group: P -1
;
_chemical_formula_sum "Si O2"
_cell_formula_units_Z 16
_cell_length_a 8.167603
_cell_length_b 10.830948
_cell_length_c 8.933194
_cell_angle_alpha 105.295243
_cell_angle_beta 119.643202
_cell_angle_gamma 67.987525
_cell_volume 633.738513
_symmetry_space_group_name_H-M "P -1"
_symmetry_group_IT_number 2
_symmetry_cell_setting 'triclinic'
loop_
_space_group_symop_operation_xyz
x,y,z
-x,-y,-z
loop_
_atom_site_type_symbol
_atom_site_label
_atom_site_fract_x
_atom_site_fract_y
_atom_site_fract_z
Si Si1 0.196371 0.460032 0.677270
Si Si2 0.816335 0.376277 0.989369
Si Si3 0.725037 0.650400 0.855605
Si Si4 0.008466 0.068109 0.280411
Si Si5 0.276060 0.907033 0.106359
Si Si6 0.493360 0.638240 0.468552
Si Si7 0.700248 0.801213 0.171729
Si Si8 0.908214 0.165595 0.564976
O O1 0.223840 0.572419 0.840100
O O2 0.384484 0.394957 0.638448
O O3 0.190960 0.340502 0.746645
O O4 0.000000 0.500000 0.500000
O O5 0.048194 0.352744 0.059732
O O6 0.721859 0.505775 0.879186
O O7 0.764404 0.235193 0.910686
O O8 0.620373 0.691955 0.663810
O O9 0.629312 0.762932 0.969038
O O10 0.922470 0.188025 0.400424
O O11 0.170063 0.029267 0.207725
O O12 0.131063 0.968993 0.434947
O O13 0.822421 0.064335 0.092777
O O14 0.508814 0.882534 0.199289
O O15 0.500000 0.500000 0.500000
O O16 0.267072 0.721299 0.404927
O O17 0.883791 0.857564 0.265561
#
# Coordination Sequence:
#
# PCOD9037865 Si02
#       8
#     2   2   2   2   2   2   2   2
#     4  11  23  40  61 107 136 176 217 269 348 406
#     4  10  23  41  68  94 144 170 227 273 328 410
#     4  10  23  41  64 103 134 185 211 268 348 407
#     4  10  25  46  72  92 130 181 233 279 338 386
#     4  11  24  45  68 100 125 184 230 280 331 393
#     4  12  26  39  70 100 138 180 216 273 347 405
#     4  11  25  41  69  96 140 175 223 281 336 405
#     4  11  25  47  66 100 138 174 225 286 329 406
#
# _framework density 25.247007
#
# number of rings (size 3 to 8) (size 9 to 14) (size 15 to 20)
#    0.000    1.250    1.250    3.000   12.250    2.000 
#    0.000    5.000    0.000    0.000    0.000    0.000 
#    0.000    0.000    0.000    0.000    0.000    0.000 
#
# Total GULP energy -89289.544606 kJ/mol
# GULP energy per Si atom -5580.596538 kJ/mol
# Density = 2.518954 g / cm^3
# Si number density = 25.247007 Si / 1000 Ang^3
#
#
#
# Elastic Constant Matrix: (Units=GPa)
#
#
# Indices 1 2 3 4 5 6 
#
# 1 120.1870 45.6158 58.1543 3.7818 -1.8668 -42.2004
# 2 45.6158 58.3865 27.1200 -8.2736 -9.8927 -14.1312
# 3 58.1543 27.1200 106.4516 3.4241 -22.4323 -6.8817
# 4 3.7818 -8.2736 3.4241 31.6425 -15.0502 -4.2040
# 5 -1.8668 -9.8927 -22.4323 -15.0502 43.7436 -6.9528
# 6 -42.2004 -14.1312 -6.8817 -4.2040 -6.9528 36.6667
#
#
#
# Elastic Compliance Matrix: (Units=1/GPa)
#
#
# Indices 1 2 3 4 5 6 
#
# 1 0.025029 -0.011018 -0.010377 -0.004227 -0.004827 0.021213
# 2 -0.011018 0.030714 0.000608 0.015833 0.012793 0.003512
# 3 -0.010377 0.000608 0.015977 0.002346 0.007582 -0.007003
# 4 -0.004227 0.015833 0.002346 0.048555 0.023159 0.011636
# 5 -0.004827 0.012793 0.007582 0.023159 0.039132 0.010873
# 6 0.021213 0.003512 -0.007003 0.011636 0.010873 0.055122
#
#
# Mechanical properties :
#
#
# Convention : Reuss Voigt Hill
#
# Bulk Modulus (GPa) = 33.16986 60.75613 46.96300
# Shear Modulus (GPa) = 18.78621 32.68620 25.73621
#
# Velocity S-wave (km/s) = 2.73077 3.60204 3.19623
# Velocity P-wave (km/s) = 4.80723 6.43556 5.68005
#
# Compressibility (1/GPa) = 0.03014785
#
# Stress axis : x y z
#
# Youngs Moduli (GPa) = 39.95318 32.55842 62.58856
#
# Poissons Ratio (x) = 0.35872 0.64945
# Poissons Ratio (y) = 0.44019 -0.03804
# Poissons Ratio (z) = 0.41457 -0.01979
#
# Static dielectric constant tensor:
#      x y z
#    x 1.697650 0.052220 0.084600 
#    y 0.052220 2.137760 0.100340 
#    z 0.084600 0.100340 2.129460 
# 
# From -- ./inp_files/189564.got.cif
#   From: 2010.05.17/outbox.cif.g08.bks.cpg/sg2_95_cif.got.tgz:189564.got - 2010.06.03 11:33:40.
