data_PCOD9037281
_publ_section_title
;
Structure prediction by ZEFSAII (Michael W. Deem and Ramdas Pophale) SiO2 
 PCOD9037281
Probable space group: P -1
;
_chemical_formula_sum "Si O2"
_cell_formula_units_Z 12
_cell_length_a 7.257659
_cell_length_b 15.426637
_cell_length_c 7.093175
_cell_angle_alpha 64.796724
_cell_angle_beta 84.819973
_cell_angle_gamma 131.411108
_cell_volume 450.737582
_symmetry_space_group_name_H-M "P -1"
_symmetry_group_IT_number 2
_symmetry_cell_setting 'triclinic'
loop_
_space_group_symop_operation_xyz
x,y,z
-x,-y,-z
loop_
_atom_site_type_symbol
_atom_site_label
_atom_site_fract_x
_atom_site_fract_y
_atom_site_fract_z
Si Si1 0.667281 0.634416 0.507898
Si Si2 0.121138 0.528283 0.664793
Si Si3 0.319720 0.984820 0.750957
Si Si4 0.212464 0.961430 0.169408
Si Si5 0.196779 0.215258 0.299778
Si Si6 0.275947 0.718081 0.797785
O O1 0.500000 0.500000 0.500000
O O2 0.463542 0.645867 0.503048
O O3 0.704099 0.648598 0.720751
O O4 0.999834 0.788848 0.278171
O O5 0.091888 0.602842 0.744416
O O6 0.000000 0.500000 0.500000
O O7 0.951865 0.372314 0.925531
O O8 0.496732 0.964532 0.833577
O O9 0.547093 0.123541 0.454381
O O10 0.012145 0.848156 0.798402
O O11 0.282445 0.037106 0.893184
O O12 0.013613 0.921805 0.395256
O O13 0.475243 0.261042 0.187670
#
# Coordination Sequence:
#
# PCOD9037281 Si02
#       6
#     2   2   2   2   2   2
#     4   9  21  44  61  91 124 166 211 255 318 360
#     4  10  23  42  63  92 128 162 212 259 305 383
#     4  11  21  41  64  91 134 164 207 258 316 373
#     4   9  23  40  62  94 129 164 211 257 306 379
#     4   9  21  40  63  94 125 160 213 261 305 381
#     4  10  23  40  64  97 123 164 211 257 316 368
#
# _framework density 26.623028999999999
#
# number of rings (size 3 to 8) (size 9 to 14) (size 15 to 20)
#    1.000    1.333    0.000    1.000    4.667    2.000 
#    6.000    1.667    0.000    0.000    0.000    0.000 
#    0.000    0.000    0.000    0.000    0.000    0.000 
#
# Total GULP energy -66957.540619 kJ/mol
# GULP energy per Si atom -5579.795052 kJ/mol
# Density = 2.656243 g / cm^3
# Si number density = 26.623029 Si / 1000 Ang^3
#
#
#
# Elastic Constant Matrix: (Units=GPa)
#
#
# Indices 1 2 3 4 5 6 
#
# 1 77.2491 26.6878 26.2852 2.2433 -5.2119 30.3338
# 2 26.6878 174.6820 52.8753 22.2015 29.5542 31.5135
# 3 26.2852 52.8753 123.7764 29.5721 6.8298 16.0367
# 4 2.2433 22.2015 29.5721 49.2053 12.7318 9.1104
# 5 -5.2119 29.5542 6.8298 12.7318 33.3152 1.2511
# 6 30.3338 31.5135 16.0367 9.1104 1.2511 47.8094
#
#
#
# Elastic Compliance Matrix: (Units=1/GPa)
#
#
# Indices 1 2 3 4 5 6 
#
# 1 0.018716 -0.000985 -0.002930 0.002337 0.003915 -0.010790
# 2 -0.000985 0.008566 -0.002618 0.000362 -0.007204 -0.004024
# 3 -0.002930 -0.002618 0.011016 -0.005965 0.001849 0.000978
# 4 0.002337 0.000362 -0.005965 0.026762 -0.008788 -0.004590
# 5 0.003915 -0.007204 0.001849 -0.008788 0.039913 0.002275
# 6 -0.010790 -0.004024 0.000978 -0.004590 0.002275 0.030902
#
#
# Mechanical properties :
#
#
# Convention : Reuss Voigt Hill
#
# Bulk Modulus (GPa) = 39.63216 65.26713 52.44965
# Shear Modulus (GPa) = 31.77584 44.05660 37.91622
#
# Velocity S-wave (km/s) = 3.45852 4.07237 3.77794
# Velocity P-wave (km/s) = 5.55583 6.83234 6.22688
#
# Compressibility (1/GPa) = 0.02523203
#
# Stress axis : x y z
#
# Youngs Moduli (GPa) = 53.43085 116.73602 90.77621
#
# Poissons Ratio (x) = 0.11501 0.26597
# Poissons Ratio (y) = 0.05264 0.23764
# Poissons Ratio (z) = 0.15655 0.30560
#
# Static dielectric constant tensor:
#      x y z
#    x 2.146270 -0.192900 -0.027030 
#    y -0.192900 2.351650 0.083060 
#    z -0.027030 0.083060 2.166020 
# 
# From -- ./inp_files/47098.got.cif
#   From: 2010.05.17/outbox.cif.g08.bks.cpg/sg2_24_cif.got.tgz:47098.got - 2010.06.03 11:33:40.
