data_PCOD9037876
_publ_section_title
;
Structure prediction by ZEFSAII (Michael W. Deem and Ramdas Pophale) SiO2 
 PCOD9037876
Probable space group: P -1
;
_chemical_formula_sum "Si O2"
_cell_formula_units_Z 14
_cell_length_a 10.454800
_cell_length_b 5.298837
_cell_length_c 15.041909
_cell_angle_alpha 70.041402
_cell_angle_beta 70.325966
_cell_angle_gamma 53.851287
_cell_volume 622.330809
_symmetry_space_group_name_H-M "P -1"
_symmetry_group_IT_number 2
_symmetry_cell_setting 'triclinic'
loop_
_space_group_symop_operation_xyz
x,y,z
-x,-y,-z
loop_
_atom_site_type_symbol
_atom_site_label
_atom_site_fract_x
_atom_site_fract_y
_atom_site_fract_z
Si Si1 0.537522 0.768433 0.436118
Si Si2 0.172915 0.565443 0.717130
Si Si3 0.396794 0.225944 0.247279
Si Si4 0.570847 0.615755 0.164596
Si Si5 0.240424 0.204821 0.018274
Si Si6 0.116922 0.886441 0.191111
Si Si7 0.071277 0.190809 0.893721
O O1 0.500000 0.500000 0.500000
O O2 0.720930 0.559660 0.381075
O O3 0.500000 0.000000 0.500000
O O4 0.431508 0.013540 0.352462
O O5 0.289665 0.543250 0.772335
O O6 0.129126 0.310493 0.784621
O O7 0.002494 0.898161 0.728044
O O8 0.501954 0.388154 0.205226
O O9 0.214899 0.517489 0.238192
O O10 0.454821 0.969692 0.187192
O O11 0.641584 0.676274 0.050585
O O12 0.082855 0.516537 0.057412
O O13 0.252506 0.952732 0.117218
O O14 0.209672 0.078709 0.947713
O O15 0.001464 0.985894 0.118838
#
# Coordination Sequence:
#
# PCOD9037876 Si02
#       7
#     2   2   2   2   2   2   2
#     4  11  24  47  75  95 121 163 217 269 332 414
#     4   9  22  40  66  96 121 174 217 263 322 394
#     4  11  26  43  64 100 133 168 210 281 336 374
#     4  10  23  41  64  91 138 177 225 257 309 381
#     4   9  20  36  58  95 127 187 232 254 293 374
#     4  11  23  37  66  92 141 172 216 270 323 369
#     4   9  19  36  60  91 134 173 226 260 306 375
#
# _framework density 22.496075000000001
#
# number of rings (size 3 to 8) (size 9 to 14) (size 15 to 20)
#    0.000    2.000    0.000    3.000   14.000    1.143 
#    0.000    1.429    0.000    0.000    0.000    0.000 
#    0.000    0.000    0.000    0.000    0.000    0.000 
#
# Total GULP energy -78080.063340 kJ/mol
# GULP energy per Si atom -5577.147381 kJ/mol
# Density = 2.244487 g / cm^3
# Si number density = 22.496075 Si / 1000 Ang^3
#
#
#
# Elastic Constant Matrix: (Units=GPa)
#
#
# Indices 1 2 3 4 5 6 
#
# 1 97.9060 25.2645 43.8133 -9.1133 -14.5642 32.3487
# 2 25.2645 160.2155 78.7510 1.3162 -14.0882 3.8922
# 3 43.8133 78.7510 142.1621 11.8634 -36.7418 4.7764
# 4 -9.1133 1.3162 11.8634 38.5666 0.3793 1.4505
# 5 -14.5642 -14.0882 -36.7418 0.3793 30.6307 -4.8450
# 6 32.3487 3.8922 4.7764 1.4505 -4.8450 34.8994
#
#
#
# Elastic Compliance Matrix: (Units=1/GPa)
#
#
# Indices 1 2 3 4 5 6 
#
# 1 0.019296 0.000421 -0.006540 0.007229 -0.001338 -0.017524
# 2 0.000421 0.008822 -0.005898 0.001682 -0.003005 -0.001054
# 3 -0.006540 -0.005898 0.016604 -0.006859 0.015263 0.006851
# 4 0.007229 0.001682 -0.006859 0.030046 -0.005652 -0.007983
# 5 -0.001338 -0.003005 0.015263 -0.005652 0.050062 0.006671
# 6 -0.017524 -0.001054 0.006851 -0.007983 0.006671 0.045334
#
#
# Mechanical properties :
#
#
# Convention : Reuss Voigt Hill
#
# Bulk Modulus (GPa) = 48.34079 77.32679 62.83379
# Shear Modulus (GPa) = 24.86392 37.64968 31.25680
#
# Velocity S-wave (km/s) = 3.32815 4.09542 3.73155
# Velocity P-wave (km/s) = 6.02527 7.53733 6.82332
#
# Compressibility (1/GPa) = 0.02068646
#
# Stress axis : x y z
#
# Youngs Moduli (GPa) = 51.82466 113.35402 60.22646
#
# Poissons Ratio (x) = -0.04767 0.39389
# Poissons Ratio (y) = -0.02180 0.35522
# Poissons Ratio (z) = 0.33894 0.66857
#
# Static dielectric constant tensor:
#      x y z
#    x 1.925620 -0.033730 0.003850 
#    y -0.033730 1.870610 -0.023200 
#    z 0.003850 -0.023200 1.841450 
# 
# From -- ./inp_files/38628.got.cif
#   From: 2010.05.17/outbox.cif.g08.bks.cpg/sg2_20_cif.got.tgz:38628.got - 2010.06.03 11:33:40.
