data_PCOD9037188
_publ_section_title
;
Structure prediction by ZEFSAII (Michael W. Deem and Ramdas Pophale) SiO2 
 PCOD9037188
Probable space group: P -1
;
_chemical_formula_sum "Si O2"
_cell_formula_units_Z 14
_cell_length_a 19.041240
_cell_length_b 23.705755
_cell_length_c 8.444671
_cell_angle_alpha 33.222627
_cell_angle_beta 136.344741
_cell_angle_gamma 159.222495
_cell_volume 706.343151
_symmetry_space_group_name_H-M "P -1"
_symmetry_group_IT_number 2
_symmetry_cell_setting 'triclinic'
loop_
_space_group_symop_operation_xyz
x,y,z
-x,-y,-z
loop_
_atom_site_type_symbol
_atom_site_label
_atom_site_fract_x
_atom_site_fract_y
_atom_site_fract_z
Si Si1 0.524494 0.901381 0.299946
Si Si2 0.738399 0.996477 0.107529
Si Si3 0.225366 0.462724 0.803486
Si Si4 0.322694 0.053331 0.228271
Si Si5 0.620142 0.501093 0.735028
Si Si6 0.550302 0.444587 0.313851
Si Si7 0.929345 0.822674 0.262951
O O1 0.642767 0.958343 0.204207
O O2 0.304573 0.646291 0.546136
O O3 0.631056 0.973929 0.475110
O O4 0.500000 0.000000 0.000000
O O5 0.656417 0.805559 0.405590
O O6 0.678732 0.992192 0.846469
O O7 0.984686 0.227094 0.979111
O O8 0.301946 0.505849 0.652140
O O9 0.362142 0.506705 0.032313
O O10 0.496270 0.295811 0.944041
O O11 0.105072 0.918341 0.229121
O O12 0.500000 0.500000 0.500000
O O13 0.859870 0.711651 0.575701
O O14 0.706492 0.621563 0.287159
O O15 0.500000 0.500000 0.000000
O O16 0.000000 0.000000 0.000000
#
# Coordination Sequence:
#
# PCOD9037188 Si02
#       7
#     2   2   2   2   2   2   2
#     4  10  25  47  68  94 123 157 215 277 324 383
#     4  11  23  43  65  92 129 166 210 264 324 376
#     4  10  23  40  63  89 125 167 211 258 317 378
#     4  11  23  41  63  92 128 165 209 260 314 379
#     4  11  21  36  56  88 126 172 208 249 304 364
#     4  11  24  36  57  92 133 171 213 251 297 372
#     4  12  23  35  58  90 129 171 213 245 300 371
#
# _framework density 19.820395999999999
#
# number of rings (size 3 to 8) (size 9 to 14) (size 15 to 20)
#    0.000    1.143    4.286    1.714    6.000    1.714 
#    0.000    0.714    0.000    0.000    0.000    0.000 
#    0.000    0.000    0.000    0.000    0.000    0.000 
#
# Total GULP energy -77981.273581 kJ/mol
# GULP energy per Si atom -5570.090970 kJ/mol
# Density = 1.977528 g / cm^3
# Si number density = 19.820396 Si / 1000 Ang^3
#
#
#
# Elastic Constant Matrix: (Units=GPa)
#
#
# Indices 1 2 3 4 5 6 
#
# 1 57.4260 27.2813 32.8141 3.4988 -9.5193 -18.3009
# 2 27.2813 106.7082 64.3505 -17.4972 7.9908 -18.3410
# 3 32.8141 64.3505 125.0094 -3.2283 6.6055 -3.7226
# 4 3.4988 -17.4972 -3.2283 42.9025 0.9752 -14.8072
# 5 -9.5193 7.9908 6.6055 0.9752 29.5800 -1.3323
# 6 -18.3009 -18.3410 -3.7226 -14.8072 -1.3323 31.2341
#
#
#
# Elastic Compliance Matrix: (Units=1/GPa)
#
#
# Indices 1 2 3 4 5 6 
#
# 1 0.029462 -0.000245 -0.007626 0.002896 0.011970 0.018093
# 2 -0.000245 0.020615 -0.009512 0.013720 -0.003201 0.017196
# 3 -0.007626 -0.009512 0.014590 -0.005980 -0.003454 -0.011298
# 4 0.002896 0.013720 -0.005980 0.037483 -0.001470 0.026747
# 5 0.011970 -0.003201 -0.003454 -0.001470 0.039601 0.005714
# 6 0.018093 0.017196 -0.011298 0.026747 0.005714 0.064292
#
#
# Mechanical properties :
#
#
# Convention : Reuss Voigt Hill
#
# Bulk Modulus (GPa) = 33.44523 59.78173 46.61348
# Shear Modulus (GPa) = 19.93815 31.72318 25.83066
#
# Velocity S-wave (km/s) = 3.17510 4.00501 3.61395
# Velocity P-wave (km/s) = 5.50930 7.18429 6.40181
#
# Compressibility (1/GPa) = 0.02989963
#
# Stress axis : x y z
#
# Youngs Moduli (GPa) = 33.94247 48.50759 68.54236
#
# Poissons Ratio (x) = 0.01187 0.52273
# Poissons Ratio (y) = 0.00831 0.65199
# Poissons Ratio (z) = 0.25886 0.46142
#
# Static dielectric constant tensor:
#      x y z
#    x 1.903880 -0.079940 -0.145220 
#    y -0.079940 1.702650 0.028650 
#    z -0.145220 0.028650 1.759980 
# 
# From -- ./inp_files/37660.got.cif
#   From: 2010.05.17/outbox.cif.g08.bks.cpg/sg2_19_cif.got.tgz:37660.got - 2010.06.03 11:33:40.
