data_PCOD9037246
_publ_section_title
;
Structure prediction by ZEFSAII (Michael W. Deem and Ramdas Pophale) SiO2 
 PCOD9037246
Probable space group: P -1
;
_chemical_formula_sum "Si O2"
_cell_formula_units_Z 16
_cell_length_a 7.698454
_cell_length_b 11.696116
_cell_length_c 15.990969
_cell_angle_alpha 51.003813
_cell_angle_beta 41.584781
_cell_angle_gamma 69.607553
_cell_volume 721.586526
_symmetry_space_group_name_H-M "P -1"
_symmetry_group_IT_number 2
_symmetry_cell_setting 'triclinic'
loop_
_space_group_symop_operation_xyz
x,y,z
-x,-y,-z
loop_
_atom_site_type_symbol
_atom_site_label
_atom_site_fract_x
_atom_site_fract_y
_atom_site_fract_z
Si Si1 0.559853 0.702701 0.815412
Si Si2 0.605480 0.858990 0.554367
Si Si3 0.518142 0.182043 0.031483
Si Si4 0.224264 0.844254 0.320640
Si Si5 0.062827 0.633149 0.323013
Si Si6 0.082196 0.638599 0.608327
Si Si7 0.545205 0.434865 0.361838
Si Si8 0.261620 0.428847 0.943000
O O1 0.532478 0.810200 0.698159
O O2 0.449391 0.756701 0.914043
O O3 0.421100 0.534853 0.910981
O O4 0.876507 0.706435 0.705737
O O5 0.461961 0.723197 0.608556
O O6 0.925909 0.876383 0.421593
O O7 0.500000 0.000000 0.500000
O O8 0.422620 0.000989 0.151393
O O9 0.796450 0.245747 0.852690
O O10 0.291851 0.261640 0.035129
O O11 0.200525 0.713244 0.320414
O O12 0.275437 0.771559 0.424585
O O13 0.092212 0.473116 0.347450
O O14 0.746208 0.591613 0.477935
O O15 0.234627 0.543096 0.654918
O O16 0.619489 0.548260 0.204888
O O17 0.000000 0.500000 0.000000
#
# Coordination Sequence:
#
# PCOD9037246 Si02
#       8
#     2   2   2   2   2   2   2   2
#     4  10  23  40  64 102 123 171 217 262 335 377
#     4   9  21  39  65  91 135 167 209 272 324 390
#     4  12  25  41  69  95 141 165 214 281 319 394
#     4  10  25  41  65  99 123 179 216 265 337 375
#     4  11  24  46  65  91 133 179 223 260 325 390
#     4  11  22  43  73  91 130 167 226 271 312 401
#     4  10  24  41  67  97 121 175 229 260 318 393
#     4  11  24  41  66  99 132 169 216 271 328 385
#
# _framework density 22.173363999999999
#
# number of rings (size 3 to 8) (size 9 to 14) (size 15 to 20)
#    0.000    1.500    1.250    3.000   10.500    1.000 
#    0.000    0.625    0.000    0.000    0.000    0.000 
#    0.000    0.000    0.000    0.000    0.000    0.000 
#
# Total GULP energy -89331.163155 kJ/mol
# GULP energy per Si atom -5583.197697 kJ/mol
# Density = 2.212290 g / cm^3
# Si number density = 22.173364 Si / 1000 Ang^3
#
#
#
# Elastic Constant Matrix: (Units=GPa)
#
#
# Indices 1 2 3 4 5 6 
#
# 1 61.8356 28.2682 25.4691 10.0699 7.8931 2.0008
# 2 28.2682 51.1314 25.1073 3.6800 15.9204 -2.3640
# 3 25.4691 25.1073 113.9618 3.4087 13.3317 19.4950
# 4 10.0699 3.6800 3.4087 51.3453 0.8946 7.9532
# 5 7.8931 15.9204 13.3317 0.8946 21.9850 4.1061
# 6 2.0008 -2.3640 19.4950 7.9532 4.1061 19.8119
#
#
#
# Elastic Compliance Matrix: (Units=1/GPa)
#
#
# Indices 1 2 3 4 5 6 
#
# 1 0.022964 -0.011798 -0.002645 -0.003495 0.002073 -0.000150
# 2 -0.011798 0.036533 -0.005610 -0.002097 -0.021801 0.016431
# 3 -0.002645 -0.005610 0.012967 0.002233 -0.000329 -0.013990
# 4 -0.003495 -0.002097 0.002233 0.021888 0.002665 -0.011433
# 5 0.002073 -0.021801 -0.000329 0.002665 0.063752 -0.016769
# 6 -0.000150 0.016431 -0.013990 -0.011433 -0.016769 0.074282
#
#
# Mechanical properties :
#
#
# Convention : Reuss Voigt Hill
#
# Bulk Modulus (GPa) = 30.90353 42.73532 36.81943
# Shear Modulus (GPa) = 17.65051 28.50072 23.07561
#
# Velocity S-wave (km/s) = 2.82445 3.58908 3.22947
# Velocity P-wave (km/s) = 4.96026 6.04073 5.52696
#
# Compressibility (1/GPa) = 0.03235876
#
# Stress axis : x y z
#
# Youngs Moduli (GPa) = 43.54577 27.37232 77.11980
#
# Poissons Ratio (x) = 0.32293 0.20400
# Poissons Ratio (y) = 0.51375 0.43262
# Poissons Ratio (z) = 0.11519 0.15355
#
# Static dielectric constant tensor:
#      x y z
#    x 1.842600 -0.008260 -0.023080 
#    y -0.008260 1.795990 0.010030 
#    z -0.023080 0.010030 1.867930 
# 
# From -- ./inp_files/499978.got.cif
#   From: 2010.05.17/outbox.cif.g08.bks.cpg/sg2_250_cif.got.tgz:499978.got - 2010.06.03 11:33:40.
