data_PCOD9037572
_publ_section_title
;
Structure prediction by ZEFSAII (Michael W. Deem and Ramdas Pophale) SiO2 
 PCOD9037572
Probable space group: P -1
;
_chemical_formula_sum "Si O2"
_cell_formula_units_Z 16
_cell_length_a 5.940366
_cell_length_b 12.385729
_cell_length_c 13.583909
_cell_angle_alpha 44.059212
_cell_angle_beta 84.877193
_cell_angle_gamma 70.449556
_cell_volume 637.278099
_symmetry_space_group_name_H-M "P -1"
_symmetry_group_IT_number 2
_symmetry_cell_setting 'triclinic'
loop_
_space_group_symop_operation_xyz
x,y,z
-x,-y,-z
loop_
_atom_site_type_symbol
_atom_site_label
_atom_site_fract_x
_atom_site_fract_y
_atom_site_fract_z
Si Si1 0.143603 0.216160 0.223621
Si Si2 0.205528 0.682043 0.292829
Si Si3 0.653401 0.960860 0.286311
Si Si4 0.953812 0.582321 0.213422
Si Si5 0.570118 0.299458 0.531820
Si Si6 0.747536 0.450901 0.958804
Si Si7 0.565249 0.131704 0.976806
Si Si8 0.980879 0.201660 0.451222
O O1 0.179477 0.389304 0.131525
O O2 0.065076 0.155846 0.366931
O O3 0.924952 0.276663 0.114851
O O4 0.389478 0.087421 0.252342
O O5 0.978488 0.651377 0.274918
O O6 0.425281 0.497802 0.398174
O O7 0.222038 0.734279 0.370091
O O8 0.265328 0.808552 0.137246
O O9 0.610916 0.790610 0.374758
O O10 0.835881 0.922388 0.396139
O O11 0.695258 0.044329 0.129811
O O12 0.972207 0.391788 0.342972
O O13 0.692879 0.707812 0.096959
O O14 0.186387 0.579117 0.140296
O O15 0.706215 0.224212 0.474128
O O16 0.500000 0.500000 0.000000
O O17 0.500000 0.000000 0.000000
#
# Coordination Sequence:
#
# PCOD9037572 Si02
#       8
#     2   2   2   2   2   2   2   2
#     4  10  24  43  64 100 139 172 225 282 334 397
#     4  11  25  43  70  97 135 177 225 274 337 404
#     4  12  25  45  66 103 138 173 227 284 338 392
#     4  11  24  43  71  99 133 182 228 270 341 409
#     4  11  25  43  68 101 130 180 229 270 334 409
#     4  10  23  40  69 101 135 179 225 273 342 407
#     4  12  26  45  68 101 141 175 222 291 335 390
#     4  11  25  43  71  95 134 183 225 276 334 402
#
# _framework density 25.106777000000001
#
# number of rings (size 3 to 8) (size 9 to 14) (size 15 to 20)
#    0.000    1.000    5.000    0.375    5.250    3.500 
#    0.000    0.000    0.000    0.000    0.000    0.000 
#    0.000    0.000    0.000    0.000    0.000    0.000 
#
# Total GULP energy -89596.765122 kJ/mol
# GULP energy per Si atom -5599.797820 kJ/mol
# Density = 2.504963 g / cm^3
# Si number density = 25.106777 Si / 1000 Ang^3
#
#
#
# Elastic Constant Matrix: (Units=GPa)
#
#
# Indices 1 2 3 4 5 6 
#
# 1 24.0207 -2.4825 19.2637 2.5072 4.1533 -3.1506
# 2 -2.4825 96.1910 33.4139 11.2655 -6.6579 -15.8540
# 3 19.2637 33.4139 171.2317 10.3717 3.9380 -6.1632
# 4 2.5072 11.2655 10.3717 42.9613 -2.0399 -5.0504
# 5 4.1533 -6.6579 3.9380 -2.0399 38.6443 -3.7995
# 6 -3.1506 -15.8540 -6.1632 -5.0504 -3.7995 49.3043
#
#
#
# Elastic Compliance Matrix: (Units=1/GPa)
#
#
# Indices 1 2 3 4 5 6 
#
# 1 0.047940 0.003750 -0.005797 -0.002203 -0.003734 0.003031
# 2 0.003750 0.012468 -0.002629 -0.002292 0.002272 0.003860
# 3 -0.005797 -0.002629 0.007049 -0.000758 -0.000634 -0.000461
# 4 -0.002203 -0.002292 -0.000758 0.024447 0.001371 0.001637
# 5 -0.003734 0.002272 -0.000634 0.001371 0.027066 0.002639
# 6 0.003031 0.003860 -0.000461 0.001637 0.002639 0.022031
#
#
# Mechanical properties :
#
#
# Convention : Reuss Voigt Hill
#
# Bulk Modulus (GPa) = 17.21016 43.53705 30.37361
# Shear Modulus (GPa) = 29.46004 42.26519 35.86262
#
# Velocity S-wave (km/s) = 3.42919 4.10740 3.78352
# Velocity P-wave (km/s) = 4.74856 6.31448 5.58666
#
# Compressibility (1/GPa) = 0.05810520
#
# Stress axis : x y z
#
# Youngs Moduli (GPa) = 20.85936 80.20520 141.86089
#
# Poissons Ratio (x) = -0.30077 0.82232
# Poissons Ratio (y) = -0.07822 0.37300
# Poissons Ratio (z) = 0.12091 0.21089
#
# Static dielectric constant tensor:
#      x y z
#    x 1.996170 0.011930 -0.001330 
#    y 0.011930 1.966640 -0.013120 
#    z -0.001330 -0.013120 1.952610 
# 
# From -- ./inp_files/109321.got.cif
#   From: 2010.05.17/outbox.cif.g08.bks.cpg/sg2_55_cif.got.tgz:109321.got - 2010.06.03 11:33:40.
