data_PCOD9037501
_publ_section_title
;
Structure prediction by ZEFSAII (Michael W. Deem and Ramdas Pophale) SiO2 
 PCOD9037501
Probable space group: P -1
;
_chemical_formula_sum "Si O2"
_cell_formula_units_Z 12
_cell_length_a 5.365280
_cell_length_b 12.416930
_cell_length_c 8.912213
_cell_angle_alpha 120.075622
_cell_angle_beta 85.378024
_cell_angle_gamma 85.871944
_cell_volume 507.761555
_symmetry_space_group_name_H-M "P -1"
_symmetry_group_IT_number 2
_symmetry_cell_setting 'triclinic'
loop_
_space_group_symop_operation_xyz
x,y,z
-x,-y,-z
loop_
_atom_site_type_symbol
_atom_site_label
_atom_site_fract_x
_atom_site_fract_y
_atom_site_fract_z
Si Si1 0.591224 0.831464 0.591778
Si Si2 0.203097 0.178038 0.732208
Si Si3 0.164838 0.606776 0.113815
Si Si4 0.949102 0.042056 0.204115
Si Si5 0.272364 0.418054 0.440626
Si Si6 0.582043 0.628675 0.917399
O O1 0.600933 0.863730 0.437666
O O2 0.312425 0.863264 0.698460
O O3 0.690782 0.684453 0.503519
O O4 0.799830 0.904766 0.713150
O O5 0.969239 0.264437 0.724480
O O6 0.108013 0.071357 0.762973
O O7 0.312372 0.278513 0.904982
O O8 0.348944 0.521674 0.158334
O O9 0.287884 0.646619 0.980698
O O10 0.000000 0.500000 0.000000
O O11 0.000000 0.000000 0.000000
O O12 0.500000 0.500000 0.500000
O O13 0.321914 0.343919 0.230182
O O14 0.000000 0.500000 0.500000
#
# Coordination Sequence:
#
# PCOD9037501 Si02
#       6
#     2   2   2   2   2   2
#     4  12  28  48  71 108 139 180 240 290 343 415
#     4  11  25  42  75  97 141 181 235 288 349 406
#     4   9  21  38  67  99 137 178 234 279 345 408
#     4  12  28  49  74 100 142 187 235 287 351 412
#     4  12  28  45  72 103 147 184 229 285 353 415
#     4  10  23  40  68 100 139 183 234 279 354 410
#
# _framework density 23.633140999999998
#
# number of rings (size 3 to 8) (size 9 to 14) (size 15 to 20)
#    0.000    1.000    0.000    4.500   18.667    0.000 
#    0.000    0.000    0.000    0.000    0.000    0.000 
#    0.000    0.000    0.000    0.000    0.000    0.000 
#
# Total GULP energy -67054.618708 kJ/mol
# GULP energy per Si atom -5587.884892 kJ/mol
# Density = 2.357935 g / cm^3
# Si number density = 23.633141 Si / 1000 Ang^3
#
#
#
# Elastic Constant Matrix: (Units=GPa)
#
#
# Indices 1 2 3 4 5 6 
#
# 1 102.1455 15.9074 33.5542 7.7619 -10.8208 8.7260
# 2 15.9074 124.2534 12.4539 -3.6539 -6.9102 -2.2318
# 3 33.5542 12.4539 111.3785 -24.0529 0.5625 4.7891
# 4 7.7619 -3.6539 -24.0529 37.9109 8.4245 -7.6429
# 5 -10.8208 -6.9102 0.5625 8.4245 47.7237 9.8923
# 6 8.7260 -2.2318 4.7891 -7.6429 9.8923 36.8208
#
#
#
# Elastic Compliance Matrix: (Units=1/GPa)
#
#
# Indices 1 2 3 4 5 6 
#
# 1 0.013677 -0.001229 -0.005708 -0.009050 0.005836 -0.006020
# 2 -0.001229 0.008321 -0.000422 0.000823 0.000608 0.000858
# 3 -0.005708 -0.000422 0.012984 0.010865 -0.004044 0.002980
# 4 -0.009050 0.000823 0.010865 0.040286 -0.011721 0.012293
# 5 0.005836 0.000608 -0.004044 -0.011721 0.026640 -0.010410
# 6 -0.006020 0.000858 0.002980 0.012293 -0.010410 0.033598
#
#
# Mechanical properties :
#
#
# Convention : Reuss Voigt Hill
#
# Bulk Modulus (GPa) = 49.34965 51.28983 50.31974
# Shear Modulus (GPa) = 31.85166 42.88189 37.36677
#
# Velocity S-wave (km/s) = 3.67516 4.26429 3.98064
# Velocity P-wave (km/s) = 6.23987 6.78198 6.51656
#
# Compressibility (1/GPa) = 0.02026357
#
# Stress axis : x y z
#
# Youngs Moduli (GPa) = 73.11811 120.17582 77.01827
#
# Poissons Ratio (x) = 0.14764 0.43962
# Poissons Ratio (y) = 0.08983 0.03254
# Poissons Ratio (z) = 0.41736 0.05077
#
# Static dielectric constant tensor:
#      x y z
#    x 2.068070 -0.033440 -0.014030 
#    y -0.033440 1.913660 -0.011190 
#    z -0.014030 -0.011190 1.948220 
# 
# From -- ./inp_files/35809.got.cif
#   From: 2010.05.17/outbox.cif.g08.bks.cpg/sg2_18_cif.got.tgz:35809.got - 2010.06.03 11:33:40.
