data_PCOD9037390
_publ_section_title
;
Structure prediction by ZEFSAII (Michael W. Deem and Ramdas Pophale) SiO2 
 PCOD9037390
Probable space group: P -1
;
_chemical_formula_sum "Si O2"
_cell_formula_units_Z 16
_cell_length_a 16.372965
_cell_length_b 16.916240
_cell_length_c 17.476522
_cell_angle_alpha 24.466918
_cell_angle_beta 22.926320
_cell_angle_gamma 26.838271
_cell_volume 735.934657
_symmetry_space_group_name_H-M "P -1"
_symmetry_group_IT_number 2
_symmetry_cell_setting 'triclinic'
loop_
_space_group_symop_operation_xyz
x,y,z
-x,-y,-z
loop_
_atom_site_type_symbol
_atom_site_label
_atom_site_fract_x
_atom_site_fract_y
_atom_site_fract_z
Si Si1 0.931126 0.241625 0.855239
Si Si2 0.627869 0.137098 0.867610
Si Si3 0.248411 0.716151 0.856284
Si Si4 0.779543 0.643120 0.883141
Si Si5 0.462028 0.776210 0.311797
Si Si6 0.122862 0.603599 0.745446
Si Si7 0.239136 0.505653 0.364217
Si Si8 0.059360 0.152810 0.563761
O O1 0.766689 0.364695 0.821974
O O2 0.136210 0.327399 0.595094
O O3 0.829762 0.292730 0.981836
O O4 0.000000 0.000000 0.000000
O O5 0.596165 0.175196 0.770757
O O6 0.871383 0.111316 0.709386
O O7 0.449839 0.315017 0.911037
O O8 0.545880 0.947471 0.122572
O O9 0.511672 0.598167 0.730215
O O10 0.135909 0.590308 0.010056
O O11 0.183214 0.947551 0.682701
O O12 0.944027 0.698347 0.751472
O O13 0.774929 0.773639 0.696447
O O14 0.237730 0.746984 0.562253
O O15 0.669799 0.569921 0.318387
O O16 0.000000 0.500000 0.000000
O O17 0.076690 0.665312 0.422692
#
# Coordination Sequence:
#
# PCOD9037390 Si02
#       8
#     2   2   2   2   2   2   2   2
#     4  11  24  47  75 105 139 178 224 284 335 410
#     4  11  23  43  65  95 134 177 232 290 342 408
#     4  12  26  44  73 102 138 186 226 276 351 405
#     4  12  25  43  67 100 139 180 233 288 344 416
#     4  10  23  40  66  93 129 178 228 294 348 398
#     4  11  22  41  66  94 132 179 235 286 348 411
#     4  11  25  46  74 102 141 177 229 278 337 415
#     4  12  25  46  67 102 142 183 228 286 347 408
#
# _framework density 21.741060000000001
#
# number of rings (size 3 to 8) (size 9 to 14) (size 15 to 20)
#    0.000    0.750    6.250    1.125    0.000    5.000 
#    2.250    0.000    0.000    0.000    0.000    0.000 
#    0.000    0.000    0.000    0.000    0.000    0.000 
#
# Total GULP energy -89456.474681 kJ/mol
# GULP energy per Si atom -5591.029668 kJ/mol
# Density = 2.169158 g / cm^3
# Si number density = 21.741060 Si / 1000 Ang^3
#
#
#
# Elastic Constant Matrix: (Units=GPa)
#
#
# Indices 1 2 3 4 5 6 
#
# 1 46.1458 13.8724 8.5311 -0.9562 -1.9243 -6.0822
# 2 13.8724 69.6857 18.6148 -12.8164 -4.7396 -1.5906
# 3 8.5311 18.6148 103.8812 -14.5131 1.9803 1.5829
# 4 -0.9562 -12.8164 -14.5131 36.8898 5.4891 -1.6250
# 5 -1.9243 -4.7396 1.9803 5.4891 39.4248 -2.1058
# 6 -6.0822 -1.5906 1.5829 -1.6250 -2.1058 39.3816
#
#
#
# Elastic Compliance Matrix: (Units=1/GPa)
#
#
# Indices 1 2 3 4 5 6 
#
# 1 0.023761 -0.004469 -0.001436 -0.001508 0.001094 0.003543
# 2 -0.004469 0.016738 -0.001999 0.004741 0.001252 0.000329
# 3 -0.001436 -0.001999 0.010647 0.003634 -0.001386 -0.000655
# 4 -0.001508 0.004741 0.003634 0.030768 -0.003923 0.000872
# 5 0.001094 0.001252 -0.001386 -0.003923 0.026266 0.001518
# 6 0.003543 0.000329 -0.000655 0.000872 0.001518 0.026096
#
#
# Mechanical properties :
#
#
# Convention : Reuss Voigt Hill
#
# Bulk Modulus (GPa) = 28.29783 33.52771 30.91277
# Shear Modulus (GPa) = 30.89046 35.05221 32.97134
#
# Velocity S-wave (km/s) = 3.77349 4.01965 3.89851
# Velocity P-wave (km/s) = 5.65948 6.08262 5.87486
#
# Compressibility (1/GPa) = 0.03533840
#
# Stress axis : x y z
#
# Youngs Moduli (GPa) = 42.08642 59.74309 93.92617
#
# Poissons Ratio (x) = 0.26697 0.13489
# Poissons Ratio (y) = 0.18807 0.18775
# Poissons Ratio (z) = 0.06044 0.11942
#
# Static dielectric constant tensor:
#      x y z
#    x 1.887980 -0.026190 -0.078410 
#    y -0.026190 1.824850 0.019940 
#    z -0.078410 0.019940 1.854070 
# 
# From -- ./inp_files/534064.got.cif
#   From: 2010.05.17/outbox.cif.g08.bks.cpg/sg2_268_cif.got.tgz:534064.got - 2010.06.03 11:33:40.
