data_PCOD9037341
_publ_section_title
;
Structure prediction by ZEFSAII (Michael W. Deem and Ramdas Pophale) SiO2 
 PCOD9037341
Probable space group: P -1
;
_chemical_formula_sum "Si O2"
_cell_formula_units_Z 16
_cell_length_a 5.143316
_cell_length_b 10.811764
_cell_length_c 14.873336
_cell_angle_alpha 87.791681
_cell_angle_beta 121.618063
_cell_angle_gamma 113.313828
_cell_volume 631.529838
_symmetry_space_group_name_H-M "P -1"
_symmetry_group_IT_number 2
_symmetry_cell_setting 'triclinic'
loop_
_space_group_symop_operation_xyz
x,y,z
-x,-y,-z
loop_
_atom_site_type_symbol
_atom_site_label
_atom_site_fract_x
_atom_site_fract_y
_atom_site_fract_z
Si Si1 0.755761 0.015632 0.626222
Si Si2 0.731357 0.283424 0.444527
Si Si3 0.502107 0.937180 0.246408
Si Si4 0.817445 0.148696 0.164370
Si Si5 0.552642 0.555830 0.725670
Si Si6 0.590398 0.450002 0.925828
Si Si7 0.426557 0.146298 0.915695
Si Si8 0.481329 0.372556 0.560291
O O1 0.605078 0.855327 0.632363
O O2 0.500000 0.000000 0.500000
O O3 0.696730 0.094309 0.697233
O O4 0.148591 0.075370 0.671175
O O5 0.716407 0.402668 0.375358
O O6 0.692963 0.313564 0.541873
O O7 0.078167 0.270903 0.492585
O O8 0.338464 0.852601 0.127851
O O9 0.634177 0.093997 0.228324
O O10 0.107589 0.301372 0.219196
O O11 0.864764 0.011697 0.145027
O O12 0.574763 0.152956 0.040724
O O13 0.488747 0.510464 0.818097
O O14 0.588923 0.437247 0.676535
O O15 0.392579 0.284667 0.892017
O O16 0.500000 0.500000 0.000000
O O17 0.000000 0.500000 0.000000
O O18 0.500000 0.500000 0.500000
#
# Coordination Sequence:
#
# PCOD9037341 Si02
#       8
#     2   2   2   2   2   2   2   2
#     4  12  25  41  68 100 136 178 227 278 339 399
#     4  11  23  43  65  98 135 173 228 276 339 408
#     4  10  23  44  67 101 135 178 222 282 332 405
#     4   9  19  45  75 102 132 181 230 288 330 412
#     4  11  22  43  71  98 135 184 223 280 345 394
#     4  12  28  45  67 101 141 178 226 279 338 405
#     4   9  21  46  70 105 136 179 229 280 345 402
#     4  10  23  40  65  96 129 171 223 280 329 405
#
# _framework density 25.335304000000001
#
# number of rings (size 3 to 8) (size 9 to 14) (size 15 to 20)
#    0.750    0.750    2.500    2.625    1.750    7.000 
#    0.000    1.875    0.000    0.000    0.000    0.000 
#    0.000    0.000    0.000    0.000    0.000    0.000 
#
# Total GULP energy -89417.403286 kJ/mol
# GULP energy per Si atom -5588.587705 kJ/mol
# Density = 2.527764 g / cm^3
# Si number density = 25.335304 Si / 1000 Ang^3
#
#
#
# Elastic Constant Matrix: (Units=GPa)
#
#
# Indices 1 2 3 4 5 6 
#
# 1 121.4762 17.1494 46.8064 -0.0965 -8.4421 7.5112
# 2 17.1494 106.6885 31.1427 2.6647 -8.2678 4.6970
# 3 46.8064 31.1427 157.7718 -12.3689 -22.2108 4.0527
# 4 -0.0965 2.6647 -12.3689 59.3693 7.7354 5.3047
# 5 -8.4421 -8.2678 -22.2108 7.7354 44.7508 11.5415
# 6 7.5112 4.6970 4.0527 5.3047 11.5415 13.4228
#
#
#
# Elastic Compliance Matrix: (Units=1/GPa)
#
#
# Indices 1 2 3 4 5 6 
#
# 1 0.009754 -0.000416 -0.002330 -0.000169 0.002323 -0.006540
# 2 -0.000416 0.010289 -0.001499 -0.000667 0.002413 -0.004726
# 3 -0.002330 -0.001499 0.008201 0.001654 0.004373 -0.005062
# 4 -0.000169 -0.000667 0.001654 0.017904 -0.000719 -0.006629
# 5 0.002323 0.002413 0.004373 -0.000719 0.033852 -0.032288
# 6 -0.006540 -0.004726 -0.005062 -0.006629 -0.032288 0.111724
#
#
# Mechanical properties :
#
#
# Convention : Reuss Voigt Hill
#
# Bulk Modulus (GPa) = 50.62007 64.01483 57.31745
# Shear Modulus (GPa) = 24.17815 42.89778 33.53797
#
# Velocity S-wave (km/s) = 3.09257 4.11932 3.64230
# Velocity P-wave (km/s) = 5.72498 6.92437 6.35304
#
# Compressibility (1/GPa) = 0.01975501
#
# Stress axis : x y z
#
# Youngs Moduli (GPa) = 102.52017 97.18988 121.93960
#
# Poissons Ratio (x) = 0.04040 0.28412
# Poissons Ratio (y) = 0.04261 0.18277
# Poissons Ratio (z) = 0.23888 0.14567
#
# Static dielectric constant tensor:
#      x y z
#    x 2.061020 -0.019850 0.031780 
#    y -0.019850 2.043320 -0.030080 
#    z 0.031780 -0.030080 2.022770 
# 
# From -- ./inp_files/482848.got.cif
#   From: 2010.05.17/outbox.cif.g08.bks.cpg/sg2_242_cif.got.tgz:482848.got - 2010.06.03 11:33:40.
