data_PCOD9037292
_publ_section_title
;
Structure prediction by ZEFSAII (Michael W. Deem and Ramdas Pophale) SiO2 
 PCOD9037292
Probable space group: P -1
;
_chemical_formula_sum "Si O2"
_cell_formula_units_Z 16
_cell_length_a 9.431205
_cell_length_b 9.689864
_cell_length_c 14.594844
_cell_angle_alpha 45.530099
_cell_angle_beta 79.376541
_cell_angle_gamma 102.636943
_cell_volume 812.289215
_symmetry_space_group_name_H-M "P -1"
_symmetry_group_IT_number 2
_symmetry_cell_setting 'triclinic'
loop_
_space_group_symop_operation_xyz
x,y,z
-x,-y,-z
loop_
_atom_site_type_symbol
_atom_site_label
_atom_site_fract_x
_atom_site_fract_y
_atom_site_fract_z
Si Si1 0.120609 0.482892 0.225030
Si Si2 0.010746 0.217714 0.854125
Si Si3 0.019529 0.322024 0.518190
Si Si4 0.617239 0.574935 0.311597
Si Si5 0.301254 0.206848 0.602892
Si Si6 0.191577 0.055302 0.167740
Si Si7 0.009859 0.720658 0.855397
Si Si8 0.502916 0.779645 0.067510
O O1 0.040499 0.317641 0.227492
O O2 0.317420 0.589290 0.156733
O O3 0.083631 0.685791 0.120986
O O4 0.045996 0.385713 0.378987
O O5 0.203440 0.401670 0.736432
O O6 0.917670 0.130283 0.809456
O O7 0.000000 0.000000 0.000000
O O8 0.000000 0.500000 0.500000
O O9 0.177277 0.298408 0.543724
O O10 0.857206 0.084031 0.668041
O O11 0.464139 0.329242 0.463177
O O12 0.640631 0.713381 0.337613
O O13 0.576512 0.691869 0.179081
O O14 0.189996 0.940981 0.738430
O O15 0.119813 0.223451 0.103968
O O16 0.377912 0.161635 0.061634
O O17 0.000000 0.500000 0.000000
O O18 0.500000 0.000000 0.000000
#
# Coordination Sequence:
#
# PCOD9037292 Si02
#       8
#     2   2   2   2   2   2   2   2
#     4  12  25  41  70  96 134 181 220 279 343 403
#     4  12  20  38  67  97 125 175 229 277 326 391
#     4  11  19  40  63  99 132 166 225 276 336 398
#     4  11  21  39  69  97 135 164 236 281 337 382
#     4  10  23  40  64  99 133 182 215 289 334 398
#     4  11  23  39  67  96 136 174 225 278 334 391
#     4  11  26  46  67  96 139 185 228 267 345 419
#     4  12  23  39  68 107 133 168 231 288 336 391
#
# _framework density 19.697417999999999
#
# number of rings (size 3 to 8) (size 9 to 14) (size 15 to 20)
#    0.000    0.750    7.500    0.750    1.750    2.500 
#    0.000    0.625    0.000    0.000    0.000    0.000 
#    0.000    0.000    0.000    0.000    0.000    0.000 
#
# Total GULP energy -89401.262194 kJ/mol
# GULP energy per Si atom -5587.578887 kJ/mol
# Density = 1.965259 g / cm^3
# Si number density = 19.697418 Si / 1000 Ang^3
#
#
#
# Elastic Constant Matrix: (Units=GPa)
#
#
# Indices 1 2 3 4 5 6 
#
# 1 72.2065 22.3067 47.0806 -2.1995 -22.0590 -6.1513
# 2 22.3067 78.8625 32.0443 -6.3567 -11.5097 1.6141
# 3 47.0806 32.0443 133.5804 0.1919 -19.5032 2.8074
# 4 -2.1995 -6.3567 0.1919 28.7327 -6.2861 2.5054
# 5 -22.0590 -11.5097 -19.5032 -6.2861 36.9323 -0.5558
# 6 -6.1513 1.6141 2.8074 2.5054 -0.5558 31.8777
#
#
#
# Elastic Compliance Matrix: (Units=1/GPa)
#
#
# Indices 1 2 3 4 5 6 
#
# 1 0.021847 -0.002232 -0.005831 0.002955 0.009849 0.004782
# 2 -0.002232 0.015021 -0.002399 0.003872 0.002721 -0.001237
# 3 -0.005831 -0.002399 0.010314 -0.000650 0.001078 -0.001842
# 4 0.002955 0.003872 -0.000650 0.038086 0.009075 -0.002404
# 5 0.009849 0.002721 0.001078 0.009075 0.035945 0.001581
# 6 0.004782 -0.001237 -0.001842 -0.002404 0.001581 0.032734
#
#
# Mechanical properties :
#
#
# Convention : Reuss Voigt Hill
#
# Bulk Modulus (GPa) = 38.08513 54.16807 46.12660
# Shear Modulus (GPa) = 27.22960 31.72305 29.47633
#
# Velocity S-wave (km/s) = 3.72209 4.01748 3.87260
# Velocity P-wave (km/s) = 6.15215 7.00571 6.59276
#
# Compressibility (1/GPa) = 0.02625697
#
# Stress axis : x y z
#
# Youngs Moduli (GPa) = 45.77255 66.57338 96.95732
#
# Poissons Ratio (x) = 0.14862 0.56539
# Poissons Ratio (y) = 0.10218 0.23258
# Poissons Ratio (z) = 0.26691 0.15969
#
# Static dielectric constant tensor:
#      x y z
#    x 1.707030 -0.003540 0.012670 
#    y -0.003540 1.690830 0.019360 
#    z 0.012670 0.019360 1.750200 
# 
# From -- ./inp_files/494380.got.cif
#   From: 2010.05.17/outbox.cif.g08.bks.cpg/sg2_248_cif.got.tgz:494380.got - 2010.06.03 11:33:40.
