data_PCOD9037454
_publ_section_title
;
Structure prediction by ZEFSAII (Michael W. Deem and Ramdas Pophale) SiO2 
 PCOD9037454
Probable space group: P -1
;
_chemical_formula_sum "Si O2"
_cell_formula_units_Z 14
_cell_length_a 17.927630
_cell_length_b 8.694594
_cell_length_c 25.143955
_cell_angle_alpha 41.989537
_cell_angle_beta 18.558560
_cell_angle_gamma 33.281800
_cell_volume 656.751020
_symmetry_space_group_name_H-M "P -1"
_symmetry_group_IT_number 2
_symmetry_cell_setting 'triclinic'
loop_
_space_group_symop_operation_xyz
x,y,z
-x,-y,-z
loop_
_atom_site_type_symbol
_atom_site_label
_atom_site_fract_x
_atom_site_fract_y
_atom_site_fract_z
Si Si1 0.845046 0.847107 0.792418
Si Si2 0.902169 0.985638 0.329308
Si Si3 0.410649 0.210007 0.799829
Si Si4 0.891204 0.178459 0.170672
Si Si5 0.690439 0.839650 0.357993
Si Si6 0.259672 0.802520 0.332016
Si Si7 0.972877 0.556501 0.565577
O O1 0.039569 0.505536 0.732778
O O2 0.827874 0.028011 0.707304
O O3 0.006845 0.878912 0.723899
O O4 0.500000 0.000000 0.000000
O O5 0.064127 0.651910 0.322502
O O6 0.982004 0.019843 0.207123
O O7 0.553447 0.120564 0.527479
O O8 0.381988 0.477714 0.723130
O O9 0.452311 0.253897 0.822477
O O10 0.692683 0.891705 0.674963
O O11 0.138336 0.204277 0.976088
O O12 0.826303 0.012716 0.216250
O O13 0.500000 0.000000 0.500000
O O14 0.261722 0.527335 0.395791
O O15 0.000000 0.000000 0.500000
O O16 0.000000 0.500000 0.500000
#
# Coordination Sequence:
#
# PCOD9037454 Si02
#       7
#     2   2   2   2   2   2   2
#     4  12  26  44  69 105 143 175 227 292 350 393
#     4  11  24  42  69 101 136 176 227 283 343 402
#     4  10  23  41  66  95 135 175 223 279 335 404
#     4  10  23  43  68  96 132 178 228 277 341 402
#     4  10  25  41  69  99 134 182 230 277 334 418
#     4  10  23  40  67  93 136 178 226 270 340 408
#     4  11  23  38  64  98 129 174 221 275 333 402
#
# _framework density 21.317056999999998
#
# number of rings (size 3 to 8) (size 9 to 14) (size 15 to 20)
#    0.000    1.429    1.429    2.143   18.000    1.714 
#    0.000    0.000    0.000    6.000    0.000    0.000 
#    0.000    0.000    0.000    0.000    0.000    0.000 
#
# Total GULP energy -78073.352274 kJ/mol
# GULP energy per Si atom -5576.668020 kJ/mol
# Density = 2.126854 g / cm^3
# Si number density = 21.317057 Si / 1000 Ang^3
#
#
#
# Elastic Constant Matrix: (Units=GPa)
#
#
# Indices 1 2 3 4 5 6 
#
# 1 119.1300 38.5977 32.3778 -5.1414 -20.3583 11.8614
# 2 38.5977 161.2545 40.8060 -0.2518 0.1667 14.5013
# 3 32.3778 40.8060 73.9386 -2.8575 -19.0634 13.1960
# 4 -5.1414 -0.2518 -2.8575 34.1150 3.2907 -3.6634
# 5 -20.3583 0.1667 -19.0634 3.2907 37.5672 -15.6604
# 6 11.8614 14.5013 13.1960 -3.6634 -15.6604 37.5451
#
#
#
# Elastic Compliance Matrix: (Units=1/GPa)
#
#
# Indices 1 2 3 4 5 6 
#
# 1 0.010444 -0.001928 -0.002358 0.000955 0.004488 0.000239
# 2 -0.001928 0.007986 -0.004194 -0.000470 -0.004362 -0.002867
# 3 -0.002358 -0.004194 0.019125 0.000338 0.008006 -0.000985
# 4 0.000955 -0.000470 0.000338 0.029819 -0.000978 0.002263
# 5 0.004488 -0.004362 0.008006 -0.000978 0.038877 0.013574
# 6 0.000239 -0.002867 -0.000985 0.002263 0.013574 0.033895
#
#
# Mechanical properties :
#
#
# Convention : Reuss Voigt Hill
#
# Bulk Modulus (GPa) = 48.55752 64.20956 56.38354
# Shear Modulus (GPa) = 30.49320 38.01488 34.25404
#
# Velocity S-wave (km/s) = 3.78625 4.22750 4.01294
# Velocity P-wave (km/s) = 6.47629 7.34953 6.92669
#
# Compressibility (1/GPa) = 0.02059413
#
# Stress axis : x y z
#
# Youngs Moduli (GPa) = 95.74839 125.22261 52.28726
#
# Poissons Ratio (x) = 0.24140 0.12331
# Poissons Ratio (y) = 0.18458 0.21931
# Poissons Ratio (z) = 0.22580 0.52524
#
# Static dielectric constant tensor:
#      x y z
#    x 1.808880 -0.034440 -0.093060 
#    y -0.034440 1.772730 0.026250 
#    z -0.093060 0.026250 1.874330 
# 
# From -- ./inp_files/419611.got.cif
#   From: 2010.05.17/outbox.cif.g08.bks.cpg/sg2_210_cif.got.tgz:419611.got - 2010.06.03 11:33:40.
