data_PCOD9037339
_publ_section_title
;
Structure prediction by ZEFSAII (Michael W. Deem and Ramdas Pophale) SiO2 
 PCOD9037339
Probable space group: P -1
;
_chemical_formula_sum "Si O2"
_cell_formula_units_Z 15
_cell_length_a 9.337221
_cell_length_b 15.098904
_cell_length_c 9.052249
_cell_angle_alpha 63.554788
_cell_angle_beta 78.326546
_cell_angle_gamma 35.989994
_cell_volume 640.486882
_symmetry_space_group_name_H-M "P -1"
_symmetry_group_IT_number 2
_symmetry_cell_setting 'triclinic'
loop_
_space_group_symop_operation_xyz
x,y,z
-x,-y,-z
loop_
_atom_site_type_symbol
_atom_site_label
_atom_site_fract_x
_atom_site_fract_y
_atom_site_fract_z
Si Si1 0.561517 0.504434 0.151257
Si Si2 0.248778 0.379994 0.941005
Si Si3 0.958734 0.038529 0.809645
Si Si4 0.366916 0.971215 0.731186
Si Si5 0.985529 0.115376 0.337403
Si Si6 0.500000 0.500000 0.500000
Si Si7 0.439787 0.151487 0.541691
Si Si8 0.643530 0.634090 0.385811
O O1 0.783533 0.302879 0.304891
O O2 0.412317 0.585350 0.279254
O O3 0.500000 0.500000 0.000000
O O4 0.649724 0.568589 0.070617
O O5 0.464651 0.176738 0.071092
O O6 0.205556 0.408700 0.753917
O O7 0.000000 0.500000 0.000000
O O8 0.664837 0.192976 0.708669
O O9 0.102031 0.058131 0.711549
O O10 0.090573 0.874002 0.819501
O O11 0.000000 0.000000 0.000000
O O12 0.539113 0.859059 0.631456
O O13 0.327964 0.109590 0.650538
O O14 0.000000 0.000000 0.500000
O O15 0.259607 0.014481 0.355089
O O16 0.680692 0.496968 0.485455
O O17 0.321524 0.314280 0.519669
#
# Coordination Sequence:
#
# PCOD9037339 Si02
#       8
#     2   2   2   2   2   1   2   2
#     4  11  24  41  67  98 130 179 225 272 337 400
#     4  11  24  44  63  89 135 174 215 268 340 405
#     4  11  21  38  65  97 125 156 221 277 323 387
#     4  11  22  41  66  96 130 169 217 274 329 409
#     4  11  21  39  66  91 129 171 216 276 334 384
#     4  10  24  40  66  94 136 170 224 274 326 400
#     4  10  23  40  65  96 128 170 217 271 341 389
#     4  10  23  43  65  94 128 169 216 277 331 391
#
# _framework density 23.419684
#
# number of rings (size 3 to 8) (size 9 to 14) (size 15 to 20)
#    0.000    1.333    2.667    3.200    3.733    0.533 
#    4.800    0.667    0.000    0.000    0.000    0.000 
#    0.000    0.000    0.000    0.000    0.000    0.000 
#
# Total GULP energy -83513.147109 kJ/mol
# GULP energy per Si atom -5567.543141 kJ/mol
# Density = 2.336638 g / cm^3
# Si number density = 23.419684 Si / 1000 Ang^3
#
#
#
# Elastic Constant Matrix: (Units=GPa)
#
#
# Indices 1 2 3 4 5 6 
#
# 1 106.7656 17.5467 45.4128 5.3567 -13.4467 4.7787
# 2 17.5467 65.3271 1.3965 1.9381 -5.1804 5.1907
# 3 45.4128 1.3965 106.4751 12.5268 -11.3803 6.8104
# 4 5.3567 1.9381 12.5268 27.9854 -1.9585 7.6458
# 5 -13.4467 -5.1804 -11.3803 -1.9585 39.3388 9.6922
# 6 4.7787 5.1907 6.8104 7.6458 9.6922 42.2270
#
#
#
# Elastic Compliance Matrix: (Units=1/GPa)
#
#
# Indices 1 2 3 4 5 6 
#
# 1 0.012290 -0.002926 -0.004919 0.000493 0.002647 -0.000935
# 2 -0.002926 0.016431 0.001463 -0.000445 0.002140 -0.002335
# 3 -0.004919 0.001463 0.012278 -0.004131 0.002192 -0.001359
# 4 0.000493 -0.000445 -0.004131 0.039649 0.002643 -0.007120
# 5 0.002647 0.002140 0.002192 0.002643 0.029378 -0.008138
# 6 -0.000935 -0.002335 -0.001359 -0.007120 -0.008138 0.027451
#
#
# Mechanical properties :
#
#
# Convention : Reuss Voigt Hill
#
# Bulk Modulus (GPa) = 35.41752 45.25332 40.33542
# Shear Modulus (GPa) = 31.31836 36.19103 33.75470
#
# Velocity S-wave (km/s) = 3.66083 3.93533 3.80056
# Velocity P-wave (km/s) = 5.74672 6.32565 6.04312
#
# Compressibility (1/GPa) = 0.02823461
#
# Stress axis : x y z
#
# Youngs Moduli (GPa) = 81.36731 60.86156 81.44817
#
# Poissons Ratio (x) = 0.17810 0.40061
# Poissons Ratio (y) = 0.23810 -0.11916
# Poissons Ratio (z) = 0.40021 -0.08904
#
# Static dielectric constant tensor:
#      x y z
#    x 1.834540 -0.012820 0.020470 
#    y -0.012820 1.954570 -0.027030 
#    z 0.020470 -0.027030 1.954210 
# 
# From -- ./inp_files/200773.got.cif
#   From: 2010.05.17/outbox.cif.g08.bks.cpg/sg2_101_cif.got.tgz:200773.got - 2010.06.03 11:33:40.
