data_PCOD9037947
_publ_section_title
;
Structure prediction by ZEFSAII (Michael W. Deem and Ramdas Pophale) SiO2 
 PCOD9037947
Probable space group: P -1
;
_chemical_formula_sum "Si O2"
_cell_formula_units_Z 16
_cell_length_a 8.888351
_cell_length_b 14.874720
_cell_length_c 11.209833
_cell_angle_alpha 102.523129
_cell_angle_beta 59.105100
_cell_angle_gamma 54.777455
_cell_volume 708.089824
_symmetry_space_group_name_H-M "P -1"
_symmetry_group_IT_number 2
_symmetry_cell_setting 'triclinic'
loop_
_space_group_symop_operation_xyz
x,y,z
-x,-y,-z
loop_
_atom_site_type_symbol
_atom_site_label
_atom_site_fract_x
_atom_site_fract_y
_atom_site_fract_z
Si Si1 0.686200 0.526667 0.218791
Si Si2 0.316681 0.297919 0.888321
Si Si3 0.442999 0.471724 0.140122
Si Si4 0.821948 0.992298 0.009927
Si Si5 0.829666 0.796845 0.586927
Si Si6 0.228282 0.859879 0.144498
Si Si7 0.216827 0.687072 0.625554
Si Si8 0.358834 0.981939 0.470791
O O1 0.716643 0.585632 0.116000
O O2 0.602636 0.465502 0.175558
O O3 0.410352 0.674408 0.460151
O O4 0.016748 0.392576 0.108002
O O5 0.619635 0.171574 0.805677
O O6 0.371731 0.201350 0.734057
O O7 0.083059 0.626714 0.365286
O O8 0.500000 0.500000 0.000000
O O9 0.582288 0.310288 0.028848
O O10 0.510471 0.097931 0.232999
O O11 0.743878 0.067859 0.935078
O O12 0.000000 0.000000 0.000000
O O13 0.042244 0.810774 0.840645
O O14 0.797243 0.902160 0.548107
O O15 0.971823 0.751648 0.648725
O O16 0.890755 0.968061 0.340164
O O17 0.500000 0.500000 0.500000
O O18 0.500000 0.000000 0.500000
#
# Coordination Sequence:
#
# PCOD9037947 Si02
#       8
#     2   2   2   2   2   2   2   2
#     4  10  23  41  65 103 135 173 231 290 336 428
#     4  11  23  38  67 100 135 174 230 288 355 403
#     4  11  21  44  70 103 134 181 232 284 354 414
#     4  12  29  47  68 106 143 182 238 295 350 414
#     4  11  26  46  73 101 142 186 238 284 347 430
#     4  12  24  42  70  96 143 179 229 296 349 412
#     4  11  26  47  73  95 141 192 239 279 350 425
#     4  12  24  41  71  99 135 186 232 291 353 421
#
# _framework density 22.596003
#
# number of rings (size 3 to 8) (size 9 to 14) (size 15 to 20)
#    0.000    0.750    2.500    4.500    7.000    1.500 
#    0.000    0.000    0.000    0.000    0.000    0.000 
#    0.000    0.000    0.000    0.000    0.000    0.000 
#
# Total GULP energy -89469.638176 kJ/mol
# GULP energy per Si atom -5591.852386 kJ/mol
# Density = 2.254457 g / cm^3
# Si number density = 22.596003 Si / 1000 Ang^3
#
#
#
# Elastic Constant Matrix: (Units=GPa)
#
#
# Indices 1 2 3 4 5 6 
#
# 1 89.8560 -4.6909 41.5967 7.6451 0.0988 -0.0436
# 2 -4.6909 81.4156 4.7989 10.1442 6.3459 3.8248
# 3 41.5967 4.7989 151.2522 4.2159 -26.5569 12.9061
# 4 7.6451 10.1442 4.2159 34.3358 7.5924 1.1641
# 5 0.0988 6.3459 -26.5569 7.5924 36.9535 -4.6002
# 6 -0.0436 3.8248 12.9061 1.1641 -4.6002 26.4708
#
#
#
# Elastic Compliance Matrix: (Units=1/GPa)
#
#
# Indices 1 2 3 4 5 6 
#
# 1 0.013380 0.001451 -0.004260 -0.002345 -0.002675 0.001528
# 2 0.001451 0.013131 -0.001011 -0.003473 -0.002481 -0.001680
# 3 -0.004260 -0.001011 0.009305 -0.001278 0.006740 -0.003170
# 4 -0.002345 -0.003473 -0.001278 0.032470 -0.007181 -0.001555
# 5 -0.002675 -0.002481 0.006740 -0.007181 0.034228 0.003332
# 6 0.001528 -0.001680 -0.003170 -0.001555 0.003332 0.040216
#
#
# Mechanical properties :
#
#
# Convention : Reuss Voigt Hill
#
# Bulk Modulus (GPa) = 35.49296 45.10369 40.29832
# Shear Modulus (GPa) = 31.29658 38.27331 34.78494
#
# Velocity S-wave (km/s) = 3.72566 4.12006 3.92781
# Velocity P-wave (km/s) = 5.85228 6.52973 6.20026
#
# Compressibility (1/GPa) = 0.02817460
#
# Stress axis : x y z
#
# Youngs Moduli (GPa) = 74.73776 76.15637 107.47216
#
# Poissons Ratio (x) = -0.11050 0.45787
# Poissons Ratio (y) = -0.10844 0.10867
# Poissons Ratio (z) = 0.31841 0.07700
#
# Static dielectric constant tensor:
#      x y z
#    x 2.413210 -0.460020 -0.043930 
#    y -0.460020 2.192490 0.045770 
#    z -0.043930 0.045770 1.866060 
# 
# From -- ./inp_files/399266.got.cif
#   From: 2010.05.17/outbox.cif.g08.bks.cpg/sg2_200_cif.got.tgz:399266.got - 2010.06.03 11:33:40.
