data_PCOD9037221
_publ_section_title
;
Structure prediction by ZEFSAII (Michael W. Deem and Ramdas Pophale) SiO2 
 PCOD9037221
Probable space group: P -1
;
_chemical_formula_sum "Si O2"
_cell_formula_units_Z 14
_cell_length_a 10.942975
_cell_length_b 5.318559
_cell_length_c 17.084133
_cell_angle_alpha 99.923165
_cell_angle_beta 50.621097
_cell_angle_gamma 128.347308
_cell_volume 561.163134
_symmetry_space_group_name_H-M "P -1"
_symmetry_group_IT_number 2
_symmetry_cell_setting 'triclinic'
loop_
_space_group_symop_operation_xyz
x,y,z
-x,-y,-z
loop_
_atom_site_type_symbol
_atom_site_label
_atom_site_fract_x
_atom_site_fract_y
_atom_site_fract_z
Si Si1 0.230690 0.581545 0.624809
Si Si2 0.741649 0.279792 0.087273
Si Si3 0.083115 0.737392 0.382761
Si Si4 0.663037 0.652240 0.016830
Si Si5 0.202624 0.385480 0.367274
Si Si6 0.508365 0.683577 0.397565
Si Si7 0.876512 0.723243 0.201499
O O1 0.338243 0.468416 0.525068
O O2 0.067092 0.387019 0.752517
O O3 0.108991 0.594346 0.605382
O O4 0.422779 0.947997 0.603625
O O5 0.731410 0.416913 0.181354
O O6 0.663643 0.398101 0.058255
O O7 0.000000 0.500000 0.000000
O O8 0.642839 0.892705 0.089314
O O9 0.252935 0.699727 0.319128
O O10 0.994818 0.741419 0.502452
O O11 0.145973 0.063968 0.329691
O O12 0.500000 0.500000 0.000000
O O13 0.909234 0.930250 0.901815
O O14 0.387830 0.510601 0.356964
O O15 0.722165 0.756443 0.308499
#
# Coordination Sequence:
#
# PCOD9037221 Si02
#       7
#     2   2   2   2   2   2   2
#     4  10  23  40  63  95 140 186 235 279 328 393
#     4  10  23  46  78 104 137 178 224 290 361 424
#     4   9  19  37  58  81 119 172 219 276 326 370
#     4  11  25  49  77 107 139 173 225 298 363 421
#     4   9  19  37  58  80 118 170 225 272 325 375
#     4  10  23  40  63  96 136 190 235 278 325 401
#     4  11  24  41  70  97 141 179 232 275 350 412
#
# _framework density 24.948184000000001
#
# number of rings (size 3 to 8) (size 9 to 14) (size 15 to 20)
#    0.000    2.000    0.000    2.571   10.000    0.000 
#    2.571    0.000    0.000    0.000    0.000    0.000 
#    0.000    0.000    0.000    0.000    0.000    0.000 
#
# Total GULP energy -78003.779568 kJ/mol
# GULP energy per Si atom -5571.698541 kJ/mol
# Density = 2.489140 g / cm^3
# Si number density = 24.948184 Si / 1000 Ang^3
#
#
#
# Elastic Constant Matrix: (Units=GPa)
#
#
# Indices 1 2 3 4 5 6 
#
# 1 114.7719 33.3850 28.1647 12.8511 8.2600 -5.8697
# 2 33.3850 99.7558 10.9741 20.6388 5.8515 -4.2611
# 3 28.1647 10.9741 94.5985 11.2477 1.6949 -5.5206
# 4 12.8511 20.6388 11.2477 23.2241 2.7769 3.6103
# 5 8.2600 5.8515 1.6949 2.7769 32.8347 5.5961
# 6 -5.8697 -4.2611 -5.5206 3.6103 5.5961 48.4765
#
#
#
# Elastic Compliance Matrix: (Units=1/GPa)
#
#
# Indices 1 2 3 4 5 6 
#
# 1 0.010539 -0.002620 -0.002461 -0.002246 -0.002067 0.001171
# 2 -0.002620 0.013199 0.000655 -0.010749 -0.001133 0.001849
# 3 -0.002461 0.000655 0.011938 -0.005244 0.000074 0.001501
# 4 -0.002246 -0.010749 -0.005244 0.057451 -0.001091 -0.005967
# 5 -0.002067 -0.001133 0.000074 -0.001091 0.031939 -0.003947
# 6 0.001171 0.001849 0.001501 -0.005967 -0.003947 0.022004
#
#
# Mechanical properties :
#
#
# Convention : Reuss Voigt Hill
#
# Bulk Modulus (GPa) = 37.28237 50.46376 43.87307
# Shear Modulus (GPa) = 30.32818 36.68056 33.50437
#
# Velocity S-wave (km/s) = 3.49040 3.83857 3.66862
# Velocity P-wave (km/s) = 5.58750 6.31803 5.96396
#
# Compressibility (1/GPa) = 0.02682233
#
# Stress axis : x y z
#
# Youngs Moduli (GPa) = 94.88253 75.76562 83.76897
#
# Poissons Ratio (x) = 0.19854 0.20619
# Poissons Ratio (y) = 0.24863 -0.05489
# Poissons Ratio (z) = 0.23355 -0.04964
#
# Static dielectric constant tensor:
#      x y z
#    x 2.162430 -0.164820 0.044680 
#    y -0.164820 2.108170 -0.095820 
#    z 0.044680 -0.095820 2.038110 
# 
# From -- ./inp_files/109517.got.cif
#   From: 2010.05.17/outbox.cif.g08.bks.cpg/sg2_55_cif.got.tgz:109517.got - 2010.06.03 11:33:40.
