data_PCOD9037646
_publ_section_title
;
Structure prediction by ZEFSAII (Michael W. Deem and Ramdas Pophale) SiO2 
 PCOD9037646
Probable space group: P -1
;
_chemical_formula_sum "Si O2"
_cell_formula_units_Z 13
_cell_length_a 8.573659
_cell_length_b 7.386473
_cell_length_c 9.942643
_cell_angle_alpha 88.405902
_cell_angle_beta 60.985245
_cell_angle_gamma 68.024749
_cell_volume 501.374166
_symmetry_space_group_name_H-M "P -1"
_symmetry_group_IT_number 2
_symmetry_cell_setting 'triclinic'
loop_
_space_group_symop_operation_xyz
x,y,z
-x,-y,-z
loop_
_atom_site_type_symbol
_atom_site_label
_atom_site_fract_x
_atom_site_fract_y
_atom_site_fract_z
Si Si1 0.071195 0.099414 0.762868
Si Si2 0.625683 0.762166 0.448417
Si Si3 0.256524 0.968346 0.968602
Si Si4 0.201582 0.499499 0.373079
Si Si5 0.624567 0.209235 0.694010
Si Si6 0.348634 0.272154 0.057296
Si Si7 0.000000 0.000000 0.500000
O O1 0.159558 0.258450 0.686894
O O2 0.207970 0.981165 0.832434
O O3 0.076399 0.980037 0.628836
O O4 0.856847 0.149482 0.912571
O O5 0.644145 0.641754 0.579862
O O6 0.514824 0.707456 0.375799
O O7 0.500000 0.000000 0.500000
O O8 0.483836 0.875583 0.909929
O O9 0.203127 0.186225 0.052457
O O10 0.192280 0.722315 0.390359
O O11 0.247733 0.448807 0.199419
O O12 0.000000 0.500000 0.500000
O O13 0.779720 0.981354 0.637874
O O14 0.482745 0.291308 0.878398
#
# Coordination Sequence:
#
# PCOD9037646 Si02
#       7
#     2   2   2   2   2   2   1
#     4  11  22  39  66 112 142 181 241 309 351 426
#     4  12  25  46  76 106 144 194 246 302 362 446
#     4  10  23  40  71 108 143 185 251 296 360 436
#     4  12  30  47  73 108 152 189 243 309 378 427
#     4  12  26  48  72 107 150 193 244 302 368 438
#     4  11  24  45  72 103 143 200 236 303 364 443
#     4  12  24  40  80 104 146 186 246 302 360 424
#
# _framework density 25.928737000000002
#
# number of rings (size 3 to 8) (size 9 to 14) (size 15 to 20)
#    0.000    0.615    4.615    2.769    6.462    0.000 
#    0.000    0.769    0.000    0.000    0.000    0.000 
#    0.000    0.000    0.000    0.000    0.000    0.000 
#
# Total GULP energy -72485.238476 kJ/mol
# GULP energy per Si atom -5575.787575 kJ/mol
# Density = 2.586972 g / cm^3
# Si number density = 25.928737 Si / 1000 Ang^3
#
#
#
# Elastic Constant Matrix: (Units=GPa)
#
#
# Indices 1 2 3 4 5 6 
#
# 1 183.7144 41.7679 84.8635 -4.0862 20.2559 -2.1841
# 2 41.7679 75.7839 43.6836 -9.8348 12.4180 -5.5081
# 3 84.8635 43.6836 200.9572 -10.3738 23.2333 -4.4326
# 4 -4.0862 -9.8348 -10.3738 30.9104 1.3633 -2.4912
# 5 20.2559 12.4180 23.2333 1.3633 74.1356 -16.4163
# 6 -2.1841 -5.5081 -4.4326 -2.4912 -16.4163 39.9396
#
#
#
# Elastic Compliance Matrix: (Units=1/GPa)
#
#
# Indices 1 2 3 4 5 6 
#
# 1 0.007231 -0.002566 -0.002441 -0.000692 -0.000912 -0.000647
# 2 -0.002566 0.016742 -0.002157 0.004454 -0.001122 0.001746
# 3 -0.002441 -0.002157 0.006667 0.001272 -0.001099 -0.000063
# 4 -0.000692 0.004454 0.001272 0.034346 -0.001050 0.002428
# 5 -0.000912 -0.001122 -0.001099 -0.001050 0.015625 0.006030
# 6 -0.000647 0.001746 -0.000063 0.002428 0.006030 0.027866
#
#
# Mechanical properties :
#
#
# Convention : Reuss Voigt Hill
#
# Bulk Modulus (GPa) = 61.30363 89.00950 75.15656
# Shear Modulus (GPa) = 38.98828 48.33982 43.66405
#
# Velocity S-wave (km/s) = 3.88193 4.32248 4.10811
# Velocity P-wave (km/s) = 6.61717 7.70161 7.17989
#
# Compressibility (1/GPa) = 0.01631225
#
# Stress axis : x y z
#
# Youngs Moduli (GPa) = 138.28416 59.72945 149.99062
#
# Poissons Ratio (x) = 0.15328 0.36606
# Poissons Ratio (y) = 0.35486 0.32360
# Poissons Ratio (z) = 0.33749 0.12887
#
# Static dielectric constant tensor:
#      x y z
#    x 2.070760 -0.009490 -0.069000 
#    y -0.009490 2.694310 0.319670 
#    z -0.069000 0.319670 2.257490 
# 
# From -- ./inp_files/154495.got.cif
#   From: 2010.05.17/outbox.cif.g08.bks.cpg/sg2_78_cif.got.tgz:154495.got - 2010.06.03 11:33:40.
