data_PCOD9037773
_publ_section_title
;
Structure prediction by ZEFSAII (Michael W. Deem and Ramdas Pophale) SiO2 
 PCOD9037773
Probable space group: P -1
;
_chemical_formula_sum "Si O2"
_cell_formula_units_Z 14
_cell_length_a 13.012593
_cell_length_b 8.880576
_cell_length_c 10.922253
_cell_angle_alpha 124.509960
_cell_angle_beta 132.003353
_cell_angle_gamma 52.425030
_cell_volume 715.936639
_symmetry_space_group_name_H-M "P -1"
_symmetry_group_IT_number 2
_symmetry_cell_setting 'triclinic'
loop_
_space_group_symop_operation_xyz
x,y,z
-x,-y,-z
loop_
_atom_site_type_symbol
_atom_site_label
_atom_site_fract_x
_atom_site_fract_y
_atom_site_fract_z
Si Si1 0.806740 0.309919 0.463240
Si Si2 0.688540 0.968855 0.265305
Si Si3 0.962334 0.203509 0.135141
Si Si4 0.653613 0.919986 0.943824
Si Si5 0.656034 0.352931 0.110544
Si Si6 0.074647 0.271439 0.493940
Si Si7 0.101935 0.413924 0.160287
O O1 0.698691 0.410424 0.306544
O O2 0.826283 0.447180 0.650032
O O3 0.967410 0.229696 0.488234
O O4 0.758750 0.136402 0.394509
O O5 0.764373 0.804779 0.352194
O O6 0.512424 0.075797 0.193864
O O7 0.712336 0.864703 0.103696
O O8 0.796827 0.305516 0.108464
O O9 0.072474 0.153964 0.316256
O O10 0.002338 0.354064 0.150988
O O11 0.000000 0.000000 0.000000
O O12 0.763996 0.779677 0.869482
O O13 0.643366 0.142122 0.022494
O O14 0.500000 0.500000 0.000000
O O15 0.000000 0.500000 0.500000
O O16 0.000000 0.500000 0.000000
#
# Coordination Sequence:
#
# PCOD9037773 Si02
#       7
#     2   2   2   2   2   2   2
#     4  10  23  41  62  97 126 168 222 255 325 393
#     4  10  23  42  65  89 132 170 216 266 317 390
#     4  11  24  42  62  95 129 164 220 265 320 376
#     4  10  23  42  65  95 127 174 218 259 329 386
#     4  10  23  42  70  94 132 172 215 267 324 387
#     4  11  22  39  66  93 124 169 217 263 317 382
#     4  12  25  41  66  94 132 168 214 274 324 385
#
# _framework density 19.554804000000001
#
# number of rings (size 3 to 8) (size 9 to 14) (size 15 to 20)
#    0.000    1.429    2.857    1.286    6.000    2.857 
#    2.571    1.429    0.000    0.000    0.000    0.000 
#    0.000    0.000    0.000    0.000    0.000    0.000 
#
# Total GULP energy -78181.035579 kJ/mol
# GULP energy per Si atom -5584.359684 kJ/mol
# Density = 1.951030 g / cm^3
# Si number density = 19.554804 Si / 1000 Ang^3
#
#
#
# Elastic Constant Matrix: (Units=GPa)
#
#
# Indices 1 2 3 4 5 6 
#
# 1 94.8825 31.3943 36.1423 0.1702 2.6980 7.9436
# 2 31.3943 85.4739 79.1249 -9.9934 -2.8101 -1.2976
# 3 36.1423 79.1249 163.0138 -5.5303 -6.4172 -12.6221
# 4 0.1702 -9.9934 -5.5303 31.6938 4.1546 4.3295
# 5 2.6980 -2.8101 -6.4172 4.1546 31.2195 8.9801
# 6 7.9436 -1.2976 -12.6221 4.3295 8.9801 16.0568
#
#
#
# Elastic Compliance Matrix: (Units=1/GPa)
#
#
# Indices 1 2 3 4 5 6 
#
# 1 0.013029 -0.002998 -0.002085 -0.000290 0.000700 -0.008640
# 2 -0.002998 0.023957 -0.011309 0.006498 0.001554 -0.008092
# 3 -0.002085 -0.011309 0.012846 -0.002746 -0.001172 0.011611
# 4 -0.000290 0.006498 -0.002746 0.034700 -0.001731 -0.009878
# 5 0.000700 0.001554 -0.001172 -0.001731 0.038486 -0.022199
# 6 -0.008640 -0.008092 0.011611 -0.009878 -0.022199 0.090105
#
#
# Mechanical properties :
#
#
# Convention : Reuss Voigt Hill
#
# Bulk Modulus (GPa) = 58.65344 70.74370 64.69857
# Shear Modulus (GPa) = 19.87364 28.90792 24.39078
#
# Velocity S-wave (km/s) = 3.19141 3.84904 3.53555
# Velocity P-wave (km/s) = 6.60603 7.48393 7.05864
#
# Compressibility (1/GPa) = 0.01704930
#
# Stress axis : x y z
#
# Youngs Moduli (GPa) = 76.74940 41.74076 77.84667
#
# Poissons Ratio (x) = 0.12512 0.16232
# Poissons Ratio (y) = 0.23006 0.88037
# Poissons Ratio (z) = 0.16003 0.47204
#
# Static dielectric constant tensor:
#      x y z
#    x 1.681030 0.021810 0.010980 
#    y 0.021810 1.690090 -0.003910 
#    z 0.010980 -0.003910 1.726180 
# 
# From -- ./inp_files/158837.got.cif
#   From: 2010.05.17/outbox.cif.g08.bks.cpg/sg2_80_cif.got.tgz:158837.got - 2010.06.03 11:33:40.
