data_PCOD9037925
_publ_section_title
;
Structure prediction by ZEFSAII (Michael W. Deem and Ramdas Pophale) SiO2 
 PCOD9037925
Probable space group: P -1
;
_chemical_formula_sum "Si O2"
_cell_formula_units_Z 14
_cell_length_a 10.820160
_cell_length_b 9.843786
_cell_length_c 8.915935
_cell_angle_alpha 131.962460
_cell_angle_beta 66.491754
_cell_angle_gamma 90.559049
_cell_volume 599.798208
_symmetry_space_group_name_H-M "P -1"
_symmetry_group_IT_number 2
_symmetry_cell_setting 'triclinic'
loop_
_space_group_symop_operation_xyz
x,y,z
-x,-y,-z
loop_
_atom_site_type_symbol
_atom_site_label
_atom_site_fract_x
_atom_site_fract_y
_atom_site_fract_z
Si Si1 0.726331 0.341038 0.070888
Si Si2 0.450548 0.224430 0.131092
Si Si3 0.946062 0.507776 0.702456
Si Si4 0.218018 0.761087 0.369837
Si Si5 0.551484 0.100511 0.682114
Si Si6 0.982754 0.885808 0.069507
Si Si7 0.754853 0.705896 0.450331
O O1 0.785948 0.245776 0.812294
O O2 0.852888 0.230723 0.044062
O O3 0.577003 0.310928 0.154972
O O4 0.718069 0.564036 0.246306
O O5 0.316273 0.326494 0.381756
O O6 0.436539 0.206444 0.945801
O O7 0.500000 0.000000 0.000000
O O8 0.075372 0.363446 0.641984
O O9 0.000000 0.500000 0.500000
O O10 0.822201 0.419452 0.691913
O O11 0.913075 0.725269 0.944325
O O12 0.379786 0.753062 0.315249
O O13 0.108967 0.957632 0.647361
O O14 0.500000 0.000000 0.500000
O O15 0.678891 0.925032 0.582326
O O16 0.000000 0.000000 0.000000
#
# Coordination Sequence:
#
# PCOD9037925 Si02
#       7
#     2   2   2   2   2   2   2
#     4  10  23  41  64  98 126 171 227 264 334 383
#     4   9  20  40  65  89 126 175 215 266 321 391
#     4  11  25  43  65 105 130 171 227 266 333 393
#     4  11  25  42  69  94 136 172 216 279 327 390
#     4  10  24  44  66 100 130 175 219 270 336 386
#     4  11  24  40  66  96 133 175 213 273 327 393
#     4  10  23  42  68  93 132 173 217 276 320 396
#
# _framework density 23.341183000000001
#
# number of rings (size 3 to 8) (size 9 to 14) (size 15 to 20)
#    0.000    1.714    1.429    0.857   10.000    4.571 
#    2.571    1.429    0.000    0.000    0.000    0.000 
#    0.000    0.000    0.000    0.000    0.000    0.000 
#
# Total GULP energy -78292.961803 kJ/mol
# GULP energy per Si atom -5592.354414 kJ/mol
# Density = 2.328806 g / cm^3
# Si number density = 23.341183 Si / 1000 Ang^3
#
#
#
# Elastic Constant Matrix: (Units=GPa)
#
#
# Indices 1 2 3 4 5 6 
#
# 1 82.0495 50.9601 37.0676 -1.8706 26.8934 23.2033
# 2 50.9601 107.6777 36.2618 2.5100 4.2802 33.1232
# 3 37.0676 36.2618 136.8726 12.9013 18.7991 21.2083
# 4 -1.8706 2.5100 12.9013 32.3566 5.7497 -7.5443
# 5 26.8934 4.2802 18.7991 5.7497 36.6948 10.3187
# 6 23.2033 33.1232 21.2083 -7.5443 10.3187 33.2528
#
#
#
# Elastic Compliance Matrix: (Units=1/GPa)
#
#
# Indices 1 2 3 4 5 6 
#
# 1 0.026012 -0.011616 -0.002498 0.007167 -0.018195 0.002285
# 2 -0.011616 0.019926 -0.000397 -0.008317 0.012552 -0.017272
# 3 -0.002498 -0.000397 0.009380 -0.004786 -0.000868 -0.004661
# 4 0.007167 -0.008317 -0.004786 0.040984 -0.013858 0.019934
# 5 -0.018195 0.012552 -0.000868 -0.013858 0.046468 -0.016817
# 6 0.002285 -0.017272 -0.004661 0.019934 -0.016817 0.058396
#
#
# Mechanical properties :
#
#
# Convention : Reuss Voigt Hill
#
# Bulk Modulus (GPa) = 38.02801 63.90877 50.96839
# Shear Modulus (GPa) = 20.92466 33.94819 27.43642
#
# Velocity S-wave (km/s) = 2.99736 3.81784 3.43221
# Velocity P-wave (km/s) = 5.32038 6.84648 6.13110
#
# Compressibility (1/GPa) = 0.02629641
#
# Stress axis : x y z
#
# Youngs Moduli (GPa) = 38.44452 50.18542 106.60738
#
# Poissons Ratio (x) = 0.58296 0.26626
# Poissons Ratio (y) = 0.44657 0.04233
# Poissons Ratio (z) = 0.09602 0.01993
#
# Static dielectric constant tensor:
#      x y z
#    x 1.902160 -0.013520 -0.015700 
#    y -0.013520 1.896320 0.030800 
#    z -0.015700 0.030800 1.919360 
# 
# From -- ./inp_files/245754.got.cif
#   From: 2010.05.17/outbox.cif.g08.bks.cpg/sg2_123_cif.got.tgz:245754.got - 2010.06.03 11:33:40.
