data_PCOD9037224
_publ_section_title
;
Structure prediction by ZEFSAII (Michael W. Deem and Ramdas Pophale) SiO2 
 PCOD9037224
Probable space group: P -1
;
_chemical_formula_sum "Si O2"
_cell_formula_units_Z 16
_cell_length_a 5.263542
_cell_length_b 15.290942
_cell_length_c 18.299508
_cell_angle_alpha 153.040032
_cell_angle_beta 76.149341
_cell_angle_gamma 92.634887
_cell_volume 599.603090
_symmetry_space_group_name_H-M "P -1"
_symmetry_group_IT_number 2
_symmetry_cell_setting 'triclinic'
loop_
_space_group_symop_operation_xyz
x,y,z
-x,-y,-z
loop_
_atom_site_type_symbol
_atom_site_label
_atom_site_fract_x
_atom_site_fract_y
_atom_site_fract_z
Si Si1 0.267264 0.256620 0.718794
Si Si2 0.170041 0.898205 0.465240
Si Si3 0.450255 0.167594 0.065794
Si Si4 0.951451 0.548137 0.454163
Si Si5 0.679186 0.621037 0.042336
Si Si6 0.110030 0.892317 0.630320
Si Si7 0.316330 0.508563 0.703009
Si Si8 0.182958 0.230176 0.984617
O O1 0.543555 0.302455 0.703841
O O2 0.316277 0.220432 0.777290
O O3 0.038263 0.140428 0.613869
O O4 0.008394 0.481322 0.903794
O O5 0.027263 0.936861 0.583183
O O6 0.500000 0.000000 0.500000
O O7 0.222509 0.379325 0.271490
O O8 0.687233 0.261354 0.105480
O O9 0.335988 0.106514 0.954381
O O10 0.500000 0.000000 0.000000
O O11 0.940028 0.771545 0.594484
O O12 0.000000 0.500000 0.500000
O O13 0.713023 0.500342 0.389956
O O14 0.584981 0.723792 0.047134
O O15 0.500000 0.500000 0.000000
O O16 0.429599 0.712063 0.465393
O O17 0.100498 0.082088 0.823842
O O18 0.034661 0.546084 0.798999
#
# Coordination Sequence:
#
# PCOD9037224 Si02
#       8
#     2   2   2   2   2   2   2   2
#     4  10  23  40  63  96 132 182 225 288 355 412
#     4  11  23  43  66  97 139 180 235 296 352 424
#     4  10  25  43  70 105 138 184 230 292 362 421
#     4  10  25  43  70 105 138 184 230 292 362 421
#     4  11  23  43  66  97 139 180 235 296 352 424
#     4  11  25  45  72 104 136 189 241 288 360 428
#     4  10  25  46  67 102 148 180 231 300 349 430
#     4  11  25  45  72 104 136 189 241 288 360 428
#
# _framework density 26.684321000000001
#
# number of rings (size 3 to 8) (size 9 to 14) (size 15 to 20)
#    0.000    1.500    1.250    1.500    5.250   12.000 
#    4.500    0.000    0.000    0.000    0.000    0.000 
#    0.000    0.000    0.000    0.000    0.000    0.000 
#
# Total GULP energy -89070.379300 kJ/mol
# GULP energy per Si atom -5566.898706 kJ/mol
# Density = 2.662359 g / cm^3
# Si number density = 26.684321 Si / 1000 Ang^3
#
#
#
# Elastic Constant Matrix: (Units=GPa)
#
#
# Indices 1 2 3 4 5 6 
#
# 1 89.1659 24.5998 45.9742 -14.6320 -4.6714 -17.2791
# 2 24.5998 150.3733 55.2921 -44.7381 17.6888 -33.7488
# 3 45.9742 55.2921 173.7741 -23.4951 17.3241 -5.4408
# 4 -14.6320 -44.7381 -23.4951 53.9096 2.0666 14.1174
# 5 -4.6714 17.6888 17.3241 2.0666 49.7821 -7.0743
# 6 -17.2791 -33.7488 -5.4408 14.1174 -7.0743 38.4637
#
#
#
# Elastic Compliance Matrix: (Units=1/GPa)
#
#
# Indices 1 2 3 4 5 6 
#
# 1 0.014855 0.000379 -0.004116 0.000615 0.003642 0.006868
# 2 0.000379 0.011265 -0.002311 0.006761 -0.002479 0.006790
# 3 -0.004116 -0.002311 0.007963 0.001561 -0.002950 -0.003866
# 4 0.000615 0.006761 0.001561 0.026240 -0.004551 -0.004039
# 5 0.003642 -0.002479 -0.002950 -0.004551 0.023234 0.004988
# 6 0.006868 0.006790 -0.003866 -0.004039 0.004988 0.036894
#
#
# Mechanical properties :
#
#
# Convention : Reuss Voigt Hill
#
# Bulk Modulus (GPa) = 45.47942 73.89393 59.68668
# Shear Modulus (GPa) = 35.74623 47.59424 41.67023
#
# Velocity S-wave (km/s) = 3.66402 4.22785 3.95600
# Velocity P-wave (km/s) = 5.91444 7.18227 6.57897
#
# Compressibility (1/GPa) = 0.02198797
#
# Stress axis : x y z
#
# Youngs Moduli (GPa) = 67.31690 88.77293 125.58334
#
# Poissons Ratio (x) = -0.03364 0.51686
# Poissons Ratio (y) = -0.02551 0.29018
# Poissons Ratio (z) = 0.27705 0.20513
#
# Static dielectric constant tensor:
#      x y z
#    x 2.220940 -0.459920 -0.207390 
#    y -0.459920 1.538710 -0.342690 
#    z -0.207390 -0.342690 1.797320 
# 
# From -- ./inp_files/550150.got.cif
#   From: 2010.05.17/outbox.cif.g08.bks.cpg/sg2_276_cif.got.tgz:550150.got - 2010.06.03 11:33:40.
