data_PCOD9037794
_publ_section_title
;
Structure prediction by ZEFSAII (Michael W. Deem and Ramdas Pophale) SiO2 
 PCOD9037794
Probable space group: P -1
;
_chemical_formula_sum "Si O2"
_cell_formula_units_Z 14
_cell_length_a 10.880866
_cell_length_b 8.512227
_cell_length_c 15.975352
_cell_angle_alpha 102.033393
_cell_angle_beta 40.809069
_cell_angle_gamma 127.972510
_cell_volume 660.487948
_symmetry_space_group_name_H-M "P -1"
_symmetry_group_IT_number 2
_symmetry_cell_setting 'triclinic'
loop_
_space_group_symop_operation_xyz
x,y,z
-x,-y,-z
loop_
_atom_site_type_symbol
_atom_site_label
_atom_site_fract_x
_atom_site_fract_y
_atom_site_fract_z
Si Si1 0.944278 0.217754 0.772458
Si Si2 0.567070 0.240315 0.070254
Si Si3 0.130599 0.165241 0.821517
Si Si4 0.795056 0.229031 0.095591
Si Si5 0.206249 0.357694 0.100130
Si Si6 0.443939 0.792448 0.314580
Si Si7 0.033849 0.507703 0.343531
O O1 0.756008 0.230076 0.921148
O O2 0.021252 0.361479 0.665478
O O3 0.166483 0.286281 0.729507
O O4 0.733000 0.945936 0.831667
O O5 0.724763 0.501989 0.005004
O O6 0.548385 0.152244 0.160879
O O7 0.390997 0.264312 0.748150
O O8 0.965899 0.903849 0.856541
O O9 0.937244 0.160139 0.975279
O O10 0.651505 0.070101 0.233700
O O11 0.000000 0.500000 0.000000
O O12 0.073499 0.395276 0.240640
O O13 0.500000 0.500000 0.000000
O O14 0.296871 0.680101 0.287711
O O15 0.213202 0.680453 0.489013
#
# Coordination Sequence:
#
# PCOD9037794 Si02
#       7
#     2   2   2   2   2   2   2
#     4   9  17  36  58  83 115 158 201 242 291 353
#     4   9  17  32  58  84 117 154 202 241 293 355
#     4  11  23  38  63  94 118 156 215 265 292 351
#     4  11  22  39  63  91 123 160 201 257 313 364
#     4  11  20  36  65  95 120 158 213 258 297 356
#     4  11  23  41  61  92 130 162 199 252 315 368
#     4  10  23  41  63  88 128 170 196 247 316 376
#
# _framework density 21.196449000000001
#
# number of rings (size 3 to 8) (size 9 to 14) (size 15 to 20)
#    0.000    1.714    2.857    2.143    0.000    2.286 
#    0.000    1.429    0.000    4.286    0.000    0.000 
#    0.000    0.000    0.000    0.000    0.000    0.000 
#
# Total GULP energy -78038.314008 kJ/mol
# GULP energy per Si atom -5574.165286 kJ/mol
# Density = 2.114820 g / cm^3
# Si number density = 21.196449 Si / 1000 Ang^3
#
#
#
# Elastic Constant Matrix: (Units=GPa)
#
#
# Indices 1 2 3 4 5 6 
#
# 1 158.3113 23.2212 41.7252 -10.5857 8.7957 -17.2096
# 2 23.2212 100.7064 35.7417 -12.3257 12.8924 -14.3083
# 3 41.7252 35.7417 73.1414 -15.6145 13.1665 -10.8047
# 4 -10.5857 -12.3257 -15.6145 21.6281 -3.0109 2.2034
# 5 8.7957 12.8924 13.1665 -3.0109 28.2460 -3.1058
# 6 -17.2096 -14.3083 -10.8047 2.2034 -3.1058 21.7817
#
#
#
# Elastic Compliance Matrix: (Units=1/GPa)
#
#
# Indices 1 2 3 4 5 6 
#
# 1 0.007801 0.000275 -0.003719 0.000808 -0.000253 0.004381
# 2 0.000275 0.013059 -0.004418 0.003377 -0.002985 0.005837
# 3 -0.003719 -0.004418 0.021552 0.010152 -0.005454 0.003045
# 4 0.000808 0.003377 0.010152 0.055610 -0.000354 0.002217
# 5 -0.000253 -0.002985 -0.005454 -0.000354 0.039437 0.000792
# 6 0.004381 0.005837 0.003045 0.002217 0.000792 0.054606
#
#
# Mechanical properties :
#
#
# Convention : Reuss Voigt Hill
#
# Bulk Modulus (GPa) = 37.47054 59.28170 48.37612
# Shear Modulus (GPa) = 23.07500 29.76254 26.41877
#
# Velocity S-wave (km/s) = 3.30301 3.75124 3.53424
# Velocity P-wave (km/s) = 5.68002 6.84038 6.28703
#
# Compressibility (1/GPa) = 0.02668763
#
# Stress axis : x y z
#
# Youngs Moduli (GPa) = 128.18873 76.57426 46.39995
#
# Poissons Ratio (x) = -0.02106 0.17258
# Poissons Ratio (y) = -0.03526 0.20499
# Poissons Ratio (z) = 0.47678 0.33830
#
# Static dielectric constant tensor:
#      x y z
#    x 1.938010 0.076020 -0.005420 
#    y 0.076020 1.801480 -0.036970 
#    z -0.005420 -0.036970 1.728980 
# 
# From -- ./inp_files/274549.got.cif
#   From: 2010.05.17/outbox.cif.g08.bks.cpg/sg2_138_cif.got.tgz:274549.got - 2010.06.03 11:33:40.
