data_PCOD9037215
_publ_section_title
;
Structure prediction by ZEFSAII (Michael W. Deem and Ramdas Pophale) SiO2 
 PCOD9037215
Probable space group: P -1
;
_chemical_formula_sum "Si O2"
_cell_formula_units_Z 16
_cell_length_a 19.404434
_cell_length_b 25.791270
_cell_length_c 8.186443
_cell_angle_alpha 131.321141
_cell_angle_beta 143.831481
_cell_angle_gamma 20.821209
_cell_volume 767.750323
_symmetry_space_group_name_H-M "P -1"
_symmetry_group_IT_number 2
_symmetry_cell_setting 'triclinic'
loop_
_space_group_symop_operation_xyz
x,y,z
-x,-y,-z
loop_
_atom_site_type_symbol
_atom_site_label
_atom_site_fract_x
_atom_site_fract_y
_atom_site_fract_z
Si Si1 0.211709 0.435803 0.370673
Si Si2 0.552761 0.545438 0.284285
Si Si3 0.873268 0.483941 0.250233
Si Si4 0.070788 0.883180 0.225137
Si Si5 0.208844 0.926999 0.365273
Si Si6 0.460780 0.209767 0.813522
Si Si7 0.228005 0.606957 0.261672
Si Si8 0.131156 0.072709 0.760511
O O1 0.295257 0.469324 0.539512
O O2 0.122325 0.494009 0.507743
O O3 0.493659 0.241597 0.491298
O O4 0.000000 0.500000 0.000000
O O5 0.249483 0.735212 0.152540
O O6 0.723683 0.439874 0.556435
O O7 0.500000 0.500000 0.000000
O O8 0.654949 0.650903 0.089058
O O9 0.186563 0.322739 0.449533
O O10 0.792842 0.448843 0.005093
O O11 0.193234 0.891544 0.431282
O O12 0.080943 0.854468 0.373167
O O13 0.740497 0.061292 0.933046
O O14 0.120182 0.049897 0.508939
O O15 0.000000 0.000000 0.000000
O O16 0.570715 0.107069 0.966068
O O17 0.500000 0.500000 0.500000
O O18 0.963440 0.798293 0.139310
#
# Coordination Sequence:
#
# PCOD9037215 Si02
#       8
#     2   2   2   2   2   2   2   2
#     4  11  26  43  69 102 144 179 227 287 356 413
#     4  11  25  44  68 101 143 184 224 286 358 417
#     4  11  24  42  71  97 133 179 227 283 339 419
#     4   9  21  39  65  91 125 176 223 283 324 401
#     4  11  23  37  64  96 133 177 225 287 339 407
#     4   9  22  41  70  94 127 168 237 277 336 387
#     4  12  25  40  68  99 133 180 232 276 340 414
#     4  10  23  40  63  94 130 168 229 275 337 400
#
# _framework density 20.840105999999999
#
# number of rings (size 3 to 8) (size 9 to 14) (size 15 to 20)
#    0.750    0.750    1.250    2.625   14.000    0.500 
#    0.000    1.250    0.000    2.250    0.000    0.000 
#    0.000    0.000    0.000    0.000    0.000    0.000 
#
# Total GULP energy -89193.889796 kJ/mol
# GULP energy per Si atom -5574.618112 kJ/mol
# Density = 2.079267 g / cm^3
# Si number density = 20.840106 Si / 1000 Ang^3
#
#
#
# Elastic Constant Matrix: (Units=GPa)
#
#
# Indices 1 2 3 4 5 6 
#
# 1 54.8322 25.6659 25.6004 3.7877 -10.4099 8.7641
# 2 25.6659 164.7699 72.8627 0.8467 7.4204 6.2473
# 3 25.6004 72.8627 133.4265 7.5139 5.5466 -0.8777
# 4 3.7877 0.8467 7.5139 48.0411 2.9678 1.8140
# 5 -10.4099 7.4204 5.5466 2.9678 25.6558 -2.3228
# 6 8.7641 6.2473 -0.8777 1.8140 -2.3228 28.9897
#
#
#
# Elastic Compliance Matrix: (Units=1/GPa)
#
#
# Indices 1 2 3 4 5 6 
#
# 1 0.024265 -0.002381 -0.003754 -0.001740 0.011009 -0.005945
# 2 -0.002381 0.008425 -0.004090 0.000906 -0.002759 -0.001497
# 3 -0.003754 -0.004090 0.010628 -0.001237 -0.002293 0.002232
# 4 -0.001740 0.000906 -0.001237 0.021383 -0.003292 -0.001309
# 5 0.011009 -0.002759 -0.002293 -0.003292 0.045212 0.001026
# 6 -0.005945 -0.001497 0.002232 -0.001309 0.001026 0.036847
#
#
# Mechanical properties :
#
#
# Convention : Reuss Voigt Hill
#
# Bulk Modulus (GPa) = 43.72971 66.80963 55.26967
# Shear Modulus (GPa) = 28.59860 35.79729 32.19795
#
# Velocity S-wave (km/s) = 3.70846 4.14902 3.93491
# Velocity P-wave (km/s) = 6.27422 7.42161 6.87191
#
# Compressibility (1/GPa) = 0.02286775
#
# Stress axis : x y z
#
# Youngs Moduli (GPa) = 41.21109 118.69401 94.08812
#
# Poissons Ratio (x) = 0.28261 0.35324
# Poissons Ratio (y) = 0.09812 0.38483
# Poissons Ratio (z) = 0.15472 0.48548
#
# Static dielectric constant tensor:
#      x y z
#    x 1.834020 -0.012870 -0.014760 
#    y -0.012870 1.850580 -0.014940 
#    z -0.014760 -0.014940 1.773010 
# 
# From -- ./inp_files/350259.got.cif
#   From: 2010.05.17/outbox.cif.g08.bks.cpg/sg2_176_cif.got.tgz:350259.got - 2010.06.03 11:33:40.
