data_PCOD9037984
_publ_section_title
;
Structure prediction by ZEFSAII (Michael W. Deem and Ramdas Pophale) SiO2 
 PCOD9037984
Probable space group: P -1
;
_chemical_formula_sum "Si O2"
_cell_formula_units_Z 12
_cell_length_a 14.711378
_cell_length_b 7.149084
_cell_length_c 11.878475
_cell_angle_alpha 135.829791
_cell_angle_beta 36.371353
_cell_angle_gamma 135.370295
_cell_volume 488.270024
_symmetry_space_group_name_H-M "P -1"
_symmetry_group_IT_number 2
_symmetry_cell_setting 'triclinic'
loop_
_space_group_symop_operation_xyz
x,y,z
-x,-y,-z
loop_
_atom_site_type_symbol
_atom_site_label
_atom_site_fract_x
_atom_site_fract_y
_atom_site_fract_z
Si Si1 0.575892 0.587147 0.083688
Si Si2 0.051680 0.503223 0.821480
Si Si3 0.587796 0.175087 0.345374
Si Si4 0.497161 0.688525 0.735475
Si Si5 0.871062 0.042146 0.477059
Si Si6 0.062184 0.343561 0.218906
O O1 0.537108 0.342819 0.111411
O O2 0.515018 0.843058 0.296046
O O3 0.500000 0.500000 0.000000
O O4 0.770439 0.702426 0.933380
O O5 0.240151 0.691172 0.709536
O O6 0.958097 0.637736 0.885798
O O7 0.043612 0.181514 0.663065
O O8 0.000000 0.500000 0.000000
O O9 0.482992 0.371412 0.570533
O O10 0.611144 0.208100 0.199899
O O11 0.680026 0.891347 0.619067
O O12 0.927518 0.343569 0.612418
O O13 0.918472 0.117216 0.331706
#
# Coordination Sequence:
#
# PCOD9037984 Si02
#       6
#     2   2   2   2   2   2
#     4  12  26  42  66  97 128 166 213 266 320 376
#     4  11  23  40  67  97 129 169 212 262 318 376
#     4  10  23  41  65  95 128 168 213 259 316 377
#     4  10  23  44  68  93 128 169 214 262 314 377
#     4  10  24  44  66  92 128 173 213 258 317 375
#     4  11  25  43  65  95 132 167 212 264 315 379
#
# _framework density 24.576567000000001
#
# number of rings (size 3 to 8) (size 9 to 14) (size 15 to 20)
#    0.000    1.333    0.000    4.000    0.000   20.000 
#    0.000    0.000    0.000    0.000    0.000    0.000 
#    0.000    0.000    0.000    0.000    0.000    0.000 
#
# Total GULP energy -67193.537891 kJ/mol
# GULP energy per Si atom -5599.461491 kJ/mol
# Density = 2.452063 g / cm^3
# Si number density = 24.576567 Si / 1000 Ang^3
#
#
#
# Elastic Constant Matrix: (Units=GPa)
#
#
# Indices 1 2 3 4 5 6 
#
# 1 129.9016 21.6976 10.8736 -11.1992 9.0628 -35.8293
# 2 21.6976 119.0978 22.4463 -2.8657 10.3848 -13.8791
# 3 10.8736 22.4463 55.6143 -2.7457 4.5889 -2.8204
# 4 -11.1992 -2.8657 -2.7457 51.5749 -8.3033 2.4431
# 5 9.0628 10.3848 4.5889 -8.3033 33.8673 -8.1065
# 6 -35.8293 -13.8791 -2.8204 2.4431 -8.1065 30.6551
#
#
#
# Elastic Compliance Matrix: (Units=1/GPa)
#
#
# Indices 1 2 3 4 5 6 
#
# 1 0.011694 -0.000316 -0.001451 0.001946 0.000864 0.013464
# 2 -0.000316 0.009639 -0.003535 -0.000141 -0.001650 0.003244
# 3 -0.001451 -0.003535 0.019742 0.000378 -0.001571 -0.001925
# 4 0.001946 -0.000141 0.000378 0.020532 0.004965 0.001922
# 5 0.000864 -0.001650 -0.001571 0.004965 0.033272 0.008521
# 6 0.013464 0.003244 -0.001925 0.001922 0.008521 0.051749
#
#
# Mechanical properties :
#
#
# Convention : Reuss Voigt Hill
#
# Bulk Modulus (GPa) = 32.81917 46.07208 39.44563
# Shear Modulus (GPa) = 29.87066 39.85921 34.86493
#
# Velocity S-wave (km/s) = 3.49006 4.03157 3.77055
# Velocity P-wave (km/s) = 5.44275 6.36070 5.91954
#
# Compressibility (1/GPa) = 0.03046999
#
# Stress axis : x y z
#
# Youngs Moduli (GPa) = 85.51746 103.74740 50.65357
#
# Poissons Ratio (x) = 0.03283 0.07350
# Poissons Ratio (y) = 0.02706 0.17905
# Poissons Ratio (z) = 0.12409 0.36672
#
# Static dielectric constant tensor:
#      x y z
#    x 1.949430 -0.028600 0.051620 
#    y -0.028600 1.940420 0.003830 
#    z 0.051620 0.003830 2.007270 
# 
# From -- ./inp_files/20975.got.cif
#   From: 2010.05.17/outbox.cif.g08.bks.cpg/sg2_11_cif.got.tgz:20975.got - 2010.06.03 11:33:40.
