data_PCOD9037278
_publ_section_title
;
Structure prediction by ZEFSAII (Michael W. Deem and Ramdas Pophale) SiO2 
 PCOD9037278
Probable space group: P -1
;
_chemical_formula_sum "Si O2"
_cell_formula_units_Z 14
_cell_length_a 19.347205
_cell_length_b 12.591146
_cell_length_c 5.343616
_cell_angle_alpha 83.659429
_cell_angle_beta 92.426612
_cell_angle_gamma 26.817946
_cell_volume 554.123822
_symmetry_space_group_name_H-M "P -1"
_symmetry_group_IT_number 2
_symmetry_cell_setting 'triclinic'
loop_
_space_group_symop_operation_xyz
x,y,z
-x,-y,-z
loop_
_atom_site_type_symbol
_atom_site_label
_atom_site_fract_x
_atom_site_fract_y
_atom_site_fract_z
Si Si1 0.515542 0.725045 0.622839
Si Si2 0.198734 0.523833 0.251354
Si Si3 0.911428 0.641243 0.252786
Si Si4 0.307178 0.866167 0.892730
Si Si5 0.212993 0.256249 0.213451
Si Si6 0.130050 0.735586 0.699465
Si Si7 0.375567 0.568276 0.687274
O O1 0.624226 0.673828 0.713699
O O2 0.413818 0.806904 0.790997
O O3 0.626722 0.477788 0.577869
O O4 0.376240 0.961037 0.353568
O O5 0.206341 0.387482 0.260636
O O6 0.153497 0.621418 0.501458
O O7 0.093794 0.726023 0.958460
O O8 0.108450 0.352727 0.437749
O O9 0.854688 0.843508 0.149485
O O10 0.781967 0.741137 0.095075
O O11 0.000000 0.500000 0.000000
O O12 0.283503 0.800195 0.719913
O O13 0.435490 0.660959 0.183653
O O14 0.288404 0.589443 0.804975
O O15 0.000000 0.000000 0.500000
#
# Coordination Sequence:
#
# PCOD9037278 Si02
#       7
#     2   2   2   2   2   2   2
#     4  11  21  44  64 100 134 175 226 291 326 419
#     4  11  26  44  73  99 136 182 231 276 351 400
#     4  11  24  42  65  95 136 175 224 284 336 412
#     4  11  21  40  68  91 131 175 228 275 339 400
#     4  11  25  42  64 100 135 178 226 280 345 404
#     4  11  25  47  66 102 139 179 227 286 334 418
#     4  10  23  40  64  96 129 176 227 279 340 394
#
# _framework density 25.265112999999999
#
# number of rings (size 3 to 8) (size 9 to 14) (size 15 to 20)
#    0.000    1.143    4.286    1.286    4.000    0.000 
#    0.000    2.857    0.000    0.000    0.000    0.000 
#    0.000    0.000    0.000    0.000    0.000    0.000 
#
# Total GULP energy -77957.317833 kJ/mol
# GULP energy per Si atom -5568.379845 kJ/mol
# Density = 2.520761 g / cm^3
# Si number density = 25.265113 Si / 1000 Ang^3
#
#
#
# Elastic Constant Matrix: (Units=GPa)
#
#
# Indices 1 2 3 4 5 6 
#
# 1 78.3962 32.2243 40.0167 15.9287 2.8722 28.0318
# 2 32.2243 125.2721 20.6797 18.6807 19.2341 45.5102
# 3 40.0167 20.6797 138.0274 -1.3670 13.5045 14.4547
# 4 15.9287 18.6807 -1.3670 31.2592 8.5087 6.9573
# 5 2.8722 19.2341 13.5045 8.5087 29.3078 9.9090
# 6 28.0318 45.5102 14.4547 6.9573 9.9090 39.6839
#
#
#
# Elastic Compliance Matrix: (Units=1/GPa)
#
#
# Indices 1 2 3 4 5 6 
#
# 1 0.022940 0.001102 -0.006146 -0.011489 0.008371 -0.015305
# 2 0.001102 0.014756 -0.000660 -0.005158 -0.002614 -0.015904
# 3 -0.006146 -0.000660 0.009488 0.004961 -0.005503 0.002146
# 4 -0.011489 -0.005158 0.004961 0.042894 -0.012908 0.007926
# 5 0.008371 -0.002614 -0.005503 -0.012908 0.044607 -0.009787
# 6 -0.015305 -0.015904 0.002146 0.007926 -0.009787 0.054522
#
#
# Mechanical properties :
#
#
# Convention : Reuss Voigt Hill
#
# Bulk Modulus (GPa) = 27.95121 58.61524 43.28322
# Shear Modulus (GPa) = 23.52485 36.63517 30.08001
#
# Velocity S-wave (km/s) = 3.05474 3.81206 3.45421
# Velocity P-wave (km/s) = 4.85068 6.52887 5.75131
#
# Compressibility (1/GPa) = 0.03577663
#
# Stress axis : x y z
#
# Youngs Moduli (GPa) = 43.59143 67.76788 105.39241
#
# Poissons Ratio (x) = -0.07467 0.64772
# Poissons Ratio (y) = -0.04803 0.06957
# Poissons Ratio (z) = 0.26791 0.04474
#
# Static dielectric constant tensor:
#      x y z
#    x 1.747110 0.139400 -0.225590 
#    y 0.139400 1.908070 0.120720 
#    z -0.225590 0.120720 1.967770 
# 
# From -- ./inp_files/118233.got.cif
#   From: 2010.05.17/outbox.cif.g08.bks.cpg/sg2_60_cif.got.tgz:118233.got - 2010.06.03 11:33:40.
