data_PCOD9037915
_publ_section_title
;
Structure prediction by ZEFSAII (Michael W. Deem and Ramdas Pophale) SiO2 
 PCOD9037915
Probable space group: P -1
;
_chemical_formula_sum "Si O2"
_cell_formula_units_Z 14
_cell_length_a 15.716466
_cell_length_b 7.847232
_cell_length_c 6.986038
_cell_angle_alpha 114.774388
_cell_angle_beta 55.247214
_cell_angle_gamma 120.099459
_cell_volume 601.601433
_symmetry_space_group_name_H-M "P -1"
_symmetry_group_IT_number 2
_symmetry_cell_setting 'triclinic'
loop_
_space_group_symop_operation_xyz
x,y,z
-x,-y,-z
loop_
_atom_site_type_symbol
_atom_site_label
_atom_site_fract_x
_atom_site_fract_y
_atom_site_fract_z
Si Si1 0.028627 0.550976 0.205424
Si Si2 0.770909 0.846025 0.474038
Si Si3 0.993569 0.190165 0.335877
Si Si4 0.217830 0.424925 0.995145
Si Si5 0.436703 0.030685 0.286140
Si Si6 0.518121 0.278790 0.647984
Si Si7 0.659960 0.644379 0.869161
O O1 0.004172 0.735561 0.414156
O O2 0.156838 0.577761 0.090362
O O3 0.962371 0.355244 0.325599
O O4 0.000000 0.500000 0.000000
O O5 0.681081 0.952314 0.604288
O O6 0.759248 0.780667 0.678014
O O7 0.896884 0.982554 0.336530
O O8 0.741625 0.655836 0.281382
O O9 0.116597 0.233718 0.122408
O O10 0.305380 0.488146 0.081936
O O11 0.507042 0.227610 0.414425
O O12 0.425837 0.856016 0.372415
O O13 0.500000 0.000000 0.000000
O O14 0.578005 0.505635 0.749499
O O15 0.396764 0.228484 0.874599
#
# Coordination Sequence:
#
# PCOD9037915 Si02
#       7
#     2   2   2   2   2   2   2
#     4   9  21  43  63  90 130 173 210 266 326 375
#     4  12  24  40  66  98 129 177 216 261 337 385
#     4   9  23  41  63  94 134 164 215 270 308 405
#     4  10  23  41  64  96 132 168 215 270 316 401
#     4  11  23  44  66  94 128 174 222 272 327 382
#     4  10  24  45  65  92 135 170 220 284 313 390
#     4  11  24  42  67  97 130 175 219 270 337 376
#
# _framework density 23.271222000000002
#
# number of rings (size 3 to 8) (size 9 to 14) (size 15 to 20)
#    0.857    0.857    2.857    0.429    4.000    3.429 
#    0.000    0.000    0.000    0.000    0.000    0.000 
#    0.000    0.000    0.000    0.000    0.000    0.000 
#
# Total GULP energy -78144.041748 kJ/mol
# GULP energy per Si atom -5581.717268 kJ/mol
# Density = 2.321826 g / cm^3
# Si number density = 23.271222 Si / 1000 Ang^3
#
#
#
# Elastic Constant Matrix: (Units=GPa)
#
#
# Indices 1 2 3 4 5 6 
#
# 1 85.4640 -11.6994 39.1191 4.5305 13.8563 -14.3532
# 2 -11.6994 17.9900 4.0337 4.5890 9.9009 11.0009
# 3 39.1191 4.0337 167.4659 16.9662 20.3723 6.7138
# 4 4.5305 4.5890 16.9662 24.7460 2.8887 1.5488
# 5 13.8563 9.9009 20.3723 2.8887 44.1810 5.8903
# 6 -14.3532 11.0009 6.7138 1.5488 5.8903 26.4956
#
#
#
# Elastic Compliance Matrix: (Units=1/GPa)
#
#
# Indices 1 2 3 4 5 6 
#
# 1 0.017587 0.012832 -0.003501 -0.002755 -0.007520 0.006919
# 2 0.012832 0.096297 -0.000055 -0.016015 -0.020874 -0.027440
# 3 -0.003501 -0.000055 0.007539 -0.004124 -0.001674 -0.003171
# 4 -0.002755 -0.016015 -0.004124 0.046189 0.002955 0.002845
# 5 -0.007520 -0.020874 -0.001674 0.002955 0.030507 -0.001938
# 6 0.006919 -0.027440 -0.003171 0.002845 -0.001938 0.053951
#
#
# Mechanical properties :
#
#
# Convention : Reuss Voigt Hill
#
# Bulk Modulus (GPa) = 7.14407 37.09182 22.11794
# Shear Modulus (GPa) = 17.84587 35.04895 26.44741
#
# Velocity S-wave (km/s) = 2.77224 3.88507 3.37484
# Velocity P-wave (km/s) = 3.65016 6.00821 4.97103
#
# Compressibility (1/GPa) = 0.13997622
#
# Stress axis : x y z
#
# Youngs Moduli (GPa) = 56.85955 10.38452 132.64356
#
# Poissons Ratio (x) = -0.13326 0.46438
# Poissons Ratio (y) = -0.72965 0.00731
# Poissons Ratio (z) = 0.19906 0.00057
#
# Static dielectric constant tensor:
#      x y z
#    x 1.894190 0.019600 -0.005070 
#    y 0.019600 1.918430 0.005470 
#    z -0.005070 0.005470 1.861920 
# 
# From -- ./inp_files/107471.got.cif
#   From: 2010.05.17/outbox.cif.g08.bks.cpg/sg2_54_cif.got.tgz:107471.got - 2010.06.03 11:33:40.
