data_PCOD9037270
_publ_section_title
;
Structure prediction by ZEFSAII (Michael W. Deem and Ramdas Pophale) SiO2 
 PCOD9037270
Probable space group: P -1
;
_chemical_formula_sum "Si O2"
_cell_formula_units_Z 16
_cell_length_a 13.333609
_cell_length_b 6.966968
_cell_length_c 13.169200
_cell_angle_alpha 75.928843
_cell_angle_beta 131.750760
_cell_angle_gamma 69.475047
_cell_volume 625.011567
_symmetry_space_group_name_H-M "P -1"
_symmetry_group_IT_number 2
_symmetry_cell_setting 'triclinic'
loop_
_space_group_symop_operation_xyz
x,y,z
-x,-y,-z
loop_
_atom_site_type_symbol
_atom_site_label
_atom_site_fract_x
_atom_site_fract_y
_atom_site_fract_z
Si Si1 0.661563 0.042677 0.202696
Si Si2 0.104963 0.047077 0.454150
Si Si3 0.168481 0.280450 0.063993
Si Si4 0.718616 0.561774 0.372511
Si Si5 0.293748 0.655629 0.955191
Si Si6 0.370476 0.720258 0.216029
Si Si7 0.625033 0.688527 0.657488
Si Si8 0.890446 0.556434 0.680872
O O1 0.852376 0.904064 0.412962
O O2 0.656873 0.181961 0.082188
O O3 0.674664 0.790557 0.238494
O O4 0.474052 0.320954 0.100600
O O5 0.214022 0.725016 0.578253
O O6 0.186270 0.138291 0.424153
O O7 0.893798 0.226148 0.245862
O O8 0.100075 0.362947 0.892174
O O9 0.312165 0.298942 0.191135
O O10 0.000000 0.500000 0.000000
O O11 0.236491 0.987010 0.163650
O O12 0.526607 0.713857 0.285558
O O13 0.870505 0.477313 0.569267
O O14 0.266069 0.740612 0.043739
O O15 0.453822 0.446628 0.366087
O O16 0.786229 0.530775 0.698499
O O17 0.500000 0.000000 0.500000
#
# Coordination Sequence:
#
# PCOD9037270 Si02
#       8
#     2   2   2   2   2   2   2   2
#     4  10  25  47  66 105 139 180 230 292 342 415
#     4  11  22  44  69 102 138 185 227 286 348 411
#     4  10  24  43  64  95 132 178 231 288 338 409
#     4  11  24  41  69  99 141 177 234 289 339 415
#     4  11  24  46  74  98 141 183 231 285 353 411
#     4  12  25  41  69 101 133 188 235 279 349 415
#     4  11  24  41  65  95 134 178 226 286 340 406
#     4  10  23  40  64  94 136 175 225 282 338 402
#
# _framework density 25.599526000000001
#
# number of rings (size 3 to 8) (size 9 to 14) (size 15 to 20)
#    0.000    1.250    1.250    3.375    5.250    7.000 
#    0.000    0.000    0.000    0.000    0.000    0.000 
#    0.000    0.000    0.000    0.000    0.000    0.000 
#
# Total GULP energy -89407.882951 kJ/mol
# GULP energy per Si atom -5587.992684 kJ/mol
# Density = 2.554126 g / cm^3
# Si number density = 25.599526 Si / 1000 Ang^3
#
#
#
# Elastic Constant Matrix: (Units=GPa)
#
#
# Indices 1 2 3 4 5 6 
#
# 1 61.6992 31.4460 -4.1257 -6.5280 -11.1282 22.3893
# 2 31.4460 153.8204 17.4924 -22.0674 -11.9996 27.7807
# 3 -4.1257 17.4924 74.2943 8.5292 -4.6191 4.7207
# 4 -6.5280 -22.0674 8.5292 34.7158 2.2026 -10.7481
# 5 -11.1282 -11.9996 -4.6191 2.2026 29.3598 -12.3544
# 6 22.3893 27.7807 4.7207 -10.7481 -12.3544 42.8114
#
#
#
# Elastic Compliance Matrix: (Units=1/GPa)
#
#
# Indices 1 2 3 4 5 6 
#
# 1 0.021760 -0.003092 0.002930 -0.001624 0.003773 -0.009015
# 2 -0.003092 0.008565 -0.002549 0.004740 0.000606 -0.002295
# 3 0.002930 -0.002549 0.015143 -0.005661 0.001851 -0.002435
# 4 -0.001624 0.004740 -0.005661 0.035166 0.000949 0.007500
# 5 0.003773 0.000606 0.001851 0.000949 0.039811 0.009156
# 6 -0.009015 -0.002295 -0.002435 0.007500 0.009156 0.034356
#
#
# Mechanical properties :
#
#
# Convention : Reuss Voigt Hill
#
# Bulk Modulus (GPa) = 24.97159 42.15992 33.56575
# Shear Modulus (GPa) = 28.80691 37.71082 33.25886
#
# Velocity S-wave (km/s) = 3.35817 3.84227 3.60835
# Velocity P-wave (km/s) = 4.98120 6.01572 5.52273
#
# Compressibility (1/GPa) = 0.04004551
#
# Stress axis : x y z
#
# Youngs Moduli (GPa) = 45.95652 116.75641 66.03896
#
# Poissons Ratio (x) = 0.36102 -0.19351
# Poissons Ratio (y) = 0.14210 0.16833
# Poissons Ratio (z) = -0.13466 0.29761
#
# Static dielectric constant tensor:
#      x y z
#    x 1.079390 -0.652560 0.300080 
#    y -0.652560 1.626560 0.114990 
#    z 0.300080 0.114990 2.060040 
# 
# From -- ./inp_files/39229.got.cif
#   From: 2010.05.17/outbox.cif.g08.bks.cpg/sg2_20_cif.got.tgz:39229.got - 2010.06.03 11:33:40.
