data_PCOD9037316
_publ_section_title
;
Structure prediction by ZEFSAII (Michael W. Deem and Ramdas Pophale) SiO2 
 PCOD9037316
Probable space group: P -1
;
_chemical_formula_sum "Si O2"
_cell_formula_units_Z 16
_cell_length_a 9.353791
_cell_length_b 8.042097
_cell_length_c 15.693298
_cell_angle_alpha 54.280244
_cell_angle_beta 109.072390
_cell_angle_gamma 73.068001
_cell_volume 704.799056
_symmetry_space_group_name_H-M "P -1"
_symmetry_group_IT_number 2
_symmetry_cell_setting 'triclinic'
loop_
_space_group_symop_operation_xyz
x,y,z
-x,-y,-z
loop_
_atom_site_type_symbol
_atom_site_label
_atom_site_fract_x
_atom_site_fract_y
_atom_site_fract_z
Si Si1 0.350361 0.475472 0.395773
Si Si2 0.786537 0.664017 0.868764
Si Si3 0.879621 0.104127 0.357462
Si Si4 0.127580 0.336690 0.490983
Si Si5 0.211737 0.718544 0.127056
Si Si6 0.766861 0.076051 0.636376
Si Si7 0.781339 0.628331 0.199858
Si Si8 0.386379 0.006982 0.097408
O O1 0.291471 0.357600 0.489813
O O2 0.233402 0.557648 0.261976
O O3 0.578701 0.265646 0.483606
O O4 0.289840 0.741606 0.346845
O O5 0.752592 0.460881 0.891995
O O6 0.783938 0.827451 0.741684
O O7 0.647026 0.868252 0.854256
O O8 0.000000 0.500000 0.000000
O O9 0.748249 0.416233 0.236902
O O10 0.786041 0.960363 0.383306
O O11 0.000000 0.000000 0.500000
O O12 0.039554 0.999747 0.345676
O O13 0.000000 0.500000 0.500000
O O14 0.976867 0.467688 0.342280
O O15 0.352275 0.792324 0.148372
O O16 0.000000 0.000000 0.000000
O O17 0.603907 0.864296 0.150670
O O18 0.766035 0.762381 0.068162
#
# Coordination Sequence:
#
# PCOD9037316 Si02
#       8
#     2   2   2   2   2   2   2   2
#     4  11  25  42  69 104 144 178 238 292 343 423
#     4  12  25  43  72 100 141 181 235 288 353 413
#     4  10  23  40  65  91 136 180 226 273 347 413
#     4  11  23  41  67 100 138 182 226 284 344 419
#     4  12  25  43  71 104 140 182 233 285 355 412
#     4  11  24  43  67 103 140 189 230 294 354 409
#     4  10  25  45  68  93 139 180 233 281 355 412
#     4  11  24  48  70  98 138 183 228 298 338 419
#
# _framework density 22.701506999999999
#
# number of rings (size 3 to 8) (size 9 to 14) (size 15 to 20)
#    0.000    1.000    3.750    1.500    8.750    1.500 
#    2.250    1.250    0.000    0.000    0.000    0.000 
#    0.000    0.000    0.000    0.000    0.000    0.000 
#
# Total GULP energy -89469.453858 kJ/mol
# GULP energy per Si atom -5591.840866 kJ/mol
# Density = 2.264984 g / cm^3
# Si number density = 22.701507 Si / 1000 Ang^3
#
#
#
# Elastic Constant Matrix: (Units=GPa)
#
#
# Indices 1 2 3 4 5 6 
#
# 1 54.2845 33.5927 13.1302 -2.2895 -14.1890 4.7729
# 2 33.5927 121.7222 34.6133 -10.7924 -14.6429 20.3436
# 3 13.1302 34.6133 87.5972 -2.7436 -12.2171 -1.9751
# 4 -2.2895 -10.7924 -2.7436 28.9820 1.7907 -3.3170
# 5 -14.1890 -14.6429 -12.2171 1.7907 38.2071 -8.9920
# 6 4.7729 20.3436 -1.9751 -3.3170 -8.9920 35.1182
#
#
#
# Elastic Compliance Matrix: (Units=1/GPa)
#
#
# Indices 1 2 3 4 5 6 
#
# 1 0.023847 -0.006081 -0.000173 -0.000599 0.006969 0.002000
# 2 -0.006081 0.012330 -0.004077 0.003024 -0.000480 -0.006383
# 3 -0.000173 -0.004077 0.013662 0.000002 0.003707 0.004103
# 4 -0.000599 0.003024 0.000002 0.035791 -0.000359 0.001618
# 5 0.006969 -0.000480 0.003707 -0.000359 0.031565 0.007588
# 6 0.002000 -0.006383 0.004103 0.001618 0.007588 0.034227
#
#
# Mechanical properties :
#
#
# Convention : Reuss Voigt Hill
#
# Bulk Modulus (GPa) = 34.27337 47.36403 40.81870
# Shear Modulus (GPa) = 27.50117 32.61266 30.05691
#
# Velocity S-wave (km/s) = 3.48433 3.79434 3.64264
# Velocity P-wave (km/s) = 5.59621 6.33286 5.97590
#
# Compressibility (1/GPa) = 0.02917717
#
# Stress axis : x y z
#
# Youngs Moduli (GPa) = 41.93426 81.10264 73.19333
#
# Poissons Ratio (x) = 0.49317 0.01269
# Poissons Ratio (y) = 0.25500 0.29840
# Poissons Ratio (z) = 0.00727 0.33064
#
# Static dielectric constant tensor:
#      x y z
#    x 1.872320 0.024860 -0.011350 
#    y 0.024860 1.857040 0.004790 
#    z -0.011350 0.004790 1.847470 
# 
# From -- ./inp_files/494407.got.cif
#   From: 2010.05.17/outbox.cif.g08.bks.cpg/sg2_248_cif.got.tgz:494407.got - 2010.06.03 11:33:40.
