data_PCOD9037257
_publ_section_title
;
Structure prediction by ZEFSAII (Michael W. Deem and Ramdas Pophale) SiO2 
 PCOD9037257
Probable space group: P -1
;
_chemical_formula_sum "Si O2"
_cell_formula_units_Z 14
_cell_length_a 12.144142
_cell_length_b 4.899039
_cell_length_c 19.008838
_cell_angle_alpha 61.679160
_cell_angle_beta 38.459472
_cell_angle_gamma 68.156634
_cell_volume 619.197565
_symmetry_space_group_name_H-M "P -1"
_symmetry_group_IT_number 2
_symmetry_cell_setting 'triclinic'
loop_
_space_group_symop_operation_xyz
x,y,z
-x,-y,-z
loop_
_atom_site_type_symbol
_atom_site_label
_atom_site_fract_x
_atom_site_fract_y
_atom_site_fract_z
Si Si1 0.875181 0.425241 0.897651
Si Si2 0.500691 0.006329 0.597906
Si Si3 0.875682 0.575141 0.727249
Si Si4 0.211895 0.499499 0.644358
Si Si5 0.838135 0.295869 0.635491
Si Si6 0.499344 0.683832 0.298626
Si Si7 0.837711 0.704428 0.026897
O O1 0.788804 0.500422 0.855717
O O2 0.075748 0.549320 0.770978
O O3 0.788375 0.577120 0.990078
O O4 0.890983 0.060635 0.946847
O O5 0.331238 0.200130 0.633893
O O6 0.669117 0.201047 0.464319
O O7 0.501272 0.041210 0.678013
O O8 0.500939 0.648366 0.620766
O O9 0.789069 0.423906 0.721421
O O10 0.076098 0.449882 0.653644
O O11 0.891855 0.939702 0.662132
O O12 0.674192 0.306707 0.663383
O O13 0.000000 0.500000 0.500000
O O14 0.673860 0.692894 0.163105
O O15 0.000000 0.500000 0.000000
#
# Coordination Sequence:
#
# PCOD9037257 Si02
#       7
#     2   2   2   2   2   2   2
#     4  10  23  40  64  91 122 170 215 254 315 377
#     4  11  22  40  60 100 123 164 196 286 311 402
#     4  10  23  40  64  91 122 170 215 254 315 377
#     4   9  22  38  68  89 130 156 218 251 344 365
#     4  12  23  42  64  92 130 170 211 263 313 381
#     4  12  26  39  65  94 132 160 222 248 336 362
#     4  12  23  42  64  92 130 170 211 263 313 381
#
# _framework density 22.609908000000001
#
# number of rings (size 3 to 8) (size 9 to 14) (size 15 to 20)
#    0.857    0.286    0.000    6.857    0.000    4.571 
#    0.000    4.286    0.000    0.000    0.000    0.000 
#    0.000    0.000    0.000    0.000    0.000    0.000 
#
# Total GULP energy -78376.539444 kJ/mol
# GULP energy per Si atom -5598.324246 kJ/mol
# Density = 2.255845 g / cm^3
# Si number density = 22.609908 Si / 1000 Ang^3
#
#
#
# Elastic Constant Matrix: (Units=GPa)
#
#
# Indices 1 2 3 4 5 6 
#
# 1 92.8751 24.5532 36.9341 15.8545 26.0128 0.6602
# 2 24.5532 61.2142 18.7301 -15.5341 -2.3021 4.9384
# 3 36.9341 18.7301 87.5501 -2.2818 11.3398 -12.4708
# 4 15.8545 -15.5341 -2.2818 20.0162 3.6001 10.6775
# 5 26.0128 -2.3021 11.3398 3.6001 23.7309 7.8486
# 6 0.6602 4.9384 -12.4708 10.6775 7.8486 37.9378
#
#
#
# Elastic Compliance Matrix: (Units=1/GPa)
#
#
# Indices 1 2 3 4 5 6 
#
# 1 0.100381 -0.098577 0.002444 -0.180693 -0.122484 0.088084
# 2 -0.098577 0.124124 -0.010738 0.204600 0.127932 -0.102023
# 3 0.002444 -0.010738 0.015995 -0.012967 -0.013731 0.013103
# 4 -0.180693 0.204600 -0.012967 0.411346 0.224539 -0.189976
# 5 -0.122484 0.127932 -0.013731 0.224539 0.202351 -0.124094
# 6 0.088084 -0.102023 0.013103 -0.189976 -0.124094 0.121555
#
#
# Mechanical properties :
#
#
# Convention : Reuss Voigt Hill
#
# Bulk Modulus (GPa) = 37.37306 44.67490 41.02398
# Shear Modulus (GPa) = 4.17218 27.09845 15.63531
#
# Velocity S-wave (km/s) = 1.35989 3.46572 2.63254
# Velocity P-wave (km/s) = 4.36247 5.98472 5.23679
#
# Compressibility (1/GPa) = 0.02675724
#
# Stress axis : x y z
#
# Youngs Moduli (GPa) = 9.96200 8.05648 62.51851
#
# Poissons Ratio (x) = 0.79419 -0.15280
# Poissons Ratio (y) = 0.98203 0.67135
# Poissons Ratio (z) = -0.02435 0.08651
#
# Static dielectric constant tensor:
#      x y z
#    x 1.863980 0.002010 0.036070 
#    y 0.002010 1.795790 0.012980 
#    z 0.036070 0.012980 1.839020 
# 
# From -- ./inp_files/592644.got.cif
#   From: 2010.05.17/outbox.cif.g08.bks.cpg/sg2_297_cif.got.tgz:592644.got - 2010.06.03 11:33:40.
