data_PCOD9037041
_publ_section_title
;
Structure prediction by ZEFSAII (Michael W. Deem and Ramdas Pophale) SiO2 
 PCOD9037041
Probable space group: P -1
;
_chemical_formula_sum "Si O2"
_cell_formula_units_Z 14
_cell_length_a 18.368967
_cell_length_b 9.666401
_cell_length_c 9.604168
_cell_angle_alpha 128.510890
_cell_angle_beta 115.323228
_cell_angle_gamma 31.096733
_cell_volume 665.321394
_symmetry_space_group_name_H-M "P -1"
_symmetry_group_IT_number 2
_symmetry_cell_setting 'triclinic'
loop_
_space_group_symop_operation_xyz
x,y,z
-x,-y,-z
loop_
_atom_site_type_symbol
_atom_site_label
_atom_site_fract_x
_atom_site_fract_y
_atom_site_fract_z
Si Si1 0.273617 0.416617 0.614482
Si Si2 0.871402 0.368969 0.090485
Si Si3 0.149981 0.833518 0.526229
Si Si4 0.641635 0.616670 0.844702
Si Si5 0.547862 0.329333 0.158550
Si Si6 0.120958 0.282718 0.841366
Si Si7 0.462167 0.829542 0.250703
O O1 0.192969 0.477710 0.714428
O O2 0.200192 0.706538 0.647012
O O3 0.417383 0.238355 0.688562
O O4 0.311833 0.196005 0.397313
O O5 0.910948 0.482172 0.124306
O O6 0.759867 0.468363 0.960498
O O7 0.000000 0.000000 0.000000
O O8 0.273247 0.542112 0.333635
O O9 0.118302 0.099096 0.645718
O O10 0.000000 0.000000 0.500000
O O11 0.573618 0.546970 0.771243
O O12 0.500000 0.000000 0.000000
O O13 0.505114 0.608657 0.265024
O O14 0.711154 0.010454 0.150901
O O15 0.543129 0.245576 0.951271
O O16 0.000000 0.500000 0.000000
#
# Coordination Sequence:
#
# PCOD9037041 Si02
#       7
#     2   2   2   2   2   2   2
#     4  11  23  44  69 100 139 182 234 290 364 419
#     4  12  27  47  71 104 148 191 241 300 367 434
#     4  12  28  49  73 105 147 193 245 299 371 441
#     4  12  25  45  76 107 144 190 245 305 358 430
#     4  11  23  43  70 106 143 182 246 295 360 428
#     4  12  27  46  74 102 146 198 245 298 369 437
#     4  10  23  39  70 104 140 181 227 303 358 421
#
# _framework density 21.042463000000001
#
# number of rings (size 3 to 8) (size 9 to 14) (size 15 to 20)
#    0.000    0.571    4.286    3.429    6.000    0.571 
#    0.000    1.429    0.000    0.000    0.000    0.000 
#    0.000    0.000    0.000    0.000    0.000    0.000 
#
# Total GULP energy -78210.615600 kJ/mol
# GULP energy per Si atom -5586.472543 kJ/mol
# Density = 2.099457 g / cm^3
# Si number density = 21.042463 Si / 1000 Ang^3
#
#
#
# Elastic Constant Matrix: (Units=GPa)
#
#
# Indices 1 2 3 4 5 6 
#
# 1 167.9310 59.3021 51.8275 13.3486 -28.2347 13.2598
# 2 59.3021 99.6067 23.7727 4.5697 4.8468 7.4333
# 3 51.8275 23.7727 71.8408 11.1911 -15.5829 -1.3197
# 4 13.3486 4.5697 11.1911 29.9047 3.9597 7.2666
# 5 -28.2347 4.8468 -15.5829 3.9597 35.9905 -3.0300
# 6 13.2598 7.4333 -1.3197 7.2666 -3.0300 39.3956
#
#
#
# Elastic Compliance Matrix: (Units=1/GPa)
#
#
# Indices 1 2 3 4 5 6 
#
# 1 0.010803 -0.005661 -0.003742 -0.003233 0.007847 -0.001494
# 2 -0.005661 0.014553 -0.003030 0.003046 -0.008228 -0.002137
# 3 -0.003742 -0.003030 0.020544 -0.007657 0.007590 0.004516
# 4 -0.003233 0.003046 -0.007657 0.040775 -0.011433 -0.008143
# 5 0.007847 -0.008228 0.007590 -0.011433 0.039959 0.004348
# 6 -0.001494 -0.002137 0.004516 -0.008143 0.004348 0.028277
#
#
# Mechanical properties :
#
#
# Convention : Reuss Voigt Hill
#
# Bulk Modulus (GPa) = 47.54216 67.68700 57.61458
# Shear Modulus (GPa) = 26.76818 34.68991 30.72904
#
# Velocity S-wave (km/s) = 3.57052 4.06466 3.82558
# Velocity P-wave (km/s) = 6.29608 7.36650 6.85223
#
# Compressibility (1/GPa) = 0.02103396
#
# Stress axis : x y z
#
# Youngs Moduli (GPa) = 92.56786 68.71476 48.67572
#
# Poissons Ratio (x) = 0.38897 0.18215
# Poissons Ratio (y) = 0.52399 0.14750
# Poissons Ratio (z) = 0.34640 0.20823
#
# Static dielectric constant tensor:
#      x y z
#    x 1.674470 0.066520 0.119440 
#    y 0.066520 1.753640 -0.022310 
#    z 0.119440 -0.022310 1.611830 
# 
# From -- ./inp_files/319548.got.cif
#   From: 2010.05.17/outbox.cif.g08.bks.cpg/sg2_160_cif.got.tgz:319548.got - 2010.06.03 11:33:40.
