data_PCOD9037580
_publ_section_title
;
Structure prediction by ZEFSAII (Michael W. Deem and Ramdas Pophale) SiO2 
 PCOD9037580
Probable space group: P -1
;
_chemical_formula_sum "Si O2"
_cell_formula_units_Z 16
_cell_length_a 15.871810
_cell_length_b 8.963170
_cell_length_c 11.098178
_cell_angle_alpha 140.535365
_cell_angle_beta 54.704736
_cell_angle_gamma 128.843033
_cell_volume 767.512212
_symmetry_space_group_name_H-M "P -1"
_symmetry_group_IT_number 2
_symmetry_cell_setting 'triclinic'
loop_
_space_group_symop_operation_xyz
x,y,z
-x,-y,-z
loop_
_atom_site_type_symbol
_atom_site_label
_atom_site_fract_x
_atom_site_fract_y
_atom_site_fract_z
Si Si1 0.555110 0.237920 0.014970
Si Si2 0.502151 0.713006 0.296806
Si Si3 0.621591 0.984260 0.162645
Si Si4 0.020511 0.118200 0.922434
Si Si5 0.726592 0.410248 0.523051
Si Si6 0.115757 0.727676 0.524433
Si Si7 0.815883 0.977403 0.827210
Si Si8 0.811159 0.332155 0.839330
O O1 0.686161 0.316324 0.954636
O O2 0.499462 0.112535 0.856757
O O3 0.524957 0.492244 0.218963
O O4 0.500000 0.000000 0.000000
O O5 0.371677 0.586894 0.304768
O O6 0.500000 0.000000 0.500000
O O7 0.599740 0.780468 0.160445
O O8 0.668168 0.257505 0.357309
O O9 0.705730 0.977736 0.985901
O O10 0.087262 0.975358 0.706626
O O11 0.096546 0.402615 0.045457
O O12 0.909678 0.073424 0.911096
O O13 0.000000 0.000000 0.000000
O O14 0.801381 0.274361 0.438414
O O15 0.800794 0.696932 0.624194
O O16 0.171614 0.712800 0.342847
O O17 0.000000 0.500000 0.500000
O O18 0.833761 0.141360 0.795222
#
# Coordination Sequence:
#
# PCOD9037580 Si02
#       8
#     2   2   2   2   2   2   2   2
#     4  12  24  48  71 106 152 190 243 300 372 437
#     4  10  23  40  69 105 136 190 245 300 355 429
#     4  11  24  41  74 102 138 192 240 300 359 434
#     4  12  26  46  76 104 139 191 246 296 357 432
#     4  11  23  44  68 103 142 181 245 296 361 420
#     4  12  25  45  70 104 140 185 242 303 348 427
#     4  12  25  46  69 104 147 187 236 295 366 437
#     4  12  28  46  71 105 147 191 233 299 373 436
#
# _framework density 20.846572999999999
#
# number of rings (size 3 to 8) (size 9 to 14) (size 15 to 20)
#    0.000    0.500    5.000    2.250    7.000    1.500 
#    0.000    3.125    0.000    0.000    0.000    0.000 
#    0.000    0.000    0.000    0.000    0.000    0.000 
#
# Total GULP energy -89192.095829 kJ/mol
# GULP energy per Si atom -5574.505989 kJ/mol
# Density = 2.079913 g / cm^3
# Si number density = 20.846573 Si / 1000 Ang^3
#
#
#
# Elastic Constant Matrix: (Units=GPa)
#
#
# Indices 1 2 3 4 5 6 
#
# 1 114.7606 32.4681 5.1299 19.4654 -1.1530 9.5072
# 2 32.4681 120.5452 11.7332 18.2091 -0.5247 -7.3360
# 3 5.1299 11.7332 53.4985 12.7656 7.4321 -3.8105
# 4 19.4654 18.2091 12.7656 27.0265 12.9010 0.8624
# 5 -1.1530 -0.5247 7.4321 12.9010 31.9941 4.2917
# 6 9.5072 -7.3360 -3.8105 0.8624 4.2917 32.2481
#
#
#
# Elastic Compliance Matrix: (Units=1/GPa)
#
#
# Indices 1 2 3 4 5 6 
#
# 1 0.011127 -0.001925 0.000602 -0.008964 0.004380 -0.003990
# 2 -0.001925 0.009996 -0.000661 -0.006280 0.002430 0.002608
# 3 0.000602 -0.000661 0.021440 -0.009482 -0.001503 0.002659
# 4 -0.008964 -0.006280 -0.009482 0.063615 -0.024089 0.001598
# 5 0.004380 0.002430 -0.001503 -0.024089 0.042308 -0.005902
# 6 -0.003990 0.002608 0.002659 0.001598 -0.005902 0.033836
#
#
# Mechanical properties :
#
#
# Convention : Reuss Voigt Hill
#
# Bulk Modulus (GPa) = 25.91094 43.05185 34.48139
# Shear Modulus (GPa) = 25.10598 34.21862 29.66230
#
# Velocity S-wave (km/s) = 3.47410 4.05588 3.77621
# Velocity P-wave (km/s) = 5.34311 6.52917 5.96569
#
# Compressibility (1/GPa) = 0.03859374
#
# Stress axis : x y z
#
# Youngs Moduli (GPa) = 89.87482 100.03609 46.64124
#
# Poissons Ratio (x) = 0.19258 -0.02806
# Poissons Ratio (y) = 0.17302 0.03084
# Poissons Ratio (z) = -0.05407 0.06615
#
# Static dielectric constant tensor:
#      x y z
#    x 1.741690 -0.084270 -0.007810 
#    y -0.084270 1.860290 -0.005640 
#    z -0.007810 -0.005640 1.792290 
# 
# From -- ./inp_files/448307.got.cif
#   From: 2010.05.17/outbox.cif.g08.bks.cpg/sg2_225_cif.got.tgz:448307.got - 2010.06.03 11:33:40.
