data_PCOD9037754
_publ_section_title
;
Structure prediction by ZEFSAII (Michael W. Deem and Ramdas Pophale) SiO2 
 PCOD9037754
Probable space group: P -1
;
_chemical_formula_sum "Si O2"
_cell_formula_units_Z 16
_cell_length_a 9.334283
_cell_length_b 16.178122
_cell_length_c 5.215601
_cell_angle_alpha 108.374330
_cell_angle_beta 71.838707
_cell_angle_gamma 83.113814
_cell_volume 689.126393
_symmetry_space_group_name_H-M "P -1"
_symmetry_group_IT_number 2
_symmetry_cell_setting 'triclinic'
loop_
_space_group_symop_operation_xyz
x,y,z
-x,-y,-z
loop_
_atom_site_type_symbol
_atom_site_label
_atom_site_fract_x
_atom_site_fract_y
_atom_site_fract_z
Si Si1 0.506309 0.776996 0.312078
Si Si2 0.838914 0.328189 0.257782
Si Si3 0.159955 0.862143 0.710527
Si Si4 0.063977 0.442297 0.154241
Si Si5 0.331813 0.068769 0.643046
Si Si6 0.514819 0.333490 0.276515
Si Si7 0.651546 0.509859 0.779758
Si Si8 0.154425 0.028998 0.204447
O O1 0.331581 0.840736 0.475455
O O2 0.631164 0.835353 0.335331
O O3 0.504269 0.709463 0.481999
O O4 0.528254 0.727724 0.981113
O O5 0.872966 0.231996 0.277513
O O6 0.993504 0.355275 0.103149
O O7 0.698179 0.330909 0.139071
O O8 0.754877 0.410761 0.568564
O O9 0.161711 0.926974 0.016496
O O10 0.023695 0.915278 0.656038
O O11 0.000000 0.500000 0.500000
O O12 0.245948 0.434789 0.067834
O O13 0.000000 0.500000 0.000000
O O14 0.242680 0.065422 0.955935
O O15 0.500000 0.000000 0.500000
O O16 0.235239 0.041867 0.436509
O O17 0.407364 0.432331 0.385751
O O18 0.500000 0.500000 0.000000
#
# Coordination Sequence:
#
# PCOD9037754 Si02
#       8
#     2   2   2   2   2   2   2   2
#     4  11  25  43  69 100 137 182 221 282 339 406
#     4  10  23  42  68  95 135 182 221 279 337 400
#     4  10  24  45  68 101 137 180 232 277 343 404
#     4  10  23  41  62  93 127 168 216 268 330 390
#     4  12  25  45  72 102 138 179 229 280 351 399
#     4  11  24  41  67 102 136 173 231 278 335 403
#     4  11  22  43  70 101 134 178 227 277 336 400
#     4  11  26  44  70 102 137 180 226 287 337 412
#
# _framework density 23.217801999999999
#
# number of rings (size 3 to 8) (size 9 to 14) (size 15 to 20)
#    0.000    1.250    1.250    3.750    3.500   11.000 
#    0.000    1.250    0.000    0.000    0.000    0.000 
#    0.000    0.000    0.000    0.000    0.000    0.000 
#
# Total GULP energy -89603.298796 kJ/mol
# GULP energy per Si atom -5600.206175 kJ/mol
# Density = 2.316496 g / cm^3
# Si number density = 23.217802 Si / 1000 Ang^3
#
#
#
# Elastic Constant Matrix: (Units=GPa)
#
#
# Indices 1 2 3 4 5 6 
#
# 1 149.9223 57.4608 40.4433 -0.5226 14.1110 17.2750
# 2 57.4608 114.8476 36.4090 12.1614 -0.0990 25.6434
# 3 40.4433 36.4090 76.5393 -9.7640 6.0267 -7.0329
# 4 -0.5226 12.1614 -9.7640 41.2320 2.2975 0.0501
# 5 14.1110 -0.0990 6.0267 2.2975 44.7124 -0.0852
# 6 17.2750 25.6434 -7.0329 0.0501 -0.0852 48.0013
#
#
#
# Elastic Compliance Matrix: (Units=1/GPa)
#
#
# Indices 1 2 3 4 5 6 
#
# 1 0.009261 -0.003131 -0.003355 0.000388 -0.002501 -0.002156
# 2 -0.003131 0.014987 -0.007185 -0.006280 0.002297 -0.007922
# 3 -0.003355 -0.007185 0.020028 0.006921 -0.001997 0.007969
# 4 0.000388 -0.006280 0.006921 0.027883 -0.002494 0.004196
# 5 -0.002501 0.002297 -0.001997 -0.002494 0.023556 -0.000575
# 6 -0.002156 -0.007922 0.007969 0.004196 -0.000575 0.027003
#
#
# Mechanical properties :
#
#
# Convention : Reuss Voigt Hill
#
# Bulk Modulus (GPa) = 59.05480 67.77061 63.41271
# Shear Modulus (GPa) = 32.11189 40.58889 36.35039
#
# Velocity S-wave (km/s) = 3.72300 4.18566 3.96109
# Velocity P-wave (km/s) = 6.63109 7.25342 6.94922
#
# Compressibility (1/GPa) = 0.01693342
#
# Stress axis : x y z
#
# Youngs Moduli (GPa) = 107.98289 66.72311 49.92947
#
# Poissons Ratio (x) = 0.20894 0.16753
# Poissons Ratio (y) = 0.33814 0.35872
# Poissons Ratio (z) = 0.36233 0.47938
#
# Static dielectric constant tensor:
#      x y z
#    x 1.888690 0.012380 -0.020890 
#    y 0.012380 1.882400 0.023110 
#    z -0.020890 0.023110 1.857840 
# 
# From -- ./inp_files/39694.got.cif
#   From: 2010.05.17/outbox.cif.g08.bks.cpg/sg2_20_cif.got.tgz:39694.got - 2010.06.03 11:33:40.
