data_PCOD9037182
_publ_section_title
;
Structure prediction by ZEFSAII (Michael W. Deem and Ramdas Pophale) SiO2 
 PCOD9037182
Probable space group: P -1
;
_chemical_formula_sum "Si O2"
_cell_formula_units_Z 16
_cell_length_a 17.575808
_cell_length_b 14.118179
_cell_length_c 11.750810
_cell_angle_alpha 132.675418
_cell_angle_beta 29.469601
_cell_angle_gamma 148.843283
_cell_volume 715.844128
_symmetry_space_group_name_H-M "P -1"
_symmetry_group_IT_number 2
_symmetry_cell_setting 'triclinic'
loop_
_space_group_symop_operation_xyz
x,y,z
-x,-y,-z
loop_
_atom_site_type_symbol
_atom_site_label
_atom_site_fract_x
_atom_site_fract_y
_atom_site_fract_z
Si Si1 0.213981 0.038642 0.765910
Si Si2 0.247024 0.383689 0.200774
Si Si3 0.005217 0.659957 0.138018
Si Si4 0.679660 0.384123 0.522519
Si Si5 0.557151 0.925914 0.990596
Si Si6 0.805162 0.463572 0.786794
Si Si7 0.752450 0.019974 0.580623
Si Si8 0.063387 0.712992 0.858307
O O1 0.306087 0.062926 0.538194
O O2 0.157527 0.879707 0.787465
O O3 0.412731 0.233388 0.732147
O O4 0.000000 0.000000 0.000000
O O5 0.227597 0.507955 0.392402
O O6 0.207237 0.400491 0.137151
O O7 0.025160 0.170510 0.355564
O O8 0.500000 0.500000 0.000000
O O9 0.803901 0.548211 0.400285
O O10 0.235456 0.862063 0.056369
O O11 0.970389 0.700003 0.091571
O O12 0.000000 0.500000 0.000000
O O13 0.742849 0.271777 0.345741
O O14 0.638465 0.903855 0.751574
O O15 0.441691 0.752202 0.082202
O O16 0.343521 0.891757 0.219128
O O17 0.874528 0.521213 0.875274
O O18 0.000000 0.500000 0.500000
#
# Coordination Sequence:
#
# PCOD9037182 Si02
#       8
#     2   2   2   2   2   2   2   2
#     4  12  26  44  66  99 140 179 223 281 347 409
#     4  12  24  43  66  96 139 178 219 273 343 409
#     4  10  23  40  63 102 135 168 218 281 341 384
#     4  11  23  41  68  93 134 178 222 277 333 397
#     4  11  23  40  71 102 131 170 230 287 327 394
#     4  12  23  41  68 101 131 172 229 280 333 399
#     4  11  22  42  67  96 133 175 226 275 337 394
#     4  11  23  41  67  99 130 170 227 281 333 395
#
# _framework density 22.351233000000001
#
# number of rings (size 3 to 8) (size 9 to 14) (size 15 to 20)
#    0.000    0.750    5.000    2.625    8.750    0.000 
#    0.000    2.500    0.000    0.000    0.000    0.000 
#    0.000    0.000    0.000    0.000    0.000    0.000 
#
# Total GULP energy -89243.647619 kJ/mol
# GULP energy per Si atom -5577.727976 kJ/mol
# Density = 2.230036 g / cm^3
# Si number density = 22.351233 Si / 1000 Ang^3
#
#
#
# Elastic Constant Matrix: (Units=GPa)
#
#
# Indices 1 2 3 4 5 6 
#
# 1 103.2843 19.2857 33.2801 -5.0192 14.1896 15.8092
# 2 19.2857 84.7509 15.6956 -27.0282 14.1726 10.1762
# 3 33.2801 15.6956 60.0605 -19.1493 3.1565 -2.4560
# 4 -5.0192 -27.0282 -19.1493 35.6733 5.9670 -1.5589
# 5 14.1896 14.1726 3.1565 5.9670 40.2525 -3.2162
# 6 15.8092 10.1762 -2.4560 -1.5589 -3.2162 30.8286
#
#
#
# Elastic Compliance Matrix: (Units=1/GPa)
#
#
# Indices 1 2 3 4 5 6 
#
# 1 0.014431 -0.000883 -0.008853 -0.003038 -0.004304 -0.008417
# 2 -0.000883 0.019355 0.000893 0.016342 -0.009477 -0.006027
# 3 -0.008853 0.000893 0.026059 0.013846 -0.000735 0.006944
# 4 -0.003038 0.016342 0.013846 0.049564 -0.013244 -0.001608
# 5 -0.004304 -0.009477 -0.000735 -0.013244 0.032356 0.007983
# 6 -0.008417 -0.006027 0.006944 -0.001608 0.007983 0.040048
#
#
# Mechanical properties :
#
#
# Convention : Reuss Voigt Hill
#
# Bulk Modulus (GPa) = 23.71897 42.73537 33.22717
# Shear Modulus (GPa) = 23.41357 33.33982 28.37670
#
# Velocity S-wave (km/s) = 3.24007 3.86636 3.56698
# Velocity P-wave (km/s) = 4.96310 6.25244 5.64470
#
# Compressibility (1/GPa) = 0.04216035
#
# Stress axis : x y z
#
# Youngs Moduli (GPa) = 69.29336 51.66631 38.37461
#
# Poissons Ratio (x) = 0.04563 0.33971
# Poissons Ratio (y) = 0.06119 -0.03428
# Poissons Ratio (z) = 0.61342 -0.04615
#
# Static dielectric constant tensor:
#      x y z
#    x 1.843990 -0.012770 0.050030 
#    y -0.012770 1.870380 0.018200 
#    z 0.050030 0.018200 1.875220 
# 
# From -- ./inp_files/263637.got.cif
#   From: 2010.05.17/outbox.cif.g08.bks.cpg/sg2_132_cif.got.tgz:263637.got - 2010.06.03 11:33:40.
