data_PCOD9037570
_publ_section_title
;
Structure prediction by ZEFSAII (Michael W. Deem and Ramdas Pophale) SiO2 
 PCOD9037570
Probable space group: P -1
;
_chemical_formula_sum "Si O2"
_cell_formula_units_Z 14
_cell_length_a 9.684240
_cell_length_b 12.912669
_cell_length_c 8.337965
_cell_angle_alpha 62.060342
_cell_angle_beta 122.218281
_cell_angle_gamma 134.629932
_cell_volume 620.066302
_symmetry_space_group_name_H-M "P -1"
_symmetry_group_IT_number 2
_symmetry_cell_setting 'triclinic'
loop_
_space_group_symop_operation_xyz
x,y,z
-x,-y,-z
loop_
_atom_site_type_symbol
_atom_site_label
_atom_site_fract_x
_atom_site_fract_y
_atom_site_fract_z
Si Si1 0.193345 0.086702 0.938669
Si Si2 0.381797 0.613009 0.454058
Si Si3 0.222316 0.282099 0.571804
Si Si4 0.047892 0.618484 0.075042
Si Si5 0.158248 0.901139 0.753522
Si Si6 0.440542 0.905907 0.693303
Si Si7 0.795996 0.413859 0.326676
O O1 0.237682 0.237064 0.793373
O O2 0.161581 0.005190 0.809460
O O3 0.377772 0.098623 0.130078
O O4 0.000000 0.000000 0.000000
O O5 0.260511 0.438110 0.479770
O O6 0.597198 0.694132 0.441936
O O7 0.249493 0.660399 0.262011
O O8 0.388355 0.634865 0.632938
O O9 0.008023 0.157044 0.447628
O O10 0.854760 0.529869 0.140087
O O11 0.089795 0.758599 0.916930
O O12 0.000000 0.500000 0.000000
O O13 0.369809 0.963385 0.747956
O O14 0.252650 0.734973 0.666199
O O15 0.500000 0.000000 0.500000
O O16 0.000000 0.500000 0.500000
#
# Coordination Sequence:
#
# PCOD9037570 Si02
#       7
#     2   2   2   2   2   2   2
#     4  12  30  45  67 100 144 186 227 279 349 417
#     4  10  23  40  69 100 133 177 221 293 338 408
#     4  11  24  45  66  97 142 177 228 275 356 406
#     4  11  20  41  69 101 130 168 238 283 336 395
#     4  12  25  45  72  98 137 189 226 288 336 415
#     4  12  27  46  73 104 138 182 236 284 344 409
#     4  10  23  40  70 100 134 172 226 286 337 401
#
# _framework density 22.578232
#
# number of rings (size 3 to 8) (size 9 to 14) (size 15 to 20)
#    0.000    0.857    2.857    3.429   10.000    0.000 
#    0.000    1.429    0.000    0.000    0.000    0.000 
#    0.000    0.000    0.000    0.000    0.000    0.000 
#
# Total GULP energy -78350.810934 kJ/mol
# GULP energy per Si atom -5596.486495 kJ/mol
# Density = 2.252684 g / cm^3
# Si number density = 22.578232 Si / 1000 Ang^3
#
#
#
# Elastic Constant Matrix: (Units=GPa)
#
#
# Indices 1 2 3 4 5 6 
#
# 1 120.0125 17.2751 37.3588 0.3780 -23.2769 15.2443
# 2 17.2751 61.9383 23.0646 -6.2083 4.4711 1.3107
# 3 37.3588 23.0646 144.4936 -25.0028 -0.2367 18.3932
# 4 0.3780 -6.2083 -25.0028 41.6090 8.0659 -6.5259
# 5 -23.2769 4.4711 -0.2367 8.0659 43.4698 0.5475
# 6 15.2443 1.3107 18.3932 -6.5259 0.5475 32.9136
#
#
#
# Elastic Compliance Matrix: (Units=1/GPa)
#
#
# Indices 1 2 3 4 5 6 
#
# 1 0.011671 -0.003140 -0.002649 -0.004357 0.007427 -0.004788
# 2 -0.003140 0.018267 -0.001941 0.002766 -0.004115 0.002429
# 3 -0.002649 -0.001941 0.009165 0.005218 -0.002102 -0.002748
# 4 -0.004357 0.002766 0.005218 0.030011 -0.008222 0.005079
# 5 0.007427 -0.004115 -0.002102 -0.008222 0.028972 -0.004213
# 6 -0.004788 0.002429 -0.002748 0.005079 -0.004213 0.035116
#
#
# Mechanical properties :
#
#
# Convention : Reuss Voigt Hill
#
# Bulk Modulus (GPa) = 42.29677 53.53793 47.91735
# Shear Modulus (GPa) = 31.94004 40.18154 36.06079
#
# Velocity S-wave (km/s) = 3.76525 4.22318 4.00077
# Velocity P-wave (km/s) = 6.13815 6.89521 6.52767
#
# Compressibility (1/GPa) = 0.02364247
#
# Stress axis : x y z
#
# Youngs Moduli (GPa) = 85.67960 54.74427 109.11530
#
# Poissons Ratio (x) = 0.17192 0.28900
# Poissons Ratio (y) = 0.26907 0.21180
# Poissons Ratio (z) = 0.22693 0.10626
#
# Static dielectric constant tensor:
#      x y z
#    x 1.874920 -0.018650 0.008140 
#    y -0.018650 1.854750 0.006480 
#    z 0.008140 0.006480 1.857580 
# 
# From -- ./inp_files/185422.got.cif
#   From: 2010.05.17/outbox.cif.g08.bks.cpg/sg2_93_cif.got.tgz:185422.got - 2010.06.03 11:33:40.
