data_PCOD9037412
_publ_section_title
;
Structure prediction by ZEFSAII (Michael W. Deem and Ramdas Pophale) SiO2 
 PCOD9037412
Probable space group: P -1
;
_chemical_formula_sum "Si O2"
_cell_formula_units_Z 14
_cell_length_a 7.723766
_cell_length_b 7.399724
_cell_length_c 14.677144
_cell_angle_alpha 92.678716
_cell_angle_beta 81.025382
_cell_angle_gamma 141.617540
_cell_volume 510.556140
_symmetry_space_group_name_H-M "P -1"
_symmetry_group_IT_number 2
_symmetry_cell_setting 'triclinic'
loop_
_space_group_symop_operation_xyz
x,y,z
-x,-y,-z
loop_
_atom_site_type_symbol
_atom_site_label
_atom_site_fract_x
_atom_site_fract_y
_atom_site_fract_z
Si Si1 0.788735 0.194326 0.701251
Si Si2 0.696068 0.089189 0.906019
Si Si3 0.298181 0.736969 0.583669
Si Si4 0.087849 0.052570 0.682149
Si Si5 0.823089 0.685742 0.045081
Si Si6 0.320930 0.458604 0.436965
Si Si7 0.308821 0.351885 0.138298
O O1 0.670343 0.150318 0.809427
O O2 0.993061 0.519123 0.652901
O O3 0.529315 0.914675 0.651979
O O4 0.005116 0.198643 0.699169
O O5 0.016561 0.349490 0.923779
O O6 0.661127 0.842001 0.889932
O O7 0.500000 0.000000 0.000000
O O8 0.186299 0.494180 0.515995
O O9 0.500000 0.000000 0.500000
O O10 0.919433 0.847777 0.601401
O O11 0.926764 0.821589 0.771998
O O12 0.420636 0.279548 0.646837
O O13 0.641867 0.637430 0.139095
O O14 0.711165 0.546357 0.949248
O O15 0.000000 0.000000 0.000000
O O16 0.500000 0.500000 0.500000
#
# Coordination Sequence:
#
# PCOD9037412 Si02
#       7
#     2   2   2   2   2   2   2
#     4  11  23  43  71  94 130 181 224 275 339 403
#     4  10  23  40  66  97 130 174 227 273 328 408
#     4  12  26  46  65  95 141 177 218 276 351 400
#     4  11  22  37  69 102 124 166 228 277 326 392
#     4   9  19  39  62  88 129 170 208 274 331 384
#     4  12  22  40  68  97 127 163 223 283 320 398
#     4   9  21  38  63  95 131 173 212 274 341 389
#
# _framework density 27.421078000000001
#
# number of rings (size 3 to 8) (size 9 to 14) (size 15 to 20)
#    0.000    1.429    2.857    1.714   10.000    0.571 
#    2.571    2.857    0.000    0.000    0.000    0.000 
#    0.000    0.000    0.000    0.000    0.000    0.000 
#
# Total GULP energy -78041.417429 kJ/mol
# GULP energy per Si atom -5574.386959 kJ/mol
# Density = 2.735867 g / cm^3
# Si number density = 27.421078 Si / 1000 Ang^3
#
#
#
# Elastic Constant Matrix: (Units=GPa)
#
#
# Indices 1 2 3 4 5 6 
#
# 1 59.8425 10.9217 41.2122 9.4683 -13.3566 19.4900
# 2 10.9217 100.4993 45.3604 -5.5988 -11.7757 20.8465
# 3 41.2122 45.3604 225.3210 -28.1073 -15.3042 13.4792
# 4 9.4683 -5.5988 -28.1073 52.4603 3.1126 -1.9715
# 5 -13.3566 -11.7757 -15.3042 3.1126 49.3005 0.0684
# 6 19.4900 20.8465 13.4792 -1.9715 0.0684 47.2282
#
#
#
# Elastic Compliance Matrix: (Units=1/GPa)
#
#
# Indices 1 2 3 4 5 6 
#
# 1 0.025953 0.001950 -0.005070 -0.007968 0.006441 -0.010466
# 2 0.001950 0.012257 -0.002390 -0.000698 0.002766 -0.005566
# 3 -0.005070 -0.002390 0.006246 0.004080 -0.000265 0.001535
# 4 -0.007968 -0.000698 0.004080 0.022888 -0.002509 0.003391
# 5 0.006441 0.002766 -0.000265 -0.002509 0.022771 -0.003941
# 6 -0.010466 -0.005566 0.001535 0.003391 -0.003941 0.027658
#
#
# Mechanical properties :
#
#
# Convention : Reuss Voigt Hill
#
# Bulk Modulus (GPa) = 29.90930 64.51680 47.21305
# Shear Modulus (GPa) = 35.72998 49.00903 42.36951
#
# Velocity S-wave (km/s) = 3.61364 4.23220 3.93510
# Velocity P-wave (km/s) = 5.32375 6.88922 6.15644
#
# Compressibility (1/GPa) = 0.03343442
#
# Stress axis : x y z
#
# Youngs Moduli (GPa) = 38.53127 81.58609 160.11174
#
# Poissons Ratio (x) = -0.15905 0.81173
# Poissons Ratio (y) = -0.07512 0.38272
# Poissons Ratio (z) = 0.19534 0.19502
#
# Static dielectric constant tensor:
#      x y z
#    x 2.521130 0.334260 -0.249050 
#    y 0.334260 3.464210 0.081810 
#    z -0.249050 0.081810 2.546350 
# 
# From -- ./inp_files/495053.got.cif
#   From: 2010.05.17/outbox.cif.g08.bks.cpg/sg2_248_cif.got.tgz:495053.got - 2010.06.03 11:33:40.
