data_PCOD9037731
_publ_section_title
;
Structure prediction by ZEFSAII (Michael W. Deem and Ramdas Pophale) SiO2 
 PCOD9037731
Probable space group: P -1
;
_chemical_formula_sum "Si O2"
_cell_formula_units_Z 16
_cell_length_a 10.768644
_cell_length_b 9.081604
_cell_length_c 12.250520
_cell_angle_alpha 57.641296
_cell_angle_beta 93.412330
_cell_angle_gamma 57.832772
_cell_volume 750.712356
_symmetry_space_group_name_H-M "P -1"
_symmetry_group_IT_number 2
_symmetry_cell_setting 'triclinic'
loop_
_space_group_symop_operation_xyz
x,y,z
-x,-y,-z
loop_
_atom_site_type_symbol
_atom_site_label
_atom_site_fract_x
_atom_site_fract_y
_atom_site_fract_z
Si Si1 0.824422 0.518150 0.101280
Si Si2 0.567029 0.549307 0.815499
Si Si3 0.827894 0.862599 0.819745
Si Si4 0.444525 0.780729 0.931005
Si Si5 0.806648 0.693065 0.268491
Si Si6 0.134649 0.531923 0.408213
Si Si7 0.682551 0.796906 0.639250
Si Si8 0.618710 0.385302 0.655251
O O1 0.838482 0.555668 0.214614
O O2 0.984692 0.265533 0.160652
O O3 0.833156 0.693453 0.967864
O O4 0.644007 0.600881 0.037989
O O5 0.432341 0.752988 0.812096
O O6 0.686294 0.603744 0.776146
O O7 0.516220 0.530084 0.701071
O O8 0.631316 0.312984 0.971291
O O9 0.732508 0.890049 0.694406
O O10 0.719098 0.111566 0.773481
O O11 0.367169 0.039641 0.852853
O O12 0.826324 0.554856 0.431144
O O13 0.941143 0.719521 0.291741
O O14 0.199652 0.320983 0.412919
O O15 0.239940 0.601642 0.357763
O O16 0.500000 0.000000 0.500000
O O17 0.500000 0.500000 0.500000
#
# Coordination Sequence:
#
# PCOD9037731 Si02
#       8
#     2   2   2   2   2   2   2   2
#     4  11  24  41  66  95 130 167 215 266 319 383
#     4  10  23  41  61  99 122 161 220 256 317 376
#     4  11  23  42  65  97 126 168 213 263 325 375
#     4  11  23  40  68  91 130 170 212 267 316 384
#     4  11  23  43  65  94 128 172 216 260 327 376
#     4  10  24  42  64  93 130 164 218 265 313 387
#     4  11  20  42  68  88 126 170 213 261 311 385
#     4  11  25  41  65  97 130 167 213 265 320 381
#
# _framework density 21.313089999999999
#
# number of rings (size 3 to 8) (size 9 to 14) (size 15 to 20)
#    0.000    1.250    2.500    3.375    3.500    2.000 
#    0.000    3.125    0.000    0.000    0.000    0.000 
#    0.000    0.000    0.000    0.000    0.000    0.000 
#
# Total GULP energy -89311.388564 kJ/mol
# GULP energy per Si atom -5581.961785 kJ/mol
# Density = 2.126458 g / cm^3
# Si number density = 21.313090 Si / 1000 Ang^3
#
#
#
# Elastic Constant Matrix: (Units=GPa)
#
#
# Indices 1 2 3 4 5 6 
#
# 1 65.0278 2.8465 21.7914 0.7996 6.6804 0.8825
# 2 2.8465 80.4948 23.1648 24.7258 -0.8086 5.1917
# 3 21.7914 23.1648 59.1884 20.7221 3.4960 -6.7648
# 4 0.7996 24.7258 20.7221 43.3122 -5.0047 1.2617
# 5 6.6804 -0.8086 3.4960 -5.0047 21.4891 -1.1842
# 6 0.8825 5.1917 -6.7648 1.2617 -1.1842 23.2609
#
#
#
# Elastic Compliance Matrix: (Units=1/GPa)
#
#
# Indices 1 2 3 4 5 6 
#
# 1 0.018574 0.001144 -0.008424 0.002688 -0.003942 -0.003756
# 2 0.001144 0.016193 -0.004830 -0.006913 -0.000831 -0.004730
# 3 -0.008424 -0.004830 0.026973 -0.010725 -0.003919 0.009624
# 4 0.002688 -0.006913 -0.010725 0.033153 0.008202 -0.003059
# 5 -0.003942 -0.000831 -0.003919 0.008202 0.050349 0.001314
# 6 -0.003756 -0.004730 0.009624 -0.003059 0.001314 0.047221
#
#
# Mechanical properties :
#
#
# Convention : Reuss Voigt Hill
#
# Bulk Modulus (GPa) = 26.65187 33.36847 30.01017
# Shear Modulus (GPa) = 21.81611 28.07298 24.94454
#
# Velocity S-wave (km/s) = 3.20285 3.63322 3.42480
# Velocity P-wave (km/s) = 5.11954 5.76981 5.45438
#
# Compressibility (1/GPa) = 0.03752082
#
# Stress axis : x y z
#
# Youngs Moduli (GPa) = 53.83971 61.75609 37.07367
#
# Poissons Ratio (x) = -0.07067 0.31230
# Poissons Ratio (y) = -0.06161 0.17907
# Poissons Ratio (z) = 0.45353 0.29829
#
# Static dielectric constant tensor:
#      x y z
#    x 1.818650 -0.043270 0.026790 
#    y -0.043270 1.796460 -0.004520 
#    z 0.026790 -0.004520 1.775590 
# 
# From -- ./inp_files/278591.got.cif
#   From: 2010.05.17/outbox.cif.g08.bks.cpg/sg2_140_cif.got.tgz:278591.got - 2010.06.03 11:33:40.
