data_PCOD9037009
_publ_section_title
;
Structure prediction by ZEFSAII (Michael W. Deem and Ramdas Pophale) SiO2 
 PCOD9037009
Probable space group: P -1
;
_chemical_formula_sum "Si O2"
_cell_formula_units_Z 16
_cell_length_a 9.277089
_cell_length_b 11.116869
_cell_length_c 10.448579
_cell_angle_alpha 120.123845
_cell_angle_beta 124.507531
_cell_angle_gamma 63.204786
_cell_volume 746.810292
_symmetry_space_group_name_H-M "P -1"
_symmetry_group_IT_number 2
_symmetry_cell_setting 'triclinic'
loop_
_space_group_symop_operation_xyz
x,y,z
-x,-y,-z
loop_
_atom_site_type_symbol
_atom_site_label
_atom_site_fract_x
_atom_site_fract_y
_atom_site_fract_z
Si Si1 0.043437 0.461749 0.650048
Si Si2 0.320997 0.629702 0.982978
Si Si3 0.564779 0.265943 0.649047
Si Si4 0.268038 0.109246 0.856256
Si Si5 0.655743 0.466684 0.458888
Si Si6 0.716076 0.857134 0.413878
Si Si7 0.102978 0.913442 0.383683
Si Si8 0.600163 0.204876 0.130103
O O1 0.847787 0.470599 0.614843
O O2 0.000000 0.500000 0.500000
O O3 0.153894 0.565982 0.824094
O O4 0.160828 0.300845 0.629778
O O5 0.346271 0.749422 0.958295
O O6 0.500000 0.500000 0.000000
O O7 0.315640 0.692502 0.155263
O O8 0.413531 0.405061 0.608351
O O9 0.452736 0.159145 0.595887
O O10 0.705379 0.200018 0.572864
O O11 0.328745 0.087670 0.725245
O O12 0.052825 0.158205 0.784071
O O13 0.315219 0.956677 0.870282
O O14 0.386052 0.212934 0.027019
O O15 0.500000 0.500000 0.500000
O O16 0.660777 0.316984 0.313254
O O17 0.834099 0.958414 0.590436
O O18 0.000000 0.000000 0.500000
#
# Coordination Sequence:
#
# PCOD9037009 Si02
#       8
#     2   2   2   2   2   2   2   2
#     4  12  22  42  73 103 134 178 223 279 349 401
#     4  12  21  43  73 103 136 176 225 287 338 406
#     4  12  24  45  70 103 132 180 234 279 346 405
#     4  10  23  39  68  95 131 188 221 267 346 406
#     4  12  28  41  66 105 142 172 225 287 339 407
#     4  11  21  41  70  96 133 176 228 277 335 404
#     4  10  25  42  65  95 133 178 227 280 332 408
#     4  11  21  43  68  94 140 176 222 281 342 399
#
# _framework density 21.42445
#
# number of rings (size 3 to 8) (size 9 to 14) (size 15 to 20)
#    0.000    0.750    6.250    1.125    7.000    1.000 
#    0.000    1.875    0.000    0.000    0.000    0.000 
#    0.000    0.000    0.000    0.000    0.000    0.000 
#
# Total GULP energy -89329.145406 kJ/mol
# GULP energy per Si atom -5583.071588 kJ/mol
# Density = 2.137569 g / cm^3
# Si number density = 21.424450 Si / 1000 Ang^3
#
#
#
# Elastic Constant Matrix: (Units=GPa)
#
#
# Indices 1 2 3 4 5 6 
#
# 1 113.6852 26.1067 39.4002 -5.0643 37.0347 -9.7772
# 2 26.1067 86.6724 19.9406 -2.1359 7.3959 10.7323
# 3 39.4002 19.9406 100.4210 3.6921 41.0273 5.6913
# 4 -5.0643 -2.1359 3.6921 26.6304 8.6596 3.0840
# 5 37.0347 7.3959 41.0273 8.6596 55.4859 -2.6530
# 6 -9.7772 10.7323 5.6913 3.0840 -2.6530 36.5055
#
#
#
# Elastic Compliance Matrix: (Units=1/GPa)
#
#
# Indices 1 2 3 4 5 6 
#
# 1 0.013158 -0.003267 -0.001827 0.004491 -0.007513 0.003844
# 2 -0.003267 0.013376 -0.001678 0.000785 0.001300 -0.004517
# 3 -0.001827 -0.001678 0.015322 0.001086 -0.010209 -0.003218
# 4 0.004491 0.000785 0.001086 0.042193 -0.010660 -0.003536
# 5 -0.007513 0.001300 -0.010209 -0.010660 0.032193 0.002437
# 6 0.003844 -0.004517 -0.003218 -0.003536 0.002437 0.030728
#
#
# Mechanical properties :
#
#
# Convention : Reuss Voigt Hill
#
# Bulk Modulus (GPa) = 35.32309 52.40817 43.86563
# Shear Modulus (GPa) = 29.42007 38.07976 33.74992
#
# Velocity S-wave (km/s) = 3.70969 4.22049 3.97331
# Velocity P-wave (km/s) = 5.90527 6.94730 6.44737
#
# Compressibility (1/GPa) = 0.02831010
#
# Stress axis : x y z
#
# Youngs Moduli (GPa) = 76.00001 74.76272 65.26664
#
# Poissons Ratio (x) = 0.24426 0.11926
# Poissons Ratio (y) = 0.24830 0.10953
# Poissons Ratio (z) = 0.13888 0.12547
#
# Static dielectric constant tensor:
#      x y z
#    x 1.805700 0.028260 -0.002880 
#    y 0.028260 1.815570 -0.006320 
#    z -0.002880 -0.006320 1.836130 
# 
# From -- ./inp_files/391186.got.cif
#   From: 2010.05.17/outbox.cif.g08.bks.cpg/sg2_196_cif.got.tgz:391186.got - 2010.06.03 11:33:40.
