data_PCOD9037725
_publ_section_title
;
Structure prediction by ZEFSAII (Michael W. Deem and Ramdas Pophale) SiO2 
 PCOD9037725
Probable space group: P -1
;
_chemical_formula_sum "Si O2"
_cell_formula_units_Z 16
_cell_length_a 8.732790
_cell_length_b 15.142454
_cell_length_c 14.894293
_cell_angle_alpha 150.814453
_cell_angle_beta 94.769510
_cell_angle_gamma 67.412186
_cell_volume 734.599311
_symmetry_space_group_name_H-M "P -1"
_symmetry_group_IT_number 2
_symmetry_cell_setting 'triclinic'
loop_
_space_group_symop_operation_xyz
x,y,z
-x,-y,-z
loop_
_atom_site_type_symbol
_atom_site_label
_atom_site_fract_x
_atom_site_fract_y
_atom_site_fract_z
Si Si1 0.267111 0.859459 0.473190
Si Si2 0.104021 0.424432 0.178307
Si Si3 0.646654 0.508968 0.075805
Si Si4 0.934117 0.343010 0.801462
Si Si5 0.012755 0.083332 0.822579
Si Si6 0.527973 0.095571 0.995022
Si Si7 0.146134 0.407621 0.512896
Si Si8 0.827534 0.186503 0.090219
O O1 0.500562 0.699060 0.314705
O O2 0.174167 0.758357 0.327464
O O3 0.138725 0.126512 0.667278
O O4 0.198976 0.876360 0.587829
O O5 0.047549 0.557010 0.199186
O O6 0.963944 0.580870 0.393443
O O7 0.327145 0.290135 0.104061
O O8 0.080128 0.228963 0.989080
O O9 0.500000 0.500000 0.000000
O O10 0.776987 0.537391 0.040677
O O11 0.819901 0.254282 0.900918
O O12 0.920468 0.064050 0.889063
O O13 0.665483 0.860020 0.733790
O O14 0.638870 0.201251 0.112397
O O15 0.500000 0.000000 0.000000
O O16 0.203138 0.574869 0.684496
O O17 0.000000 0.500000 0.500000
O O18 0.000000 0.000000 0.000000
#
# Coordination Sequence:
#
# PCOD9037725 Si02
#       8
#     2   2   2   2   2   2   2   2
#     4   9  19  37  64  89 125 171 218 264 332 400
#     4  11  25  42  62  98 134 172 225 279 330 408
#     4   9  19  37  62  91 129 164 217 274 322 400
#     4   9  20  37  59  92 127 167 213 275 326 389
#     4  10  23  41  61  94 134 167 222 280 326 399
#     4  12  25  45  68  97 135 177 226 277 335 403
#     4  11  23  47  67  96 139 173 225 286 337 395
#     4  11  24  43  72 100 134 181 224 281 340 397
#
# _framework density 21.780581999999999
#
# number of rings (size 3 to 8) (size 9 to 14) (size 15 to 20)
#    0.000    1.750    2.500    1.500    5.250    5.500 
#    0.000    1.250    0.000    0.000    0.000    0.000 
#    0.000    0.000    0.000    0.000    0.000    0.000 
#
# Total GULP energy -89303.999692 kJ/mol
# GULP energy per Si atom -5581.499981 kJ/mol
# Density = 2.173101 g / cm^3
# Si number density = 21.780582 Si / 1000 Ang^3
#
#
#
# Elastic Constant Matrix: (Units=GPa)
#
#
# Indices 1 2 3 4 5 6 
#
# 1 89.3466 31.8347 40.1003 -0.1093 5.2857 7.1562
# 2 31.8347 106.2209 12.7390 -22.6205 -13.8317 14.4833
# 3 40.1003 12.7390 118.8327 -24.4154 -24.1272 12.1938
# 4 -0.1093 -22.6205 -24.4154 33.9262 7.9852 -6.6346
# 5 5.2857 -13.8317 -24.1272 7.9852 39.1874 -10.0135
# 6 7.1562 14.4833 12.1938 -6.6346 -10.0135 35.8869
#
#
#
# Elastic Compliance Matrix: (Units=1/GPa)
#
#
# Indices 1 2 3 4 5 6 
#
# 1 0.018715 -0.007536 -0.009216 -0.009779 -0.009373 -0.001982
# 2 -0.007536 0.014612 0.004788 0.011260 0.006267 -0.002190
# 3 -0.009216 0.004788 0.015522 0.011913 0.009964 -0.000386
# 4 -0.009779 0.011260 0.011913 0.045103 0.004168 0.002859
# 5 -0.009373 0.006267 0.009964 0.004168 0.036011 0.006773
# 6 -0.001982 -0.002190 -0.000386 0.002859 0.006773 0.031694
#
#
# Mechanical properties :
#
#
# Convention : Reuss Voigt Hill
#
# Bulk Modulus (GPa) = 40.13086 53.74980 46.94033
# Shear Modulus (GPa) = 25.78728 37.11520 31.45124
#
# Velocity S-wave (km/s) = 3.44460 4.13249 3.80413
# Velocity P-wave (km/s) = 5.85538 6.89213 6.39480
#
# Compressibility (1/GPa) = 0.02491848
#
# Stress axis : x y z
#
# Youngs Moduli (GPa) = 53.43179 68.43901 64.42379
#
# Poissons Ratio (x) = 0.51579 0.59376
# Poissons Ratio (y) = 0.40269 -0.30843
# Poissons Ratio (z) = 0.49245 -0.32766
#
# Static dielectric constant tensor:
#      x y z
#    x 1.835640 0.052470 -0.014700 
#    y 0.052470 1.774270 -0.040330 
#    z -0.014700 -0.040330 1.825400 
# 
# From -- ./inp_files/227422.got.cif
#   From: 2010.05.17/outbox.cif.g08.bks.cpg/sg2_114_cif.got.tgz:227422.got - 2010.06.03 11:33:40.
