data_PCOD9037660
_publ_section_title
;
Structure prediction by ZEFSAII (Michael W. Deem and Ramdas Pophale) SiO2 
 PCOD9037660
Probable space group: P -1
;
_chemical_formula_sum "Si O2"
_cell_formula_units_Z 14
_cell_length_a 8.960104
_cell_length_b 9.765339
_cell_length_c 10.118051
_cell_angle_alpha 134.898666
_cell_angle_beta 88.802284
_cell_angle_gamma 97.489928
_cell_volume 618.571834
_symmetry_space_group_name_H-M "P -1"
_symmetry_group_IT_number 2
_symmetry_cell_setting 'triclinic'
loop_
_space_group_symop_operation_xyz
x,y,z
-x,-y,-z
loop_
_atom_site_type_symbol
_atom_site_label
_atom_site_fract_x
_atom_site_fract_y
_atom_site_fract_z
Si Si1 0.941966 0.855056 0.779802
Si Si2 0.900295 0.414105 0.821960
Si Si3 0.418775 0.550251 0.670053
Si Si4 0.737651 0.156355 0.277997
Si Si5 0.280573 0.290792 0.110408
Si Si6 0.153465 0.210145 0.539242
Si Si7 0.674054 0.083719 0.528194
O O1 0.788782 0.735434 0.758650
O O2 0.901256 0.922107 0.679802
O O3 0.086458 0.750666 0.680510
O O4 0.000000 0.000000 0.000000
O O5 0.836065 0.593669 0.879991
O O6 0.750490 0.254674 0.741375
O O7 0.011853 0.304435 0.657432
O O8 0.000000 0.500000 0.000000
O O9 0.500000 0.500000 0.500000
O O10 0.353671 0.745071 0.762061
O O11 0.549782 0.596138 0.807931
O O12 0.285738 0.382969 0.607636
O O13 0.689588 0.175690 0.443513
O O14 0.720602 0.923752 0.095865
O O15 0.224512 0.086132 0.564615
O O16 0.500000 0.000000 0.500000
#
# Coordination Sequence:
#
# PCOD9037660 Si02
#       7
#     2   2   2   2   2   2   2
#     4  10  23  40  71  99 135 171 233 278 349 401
#     4  12  27  45  73 102 139 186 238 282 343 415
#     4  12  24  42  69 104 140 178 230 283 351 412
#     4  11  24  45  69  99 137 184 228 285 347 408
#     4  11  24  44  69 103 139 175 232 290 343 413
#     4  12  25  45  72 101 139 182 230 287 346 410
#     4  12  27  46  71  99 143 184 232 284 348 410
#
# _framework density 22.632781000000001
#
# number of rings (size 3 to 8) (size 9 to 14) (size 15 to 20)
#    0.000    0.571    2.857    5.143    4.000    2.286 
#    0.000    2.857    0.000    0.000    0.000    0.000 
#    0.000    0.000    0.000    0.000    0.000    0.000 
#
# Total GULP energy -78240.853562 kJ/mol
# GULP energy per Si atom -5588.632397 kJ/mol
# Density = 2.258127 g / cm^3
# Si number density = 22.632781 Si / 1000 Ang^3
#
#
#
# Elastic Constant Matrix: (Units=GPa)
#
#
# Indices 1 2 3 4 5 6 
#
# 1 110.3783 22.7683 33.9026 2.3580 20.6141 7.7631
# 2 22.7683 77.6839 26.3812 6.1416 5.5215 -13.4474
# 3 33.9026 26.3812 91.7422 -0.9663 25.5134 4.4243
# 4 2.3580 6.1416 -0.9663 34.2458 -3.8979 5.5805
# 5 20.6141 5.5215 25.5134 -3.8979 33.4130 5.1789
# 6 7.7631 -13.4474 4.4243 5.5805 5.1789 54.9586
#
#
#
# Elastic Compliance Matrix: (Units=1/GPa)
#
#
# Indices 1 2 3 4 5 6 
#
# 1 0.011209 -0.002457 -0.002034 -0.000691 -0.004804 -0.001498
# 2 -0.002457 0.016098 -0.004254 -0.003530 0.000933 0.004899
# 3 -0.002034 -0.004254 0.015651 0.000418 -0.009768 -0.001135
# 4 -0.000691 -0.003530 0.000418 0.031188 0.005017 -0.004439
# 5 -0.004804 0.000933 -0.009768 0.005017 0.041200 -0.002699
# 6 -0.001498 0.004899 -0.001135 -0.004439 -0.002699 0.020402
#
#
# Mechanical properties :
#
#
# Convention : Reuss Voigt Hill
#
# Bulk Modulus (GPa) = 39.26784 49.54540 44.40662
# Shear Modulus (GPa) = 30.91599 37.64032 34.27815
#
# Velocity S-wave (km/s) = 3.69993 4.08252 3.89593
# Velocity P-wave (km/s) = 5.96995 6.64539 6.31670
#
# Compressibility (1/GPa) = 0.02546613
#
# Stress axis : x y z
#
# Youngs Moduli (GPa) = 89.21479 62.11793 63.89481
#
# Poissons Ratio (x) = 0.15265 0.12999
# Poissons Ratio (y) = 0.21924 0.27181
# Poissons Ratio (z) = 0.18151 0.26425
#
# Static dielectric constant tensor:
#      x y z
#    x 1.858010 -0.005010 0.027860 
#    y -0.005010 1.857060 0.018460 
#    z 0.027860 0.018460 1.901580 
# 
# From -- ./inp_files/160186.got.cif
#   From: 2010.05.17/outbox.cif.g08.bks.cpg/sg2_81_cif.got.tgz:160186.got - 2010.06.03 11:33:40.
