data_PCOD9037922
_publ_section_title
;
Structure prediction by ZEFSAII (Michael W. Deem and Ramdas Pophale) SiO2 
 PCOD9037922
Probable space group: P -1
;
_chemical_formula_sum "Si O2"
_cell_formula_units_Z 16
_cell_length_a 5.680165
_cell_length_b 11.542483
_cell_length_c 12.118395
_cell_angle_alpha 67.511689
_cell_angle_beta 95.368523
_cell_angle_gamma 113.087134
_cell_volume 673.819110
_symmetry_space_group_name_H-M "P -1"
_symmetry_group_IT_number 2
_symmetry_cell_setting 'triclinic'
loop_
_space_group_symop_operation_xyz
x,y,z
-x,-y,-z
loop_
_atom_site_type_symbol
_atom_site_label
_atom_site_fract_x
_atom_site_fract_y
_atom_site_fract_z
Si Si1 0.980231 0.017884 0.316176
Si Si2 0.529727 0.410941 0.933491
Si Si3 0.494270 0.190407 0.720735
Si Si4 0.721953 0.337431 0.470534
Si Si5 0.106532 0.219059 0.434750
Si Si6 0.098946 0.110117 0.061380
Si Si7 0.801489 0.258873 0.917540
Si Si8 0.252171 0.392496 0.714685
O O1 0.683830 0.948784 0.292213
O O2 0.016797 0.910133 0.440525
O O3 0.050078 0.158058 0.331957
O O4 0.131920 0.040125 0.200149
O O5 0.789453 0.388308 0.932715
O O6 0.470666 0.460988 0.793585
O O7 0.500000 0.500000 0.000000
O O8 0.339936 0.251460 0.000806
O O9 0.714970 0.273689 0.614443
O O10 0.570013 0.177211 0.854351
O O11 0.328751 0.284628 0.691089
O O12 0.416626 0.272481 0.445166
O O13 0.778983 0.496217 0.406082
O O14 0.940662 0.309534 0.420411
O O15 0.870033 0.164749 0.039144
O O16 0.000000 0.000000 0.000000
O O17 0.018961 0.317062 0.813038
#
# Coordination Sequence:
#
# PCOD9037922 Si02
#       8
#     2   2   2   2   2   2   2   2
#     4  10  23  45  67  94 143 172 237 282 350 409
#     4  10  24  42  64  97 133 176 228 290 348 416
#     4  10  23  41  65  98 133 179 219 292 338 414
#     4  11  25  42  72 100 140 178 236 276 355 409
#     4  10  26  46  66 107 133 186 226 294 341 414
#     4  11  24  42  68 101 134 183 236 283 354 417
#     4  10  23  42  64  97 137 175 233 284 350 416
#     4  10  23  41  64  97 133 174 226 279 346 417
#
# _framework density 23.745248
#
# number of rings (size 3 to 8) (size 9 to 14) (size 15 to 20)
#    0.000    1.750    0.000    2.625   10.500   10.000 
#    2.250    0.000    0.000    0.000    0.000    0.000 
#    0.000    0.000    0.000    0.000    0.000    0.000 
#
# Total GULP energy -89293.572300 kJ/mol
# GULP energy per Si atom -5580.848269 kJ/mol
# Density = 2.369120 g / cm^3
# Si number density = 23.745248 Si / 1000 Ang^3
#
#
#
# Elastic Constant Matrix: (Units=GPa)
#
#
# Indices 1 2 3 4 5 6 
#
# 1 73.1673 25.3255 -16.4925 16.5220 3.7847 -10.8630
# 2 25.3255 74.7331 7.1800 26.9400 -8.3121 4.7223
# 3 -16.4925 7.1800 68.7436 10.6691 -1.0000 9.2673
# 4 16.5220 26.9400 10.6691 45.7458 -5.7919 -9.8038
# 5 3.7847 -8.3121 -1.0000 -5.7919 27.5265 -3.9706
# 6 -10.8630 4.7223 9.2673 -9.8038 -3.9706 26.6274
#
#
#
# Elastic Compliance Matrix: (Units=1/GPa)
#
#
# Indices 1 2 3 4 5 6 
#
# 1 0.018790 -0.006314 0.005002 -0.003710 -0.004364 0.005028
# 2 -0.006314 0.020686 -0.000528 -0.011463 0.003271 -0.009794
# 3 0.005002 -0.000528 0.017930 -0.007610 -0.002855 -0.007334
# 4 -0.003710 -0.011463 -0.007610 0.036380 0.006966 0.017601
# 5 -0.004364 0.003271 -0.002855 0.006966 0.040318 0.007210
# 6 0.005028 -0.009794 -0.007334 0.017601 0.007210 0.051452
#
#
# Mechanical properties :
#
#
# Convention : Reuss Voigt Hill
#
# Bulk Modulus (GPa) = 18.61304 27.63000 23.12152
# Shear Modulus (GPa) = 24.13757 33.35536 28.74647
#
# Velocity S-wave (km/s) = 3.19175 3.75202 3.48317
# Velocity P-wave (km/s) = 4.63020 5.51648 5.09265
#
# Compressibility (1/GPa) = 0.05372577
#
# Stress axis : x y z
#
# Youngs Moduli (GPa) = 53.21938 48.34098 55.77154
#
# Poissons Ratio (x) = 0.30522 -0.27896
# Poissons Ratio (y) = 0.33603 0.02947
# Poissons Ratio (z) = -0.26620 0.02555
#
# Static dielectric constant tensor:
#      x y z
#    x 2.138240 0.088860 0.012700 
#    y 0.088860 1.898930 -0.012350 
#    z 0.012700 -0.012350 1.901220 
# 
# From -- ./inp_files/364072.got.cif
#   From: 2010.05.17/outbox.cif.g08.bks.cpg/sg2_183_cif.got.tgz:364072.got - 2010.06.03 11:33:40.
