data_PCOD9037082
_publ_section_title
;
Structure prediction by ZEFSAII (Michael W. Deem and Ramdas Pophale) SiO2 
 PCOD9037082
Probable space group: P -1
;
_chemical_formula_sum "Si O2"
_cell_formula_units_Z 16
_cell_length_a 5.467100
_cell_length_b 15.096666
_cell_length_c 8.593745
_cell_angle_alpha 74.617008
_cell_angle_beta 55.592482
_cell_angle_gamma 83.351802
_cell_volume 563.703489
_symmetry_space_group_name_H-M "P -1"
_symmetry_group_IT_number 2
_symmetry_cell_setting 'triclinic'
loop_
_space_group_symop_operation_xyz
x,y,z
-x,-y,-z
loop_
_atom_site_type_symbol
_atom_site_label
_atom_site_fract_x
_atom_site_fract_y
_atom_site_fract_z
Si Si1 0.394161 0.937971 0.415748
Si Si2 0.733406 0.598669 0.415663
Si Si3 0.983721 0.108275 0.827260
Si Si4 0.885344 0.949208 0.731627
Si Si5 0.657666 0.242299 0.097462
Si Si6 0.904469 0.425045 0.285100
Si Si7 0.070291 0.248987 0.496524
Si Si8 0.251808 0.348735 0.954281
O O1 0.661334 0.873718 0.304403
O O2 0.426431 0.015297 0.224062
O O3 0.500000 0.000000 0.500000
O O4 0.121096 0.874786 0.638009
O O5 0.933240 0.511894 0.350624
O O6 0.443130 0.574137 0.634302
O O7 0.885412 0.687242 0.396574
O O8 0.621687 0.624677 0.271328
O O9 0.897035 0.157915 0.668490
O O10 0.941291 0.001008 0.846914
O O11 0.821127 0.159665 0.995730
O O12 0.000000 0.000000 0.500000
O O13 0.479207 0.289852 0.997182
O O14 0.926368 0.302294 0.049941
O O15 0.382485 0.220286 0.322738
O O16 0.942995 0.324115 0.391556
O O17 0.157656 0.431064 0.061473
#
# Coordination Sequence:
#
# PCOD9037082 Si02
#       8
#     2   2   2   2   2   2   2   2
#     4   7  14  30  53  86 112 143 195 239 284 350
#     4  11  21  39  64  83 111 167 205 253 305 361
#     4  11  19  34  64  84 117 164 194 238 306 358
#     4   7  16  31  54  89 112 147 199 241 284 353
#     4  11  25  40  59  90 129 156 199 256 301 358
#     4  10  23  40  58  85 122 155 204 260 305 350
#     4  11  23  39  56  89 124 154 204 251 300 364
#     4  11  23  43  59  88 120 160 207 255 301 363
#
# _framework density 28.383717999999998
#
# number of rings (size 3 to 8) (size 9 to 14) (size 15 to 20)
#    0.750    1.250    2.500    1.500    1.750    1.000 
#    0.000    1.875    0.000    7.500    0.000    0.000 
#    0.000    0.000    0.000    0.000    0.000    0.000 
#
# Total GULP energy -89070.964157 kJ/mol
# GULP energy per Si atom -5566.935260 kJ/mol
# Density = 2.831912 g / cm^3
# Si number density = 28.383718 Si / 1000 Ang^3
#
#
#
# Elastic Constant Matrix: (Units=GPa)
#
#
# Indices 1 2 3 4 5 6 
#
# 1 116.6796 30.1313 21.4530 11.7079 -1.7435 -22.9321
# 2 30.1313 130.3496 46.0591 37.8931 -14.2457 -13.1252
# 3 21.4530 46.0591 150.0608 58.8327 -20.4787 -2.5441
# 4 11.7079 37.8931 58.8327 62.1932 -4.6966 -4.9135
# 5 -1.7435 -14.2457 -20.4787 -4.6966 42.9473 6.3522
# 6 -22.9321 -13.1252 -2.5441 -4.9135 6.3522 31.7245
#
#
#
# Elastic Compliance Matrix: (Units=1/GPa)
#
#
# Indices 1 2 3 4 5 6 
#
# 1 0.010596 -0.001630 -0.001459 0.000823 -0.001804 0.007357
# 2 -0.001630 0.010127 -0.000580 -0.005010 0.002210 0.001747
# 3 -0.001459 -0.000580 0.011663 -0.010284 0.004610 -0.002875
# 4 0.000823 -0.005010 -0.010284 0.028644 -0.003829 0.002901
# 5 -0.001804 0.002210 0.004610 -0.003829 0.026602 -0.005939
# 6 0.007357 0.001747 -0.002875 0.002901 -0.005939 0.038970
#
#
# Mechanical properties :
#
#
# Convention : Reuss Voigt Hill
#
# Bulk Modulus (GPa) = 39.92171 65.81964 52.87067
# Shear Modulus (GPa) = 35.13979 47.33610 41.23795
#
# Velocity S-wave (km/s) = 3.52238 4.08820 3.81579
# Velocity P-wave (km/s) = 5.53520 6.74716 6.17100
#
# Compressibility (1/GPa) = 0.02504903
#
# Stress axis : x y z
#
# Youngs Moduli (GPa) = 94.37653 98.74433 85.74336
#
# Poissons Ratio (x) = 0.16091 0.12509
# Poissons Ratio (y) = 0.15379 0.04973
# Poissons Ratio (z) = 0.13768 0.05727
#
# Static dielectric constant tensor:
#      x y z
#    x 1.878300 0.314830 0.332520 
#    y 0.314830 2.180270 -0.336780 
#    z 0.332520 -0.336780 2.087580 
# 
# From -- ./inp_files/140634.got.cif
#   From: 2010.05.17/outbox.cif.g08.bks.cpg/sg2_71_cif.got.tgz:140634.got - 2010.06.03 11:33:40.
