data_PCOD9037587
_publ_section_title
;
Structure prediction by ZEFSAII (Michael W. Deem and Ramdas Pophale) SiO2 
 PCOD9037587
Probable space group: P -1
;
_chemical_formula_sum "Si O2"
_cell_formula_units_Z 16
_cell_length_a 23.354357
_cell_length_b 9.227874
_cell_length_c 11.216414
_cell_angle_alpha 48.609789
_cell_angle_beta 28.759390
_cell_angle_gamma 37.483230
_cell_volume 702.813055
_symmetry_space_group_name_H-M "P -1"
_symmetry_group_IT_number 2
_symmetry_cell_setting 'triclinic'
loop_
_space_group_symop_operation_xyz
x,y,z
-x,-y,-z
loop_
_atom_site_type_symbol
_atom_site_label
_atom_site_fract_x
_atom_site_fract_y
_atom_site_fract_z
Si Si1 0.977607 0.014747 0.221498
Si Si2 0.638969 0.596445 0.287275
Si Si3 0.232826 0.910459 0.632338
Si Si4 0.232808 0.597873 0.095942
Si Si5 0.666940 0.066423 0.214531
Si Si6 0.500197 0.716324 0.833382
Si Si7 0.796019 0.546237 0.254899
Si Si8 0.614917 0.835033 0.778053
O O1 0.918742 0.281828 0.222878
O O2 0.107699 0.947541 0.928277
O O3 0.843426 0.036786 0.386381
O O4 0.058067 0.792376 0.285488
O O5 0.685130 0.569019 0.080245
O O6 0.485072 0.828460 0.491574
O O7 0.773201 0.541831 0.156362
O O8 0.634094 0.370347 0.446596
O O9 0.289473 0.066390 0.477155
O O10 0.283755 0.769498 0.926950
O O11 0.277131 0.430799 0.219708
O O12 0.628690 0.112227 0.118441
O O13 0.784801 0.783003 0.175367
O O14 0.646509 0.602876 0.550327
O O15 0.521023 0.835855 0.842099
O O16 0.500000 0.500000 0.000000
O O17 0.500000 0.000000 0.000000
#
# Coordination Sequence:
#
# PCOD9037587 Si02
#       8
#     2   2   2   2   2   2   2   2
#     4   9  21  44  67  90 127 172 219 266 302 374
#     4   9  19  38  64  92 123 164 212 274 309 366
#     4   9  20  42  67  93 127 168 219 263 314 372
#     4  11  23  39  64  95 129 169 215 259 315 381
#     4  11  22  40  63  96 129 164 219 264 327 371
#     4  11  24  44  60  93 138 169 204 269 332 385
#     4  10  23  40  69  91 124 174 215 262 321 373
#     4  12  27  40  66  99 130 169 212 263 331 385
#
# _framework density 22.765654999999999
#
# number of rings (size 3 to 8) (size 9 to 14) (size 15 to 20)
#    0.000    1.750    1.250    3.375   10.500    1.000 
#    0.000    1.875    0.000    0.000    0.000    0.000 
#    0.000    0.000    0.000    0.000    0.000    0.000 
#
# Total GULP energy -89416.272386 kJ/mol
# GULP energy per Si atom -5588.517024 kJ/mol
# Density = 2.271384 g / cm^3
# Si number density = 22.765655 Si / 1000 Ang^3
#
#
#
# Elastic Constant Matrix: (Units=GPa)
#
#
# Indices 1 2 3 4 5 6 
#
# 1 126.8861 35.2635 15.5357 -2.2642 1.3424 5.6978
# 2 35.2635 138.4594 1.2169 -2.9047 1.0024 3.4646
# 3 15.5357 1.2169 18.9549 -13.4776 -5.9611 14.0183
# 4 -2.2642 -2.9047 -13.4776 35.9499 2.8585 -4.3297
# 5 1.3424 1.0024 -5.9611 2.8585 23.6497 -0.7017
# 6 5.6978 3.4646 14.0183 -4.3297 -0.7017 38.3897
#
#
#
# Elastic Compliance Matrix: (Units=1/GPa)
#
#
# Indices 1 2 3 4 5 6 
#
# 1 0.010311 -0.002655 -0.015566 -0.004647 -0.003722 0.003801
# 2 -0.002655 0.007938 0.004527 0.001907 0.000673 -0.001748
# 3 -0.015566 0.004527 0.136246 0.043077 0.028567 -0.042469
# 4 -0.004647 0.001907 0.043077 0.042131 0.005641 -0.010358
# 5 -0.003722 0.000673 0.028567 0.005641 0.048736 -0.008413
# 6 0.003801 -0.001748 -0.042469 -0.010358 -0.008413 0.039828
#
#
# Mechanical properties :
#
#
# Convention : Reuss Voigt Hill
#
# Bulk Modulus (GPa) = 7.86750 43.14807 25.50779
# Shear Modulus (GPa) = 14.08664 35.08349 24.58506
#
# Velocity S-wave (km/s) = 2.49020 3.92991 3.28978
# Velocity P-wave (km/s) = 3.42513 6.29178 5.06547
#
# Compressibility (1/GPa) = 0.12710520
#
# Stress axis : x y z
#
# Youngs Moduli (GPa) = 96.98821 125.98329 7.33967
#
# Poissons Ratio (x) = 0.33446 0.11425
# Poissons Ratio (y) = 0.25748 -0.03322
# Poissons Ratio (z) = 1.50973 -0.57027
#
# Static dielectric constant tensor:
#      x y z
#    x 1.979610 -0.021110 0.004370 
#    y -0.021110 1.901190 0.007670 
#    z 0.004370 0.007670 1.816140 
# 
# From -- ./inp_files/474109.got.cif
#   From: 2010.05.17/outbox.cif.g08.bks.cpg/sg2_238_cif.got.tgz:474109.got - 2010.06.03 11:33:40.
