data_PCOD9037392
_publ_section_title
;
Structure prediction by ZEFSAII (Michael W. Deem and Ramdas Pophale) SiO2 
 PCOD9037392
Probable space group: P -1
;
_chemical_formula_sum "Si O2"
_cell_formula_units_Z 14
_cell_length_a 8.803217
_cell_length_b 15.018499
_cell_length_c 8.803130
_cell_angle_alpha 76.355304
_cell_angle_beta 112.529905
_cell_angle_gamma 52.969501
_cell_volume 664.498824
_symmetry_space_group_name_H-M "P -1"
_symmetry_group_IT_number 2
_symmetry_cell_setting 'triclinic'
loop_
_space_group_symop_operation_xyz
x,y,z
-x,-y,-z
loop_
_atom_site_type_symbol
_atom_site_label
_atom_site_fract_x
_atom_site_fract_y
_atom_site_fract_z
Si Si1 0.934424 0.941707 0.103596
Si Si2 0.516582 0.486997 0.188741
Si Si3 0.822002 0.171425 0.433454
Si Si4 0.453257 0.093979 0.678337
Si Si5 0.028501 0.596635 0.484140
Si Si6 0.323347 0.959261 0.547465
Si Si7 0.205360 0.636121 0.269714
O O1 0.001051 0.927802 0.311202
O O2 0.109124 0.780266 0.189556
O O3 0.645387 0.036185 0.911961
O O4 0.000000 0.000000 0.000000
O O5 0.670751 0.328072 0.349771
O O6 0.241975 0.599712 0.121477
O O7 0.690226 0.497871 0.304274
O O8 0.500000 0.500000 0.000000
O O9 0.640010 0.162067 0.341250
O O10 0.013726 0.105253 0.392565
O O11 0.185160 0.259894 0.551389
O O12 0.572059 0.076492 0.569423
O O13 0.431232 0.994356 0.680365
O O14 0.000000 0.500000 0.500000
O O15 0.030529 0.644234 0.299887
O O16 0.500000 0.500000 0.500000
#
# Coordination Sequence:
#
# PCOD9037392 Si02
#       7
#     2   2   2   2   2   2   2
#     4  12  24  40  74 103 132 181 237 279 346 414
#     4  11  25  45  71  94 135 185 235 276 335 421
#     4  11  22  45  63 100 134 176 230 276 339 413
#     4  11  24  42  67 102 140 171 225 285 345 397
#     4  11  25  46  69  99 141 180 229 287 345 399
#     4  10  23  40  66  93 142 172 208 288 344 392
#     4  10  23  44  68  95 139 182 227 279 337 407
#
# _framework density 21.068508999999999
#
# number of rings (size 3 to 8) (size 9 to 14) (size 15 to 20)
#    0.000    1.143    5.714    0.000    8.000    2.286 
#    2.571    0.714    0.000    0.000    0.000    0.000 
#    0.000    0.000    0.000    0.000    0.000    0.000 
#
# Total GULP energy -78131.251127 kJ/mol
# GULP energy per Si atom -5580.803652 kJ/mol
# Density = 2.102056 g / cm^3
# Si number density = 21.068509 Si / 1000 Ang^3
#
#
#
# Elastic Constant Matrix: (Units=GPa)
#
#
# Indices 1 2 3 4 5 6 
#
# 1 155.6438 70.7179 29.9282 10.8213 -16.4944 12.3939
# 2 70.7179 126.8951 13.1489 13.7381 -17.3044 -8.0625
# 3 29.9282 13.1489 54.3089 14.5799 -11.7436 2.5938
# 4 10.8213 13.7381 14.5799 32.3400 -0.4801 -5.6964
# 5 -16.4944 -17.3044 -11.7436 -0.4801 29.1442 8.7791
# 6 12.3939 -8.0625 2.5938 -5.6964 8.7791 56.2625
#
#
#
# Elastic Compliance Matrix: (Units=1/GPa)
#
#
# Indices 1 2 3 4 5 6 
#
# 1 0.009874 -0.005036 -0.003620 -0.000040 0.002059 -0.003055
# 2 -0.005036 0.011577 0.001786 -0.003683 0.004182 0.001661
# 3 -0.003620 0.001786 0.025268 -0.011285 0.009848 -0.002791
# 4 -0.000040 -0.003683 -0.011285 0.038368 -0.007655 0.005080
# 5 0.002059 0.004182 0.009848 -0.007655 0.044207 -0.007981
# 6 -0.003055 0.001661 -0.002791 0.005080 -0.007981 0.020573
#
#
# Mechanical properties :
#
#
# Convention : Reuss Voigt Hill
#
# Bulk Modulus (GPa) = 30.32279 62.71533 46.51906
# Shear Modulus (GPa) = 28.63705 38.41954 33.52829
#
# Velocity S-wave (km/s) = 3.69078 4.27494 3.99356
# Velocity P-wave (km/s) = 5.70843 7.36198 6.58730
#
# Compressibility (1/GPa) = 0.03297850
#
# Stress axis : x y z
#
# Youngs Moduli (GPa) = 101.28082 86.37971 39.57600
#
# Poissons Ratio (x) = 0.43504 0.14326
# Poissons Ratio (y) = 0.51009 -0.07070
# Poissons Ratio (z) = 0.36662 -0.15431
#
# Static dielectric constant tensor:
#      x y z
#    x 1.743920 -0.069210 0.018700 
#    y -0.069210 1.738460 0.062310 
#    z 0.018700 0.062310 1.792560 
# 
# From -- ./inp_files/199023.got.cif
#   From: 2010.05.17/outbox.cif.g08.bks.cpg/sg2_100_cif.got.tgz:199023.got - 2010.06.03 11:33:40.
