data_PCOD9037275
_publ_section_title
;
Structure prediction by ZEFSAII (Michael W. Deem and Ramdas Pophale) SiO2 
 PCOD9037275
Probable space group: P -1
;
_chemical_formula_sum "Si O2"
_cell_formula_units_Z 14
_cell_length_a 5.278078
_cell_length_b 14.792669
_cell_length_c 16.411969
_cell_angle_alpha 26.582563
_cell_angle_beta 93.062148
_cell_angle_gamma 83.116160
_cell_volume 530.772396
_symmetry_space_group_name_H-M "P -1"
_symmetry_group_IT_number 2
_symmetry_cell_setting 'triclinic'
loop_
_space_group_symop_operation_xyz
x,y,z
-x,-y,-z
loop_
_atom_site_type_symbol
_atom_site_label
_atom_site_fract_x
_atom_site_fract_y
_atom_site_fract_z
Si Si1 0.258059 0.898497 0.002922
Si Si2 0.140425 0.512006 0.355739
Si Si3 0.518258 0.865751 0.456588
Si Si4 0.325434 0.326400 0.676243
Si Si5 0.188334 0.638308 0.907108
Si Si6 0.485938 0.276294 0.022819
Si Si7 0.070923 0.773347 0.626930
O O1 0.078715 0.748303 0.124009
O O2 0.404077 0.827970 0.150067
O O3 0.444165 0.810389 0.997501
O O4 0.170530 0.157329 0.789599
O O5 0.316853 0.329151 0.444368
O O6 0.321518 0.445365 0.495709
O O7 0.852641 0.517285 0.381123
O O8 0.253807 0.845366 0.508442
O O9 0.753029 0.837959 0.549390
O O10 0.437287 0.093962 0.224500
O O11 0.241093 0.704678 0.945447
O O12 0.101356 0.812701 0.691973
O O13 0.500000 0.500000 0.000000
O O14 0.000000 0.500000 0.000000
O O15 0.234179 0.507055 0.834698
#
# Coordination Sequence:
#
# PCOD9037275 Si02
#       7
#     2   2   2   2   2   2   2
#     4  11  21  42  64  94 131 182 222 295 346 413
#     4  11  22  40  63  94 135 176 232 288 345 417
#     4  12  26  44  73 109 140 191 239 288 356 426
#     4  10  23  40  64  95 130 178 236 278 359 408
#     4  10  23  44  75 105 141 188 235 289 356 422
#     4  11  24  45  70 106 144 185 242 292 354 427
#     4  11  25  47  71 102 148 187 230 298 355 413
#
# _framework density 26.376653999999998
#
# number of rings (size 3 to 8) (size 9 to 14) (size 15 to 20)
#    0.000    1.143    2.857    3.429    0.000    4.571 
#    2.571    0.000    0.000    0.000    0.000    0.000 
#    0.000    0.000    0.000    0.000    0.000    0.000 
#
# Total GULP energy -78285.304036 kJ/mol
# GULP energy per Si atom -5591.807431 kJ/mol
# Density = 2.631662 g / cm^3
# Si number density = 26.376654 Si / 1000 Ang^3
#
#
#
# Elastic Constant Matrix: (Units=GPa)
#
#
# Indices 1 2 3 4 5 6 
#
# 1 57.5747 -4.9787 18.3791 -9.6329 -5.9094 2.7265
# 2 -4.9787 111.1872 0.9664 -7.5255 1.6973 -13.6095
# 3 18.3791 0.9664 139.9690 11.6528 -20.2589 6.1899
# 4 -9.6329 -7.5255 11.6528 37.9393 3.6625 10.3246
# 5 -5.9094 1.6973 -20.2589 3.6625 43.4172 1.9801
# 6 2.7265 -13.6095 6.1899 10.3246 1.9801 36.8811
#
#
#
# Elastic Compliance Matrix: (Units=1/GPa)
#
#
# Indices 1 2 3 4 5 6 
#
# 1 0.019720 0.001044 -0.002925 0.006714 0.000826 -0.002506
# 2 0.001044 0.009549 -0.000585 0.001556 -0.000779 0.003151
# 3 -0.002925 -0.000585 0.008427 -0.003660 0.003893 -0.000598
# 4 0.006714 0.001556 -0.003660 0.032006 -0.003185 -0.008097
# 5 0.000826 -0.000779 0.003893 -0.003185 0.025327 -0.001470
# 6 -0.002506 0.003151 -0.000598 -0.008097 -0.001470 0.030908
#
#
# Mechanical properties :
#
#
# Convention : Reuss Voigt Hill
#
# Bulk Modulus (GPa) = 30.52230 37.49604 34.00917
# Shear Modulus (GPa) = 35.26325 43.27179 39.26752
#
# Velocity S-wave (km/s) = 3.66035 4.05474 3.86258
# Velocity P-wave (km/s) = 5.42780 6.01396 5.72838
#
# Compressibility (1/GPa) = 0.03276293
#
# Stress axis : x y z
#
# Youngs Moduli (GPa) = 50.71088 104.72832 118.66343
#
# Poissons Ratio (x) = -0.10929 0.34711
# Poissons Ratio (y) = -0.05292 0.06937
# Poissons Ratio (z) = 0.14834 0.06122
#
# Static dielectric constant tensor:
#      x y z
#    x 2.128270 0.126670 -0.056350 
#    y 0.126670 2.101420 -0.059070 
#    z -0.056350 -0.059070 2.132610 
# 
# From -- ./inp_files/55486.got.cif
#   From: 2010.05.17/outbox.cif.g08.bks.cpg/sg2_28_cif.got.tgz:55486.got - 2010.06.03 11:33:40.
