data_PCOD9037418
_publ_section_title
;
Structure prediction by ZEFSAII (Michael W. Deem and Ramdas Pophale) SiO2 
 PCOD9037418
Probable space group: P -1
;
_chemical_formula_sum "Si O2"
_cell_formula_units_Z 16
_cell_length_a 22.625534
_cell_length_b 12.189993
_cell_length_c 12.082516
_cell_angle_alpha 143.082584
_cell_angle_beta 30.477887
_cell_angle_gamma 157.032047
_cell_volume 659.249077
_symmetry_space_group_name_H-M "P -1"
_symmetry_group_IT_number 2
_symmetry_cell_setting 'triclinic'
loop_
_space_group_symop_operation_xyz
x,y,z
-x,-y,-z
loop_
_atom_site_type_symbol
_atom_site_label
_atom_site_fract_x
_atom_site_fract_y
_atom_site_fract_z
Si Si1 0.727161 0.800851 0.744741
Si Si2 0.605242 0.399020 0.937152
Si Si3 0.373761 0.594405 0.836040
Si Si4 0.537766 0.848010 0.365808
Si Si5 0.000316 0.219795 0.202625
Si Si6 0.132549 0.981130 0.080441
Si Si7 0.346962 0.961474 0.429824
Si Si8 0.843940 0.865165 0.361790
O O1 0.605126 0.475316 0.703378
O O2 0.876719 0.007192 0.763155
O O3 0.795074 0.869992 0.566275
O O4 0.585516 0.798469 0.972975
O O5 0.740837 0.705231 0.914898
O O6 0.674642 0.278993 0.712830
O O7 0.584247 0.419858 0.118828
O O8 0.541954 0.884315 0.738596
O O9 0.309836 0.364516 0.665114
O O10 0.196532 0.508698 0.076206
O O11 0.531819 0.832093 0.495858
O O12 0.500000 0.000000 0.500000
O O13 0.744756 0.046279 0.163767
O O14 0.836597 0.141967 0.357677
O O15 0.963305 0.160924 0.345971
O O16 0.000000 0.000000 0.000000
O O17 0.951571 0.803699 0.162922
#
# Coordination Sequence:
#
# PCOD9037418 Si02
#       8
#     2   2   2   2   2   2   2   2
#     4  11  23  41  68  96 128 174 229 269 331 397
#     4  11  24  42  66  98 133 175 216 278 332 391
#     4  11  23  42  67 101 138 167 228 269 336 393
#     4  11  22  41  68  93 127 171 227 272 328 398
#     4  10  23  40  66  98 133 172 215 272 330 390
#     4  11  23  44  66  95 133 174 222 277 331 393
#     4  12  24  42  67 100 137 176 221 270 336 399
#     4  11  22  41  67  97 130 178 217 274 335 395
#
# _framework density 24.270036999999999
#
# number of rings (size 3 to 8) (size 9 to 14) (size 15 to 20)
#    0.000    1.000    2.500    6.000    5.250    3.000 
#    2.250    0.625    0.000    0.000    0.000    0.000 
#    0.000    0.000    0.000    0.000    0.000    0.000 
#
# Total GULP energy -89464.872238 kJ/mol
# GULP energy per Si atom -5591.554515 kJ/mol
# Density = 2.421480 g / cm^3
# Si number density = 24.270037 Si / 1000 Ang^3
#
#
#
# Elastic Constant Matrix: (Units=GPa)
#
#
# Indices 1 2 3 4 5 6 
#
# 1 142.3668 7.9987 41.6357 3.1362 3.6404 10.6211
# 2 7.9987 35.6443 20.5296 -1.9212 -8.3118 3.7970
# 3 41.6357 20.5296 116.6517 -5.4390 -25.5251 -20.0561
# 4 3.1362 -1.9212 -5.4390 32.0790 -6.0375 5.4815
# 5 3.6404 -8.3118 -25.5251 -6.0375 61.4840 -2.5162
# 6 10.6211 3.7970 -20.0561 5.4815 -2.5162 33.9583
#
#
#
# Elastic Compliance Matrix: (Units=1/GPa)
#
#
# Indices 1 2 3 4 5 6 
#
# 1 0.008999 0.000780 -0.005053 -0.001225 -0.002887 -0.005903
# 2 0.000780 0.033388 -0.007209 0.002414 0.001363 -0.008524
# 3 -0.005053 -0.007209 0.015061 0.001831 0.006225 0.011447
# 4 -0.001225 0.002414 0.001831 0.033208 0.004262 -0.003850
# 5 -0.002887 0.001363 0.006225 0.004262 0.019836 0.005209
# 6 -0.005903 -0.008524 0.011447 -0.003850 0.005209 0.040015
#
#
# Mechanical properties :
#
#
# Convention : Reuss Voigt Hill
#
# Bulk Modulus (GPa) = 28.99905 48.33229 38.66567
# Shear Modulus (GPa) = 27.03217 40.47087 33.75152
#
# Velocity S-wave (km/s) = 3.34100 4.08796 3.73321
# Velocity P-wave (km/s) = 5.18242 6.49920 5.87780
#
# Compressibility (1/GPa) = 0.03448389
#
# Stress axis : x y z
#
# Youngs Moduli (GPa) = 111.12139 29.95093 66.39879
#
# Poissons Ratio (x) = -0.02337 0.33551
# Poissons Ratio (y) = -0.08672 0.47869
# Poissons Ratio (z) = 0.56149 0.21593
#
# Static dielectric constant tensor:
#      x y z
#    x 1.939080 0.040460 0.026550 
#    y 0.040460 1.980370 -0.025740 
#    z 0.026550 -0.025740 2.026650 
# 
# From -- ./inp_files/471235.got.cif
#   From: 2010.05.17/outbox.cif.g08.bks.cpg/sg2_236_cif.got.tgz:471235.got - 2010.06.03 11:33:40.
