data_PCOD9037121
_publ_section_title
;
Structure prediction by ZEFSAII (Michael W. Deem and Ramdas Pophale) SiO2 
 PCOD9037121
Probable space group: P -1
;
_chemical_formula_sum "Si O2"
_cell_formula_units_Z 16
_cell_length_a 5.293327
_cell_length_b 22.712102
_cell_length_c 6.465411
_cell_angle_alpha 95.896017
_cell_angle_beta 71.502207
_cell_angle_gamma 76.579107
_cell_volume 703.773757
_symmetry_space_group_name_H-M "P -1"
_symmetry_group_IT_number 2
_symmetry_cell_setting 'triclinic'
loop_
_space_group_symop_operation_xyz
x,y,z
-x,-y,-z
loop_
_atom_site_type_symbol
_atom_site_label
_atom_site_fract_x
_atom_site_fract_y
_atom_site_fract_z
Si Si1 0.376822 0.074071 0.042255
Si Si2 0.440168 0.700347 0.995070
Si Si3 0.829151 0.061398 0.183479
Si Si4 0.401830 0.115610 0.596083
Si Si5 0.041690 0.708039 0.715215
Si Si6 0.602695 0.398000 0.710565
Si Si7 0.836354 0.192460 0.569773
Si Si8 0.022756 0.473633 0.734089
O O1 0.344280 0.095924 0.828402
O O2 0.606215 0.101597 0.096010
O O3 0.067900 0.088576 0.213733
O O4 0.500000 0.000000 0.000000
O O5 0.221669 0.697503 0.873183
O O6 0.724696 0.709674 0.837029
O O7 0.504310 0.638372 0.092671
O O8 0.295556 0.756539 0.203546
O O9 0.613260 0.055679 0.411908
O O10 0.000000 0.000000 0.000000
O O11 0.590010 0.162645 0.565835
O O12 0.108759 0.146274 0.581752
O O13 0.181964 0.652988 0.502132
O O14 0.070625 0.770856 0.627966
O O15 0.341017 0.432186 0.650502
O O16 0.777309 0.440807 0.777110
O O17 0.000000 0.500000 0.500000
O O18 0.000000 0.500000 0.000000
#
# Coordination Sequence:
#
# PCOD9037121 Si02
#       8
#     2   2   2   2   2   2   2   2
#     4  10  23  40  61  89 119 164 216 254 326 400
#     4  11  24  44  73  98 137 181 228 298 348 444
#     4  10  23  40  61  89 119 164 216 254 326 400
#     4  12  24  41  65  90 135 166 210 290 334 414
#     4  11  24  44  73  98 137 181 228 298 348 444
#     4  11  26  46  72 106 143 194 254 286 381 418
#     4  11  26  42  63 104 128 168 225 272 366 418
#     4  12  28  47  74 110 160 204 259 320 367 438
#
# _framework density 22.734577000000002
#
# number of rings (size 3 to 8) (size 9 to 14) (size 15 to 20)
#    0.000    1.000    0.000    5.250    5.250   14.000 
#    0.000    0.000    0.000    0.000    0.000    0.000 
#    0.000    0.000    0.000    0.000    0.000    0.000 
#
# Total GULP energy -89230.879407 kJ/mol
# GULP energy per Si atom -5576.929963 kJ/mol
# Density = 2.268283 g / cm^3
# Si number density = 22.734577 Si / 1000 Ang^3
#
#
#
# Elastic Constant Matrix: (Units=GPa)
#
#
# Indices 1 2 3 4 5 6 
#
# 1 148.0061 50.9740 20.8591 -6.2822 6.5913 -22.1256
# 2 50.9740 64.0363 42.7902 -15.6292 6.7463 6.2257
# 3 20.8591 42.7902 69.2500 -16.5762 3.2732 -3.7478
# 4 -6.2822 -15.6292 -16.5762 26.2331 -4.0994 4.0945
# 5 6.5913 6.7463 3.2732 -4.0994 49.0274 0.0014
# 6 -22.1256 6.2257 -3.7478 4.0945 0.0014 36.4423
#
#
#
# Elastic Compliance Matrix: (Units=1/GPa)
#
#
# Indices 1 2 3 4 5 6 
#
# 1 0.013434 -0.017100 0.005962 -0.005164 -0.000283 0.012271
# 2 -0.017100 0.051551 -0.024393 0.014542 -0.001949 -0.023332
# 3 0.005962 -0.024393 0.029154 0.003846 0.000930 0.010353
# 4 -0.005164 0.014542 0.003846 0.050081 0.002624 -0.010851
# 5 -0.000283 -0.001949 0.000930 0.002624 0.020860 -0.000039
# 6 0.012271 -0.023332 0.010353 -0.010851 -0.000039 0.041160
#
#
# Mechanical properties :
#
#
# Convention : Reuss Voigt Hill
#
# Bulk Modulus (GPa) = 43.33555 56.72655 50.03105
# Shear Modulus (GPa) = 17.54417 33.45184 25.49800
#
# Velocity S-wave (km/s) = 2.78095 3.84006 3.35259
# Velocity P-wave (km/s) = 5.42351 6.68335 6.08612
#
# Compressibility (1/GPa) = 0.02307574
#
# Stress axis : x y z
#
# Youngs Moduli (GPa) = 74.44042 19.39834 34.30046
#
# Poissons Ratio (x) = 0.33172 -0.20449
# Poissons Ratio (y) = 1.27296 0.83668
# Poissons Ratio (z) = -0.44378 0.47318
#
# Static dielectric constant tensor:
#      x y z
#    x 1.846760 0.035410 0.090240 
#    y 0.035410 1.857980 0.056800 
#    z 0.090240 0.056800 2.009380 
# 
# From -- ./inp_files/13242.got.cif
#   From: 2010.05.17/outbox.cif.g08.bks.cpg/sg2_7_cif.got.tgz:13242.got - 2010.06.03 11:33:40.
