data_PCOD9037586
_publ_section_title
;
Structure prediction by ZEFSAII (Michael W. Deem and Ramdas Pophale) SiO2 
 PCOD9037586
Probable space group: P -1
;
_chemical_formula_sum "Si O2"
_cell_formula_units_Z 15
_cell_length_a 14.611907
_cell_length_b 6.408287
_cell_length_c 8.145248
_cell_angle_alpha 124.187942
_cell_angle_beta 83.533812
_cell_angle_gamma 101.120680
_cell_volume 619.048870
_symmetry_space_group_name_H-M "P -1"
_symmetry_group_IT_number 2
_symmetry_cell_setting 'triclinic'
loop_
_space_group_symop_operation_xyz
x,y,z
-x,-y,-z
loop_
_atom_site_type_symbol
_atom_site_label
_atom_site_fract_x
_atom_site_fract_y
_atom_site_fract_z
Si Si1 0.317225 0.466258 0.597104
Si Si2 0.000000 0.500000 0.500000
Si Si3 0.080250 0.039697 0.866043
Si Si4 0.621223 0.296853 0.643745
Si Si5 0.977929 0.242141 0.716262
Si Si6 0.723152 0.995981 0.063591
Si Si7 0.422327 0.256417 0.768698
Si Si8 0.765309 0.079659 0.724137
O O1 0.367561 0.512610 0.429703
O O2 0.270673 0.717333 0.740232
O O3 0.383973 0.445797 0.730676
O O4 0.247934 0.197826 0.484803
O O5 0.929629 0.222441 0.353823
O O6 0.984790 0.463622 0.682541
O O7 0.181220 0.100368 0.951961
O O8 0.055011 0.262859 0.851309
O O9 0.000000 0.000000 0.000000
O O10 0.533686 0.324636 0.789406
O O11 0.715324 0.276427 0.715833
O O12 0.596595 0.015788 0.443603
O O13 0.873734 0.170801 0.772601
O O14 0.000000 0.000000 0.500000
O O15 0.638675 0.811478 0.085883
O O16 0.714895 0.026756 0.885052
#
# Coordination Sequence:
#
# PCOD9037586 Si02
#       8
#     2   1   2   2   2   2   2   2
#     4  10  23  40  69  88 130 170 209 257 323 368
#     4  10  26  42  68  90 120 168 210 258 320 372
#     4  11  24  44  64  94 129 167 211 259 313 377
#     4   9  20  39  68  95 127 169 211 260 319 375
#     4  10  24  42  65  92 127 164 212 258 316 373
#     4  11  25  41  64  97 129 167 214 259 314 378
#     4   9  20  41  65  97 129 163 215 263 311 381
#     4  11  24  44  62  97 130 164 213 267 309 378
#
# _framework density 24.230719000000001
#
# number of rings (size 3 to 8) (size 9 to 14) (size 15 to 20)
#    0.000    1.867    1.333    0.400   14.933    3.200 
#    2.400    1.333    0.000    0.000    0.000    0.000 
#    0.000    0.000    0.000    0.000    0.000    0.000 
#
# Total GULP energy -83630.420533 kJ/mol
# GULP energy per Si atom -5575.361369 kJ/mol
# Density = 2.417557 g / cm^3
# Si number density = 24.230719 Si / 1000 Ang^3
#
#
#
# Elastic Constant Matrix: (Units=GPa)
#
#
# Indices 1 2 3 4 5 6 
#
# 1 77.5881 46.8720 4.7448 1.2893 -11.7606 -6.1840
# 2 46.8720 106.5503 29.1166 -20.7504 -3.9382 -0.3731
# 3 4.7448 29.1166 64.5249 -10.3600 -6.8809 -0.4143
# 4 1.2893 -20.7504 -10.3600 55.6664 7.9401 10.1868
# 5 -11.7606 -3.9382 -6.8809 7.9401 30.9335 -5.9315
# 6 -6.1840 -0.3731 -0.4143 10.1868 -5.9315 15.2221
#
#
#
# Elastic Compliance Matrix: (Units=1/GPa)
#
#
# Indices 1 2 3 4 5 6 
#
# 1 0.026079 -0.014374 0.004599 -0.012136 0.017041 0.025129
# 2 -0.014374 0.019322 -0.007167 0.010817 -0.010624 -0.016940
# 3 0.004599 -0.007167 0.018923 -0.001173 0.006398 0.005486
# 4 -0.012136 0.010817 -0.001173 0.030355 -0.017384 -0.031785
# 5 0.017041 -0.010624 0.006398 -0.017384 0.050666 0.038213
# 6 0.025129 -0.016940 0.005486 -0.031785 0.038213 0.111797
#
#
# Mechanical properties :
#
#
# Convention : Reuss Voigt Hill
#
# Bulk Modulus (GPa) = 32.85307 45.57002 39.21154
# Shear Modulus (GPa) = 16.60175 31.55972 24.08074
#
# Velocity S-wave (km/s) = 2.62038 3.61289 3.15590
# Velocity P-wave (km/s) = 4.76897 6.02092 5.43114
#
# Compressibility (1/GPa) = 0.03043856
#
# Stress axis : x y z
#
# Youngs Moduli (GPa) = 38.34557 51.75562 52.84600
#
# Poissons Ratio (x) = 0.74395 -0.24303
# Poissons Ratio (y) = 0.55119 0.37873
# Poissons Ratio (z) = -0.17634 0.37092
#
# Static dielectric constant tensor:
#      x y z
#    x 1.849720 0.101480 -0.040550 
#    y 0.101480 1.443610 0.162080 
#    z -0.040550 0.162080 1.991840 
# 
# From -- ./inp_files/289164.got.cif
#   From: 2010.05.17/outbox.cif.g08.bks.cpg/sg2_145_cif.got.tgz:289164.got - 2010.06.03 11:33:40.
