data_PCOD9037137
_publ_section_title
;
Structure prediction by ZEFSAII (Michael W. Deem and Ramdas Pophale) SiO2 
 PCOD9037137
Probable space group: P -1
;
_chemical_formula_sum "Si O2"
_cell_formula_units_Z 14
_cell_length_a 10.798028
_cell_length_b 9.133806
_cell_length_c 8.065397
_cell_angle_alpha 114.033615
_cell_angle_beta 58.947214
_cell_angle_gamma 82.648745
_cell_volume 561.307819
_symmetry_space_group_name_H-M "P -1"
_symmetry_group_IT_number 2
_symmetry_cell_setting 'triclinic'
loop_
_space_group_symop_operation_xyz
x,y,z
-x,-y,-z
loop_
_atom_site_type_symbol
_atom_site_label
_atom_site_fract_x
_atom_site_fract_y
_atom_site_fract_z
Si Si1 0.200125 0.866946 0.712247
Si Si2 0.524289 0.021147 0.687648
Si Si3 0.053086 0.875952 0.247290
Si Si4 0.728082 0.993134 0.958236
Si Si5 0.474335 0.375013 0.827257
Si Si6 0.168472 0.253180 0.527230
Si Si7 0.316495 0.519393 0.667666
O O1 0.221827 0.008244 0.884682
O O2 0.048876 0.985343 0.761883
O O3 0.356397 0.749224 0.438868
O O4 0.198337 0.711708 0.762911
O O5 0.711857 0.926047 0.543901
O O6 0.500000 0.000000 0.500000
O O7 0.458419 0.937045 0.839169
O O8 0.233495 0.856333 0.087778
O O9 0.999733 0.720416 0.258835
O O10 0.000000 0.000000 0.500000
O O11 0.812703 0.814989 0.708394
O O12 0.563145 0.771198 0.120023
O O13 0.342209 0.467926 0.820267
O O14 0.500000 0.500000 0.000000
O O15 0.241963 0.392638 0.579554
O O16 0.500000 0.500000 0.500000
#
# Coordination Sequence:
#
# PCOD9037137 Si02
#       7
#     2   2   2   2   2   2   2
#     4  11  22  43  63  91 135 170 208 269 329 379
#     4  12  20  38  65  97 127 167 221 272 317 378
#     4  10  23  44  68  95 126 174 222 264 315 393
#     4  11  24  38  68  97 128 167 220 266 319 384
#     4  11  24  37  63  96 136 168 213 267 329 382
#     4  11  22  42  68  95 128 171 222 265 321 388
#     4  10  23  40  61  97 133 164 208 270 328 380
#
# _framework density 24.941751
#
# number of rings (size 3 to 8) (size 9 to 14) (size 15 to 20)
#    0.000    1.143    4.286    1.714    6.000    0.000 
#    0.000    3.571    0.000    0.000    0.000    0.000 
#    0.000    0.000    0.000    0.000    0.000    0.000 
#
# Total GULP energy -77957.644922 kJ/mol
# GULP energy per Si atom -5568.403209 kJ/mol
# Density = 2.488498 g / cm^3
# Si number density = 24.941751 Si / 1000 Ang^3
#
#
#
# Elastic Constant Matrix: (Units=GPa)
#
#
# Indices 1 2 3 4 5 6 
#
# 1 104.8331 52.8576 50.6172 18.4142 28.5380 17.9529
# 2 52.8576 142.9449 43.7141 5.0096 2.6206 23.5629
# 3 50.6172 43.7141 135.7349 -4.7024 -8.9102 18.5607
# 4 18.4142 5.0096 -4.7024 34.6494 17.2499 -2.0138
# 5 28.5380 2.6206 -8.9102 17.2499 58.6265 3.8460
# 6 17.9529 23.5629 18.5607 -2.0138 3.8460 54.3330
#
#
#
# Elastic Compliance Matrix: (Units=1/GPa)
#
#
# Indices 1 2 3 4 5 6 
#
# 1 0.017833 -0.004188 -0.005754 -0.006037 -0.007473 -0.001805
# 2 -0.004188 0.009216 -0.000973 -0.000227 0.001704 -0.002409
# 3 -0.005754 -0.000973 0.010352 0.002670 0.003722 -0.001378
# 4 -0.006037 -0.000227 0.002670 0.036405 -0.007558 0.003065
# 5 -0.007473 0.001704 0.003722 -0.007558 0.023506 -0.001485
# 6 -0.001805 -0.002409 -0.001378 0.003065 -0.001485 0.020736
#
#
# Mechanical properties :
#
#
# Convention : Reuss Voigt Hill
#
# Bulk Modulus (GPa) = 64.22581 75.32118 69.77349
# Shear Modulus (GPa) = 34.46677 45.27671 39.87174
#
# Velocity S-wave (km/s) = 3.72141 4.26525 4.00258
# Velocity P-wave (km/s) = 6.65368 7.38383 7.02824
#
# Compressibility (1/GPa) = 0.01557006
#
# Stress axis : x y z
#
# Youngs Moduli (GPa) = 56.07561 108.50927 96.60371
#
# Poissons Ratio (x) = 0.45448 0.55587
# Poissons Ratio (y) = 0.23487 0.09396
# Poissons Ratio (z) = 0.32267 0.10554
#
# Static dielectric constant tensor:
#      x y z
#    x 2.132720 0.208630 -0.071600 
#    y 0.208630 2.217830 -0.085510 
#    z -0.071600 -0.085510 2.167580 
# 
# From -- ./inp_files/179152.got.cif
#   From: 2010.05.17/outbox.cif.g08.bks.cpg/sg2_90_cif.got.tgz:179152.got - 2010.06.03 11:33:40.
