data_PCOD9037548
_publ_section_title
;
Structure prediction by ZEFSAII (Michael W. Deem and Ramdas Pophale) SiO2 
 PCOD9037548
Probable space group: P -1
;
_chemical_formula_sum "Si O2"
_cell_formula_units_Z 16
_cell_length_a 8.319741
_cell_length_b 12.053337
_cell_length_c 27.068462
_cell_angle_alpha 30.048903
_cell_angle_beta 36.306995
_cell_angle_gamma 54.394077
_cell_volume 741.419881
_symmetry_space_group_name_H-M "P -1"
_symmetry_group_IT_number 2
_symmetry_cell_setting 'triclinic'
loop_
_space_group_symop_operation_xyz
x,y,z
-x,-y,-z
loop_
_atom_site_type_symbol
_atom_site_label
_atom_site_fract_x
_atom_site_fract_y
_atom_site_fract_z
Si Si1 0.771906 0.221060 0.432488
Si Si2 0.327377 0.389846 0.035352
Si Si3 0.134864 0.679868 0.110145
Si Si4 0.156291 0.075742 0.681838
Si Si5 0.190114 0.604377 0.363128
Si Si6 0.205004 0.051682 0.870443
Si Si7 0.053686 0.191649 0.476735
Si Si8 0.605751 0.113667 0.211423
O O1 0.457645 0.226985 0.520890
O O2 0.929285 0.408421 0.278575
O O3 0.970479 0.280030 0.410749
O O4 0.739880 0.953128 0.529328
O O5 0.535871 0.308329 0.979690
O O6 0.272210 0.604349 0.939412
O O7 0.500000 0.500000 0.000000
O O8 0.054757 0.150422 0.210046
O O9 0.045253 0.840202 0.109984
O O10 0.086298 0.794825 0.026486
O O11 0.976041 0.234971 0.680095
O O12 0.244465 0.954052 0.753194
O O13 0.520607 0.770641 0.233537
O O14 0.173259 0.399305 0.407583
O O15 0.000000 0.500000 0.500000
O O16 0.332463 0.021933 0.798282
O O17 0.743146 0.993220 0.649928
#
# Coordination Sequence:
#
# PCOD9037548 Si02
#       8
#     2   2   2   2   2   2   2   2
#     4  10  23  44  64  99 136 172 219 274 335 388
#     4  12  23  45  70  96 132 178 221 274 332 394
#     4  11  23  43  69  93 134 173 219 271 334 392
#     4  11  26  42  68 103 129 175 226 273 332 400
#     4  12  23  42  66 101 132 172 227 272 328 396
#     4  11  24  43  66  98 131 176 221 274 330 398
#     4  10  23  40  68  96 135 176 218 274 331 396
#     4  11  22  44  69  95 133 176 225 271 331 394
#
# _framework density 21.580214000000002
#
# number of rings (size 3 to 8) (size 9 to 14) (size 15 to 20)
#    0.000    1.000    5.000    1.125    1.750    2.000 
#    0.000    3.125    0.000    0.000    0.000    0.000 
#    0.000    0.000    0.000    0.000    0.000    0.000 
#
# Total GULP energy -89451.382232 kJ/mol
# GULP energy per Si atom -5590.711390 kJ/mol
# Density = 2.153110 g / cm^3
# Si number density = 21.580214 Si / 1000 Ang^3
#
#
#
# Elastic Constant Matrix: (Units=GPa)
#
#
# Indices 1 2 3 4 5 6 
#
# 1 49.7087 28.8069 24.5767 -10.8548 2.2636 4.8383
# 2 28.8069 110.4014 -3.1258 -3.3556 -9.5459 1.6901
# 3 24.5767 -3.1258 69.5104 -3.7946 8.6796 3.2669
# 4 -10.8548 -3.3556 -3.7946 32.5760 -0.2351 0.7585
# 5 2.2636 -9.5459 8.6796 -0.2351 22.5523 -5.3992
# 6 4.8383 1.6901 3.2669 0.7585 -5.3992 28.9140
#
#
#
# Elastic Compliance Matrix: (Units=1/GPa)
#
#
# Indices 1 2 3 4 5 6 
#
# 1 0.033400 -0.009025 -0.010999 0.009002 -0.003995 -0.004801
# 2 -0.009025 0.011874 0.002934 -0.001440 0.005142 0.001483
# 3 -0.010999 0.002934 0.019082 -0.001145 -0.005359 -0.001458
# 4 0.009002 -0.001440 -0.001145 0.033462 -0.001301 -0.002414
# 5 -0.003995 0.005142 -0.005359 -0.001301 0.051512 0.010627
# 6 -0.004801 0.001483 -0.001458 -0.002414 0.010627 0.037514
#
#
# Mechanical properties :
#
#
# Convention : Reuss Voigt Hill
#
# Bulk Modulus (GPa) = 33.13736 36.68179 34.90958
# Shear Modulus (GPa) = 21.63720 28.76597 25.20159
#
# Velocity S-wave (km/s) = 3.16989 3.65496 3.42103
# Velocity P-wave (km/s) = 5.36529 5.90309 5.64060
#
# Compressibility (1/GPa) = 0.03017742
#
# Stress axis : x y z
#
# Youngs Moduli (GPa) = 29.93987 84.21798 52.40412
#
# Poissons Ratio (x) = 0.76005 0.57641
# Poissons Ratio (y) = 0.27020 -0.15378
# Poissons Ratio (z) = 0.32932 -0.24713
#
# Static dielectric constant tensor:
#      x y z
#    x 1.773550 -0.027050 -0.001290 
#    y -0.027050 1.782640 -0.003470 
#    z -0.001290 -0.003470 1.788540 
# 
# From -- ./inp_files/333616.got.cif
#   From: 2010.05.17/outbox.cif.g08.bks.cpg/sg2_167_cif.got.tgz:333616.got - 2010.06.03 11:33:40.
