data_PCOD9037097
_publ_section_title
;
Structure prediction by ZEFSAII (Michael W. Deem and Ramdas Pophale) SiO2 
 PCOD9037097
Probable space group: P -1
;
_chemical_formula_sum "Si O2"
_cell_formula_units_Z 16
_cell_length_a 24.159942
_cell_length_b 14.901624
_cell_length_c 11.670970
_cell_angle_alpha 26.567878
_cell_angle_beta 136.158550
_cell_angle_gamma 152.252043
_cell_volume 823.607852
_symmetry_space_group_name_H-M "P -1"
_symmetry_group_IT_number 2
_symmetry_cell_setting 'triclinic'
loop_
_space_group_symop_operation_xyz
x,y,z
-x,-y,-z
loop_
_atom_site_type_symbol
_atom_site_label
_atom_site_fract_x
_atom_site_fract_y
_atom_site_fract_z
Si Si1 0.634067 0.825843 0.494206
Si Si2 0.670400 0.722601 0.100396
Si Si3 0.885917 0.028292 0.910837
Si Si4 0.632187 0.427077 0.833082
Si Si5 0.478089 0.666486 0.906958
Si Si6 0.413217 0.711369 0.321466
Si Si7 0.288839 0.586747 0.798394
Si Si8 0.156898 0.650154 0.645885
O O1 0.635584 0.672735 0.568628
O O2 0.527468 0.784115 0.373929
O O3 0.767325 0.185607 0.310774
O O4 0.597267 0.622078 0.784944
O O5 0.578235 0.479013 0.136673
O O6 0.652573 0.529427 0.397341
O O7 0.618635 0.844703 0.918461
O O8 0.808233 0.961641 0.979503
O O9 0.882612 0.202591 0.615212
O O10 0.030578 0.272584 0.881213
O O11 0.810041 0.701429 0.109198
O O12 0.665975 0.424821 0.757959
O O13 0.717425 0.512737 0.967403
O O14 0.490863 0.064659 0.061706
O O15 0.426996 0.786564 0.732202
O O16 0.255643 0.752217 0.583567
#
# Coordination Sequence:
#
# PCOD9037097 Si02
#       8
#     2   2   2   2   2   2   2   2
#     4  10  17  33  51  77 100 129 168 211 253 292
#     4   9  16  33  51  71 109 132 162 202 262 304
#     4  10  21  35  51  79 104 132 171 207 246 312
#     4  10  19  32  49  78  98 127 178 207 251 295
#     4   8  16  29  51  73 103 128 155 207 256 313
#     4  10  20  31  52  73 100 138 161 213 255 297
#     4  10  18  33  52  79 103 126 173 212 249 294
#     4  11  19  32  57  76 100 138 167 209 256 287
#
# _framework density 19.42672
#
# number of rings (size 3 to 8) (size 9 to 14) (size 15 to 20)
#    0.000    2.250    5.000    0.750    0.000    0.000 
#    0.000   13.750    0.000    1.500    0.000    0.000 
#    0.000    0.000    0.000    0.000    0.000    0.000 
#
# Total GULP energy -89099.981346 kJ/mol
# GULP energy per Si atom -5568.748834 kJ/mol
# Density = 1.938250 g / cm^3
# Si number density = 19.426720 Si / 1000 Ang^3
#
#
#
# Elastic Constant Matrix: (Units=GPa)
#
#
# Indices 1 2 3 4 5 6 
#
# 1 74.2833 30.9033 9.5876 -10.5898 9.0101 -2.5870
# 2 30.9033 69.2887 16.2239 -4.5051 -5.0812 -7.6655
# 3 9.5876 16.2239 30.6084 -2.1560 -5.8999 -3.3112
# 4 -10.5898 -4.5051 -2.1560 21.1813 -10.5870 1.1275
# 5 9.0101 -5.0812 -5.8999 -10.5870 37.8855 2.0723
# 6 -2.5870 -7.6655 -3.3112 1.1275 2.0723 27.1224
#
#
#
# Elastic Compliance Matrix: (Units=1/GPa)
#
#
# Indices 1 2 3 4 5 6 
#
# 1 0.018134 -0.007621 -0.002149 0.005160 -0.004196 -0.000581
# 2 -0.007621 0.020281 -0.007163 0.001367 0.003591 0.003799
# 3 -0.002149 -0.007163 0.038984 0.004689 0.006832 0.001813
# 4 0.005160 0.001367 0.004689 0.058795 0.016238 -0.002234
# 5 -0.004196 0.003591 0.006832 0.016238 0.033575 -0.001791
# 6 -0.000581 0.003799 0.001813 -0.002234 -0.001791 0.038339
#
#
# Mechanical properties :
#
#
# Convention : Reuss Voigt Hill
#
# Bulk Modulus (GPa) = 22.97104 31.95668 27.46386
# Shear Modulus (GPa) = 19.49425 25.06888 22.28157
#
# Velocity S-wave (km/s) = 3.17121 3.59616 3.39035
# Velocity P-wave (km/s) = 5.02582 5.80764 5.43082
#
# Compressibility (1/GPa) = 0.04353308
#
# Stress axis : x y z
#
# Youngs Moduli (GPa) = 55.14415 49.30635 25.65160
#
# Poissons Ratio (x) = 0.37578 0.05512
# Poissons Ratio (y) = 0.42027 0.18375
# Poissons Ratio (z) = 0.11849 0.35319
#
# Static dielectric constant tensor:
#      x y z
#    x 1.734320 0.010230 0.034050 
#    y 0.010230 1.717430 0.027550 
#    z 0.034050 0.027550 1.742870 
# 
# From -- ./inp_files/435956.got.cif
#   From: 2010.05.17/outbox.cif.g08.bks.cpg/sg2_218_cif.got.tgz:435956.got - 2010.06.03 11:33:40.
