data_PCOD9037675
_publ_section_title
;
Structure prediction by ZEFSAII (Michael W. Deem and Ramdas Pophale) SiO2 
 PCOD9037675
Probable space group: P -1
;
_chemical_formula_sum "Si O2"
_cell_formula_units_Z 14
_cell_length_a 11.424608
_cell_length_b 8.689544
_cell_length_c 10.780163
_cell_angle_alpha 53.874313
_cell_angle_beta 45.366225
_cell_angle_gamma 75.080073
_cell_volume 591.823006
_symmetry_space_group_name_H-M "P -1"
_symmetry_group_IT_number 2
_symmetry_cell_setting 'triclinic'
loop_
_space_group_symop_operation_xyz
x,y,z
-x,-y,-z
loop_
_atom_site_type_symbol
_atom_site_label
_atom_site_fract_x
_atom_site_fract_y
_atom_site_fract_z
Si Si1 0.879637 0.377654 0.893155
Si Si2 0.610369 0.961672 0.252081
Si Si3 0.409464 0.366013 0.746816
Si Si4 0.730309 0.967702 0.561571
Si Si5 0.620548 0.619473 0.961171
Si Si6 0.011247 0.235299 0.096342
Si Si7 0.853271 0.809378 0.323565
O O1 0.797161 0.556403 0.854107
O O2 0.920492 0.356636 0.017228
O O3 0.729185 0.183997 0.058117
O O4 0.049722 0.351853 0.710036
O O5 0.580549 0.852321 0.194154
O O6 0.420268 0.966887 0.428244
O O7 0.335299 0.145346 0.210213
O O8 0.500000 0.500000 0.500000
O O9 0.464503 0.427914 0.816643
O O10 0.293370 0.160757 0.673925
O O11 0.775587 0.798417 0.523459
O O12 0.897794 0.152968 0.341030
O O13 0.500000 0.500000 0.000000
O O14 0.792381 0.658646 0.089782
O O15 0.989231 0.028872 0.131932
#
# Coordination Sequence:
#
# PCOD9037675 Si02
#       7
#     2   2   2   2   2   2   2
#     4  11  20  42  77  99 147 182 236 288 340 433
#     4  11  19  42  71 104 131 195 230 284 343 416
#     4  12  28  45  72 104 144 177 246 300 341 410
#     4  10  23  40  73 101 147 185 226 282 354 432
#     4  12  29  45  65 113 149 184 226 290 364 417
#     4   9  21  43  70 104 130 183 244 280 347 406
#     4   9  19  38  74 106 130 181 243 278 336 428
#
# _framework density 23.655721
#
# number of rings (size 3 to 8) (size 9 to 14) (size 15 to 20)
#    0.857    0.571    4.286    1.286    4.000    2.286 
#    0.000    0.000    0.000    0.000    0.000    0.000 
#    0.000    0.000    0.000    0.000    0.000    0.000 
#
# Total GULP energy -78115.741333 kJ/mol
# GULP energy per Si atom -5579.695810 kJ/mol
# Density = 2.360188 g / cm^3
# Si number density = 23.655721 Si / 1000 Ang^3
#
#
#
# Elastic Constant Matrix: (Units=GPa)
#
#
# Indices 1 2 3 4 5 6 
#
# 1 99.7978 41.6675 54.8740 -1.1336 2.3836 0.6510
# 2 41.6675 71.8682 19.9145 21.2141 -4.0072 6.4705
# 3 54.8740 19.9145 138.6179 4.6761 -3.7659 2.8968
# 4 -1.1336 21.2141 4.6761 32.2799 3.3830 -4.9671
# 5 2.3836 -4.0072 -3.7659 3.3830 33.2014 5.9420
# 6 0.6510 6.4705 2.8968 -4.9671 5.9420 44.4924
#
#
#
# Elastic Compliance Matrix: (Units=1/GPa)
#
#
# Indices 1 2 3 4 5 6 
#
# 1 0.019538 -0.013775 -0.006403 0.011922 -0.005764 0.004235
# 2 -0.013775 0.028834 0.002436 -0.021847 0.008350 -0.007704
# 3 -0.006403 0.002436 0.009628 -0.003737 0.002520 -0.001641
# 4 0.011922 -0.021847 -0.003737 0.048982 -0.010723 0.010146
# 5 -0.005764 0.008350 0.002520 -0.010723 0.034182 -0.007056
# 6 0.004235 -0.007704 -0.001641 0.010146 -0.007056 0.025716
#
#
# Mechanical properties :
#
#
# Convention : Reuss Voigt Hill
#
# Bulk Modulus (GPa) = 44.41557 60.35511 52.38534
# Shear Modulus (GPa) = 23.82445 34.91661 29.37053
#
# Velocity S-wave (km/s) = 3.17698 3.84608 3.52743
# Velocity P-wave (km/s) = 5.68104 6.72997 6.22763
#
# Compressibility (1/GPa) = 0.02251463
#
# Stress axis : x y z
#
# Youngs Moduli (GPa) = 51.18336 34.68128 103.86893
#
# Poissons Ratio (x) = 0.47774 0.66502
# Poissons Ratio (y) = 0.70506 -0.25298
# Poissons Ratio (z) = 0.32770 -0.08447
#
# Static dielectric constant tensor:
#      x y z
#    x 1.921580 0.040500 -0.017580 
#    y 0.040500 1.978120 0.022820 
#    z -0.017580 0.022820 1.967540 
# 
# From -- ./inp_files/373749.got.cif
#   From: 2010.05.17/outbox.cif.g08.bks.cpg/sg2_187_cif.got.tgz:373749.got - 2010.06.03 11:33:40.
