data_PCOD9037282
_publ_section_title
;
Structure prediction by ZEFSAII (Michael W. Deem and Ramdas Pophale) SiO2 
 PCOD9037282
Probable space group: P -1
;
_chemical_formula_sum "Si O2"
_cell_formula_units_Z 14
_cell_length_a 6.618448
_cell_length_b 13.173882
_cell_length_c 21.233068
_cell_angle_alpha 26.748528
_cell_angle_beta 89.003114
_cell_angle_gamma 105.524916
_cell_volume 647.455683
_symmetry_space_group_name_H-M "P -1"
_symmetry_group_IT_number 2
_symmetry_cell_setting 'triclinic'
loop_
_space_group_symop_operation_xyz
x,y,z
-x,-y,-z
loop_
_atom_site_type_symbol
_atom_site_label
_atom_site_fract_x
_atom_site_fract_y
_atom_site_fract_z
Si Si1 0.879661 0.852709 0.808530
Si Si2 0.926699 0.402801 0.482753
Si Si3 0.626076 0.238894 0.311932
Si Si4 0.366695 0.626165 0.260711
Si Si5 0.608968 0.846583 0.424984
Si Si6 0.463389 0.561232 0.071106
Si Si7 0.219446 0.738032 0.067235
O O1 0.722908 0.592253 0.903613
O O2 0.845557 0.084044 0.656905
O O3 0.751496 0.755573 0.931515
O O4 0.181131 0.005639 0.714283
O O5 0.679228 0.368096 0.481603
O O6 0.000000 0.500000 0.500000
O O7 0.168181 0.599848 0.325878
O O8 0.913947 0.519136 0.175674
O O9 0.500000 0.000000 0.500000
O O10 0.645033 0.090893 0.332764
O O11 0.453223 0.334509 0.241502
O O12 0.348447 0.346871 0.426426
O O13 0.650835 0.927713 0.106525
O O14 0.277187 0.637152 0.186197
O O15 0.375454 0.717951 0.022513
#
# Coordination Sequence:
#
# PCOD9037282 Si02
#       7
#     2   2   2   2   2   2   2
#     4  10  23  40  64  97 130 171 218 266 321 392
#     4  11  23  42  66  94 133 172 216 268 330 386
#     4  12  25  40  70 100 129 172 220 268 330 385
#     4  10  25  43  66  96 133 173 221 263 325 397
#     4  11  23  43  67  97 131 170 216 274 323 389
#     4  11  23  41  65  97 132 169 217 270 327 379
#     4  11  24  44  66  96 133 175 216 271 323 385
#
# _framework density 21.623101999999999
#
# number of rings (size 3 to 8) (size 9 to 14) (size 15 to 20)
#    0.000    1.143    2.857    2.571    2.000    8.571 
#    0.000    3.571    0.000    0.000    0.000    0.000 
#    0.000    0.000    0.000    0.000    0.000    0.000 
#
# Total GULP energy -78304.581938 kJ/mol
# GULP energy per Si atom -5593.184424 kJ/mol
# Density = 2.157389 g / cm^3
# Si number density = 21.623102 Si / 1000 Ang^3
#
#
#
# Elastic Constant Matrix: (Units=GPa)
#
#
# Indices 1 2 3 4 5 6 
#
# 1 35.7882 -5.8402 -8.1281 -7.8476 -9.4616 5.0281
# 2 -5.8402 81.4777 4.4972 -5.1848 -15.2348 -0.1320
# 3 -8.1281 4.4972 64.8389 0.5354 -14.6981 8.8661
# 4 -7.8476 -5.1848 0.5354 36.8984 -0.9015 -5.5397
# 5 -9.4616 -15.2348 -14.6981 -0.9015 29.0174 -5.2421
# 6 5.0281 -0.1320 8.8661 -5.5397 -5.2421 27.5247
#
#
#
# Elastic Compliance Matrix: (Units=1/GPa)
#
#
# Indices 1 2 3 4 5 6 
#
# 1 0.039336 0.006727 0.009710 0.008999 0.020739 -0.004520
# 2 0.006727 0.015046 0.002232 0.003963 0.011549 0.001122
# 3 0.009710 0.002232 0.020314 0.001612 0.013707 -0.005371
# 4 0.008999 0.003963 0.001612 0.030562 0.007772 0.005487
# 5 0.020739 0.011549 0.013707 0.007772 0.055181 0.003925
# 6 -0.004520 0.001122 -0.005371 0.005487 0.003925 0.040744
#
#
# Mechanical properties :
#
#
# Convention : Reuss Voigt Hill
#
# Bulk Modulus (GPa) = 8.92604 18.12916 13.52760
# Shear Modulus (GPa) = 24.85199 31.45986 28.15592
#
# Velocity S-wave (km/s) = 3.39385 3.81848 3.61241
# Velocity P-wave (km/s) = 4.41527 5.27668 4.86508
#
# Compressibility (1/GPa) = 0.11203171
#
# Stress axis : x y z
#
# Youngs Moduli (GPa) = 25.42175 66.46414 49.22829
#
# Poissons Ratio (x) = -0.44709 -0.47799
# Poissons Ratio (y) = -0.17101 -0.10986
# Poissons Ratio (z) = -0.24684 -0.14832
#
# Static dielectric constant tensor:
#      x y z
#    x 1.755960 -0.008920 -0.011390 
#    y -0.008920 1.777420 -0.010650 
#    z -0.011390 -0.010650 1.817900 
# 
# From -- ./inp_files/604575.got.cif
#   From: 2010.05.17/outbox.cif.g08.bks.cpg/sg2_303_cif.got.tgz:604575.got - 2010.06.03 11:33:40.
