data_PCOD9037889
_publ_section_title
;
Structure prediction by ZEFSAII (Michael W. Deem and Ramdas Pophale) SiO2 
 PCOD9037889
Probable space group: P -1
;
_chemical_formula_sum "Si O2"
_cell_formula_units_Z 15
_cell_length_a 17.308885
_cell_length_b 7.461263
_cell_length_c 5.205717
_cell_angle_alpha 92.848305
_cell_angle_beta 54.209998
_cell_angle_gamma 88.371781
_cell_volume 543.299373
_symmetry_space_group_name_H-M "P -1"
_symmetry_group_IT_number 2
_symmetry_cell_setting 'triclinic'
loop_
_space_group_symop_operation_xyz
x,y,z
-x,-y,-z
loop_
_atom_site_type_symbol
_atom_site_label
_atom_site_fract_x
_atom_site_fract_y
_atom_site_fract_z
Si Si1 0.165602 0.911123 0.703335
Si Si2 0.648033 0.559270 0.694980
Si Si3 0.431425 0.101732 0.396995
Si Si4 0.021725 0.260708 0.982142
Si Si5 0.000000 0.500000 0.500000
Si Si6 0.832520 0.574869 0.638169
Si Si7 0.527562 0.294067 0.637561
Si Si8 0.259929 0.028844 0.043526
O O1 0.088049 0.765916 0.850565
O O2 0.240455 0.915059 0.325867
O O3 0.093538 0.087159 0.795495
O O4 0.216285 0.938028 0.874634
O O5 0.641813 0.762557 0.607021
O O6 0.751639 0.509990 0.605996
O O7 0.615061 0.412670 0.545739
O O8 0.565934 0.586857 0.073367
O O9 0.506784 0.232035 0.383785
O O10 0.461459 0.896040 0.237708
O O11 0.369001 0.054355 0.767299
O O12 0.031171 0.317193 0.259688
O O13 0.060940 0.395886 0.698567
O O14 0.118964 0.552915 0.254240
O O15 0.787111 0.768123 0.825151
#
# Coordination Sequence:
#
# PCOD9037889 Si02
#       8
#     2   2   2   2   1   2   2   2
#     4  10  23  41  69  96 135 182 248 296 364 449
#     4  11  23  45  72 104 150 194 246 308 379 451
#     4  11  22  43  72 107 147 191 244 309 376 451
#     4  10  23  41  64  93 134 182 238 308 363 430
#     4  12  24  42  64  98 136 188 248 304 368 444
#     4  11  24  42  68  99 141 199 242 308 379 445
#     4  10  24  43  72 109 143 190 252 305 377 454
#     4  11  22  42  71 104 139 194 242 300 380 444
#
# _framework density 27.609086999999999
#
# number of rings (size 3 to 8) (size 9 to 14) (size 15 to 20)
#    0.000    1.333    2.667    2.800    1.867    2.667 
#    2.400    0.000    0.000    0.000    0.000    0.000 
#    0.000    0.000    0.000    0.000    0.000    0.000 
#
# Total GULP energy -83772.881177 kJ/mol
# GULP energy per Si atom -5584.858745 kJ/mol
# Density = 2.754625 g / cm^3
# Si number density = 27.609087 Si / 1000 Ang^3
#
#
#
# Elastic Constant Matrix: (Units=GPa)
#
#
# Indices 1 2 3 4 5 6 
#
# 1 189.6508 47.0350 21.7006 2.0167 -5.6309 24.4983
# 2 47.0350 119.8296 9.0254 -9.2942 -4.4997 -0.8524
# 3 21.7006 9.0254 19.3017 -6.0744 1.5684 5.9226
# 4 2.0167 -9.2942 -6.0744 29.8806 -9.3907 -5.7888
# 5 -5.6309 -4.4997 1.5684 -9.3907 50.1763 12.1580
# 6 24.4983 -0.8524 5.9226 -5.7888 12.1580 56.4781
#
#
#
# Elastic Compliance Matrix: (Units=1/GPa)
#
#
# Indices 1 2 3 4 5 6 
#
# 1 0.007118 -0.002483 -0.006951 -0.002930 0.000948 -0.002900
# 2 -0.002483 0.009729 -0.001184 0.003537 0.000927 0.001511
# 3 -0.006951 -0.001184 0.064988 0.012855 0.000099 -0.002522
# 4 -0.002930 0.003537 0.012855 0.039911 0.006405 0.002688
# 5 0.000948 0.000927 0.000099 0.006405 0.022424 -0.004578
# 6 -0.002900 0.001511 -0.002522 0.002688 -0.004578 0.020512
#
#
# Mechanical properties :
#
#
# Convention : Reuss Voigt Hill
#
# Bulk Modulus (GPa) = 16.50145 53.81157 35.15651
# Shear Modulus (GPa) = 24.25812 44.04175 34.14993
#
# Velocity S-wave (km/s) = 2.96738 3.99832 3.52079
# Velocity P-wave (km/s) = 4.21073 6.39126 5.41195
#
# Compressibility (1/GPa) = 0.06060073
#
# Stress axis : x y z
#
# Youngs Moduli (GPa) = 140.49222 102.78889 15.38742
#
# Poissons Ratio (x) = 0.25518 0.10695
# Poissons Ratio (y) = 0.34879 0.01821
# Poissons Ratio (z) = 0.97651 0.12167
#
# Static dielectric constant tensor:
#      x y z
#    x 1.296680 0.384730 -0.580230 
#    y 0.384730 2.113320 0.229100 
#    z -0.580230 0.229100 1.793520 
# 
# From -- ./inp_files/107063.got.cif
#   From: 2010.05.17/outbox.cif.g08.bks.cpg/sg2_54_cif.got.tgz:107063.got - 2010.06.03 11:33:40.
