data_PCOD9037609
_publ_section_title
;
Structure prediction by ZEFSAII (Michael W. Deem and Ramdas Pophale) SiO2 
 PCOD9037609
Probable space group: P -1
;
_chemical_formula_sum "Si O2"
_cell_formula_units_Z 14
_cell_length_a 22.445117
_cell_length_b 10.896852
_cell_length_c 20.691685
_cell_angle_alpha 31.909453
_cell_angle_beta 166.992203
_cell_angle_gamma 151.088102
_cell_volume 550.339742
_symmetry_space_group_name_H-M "P -1"
_symmetry_group_IT_number 2
_symmetry_cell_setting 'triclinic'
loop_
_space_group_symop_operation_xyz
x,y,z
-x,-y,-z
loop_
_atom_site_type_symbol
_atom_site_label
_atom_site_fract_x
_atom_site_fract_y
_atom_site_fract_z
Si Si1 0.111544 0.518881 0.920561
Si Si2 0.275479 0.226281 0.776172
Si Si3 0.107154 0.012642 0.010378
Si Si4 0.688345 0.777514 0.330871
Si Si5 0.509821 0.070102 0.768483
Si Si6 0.175892 0.327601 0.257386
Si Si7 0.649525 0.209801 0.413614
O O1 0.395164 0.643047 0.120707
O O2 0.857452 0.591719 0.594281
O O3 0.219056 0.680598 0.029040
O O4 0.008929 0.218479 0.958093
O O5 0.371512 0.185253 0.823718
O O6 0.318519 0.515202 0.697938
O O7 0.934370 0.039863 0.500149
O O8 0.458363 0.146875 0.057164
O O9 0.951955 0.206291 0.758932
O O10 0.980249 0.864618 0.876909
O O11 0.442046 0.126886 0.294512
O O12 0.240386 0.153420 0.457469
O O13 0.478760 0.974413 0.703261
O O14 0.500000 0.500000 0.500000
O O15 0.000000 0.500000 0.000000
#
# Coordination Sequence:
#
# PCOD9037609 Si02
#       7
#     2   2   2   2   2   2   2
#     4  11  23  42  69 103 132 173 236 281 338 389
#     4  10  24  49  69  96 141 177 238 276 337 403
#     4  11  24  40  65 100 143 176 222 274 343 406
#     4  10  25  44  73  98 125 182 235 297 320 385
#     4  10  23  40  70 102 135 180 217 280 339 406
#     4  11  21  36  61  97 136 170 214 269 331 398
#     4  11  25  42  66 103 139 186 211 276 349 417
#
# _framework density 25.438831
#
# number of rings (size 3 to 8) (size 9 to 14) (size 15 to 20)
#    0.000    1.429    1.429    3.000    2.000   12.000 
#    0.000    8.571    0.000    0.000    0.000    0.000 
#    0.000    0.000    0.000    0.000    0.000    0.000 
#
# Total GULP energy -78279.708496 kJ/mol
# GULP energy per Si atom -5591.407750 kJ/mol
# Density = 2.538093 g / cm^3
# Si number density = 25.438831 Si / 1000 Ang^3
#
#
#
# Elastic Constant Matrix: (Units=GPa)
#
#
# Indices 1 2 3 4 5 6 
#
# 1 155.3990 33.8212 71.5293 1.1654 10.8828 23.0065
# 2 33.8212 150.6830 41.2148 -19.1274 7.0961 12.2760
# 3 71.5293 41.2148 146.1995 -32.3226 15.6060 7.9087
# 4 1.1654 -19.1274 -32.3226 52.0488 0.4597 -19.1015
# 5 10.8828 7.0961 15.6060 0.4597 54.6123 2.8542
# 6 23.0065 12.2760 7.9087 -19.1015 2.8542 35.0352
#
#
#
# Elastic Compliance Matrix: (Units=1/GPa)
#
#
# Indices 1 2 3 4 5 6 
#
# 1 0.011206 -0.000980 -0.006556 -0.008411 0.000369 -0.010152
# 2 -0.000980 0.007476 -0.001145 0.001806 -0.000427 -0.000698
# 3 -0.006556 -0.001145 0.012523 0.010369 -0.002615 0.007746
# 4 -0.008411 0.001806 0.010369 0.034445 -0.002939 0.021570
# 5 0.000369 -0.000427 -0.002615 -0.002939 0.019204 -0.002669
# 6 -0.010152 -0.000698 0.007746 0.021570 -0.002669 0.045682
#
#
# Mechanical properties :
#
#
# Convention : Reuss Voigt Hill
#
# Bulk Modulus (GPa) = 72.24602 82.82358 77.53480
# Shear Modulus (GPa) = 32.78352 48.72032 40.75192
#
# Velocity S-wave (km/s) = 3.59377 4.38104 4.00679
# Velocity P-wave (km/s) = 6.75883 7.63020 7.20770
#
# Compressibility (1/GPa) = 0.01384159
#
# Stress axis : x y z
#
# Youngs Moduli (GPa) = 89.23481 133.76265 79.85190
#
# Poissons Ratio (x) = 0.13110 0.52354
# Poissons Ratio (y) = 0.08746 0.09147
# Poissons Ratio (z) = 0.58506 0.15322
#
# Static dielectric constant tensor:
#      x y z
#    x 1.805690 -0.062660 -0.387190 
#    y -0.062660 2.027140 -0.117690 
#    z -0.387190 -0.117690 1.511780 
# 
# From -- ./inp_files/621479.got.cif
#   From: 2010.05.17/outbox.cif.g08.bks.cpg/sg2_311_cif.got.tgz:621479.got - 2010.06.03 11:33:40.
