data_PCOD9037436
_publ_section_title
;
Structure prediction by ZEFSAII (Michael W. Deem and Ramdas Pophale) SiO2 
 PCOD9037436
Probable space group: P -1
;
_chemical_formula_sum "Si O2"
_cell_formula_units_Z 14
_cell_length_a 5.029566
_cell_length_b 11.758654
_cell_length_c 14.278427
_cell_angle_alpha 45.407761
_cell_angle_beta 81.353887
_cell_angle_gamma 75.939780
_cell_volume 583.077331
_symmetry_space_group_name_H-M "P -1"
_symmetry_group_IT_number 2
_symmetry_cell_setting 'triclinic'
loop_
_space_group_symop_operation_xyz
x,y,z
-x,-y,-z
loop_
_atom_site_type_symbol
_atom_site_label
_atom_site_fract_x
_atom_site_fract_y
_atom_site_fract_z
Si Si1 0.660843 0.085748 0.769531
Si Si2 0.903061 0.832262 0.583199
Si Si3 0.267210 0.296438 0.009811
Si Si4 0.529598 0.263512 0.478029
Si Si5 0.358881 0.573564 0.216811
Si Si6 0.745992 0.589477 0.864362
Si Si7 0.077374 0.151290 0.852454
O O1 0.566298 0.169651 0.627834
O O2 0.908932 0.154946 0.762120
O O3 0.396176 0.124389 0.828698
O O4 0.753738 0.890528 0.870449
O O5 0.166108 0.729313 0.577565
O O6 0.644215 0.831889 0.528201
O O7 0.867574 0.744907 0.733568
O O8 0.000000 0.000000 0.500000
O O9 0.408524 0.352120 0.065094
O O10 0.439068 0.313512 0.897424
O O11 0.983908 0.428163 0.952485
O O12 0.394645 0.455258 0.372593
O O13 0.405284 0.446243 0.201267
O O14 0.064106 0.688095 0.177183
O O15 0.000000 0.000000 0.000000
#
# Coordination Sequence:
#
# PCOD9037436 Si02
#       7
#     2   2   2   2   2   2   2
#     4  12  27  45  70 104 134 179 228 280 337 400
#     4  11  22  42  67  97 139 182 223 272 336 403
#     4  11  22  42  67  97 137 173 226 280 333 405
#     4  11  25  44  66  98 137 177 225 278 336 400
#     4  11  24  43  69  93 139 176 226 278 336 402
#     4  10  23  40  67 101 130 180 223 276 339 400
#     4  12  26  45  74 100 135 177 229 282 338 396
#
# _framework density 24.010538
#
# number of rings (size 3 to 8) (size 9 to 14) (size 15 to 20)
#    0.000    0.857    2.857    3.857    2.000    2.286 
#    2.571    0.000    0.000    0.000    0.000    0.000 
#    0.000    0.000    0.000    0.000    0.000    0.000 
#
# Total GULP energy -78228.479391 kJ/mol
# GULP energy per Si atom -5587.748528 kJ/mol
# Density = 2.395589 g / cm^3
# Si number density = 24.010538 Si / 1000 Ang^3
#
#
#
# Elastic Constant Matrix: (Units=GPa)
#
#
# Indices 1 2 3 4 5 6 
#
# 1 72.7050 15.2586 6.6135 14.5789 11.3498 1.2854
# 2 15.2586 94.2029 32.7327 2.0471 6.6956 10.4334
# 3 6.6135 32.7327 161.6517 -4.6615 4.0020 -0.2077
# 4 14.5789 2.0471 -4.6615 23.7113 3.9963 6.4311
# 5 11.3498 6.6956 4.0020 3.9963 23.9812 4.4655
# 6 1.2854 10.4334 -0.2077 6.4311 4.4655 33.1931
#
#
#
# Elastic Compliance Matrix: (Units=1/GPa)
#
#
# Indices 1 2 3 4 5 6 
#
# 1 0.017251 -0.002315 -0.000372 -0.010200 -0.006292 0.002880
# 2 -0.002315 0.012301 -0.002331 0.001183 -0.001434 -0.003828
# 3 -0.000372 -0.002331 0.006741 0.001722 -0.000687 0.000548
# 4 -0.010200 0.001183 0.001722 0.051737 -0.002617 -0.009638
# 5 -0.006292 -0.001434 -0.000687 -0.002617 0.046572 -0.005068
# 6 0.002880 -0.003828 0.000548 -0.009638 -0.005068 0.033771
#
#
# Mechanical properties :
#
#
# Convention : Reuss Voigt Hill
#
# Bulk Modulus (GPa) = 38.08681 48.64103 43.36392
# Shear Modulus (GPa) = 26.71503 34.44077 30.57790
#
# Velocity S-wave (km/s) = 3.33924 3.79146 3.57251
# Velocity P-wave (km/s) = 5.54656 6.28244 5.92594
#
# Compressibility (1/GPa) = 0.02625581
#
# Stress axis : x y z
#
# Youngs Moduli (GPa) = 57.96885 81.29688 148.35059
#
# Poissons Ratio (x) = 0.18822 0.05513
# Poissons Ratio (y) = 0.13421 0.34585
# Poissons Ratio (z) = 0.02154 0.18953
#
# Static dielectric constant tensor:
#      x y z
#    x 2.036610 0.083720 0.044430 
#    y 0.083720 1.956460 0.014040 
#    z 0.044430 0.014040 2.030840 
# 
# From -- ./inp_files/65494.got.cif
#   From: 2010.05.17/outbox.cif.g08.bks.cpg/sg2_33_cif.got.tgz:65494.got - 2010.06.03 11:33:40.
