data_PCOD9037019
_publ_section_title
;
Structure prediction by ZEFSAII (Michael W. Deem and Ramdas Pophale) SiO2 
 PCOD9037019
Probable space group: P -1
;
_chemical_formula_sum "Si O2"
_cell_formula_units_Z 14
_cell_length_a 17.656585
_cell_length_b 9.810546
_cell_length_c 14.549245
_cell_angle_alpha 135.271460
_cell_angle_beta 161.978692
_cell_angle_gamma 44.664891
_cell_volume 541.303159
_symmetry_space_group_name_H-M "P -1"
_symmetry_group_IT_number 2
_symmetry_cell_setting 'triclinic'
loop_
_space_group_symop_operation_xyz
x,y,z
-x,-y,-z
loop_
_atom_site_type_symbol
_atom_site_label
_atom_site_fract_x
_atom_site_fract_y
_atom_site_fract_z
Si Si1 0.498800 0.681644 0.345961
Si Si2 0.884857 0.456171 0.444071
Si Si3 0.241806 0.036881 0.100991
Si Si4 0.643841 0.562788 0.782184
Si Si5 0.743658 0.067955 0.423881
Si Si6 0.464096 0.182629 0.808673
Si Si7 0.891470 0.320642 0.575156
O O1 0.325353 0.830325 0.151161
O O2 0.334704 0.613206 0.204622
O O3 0.645315 0.485528 0.373588
O O4 0.698323 0.797521 0.681103
O O5 0.758527 0.676810 0.430201
O O6 0.015090 0.346964 0.631194
O O7 0.000000 0.500000 0.500000
O O8 0.680815 0.313588 0.125387
O O9 0.434485 0.009862 0.224790
O O10 0.970685 0.061467 0.755353
O O11 0.500000 0.500000 0.500000
O O12 0.466738 0.747983 0.710162
O O13 0.911099 0.616735 0.095335
O O14 0.837724 0.113588 0.452703
O O15 0.624327 0.878177 0.222669
#
# Coordination Sequence:
#
# PCOD9037019 Si02
#       7
#     2   2   2   2   2   2   2
#     4  10  23  39  69 101 138 178 230 275 340 406
#     4  11  26  45  72  98 133 181 232 288 340 397
#     4  11  22  42  67 104 137 179 223 284 337 407
#     4  11  23  40  65 101 144 185 218 274 339 412
#     4  11  24  41  68  98 141 177 223 280 341 405
#     4  11  24  44  69  99 134 179 227 285 340 400
#     4  11  24  45  68 103 138 183 227 278 340 408
#
# _framework density 25.863510000000002
#
# number of rings (size 3 to 8) (size 9 to 14) (size 15 to 20)
#    0.000    1.143    1.429    4.286    4.000    4.000 
#    0.000    8.571    0.000    0.000    0.000    0.000 
#    0.000    0.000    0.000    0.000    0.000    0.000 
#
# Total GULP energy -78310.098733 kJ/mol
# GULP energy per Si atom -5593.578481 kJ/mol
# Density = 2.580464 g / cm^3
# Si number density = 25.863510 Si / 1000 Ang^3
#
#
#
# Elastic Constant Matrix: (Units=GPa)
#
#
# Indices 1 2 3 4 5 6 
#
# 1 120.7305 50.8613 30.8490 16.9402 8.5472 55.6706
# 2 50.8613 135.7318 33.6072 -3.4320 7.7915 36.7187
# 3 30.8490 33.6072 94.7789 1.0980 -3.1803 25.8591
# 4 16.9402 -3.4320 1.0980 33.3818 10.9371 8.3824
# 5 8.5472 7.7915 -3.1803 10.9371 31.4244 9.4768
# 6 55.6706 36.7187 25.8591 8.3824 9.4768 64.9551
#
#
#
# Elastic Compliance Matrix: (Units=1/GPa)
#
#
# Indices 1 2 3 4 5 6 
#
# 1 0.015362 -0.002895 -0.000945 -0.005956 0.001725 -0.010637
# 2 -0.002895 0.009855 -0.002019 0.003983 -0.002513 -0.002434
# 3 -0.000945 -0.002019 0.012643 -0.000313 0.003204 -0.003509
# 4 -0.005956 0.003983 -0.000313 0.037483 -0.012431 -0.000046
# 5 0.001725 -0.002513 0.003204 -0.012431 0.038228 -0.005306
# 6 -0.010637 -0.002434 -0.003509 -0.000046 -0.005306 0.028065
#
#
# Mechanical properties :
#
#
# Convention : Reuss Voigt Hill
#
# Bulk Modulus (GPa) = 38.24957 64.65293 51.45125
# Shear Modulus (GPa) = 30.85133 41.68051 36.26592
#
# Velocity S-wave (km/s) = 3.45752 4.01877 3.74866
# Velocity P-wave (km/s) = 5.54620 6.82540 6.21878
#
# Compressibility (1/GPa) = 0.02614408
#
# Stress axis : x y z
#
# Youngs Moduli (GPa) = 65.09438 101.46681 79.09614
#
# Poissons Ratio (x) = 0.29372 0.07473
# Poissons Ratio (y) = 0.18843 0.15968
# Poissons Ratio (z) = 0.06150 0.20484
#
# Static dielectric constant tensor:
#      x y z
#    x 2.136290 0.020210 -0.007500 
#    y 0.020210 2.002950 -0.000920 
#    z -0.007500 -0.000920 2.065650 
# 
# From -- ./inp_files/28147.got.cif
#   From: 2010.05.17/outbox.cif.g08.bks.cpg/sg2_15_cif.got.tgz:28147.got - 2010.06.03 11:33:40.
