data_PCOD9037280
_publ_section_title
;
Structure prediction by ZEFSAII (Michael W. Deem and Ramdas Pophale) SiO2 
 PCOD9037280
Probable space group: P -1
;
_chemical_formula_sum "Si O2"
_cell_formula_units_Z 16
_cell_length_a 13.347769
_cell_length_b 12.909636
_cell_length_c 13.234140
_cell_angle_alpha 45.917344
_cell_angle_beta 30.923301
_cell_angle_gamma 32.299558
_cell_volume 622.592556
_symmetry_space_group_name_H-M "P -1"
_symmetry_group_IT_number 2
_symmetry_cell_setting 'triclinic'
loop_
_space_group_symop_operation_xyz
x,y,z
-x,-y,-z
loop_
_atom_site_type_symbol
_atom_site_label
_atom_site_fract_x
_atom_site_fract_y
_atom_site_fract_z
Si Si1 0.058275 0.333103 0.862969
Si Si2 0.496055 0.031179 0.166435
Si Si3 0.475816 0.285138 0.168184
Si Si4 0.976452 0.184609 0.469156
Si Si5 0.777969 0.934487 0.281228
Si Si6 0.822120 0.335759 0.719288
Si Si7 0.720166 0.513942 0.328823
Si Si8 0.551492 0.717702 0.133226
O O1 0.074905 0.246545 0.800299
O O2 0.243362 0.384081 0.682006
O O3 0.207118 0.152390 0.934623
O O4 0.758312 0.516122 0.026929
O O5 0.397822 0.185794 0.236803
O O6 0.279687 0.012620 0.354049
O O7 0.478302 0.126846 0.013717
O O8 0.252552 0.473164 0.298989
O O9 0.703227 0.118479 0.162316
O O10 0.589809 0.343900 0.950611
O O11 0.859916 0.321534 0.577247
O O12 0.953177 0.292703 0.315117
O O13 0.753016 0.175495 0.658285
O O14 0.932882 0.859345 0.302584
O O15 0.500000 0.000000 0.500000
O O16 0.500000 0.500000 0.500000
O O17 0.704116 0.625319 0.170005
#
# Coordination Sequence:
#
# PCOD9037280 Si02
#       8
#     2   2   2   2   2   2   2   2
#     4  11  24  44  74 101 136 188 226 276 358 404
#     4  11  23  44  69 103 137 177 229 284 340 412
#     4  10  23  40  64  96 135 177 226 272 332 401
#     4  11  24  43  71  99 139 180 231 287 337 406
#     4  11  25  41  64 104 140 176 226 277 334 415
#     4  11  22  40  66  95 131 185 223 271 336 399
#     4  10  24  46  70 103 136 180 231 289 347 407
#     4  11  23  48  70  98 141 177 230 292 342 405
#
# _framework density 25.698989999999998
#
# number of rings (size 3 to 8) (size 9 to 14) (size 15 to 20)
#    0.000    1.250    2.500    3.000    3.500    1.500 
#    4.500    1.250    0.000    0.000    0.000    0.000 
#    0.000    0.000    0.000    0.000    0.000    0.000 
#
# Total GULP energy -89292.996305 kJ/mol
# GULP energy per Si atom -5580.812269 kJ/mol
# Density = 2.564050 g / cm^3
# Si number density = 25.698990 Si / 1000 Ang^3
#
#
#
# Elastic Constant Matrix: (Units=GPa)
#
#
# Indices 1 2 3 4 5 6 
#
# 1 107.7886 12.1362 14.1869 -16.1983 1.5759 -17.0394
# 2 12.1362 64.8735 5.3860 -0.9214 3.5504 -4.6617
# 3 14.1869 5.3860 64.5130 -1.3816 0.8856 -10.0910
# 4 -16.1983 -0.9214 -1.3816 30.0199 -12.0879 0.2412
# 5 1.5759 3.5504 0.8856 -12.0879 48.2558 0.5754
# 6 -17.0394 -4.6617 -10.0910 0.2412 0.5754 48.4231
#
#
#
# Elastic Compliance Matrix: (Units=1/GPa)
#
#
# Indices 1 2 3 4 5 6 
#
# 1 0.011164 -0.001691 -0.001668 0.006415 0.001357 0.003370
# 2 -0.001691 0.015917 -0.000837 -0.001018 -0.001365 0.000784
# 3 -0.001668 -0.000837 0.016365 -0.000314 -0.000296 0.002748
# 4 0.006415 -0.001018 -0.000314 0.040764 0.010061 0.001771
# 5 0.001357 -0.001365 -0.000296 0.010061 0.023305 -0.000043
# 6 0.003370 0.000784 0.002748 0.001771 -0.000043 0.022477
#
#
# Mechanical properties :
#
#
# Convention : Reuss Voigt Hill
#
# Bulk Modulus (GPa) = 28.52830 33.39926 30.96378
# Shear Modulus (GPa) = 33.31790 39.03749 36.17769
#
# Velocity S-wave (km/s) = 3.60456 3.90170 3.75607
# Velocity P-wave (km/s) = 5.33374 5.77254 5.55747
#
# Compressibility (1/GPa) = 0.03505292
#
# Stress axis : x y z
#
# Youngs Moduli (GPa) = 89.57152 62.82559 61.10747
#
# Poissons Ratio (x) = 0.10624 0.10193
# Poissons Ratio (y) = 0.15147 0.05117
# Poissons Ratio (z) = 0.14941 0.05261
#
# Static dielectric constant tensor:
#      x y z
#    x 2.120980 0.129730 -0.104360 
#    y 0.129730 2.058920 -0.077790 
#    z -0.104360 -0.077790 2.125350 
# 
# From -- ./inp_files/534235.got.cif
#   From: 2010.05.17/outbox.cif.g08.bks.cpg/sg2_268_cif.got.tgz:534235.got - 2010.06.03 11:33:40.
