data_PCOD9037974
_publ_section_title
;
Structure prediction by ZEFSAII (Michael W. Deem and Ramdas Pophale) SiO2 
 PCOD9037974
Probable space group: P -1
;
_chemical_formula_sum "Si O2"
_cell_formula_units_Z 16
_cell_length_a 8.136733
_cell_length_b 16.139434
_cell_length_c 11.465681
_cell_angle_alpha 52.121251
_cell_angle_beta 143.152548
_cell_angle_gamma 131.019632
_cell_volume 668.015309
_symmetry_space_group_name_H-M "P -1"
_symmetry_group_IT_number 2
_symmetry_cell_setting 'triclinic'
loop_
_space_group_symop_operation_xyz
x,y,z
-x,-y,-z
loop_
_atom_site_type_symbol
_atom_site_label
_atom_site_fract_x
_atom_site_fract_y
_atom_site_fract_z
Si Si1 0.484264 0.442965 0.667760
Si Si2 0.152377 0.258083 0.499429
Si Si3 0.727731 0.610155 0.091732
Si Si4 0.650499 0.295027 0.031886
Si Si5 0.633015 0.351952 0.501489
Si Si6 0.310674 0.204524 0.237338
Si Si7 0.659174 0.929568 0.856046
Si Si8 0.863276 0.003721 0.542278
O O1 0.500000 0.500000 0.500000
O O2 0.203718 0.332068 0.581043
O O3 0.462412 0.538650 0.657577
O O4 0.715036 0.383094 0.885343
O O5 0.443176 0.282446 0.563708
O O6 0.939463 0.296079 0.261231
O O7 0.016458 0.128899 0.566715
O O8 0.024264 0.602004 0.317027
O O9 0.500000 0.500000 0.000000
O O10 0.548934 0.654575 0.046302
O O11 0.826865 0.708686 0.966390
O O12 0.469544 0.161323 0.034590
O O13 0.547164 0.274725 0.405392
O O14 0.409562 0.149930 0.229193
O O15 0.101027 0.095149 0.277028
O O16 0.474391 0.010057 0.660014
O O17 0.000000 0.000000 0.000000
O O18 0.000000 0.000000 0.500000
#
# Coordination Sequence:
#
# PCOD9037974 Si02
#       8
#     2   2   2   2   2   2   2   2
#     4  10  23  41  68 100 133 182 230 286 351 408
#     4  10  23  44  66 101 141 181 233 283 355 411
#     4  11  25  44  66 102 139 183 234 283 348 415
#     4  10  23  41  65  94 135 178 228 283 340 414
#     4  11  24  43  69 102 140 179 238 291 344 412
#     4  11  25  43  73 103 144 188 230 290 355 414
#     4  10  25  45  67 103 140 188 231 283 350 419
#     4  11  23  45  71 103 140 182 235 290 345 421
#
# _framework density 23.951547999999999
#
# number of rings (size 3 to 8) (size 9 to 14) (size 15 to 20)
#    0.000    1.500    1.250    1.875    5.250    9.000 
#    0.000    1.250    0.000    0.000    0.000    0.000 
#    0.000    0.000    0.000    0.000    0.000    0.000 
#
# Total GULP energy -89367.930043 kJ/mol
# GULP energy per Si atom -5585.495628 kJ/mol
# Density = 2.389703 g / cm^3
# Si number density = 23.951548 Si / 1000 Ang^3
#
#
#
# Elastic Constant Matrix: (Units=GPa)
#
#
# Indices 1 2 3 4 5 6 
#
# 1 63.0991 16.5079 18.9280 7.7702 1.6405 -1.9920
# 2 16.5079 146.2660 45.8494 -3.6273 -7.2462 -9.1323
# 3 18.9280 45.8494 80.9036 2.6373 -7.5446 -3.3713
# 4 7.7702 -3.6273 2.6373 51.8827 15.6307 -9.7912
# 5 1.6405 -7.2462 -7.5446 15.6307 33.5032 0.5161
# 6 -1.9920 -9.1323 -3.3713 -9.7912 0.5161 32.5779
#
#
#
# Elastic Compliance Matrix: (Units=1/GPa)
#
#
# Indices 1 2 3 4 5 6 
#
# 1 0.017463 -0.000973 -0.003542 -0.002317 -0.000778 -0.000255
# 2 -0.000973 0.008559 -0.004552 0.001339 0.000214 0.002268
# 3 -0.003542 -0.004552 0.016152 -0.001793 0.003669 -0.000418
# 4 -0.002317 0.001339 -0.001793 0.024773 -0.011677 0.007678
# 5 -0.000778 0.000214 0.003669 -0.011677 0.036263 -0.003692
# 6 -0.000255 0.002268 -0.000418 0.007678 -0.003692 0.033639
#
#
# Mechanical properties :
#
#
# Convention : Reuss Voigt Hill
#
# Bulk Modulus (GPa) = 41.59711 50.31547 45.95629
# Shear Modulus (GPa) = 30.67581 37.52500 34.10041
#
# Velocity S-wave (km/s) = 3.58263 3.96246 3.77732
# Velocity P-wave (km/s) = 5.87525 6.47978 6.18490
#
# Compressibility (1/GPa) = 0.02404013
#
# Stress axis : x y z
#
# Youngs Moduli (GPa) = 57.26549 116.83656 61.91163
#
# Poissons Ratio (x) = 0.11363 0.21929
# Poissons Ratio (y) = 0.05569 0.28183
# Poissons Ratio (z) = 0.20284 0.53186
#
# Static dielectric constant tensor:
#      x y z
#    x 2.081040 0.074970 -0.135290 
#    y 0.074970 1.992670 -0.045720 
#    z -0.135290 -0.045720 1.996790 
# 
# From -- ./inp_files/403068.got.cif
#   From: 2010.05.17/outbox.cif.g08.bks.cpg/sg2_202_cif.got.tgz:403068.got - 2010.06.03 11:33:40.
