data_PCOD9037492
_publ_section_title
;
Structure prediction by ZEFSAII (Michael W. Deem and Ramdas Pophale) SiO2 
 PCOD9037492
Probable space group: P -1
;
_chemical_formula_sum "Si O2"
_cell_formula_units_Z 12
_cell_length_a 18.270576
_cell_length_b 6.603540
_cell_length_c 5.280739
_cell_angle_alpha 80.084178
_cell_angle_beta 106.118784
_cell_angle_gamma 120.789720
_cell_volume 525.456490
_symmetry_space_group_name_H-M "P -1"
_symmetry_group_IT_number 2
_symmetry_cell_setting 'triclinic'
loop_
_space_group_symop_operation_xyz
x,y,z
-x,-y,-z
loop_
_atom_site_type_symbol
_atom_site_label
_atom_site_fract_x
_atom_site_fract_y
_atom_site_fract_z
Si Si1 0.688887 0.930346 0.831531
Si Si2 0.697286 0.652911 0.396125
Si Si3 0.185714 0.518045 0.216558
Si Si4 0.081780 0.108282 0.858356
Si Si5 0.504157 0.366033 0.282841
Si Si6 0.987373 0.659557 0.652158
O O1 0.701681 0.815494 0.607791
O O2 0.587493 0.874739 0.752944
O O3 0.751208 0.210163 0.842165
O O4 0.702362 0.797330 0.115490
O O5 0.768921 0.568935 0.511939
O O6 0.602682 0.412746 0.364503
O O7 0.089985 0.485858 0.194418
O O8 0.163464 0.320782 0.022448
O O9 0.055401 0.216721 0.580102
O O10 0.077172 0.869758 0.804859
O O11 0.000000 0.000000 0.000000
O O12 0.500000 0.500000 0.500000
O O13 0.500000 0.500000 0.000000
O O14 0.000000 0.500000 0.500000
#
# Coordination Sequence:
#
# PCOD9037492 Si02
#       6
#     2   2   2   2   2   2
#     4  10  23  40  67  99 135 180 220 270 334 390
#     4  10  23  41  65  97 140 177 216 281 326 386
#     4  11  25  40  66  99 131 167 228 276 333 396
#     4   9  22  43  61  90 123 162 214 268 333 403
#     4   8  16  37  61  91 133 178 219 258 326 396
#     4  10  23  44  67  89 125 171 217 268 340 403
#
# _framework density 22.837281999999998
#
# number of rings (size 3 to 8) (size 9 to 14) (size 15 to 20)
#    0.000    2.333    0.000    0.000    4.667    8.667 
#    0.000    0.000    0.000   12.000    0.000    0.000 
#    0.000    0.000    0.000    0.000    0.000    0.000 
#
# Total GULP energy -66927.171436 kJ/mol
# GULP energy per Si atom -5577.264286 kJ/mol
# Density = 2.278530 g / cm^3
# Si number density = 22.837282 Si / 1000 Ang^3
#
#
#
# Elastic Constant Matrix: (Units=GPa)
#
#
# Indices 1 2 3 4 5 6 
#
# 1 91.1315 71.3915 15.7854 18.1702 0.8728 6.4593
# 2 71.3915 197.2457 44.1444 16.7024 4.8469 29.3273
# 3 15.7854 44.1444 106.2760 -3.7772 -9.9067 0.6430
# 4 18.1702 16.7024 -3.7772 34.7912 -0.0843 5.1019
# 5 0.8728 4.8469 -9.9067 -0.0843 36.3370 0.1835
# 6 6.4593 29.3273 0.6430 5.1019 0.1835 32.3602
#
#
#
# Elastic Compliance Matrix: (Units=1/GPa)
#
#
# Indices 1 2 3 4 5 6 
#
# 1 0.016691 -0.005906 -0.000243 -0.006351 0.000291 0.003025
# 2 -0.005906 0.008985 -0.003005 -0.000562 -0.001843 -0.006805
# 3 -0.000243 -0.003005 0.011088 0.002467 0.003425 0.002143
# 4 -0.006351 -0.000562 0.002467 0.033113 0.000995 -0.003498
# 5 0.000291 -0.001843 0.003425 0.000995 0.028689 0.001225
# 6 0.003025 -0.006805 0.002143 -0.003498 0.001225 0.036967
#
#
# Mechanical properties :
#
#
# Convention : Reuss Voigt Hill
#
# Bulk Modulus (GPa) = 54.18565 73.03288 63.60926
# Shear Modulus (GPa) = 31.25142 38.25315 34.75229
#
# Velocity S-wave (km/s) = 3.70325 4.09715 3.90517
# Velocity P-wave (km/s) = 6.48566 7.37776 6.94605
#
# Compressibility (1/GPa) = 0.01845507
#
# Stress axis : x y z
#
# Youngs Moduli (GPa) = 59.91250 111.30026 90.18883
#
# Poissons Ratio (x) = 0.65734 0.02191
# Poissons Ratio (y) = 0.35384 0.27105
# Poissons Ratio (z) = 0.01455 0.33450
#
# Static dielectric constant tensor:
#      x y z
#    x 1.958860 0.074310 0.012480 
#    y 0.074310 1.861940 0.011650 
#    z 0.012480 0.011650 1.856830 
# 
# From -- ./inp_files/5400.got.cif
#   From: 2010.05.17/outbox.cif.g08.bks.cpg/sg2_3_cif.got.tgz:5400.got - 2010.06.03 11:33:40.
