data_PCOD9037913
_publ_section_title
;
Structure prediction by ZEFSAII (Michael W. Deem and Ramdas Pophale) SiO2 
 PCOD9037913
Probable space group: P -1
;
_chemical_formula_sum "Si O2"
_cell_formula_units_Z 10
_cell_length_a 6.391266
_cell_length_b 12.015737
_cell_length_c 12.208201
_cell_angle_alpha 35.856468
_cell_angle_beta 101.891180
_cell_angle_gamma 121.487576
_cell_volume 421.681678
_symmetry_space_group_name_H-M "P -1"
_symmetry_group_IT_number 2
_symmetry_cell_setting 'triclinic'
loop_
_space_group_symop_operation_xyz
x,y,z
-x,-y,-z
loop_
_atom_site_type_symbol
_atom_site_label
_atom_site_fract_x
_atom_site_fract_y
_atom_site_fract_z
Si Si1 0.247293 0.635404 0.822892
Si Si2 0.254417 0.446442 0.197725
Si Si3 0.351014 0.119503 0.526631
Si Si4 0.677088 0.847158 0.072413
Si Si5 0.676850 0.282824 0.655606
O O1 0.473336 0.737439 0.675956
O O2 0.960155 0.504376 0.833797
O O3 0.278504 0.858639 0.708463
O O4 0.262749 0.484287 0.037729
O O5 0.148144 0.189343 0.442889
O O6 0.545255 0.647957 0.121757
O O7 0.520876 0.230813 0.566840
O O8 0.490600 0.707561 0.271506
O O9 0.645562 0.045418 0.872162
O O10 0.000000 0.000000 0.000000
O O11 0.000000 0.500000 0.500000
#
# Coordination Sequence:
#
# PCOD9037913 Si02
#       5
#     2   2   2   2   2
#     4  10  23  41  64  96 132 166 223 270 329 395
#     4  11  22  42  65  94 129 173 217 275 328 393
#     4  11  22  41  65  96 127 174 216 273 334 392
#     4  11  25  44  67 100 135 176 223 279 335 396
#     4  11  24  44  68  98 136 176 225 278 332 397
#
# _framework density 23.714572
#
# number of rings (size 3 to 8) (size 9 to 14) (size 15 to 20)
#    0.000    1.200    2.000    3.600    0.000    6.400 
#    3.600    0.000    0.000    0.000    0.000    0.000 
#    0.000    0.000    0.000    0.000    0.000    0.000 
#
# Total GULP energy -55822.671732 kJ/mol
# GULP energy per Si atom -5582.267173 kJ/mol
# Density = 2.366060 g / cm^3
# Si number density = 23.714572 Si / 1000 Ang^3
#
#
#
# Elastic Constant Matrix: (Units=GPa)
#
#
# Indices 1 2 3 4 5 6 
#
# 1 88.2754 37.8842 34.2488 13.4014 3.9669 16.8194
# 2 37.8842 131.2109 51.9447 5.5436 1.5288 23.7613
# 3 34.2488 51.9447 127.7173 20.7482 6.7090 2.2049
# 4 13.4014 5.5436 20.7482 40.7213 6.0312 2.0075
# 5 3.9669 1.5288 6.7090 6.0312 60.2329 3.7086
# 6 16.8194 23.7613 2.2049 2.0075 3.7086 34.0062
#
#
#
# Elastic Compliance Matrix: (Units=1/GPa)
#
#
# Indices 1 2 3 4 5 6 
#
# 1 0.014708 -0.002152 -0.002486 -0.003013 -0.000001 -0.005432
# 2 -0.002152 0.010942 -0.004036 0.001511 0.000561 -0.006470
# 3 -0.002486 -0.004036 0.010797 -0.004205 -0.000742 0.003679
# 4 -0.003013 0.001511 -0.004205 0.027834 -0.002115 -0.000705
# 5 -0.000001 0.000561 -0.000742 -0.002115 0.017010 -0.002073
# 6 -0.005432 -0.006470 0.003679 -0.000705 -0.002073 0.036643
#
#
# Mechanical properties :
#
#
# Convention : Reuss Voigt Hill
#
# Bulk Modulus (GPa) = 52.35824 66.15099 59.25461
# Shear Modulus (GPa) = 35.29877 41.86715 38.58296
#
# Velocity S-wave (km/s) = 3.86227 4.20630 4.03795
# Velocity P-wave (km/s) = 6.48197 7.17954 6.83966
#
# Compressibility (1/GPa) = 0.01909919
#
# Stress axis : x y z
#
# Youngs Moduli (GPa) = 67.98791 91.39264 92.62116
#
# Poissons Ratio (x) = 0.19664 0.23024
# Poissons Ratio (y) = 0.14628 0.37386
# Poissons Ratio (z) = 0.16901 0.36890
#
# Static dielectric constant tensor:
#      x y z
#    x 1.977530 0.020520 -0.011570 
#    y 0.020520 1.908250 -0.055230 
#    z -0.011570 -0.055230 1.896250 
# 
# From -- ./inp_files/18198.got.cif
#   From: 2010.05.17/outbox.cif.g08.bks.cpg/sg2_10_cif.got.tgz:18198.got - 2010.06.03 11:33:40.
