data_PCOD9037919
_publ_section_title
;
Structure prediction by ZEFSAII (Michael W. Deem and Ramdas Pophale) SiO2 
 PCOD9037919
Probable space group: P -1
;
_chemical_formula_sum "Si O2"
_cell_formula_units_Z 16
_cell_length_a 6.802586
_cell_length_b 15.262767
_cell_length_c 7.329554
_cell_angle_alpha 85.453828
_cell_angle_beta 105.722025
_cell_angle_gamma 106.353524
_cell_volume 702.889747
_symmetry_space_group_name_H-M "P -1"
_symmetry_group_IT_number 2
_symmetry_cell_setting 'triclinic'
loop_
_space_group_symop_operation_xyz
x,y,z
-x,-y,-z
loop_
_atom_site_type_symbol
_atom_site_label
_atom_site_fract_x
_atom_site_fract_y
_atom_site_fract_z
Si Si1 0.397795 0.908281 0.876957
Si Si2 0.756029 0.286633 0.027576
Si Si3 0.048120 0.565979 0.217894
Si Si4 0.946801 0.309248 0.474295
Si Si5 0.313470 0.047910 0.387205
Si Si6 0.403799 0.576893 0.888738
Si Si7 0.986185 0.115470 0.504630
Si Si8 0.673681 0.565927 0.652870
O O1 0.327622 0.820409 0.007425
O O2 0.185750 0.907889 0.704748
O O3 0.582016 0.901872 0.778751
O O4 0.500000 0.000000 0.000000
O O5 0.813446 0.293745 0.256310
O O6 0.583520 0.343609 0.975025
O O7 0.940456 0.353760 0.942595
O O8 0.121722 0.627518 0.405112
O O9 0.198322 0.501468 0.216804
O O10 0.830329 0.487481 0.210742
O O11 0.964831 0.211262 0.558772
O O12 0.175062 0.364650 0.453796
O O13 0.104846 0.961182 0.352276
O O14 0.500000 0.000000 0.500000
O O15 0.217646 0.112252 0.487676
O O16 0.555377 0.616255 0.752312
O O17 0.500000 0.500000 0.000000
O O18 0.500000 0.500000 0.500000
#
# Coordination Sequence:
#
# PCOD9037919 Si02
#       8
#     2   2   2   2   2   2   2   2
#     4  10  23  41  64  97 128 163 212 272 329 387
#     4  11  24  43  66  95 132 174 221 270 329 390
#     4  12  24  45  63  94 140 173 215 275 317 384
#     4  11  23  41  67  95 130 174 219 267 325 386
#     4   9  19  42  66  89 125 162 207 266 327 379
#     4  12  23  41  65  92 131 178 218 265 323 387
#     4   9  21  41  66  95 122 167 215 263 322 392
#     4  12  23  40  64  94 130 173 222 262 323 384
#
# _framework density 22.763171
#
# number of rings (size 3 to 8) (size 9 to 14) (size 15 to 20)
#    0.000    1.250    3.750    2.250    3.500    0.500 
#    2.250    5.000    0.000    0.000    0.000    0.000 
#    0.000    0.000    0.000    0.000    0.000    0.000 
#
# Total GULP energy -89113.000618 kJ/mol
# GULP energy per Si atom -5569.562539 kJ/mol
# Density = 2.271136 g / cm^3
# Si number density = 22.763171 Si / 1000 Ang^3
#
#
#
# Elastic Constant Matrix: (Units=GPa)
#
#
# Indices 1 2 3 4 5 6 
#
# 1 110.0075 12.6043 8.3093 2.6925 -9.6380 -0.9482
# 2 12.6043 145.8810 12.6666 -2.7056 0.3000 1.8675
# 3 8.3093 12.6666 32.1120 3.4001 -8.0624 3.1249
# 4 2.6925 -2.7056 3.4001 37.0842 2.7073 -5.9495
# 5 -9.6380 0.3000 -8.0624 2.7073 27.2601 -6.1933
# 6 -0.9482 1.8675 3.1249 -5.9495 -6.1933 22.1869
#
#
#
# Elastic Compliance Matrix: (Units=1/GPa)
#
#
# Indices 1 2 3 4 5 6 
#
# 1 0.009607 -0.000744 -0.001418 -0.000637 0.003377 0.001445
# 2 -0.000744 0.007210 -0.003070 0.000908 -0.001422 -0.000360
# 3 -0.001418 -0.003070 0.036025 -0.004687 0.009887 -0.003373
# 4 -0.000637 0.000908 -0.004687 0.028920 -0.002781 0.007535
# 5 0.003377 -0.001422 0.009887 -0.002781 0.043421 0.010246
# 6 0.001445 -0.000360 -0.003373 0.007535 0.010246 0.050520
#
#
# Mechanical properties :
#
#
# Convention : Reuss Voigt Hill
#
# Bulk Modulus (GPa) = 23.59646 39.46234 31.52940
# Shear Modulus (GPa) = 24.96353 34.26758 29.61556
#
# Velocity S-wave (km/s) = 3.31518 3.88415 3.61089
# Velocity P-wave (km/s) = 5.00425 6.12284 5.59159
#
# Compressibility (1/GPa) = 0.04237924
#
# Stress axis : x y z
#
# Youngs Moduli (GPa) = 104.09600 138.69443 27.75815
#
# Poissons Ratio (x) = 0.10321 0.03935
# Poissons Ratio (y) = 0.07747 0.08521
# Poissons Ratio (z) = 0.14757 0.42574
#
# Static dielectric constant tensor:
#      x y z
#    x 1.989890 -0.038080 -0.004930 
#    y -0.038080 1.895500 -0.056940 
#    z -0.004930 -0.056940 1.972140 
# 
# From -- ./inp_files/135368.got.cif
#   From: 2010.05.17/outbox.cif.g08.bks.cpg/sg2_68_cif.got.tgz:135368.got - 2010.06.03 11:33:40.
