data_PCOD9037787
_publ_section_title
;
Structure prediction by ZEFSAII (Michael W. Deem and Ramdas Pophale) SiO2 
 PCOD9037787
Probable space group: P -1
;
_chemical_formula_sum "Si O2"
_cell_formula_units_Z 14
_cell_length_a 9.919528
_cell_length_b 10.365206
_cell_length_c 11.747606
_cell_angle_alpha 67.912671
_cell_angle_beta 50.085914
_cell_angle_gamma 40.707868
_cell_volume 589.337064
_symmetry_space_group_name_H-M "P -1"
_symmetry_group_IT_number 2
_symmetry_cell_setting 'triclinic'
loop_
_space_group_symop_operation_xyz
x,y,z
-x,-y,-z
loop_
_atom_site_type_symbol
_atom_site_label
_atom_site_fract_x
_atom_site_fract_y
_atom_site_fract_z
Si Si1 0.841244 0.451424 0.126030
Si Si2 0.205880 0.964628 0.822394
Si Si3 0.375373 0.875555 0.299941
Si Si4 0.787461 0.521150 0.657755
Si Si5 0.679793 0.965922 0.045122
Si Si6 0.993464 0.893313 0.373640
Si Si7 0.618572 0.572955 0.962570
O O1 0.062016 0.212116 0.106718
O O2 0.610945 0.631380 0.271680
O O3 0.711844 0.486688 0.065460
O O4 0.000000 0.500000 0.000000
O O5 0.491170 0.735892 0.732465
O O6 0.248772 0.072823 0.845227
O O7 0.094978 0.041718 0.730715
O O8 0.161692 0.920555 0.325680
O O9 0.485521 0.947771 0.150519
O O10 0.246575 0.988399 0.451577
O O11 0.834775 0.343691 0.637937
O O12 0.827820 0.492562 0.781912
O O13 0.000000 0.500000 0.500000
O O14 0.557432 0.187352 0.015263
O O15 0.000000 0.000000 0.000000
O O16 0.500000 0.500000 0.000000
#
# Coordination Sequence:
#
# PCOD9037787 Si02
#       7
#     2   2   2   2   2   2   2
#     4  10  23  41  63 100 135 181 234 285 347 429
#     4  11  27  44  75 111 134 188 254 302 358 431
#     4  10  24  45  68 103 144 200 227 289 375 435
#     4  11  26  45  74 109 143 189 244 301 375 424
#     4  10  24  43  68 104 141 178 246 293 359 425
#     4  11  24  47  72  97 155 185 235 304 361 432
#     4  11  24  42  70 104 137 183 236 303 359 418
#
# _framework density 23.755503999999998
#
# number of rings (size 3 to 8) (size 9 to 14) (size 15 to 20)
#    0.000    1.429    0.000    3.429   14.000    6.857 
#    0.000    4.286    0.000    0.000    0.000    0.000 
#    0.000    0.000    0.000    0.000    0.000    0.000 
#
# Total GULP energy -78311.110473 kJ/mol
# GULP energy per Si atom -5593.650748 kJ/mol
# Density = 2.370144 g / cm^3
# Si number density = 23.755504 Si / 1000 Ang^3
#
#
#
# Elastic Constant Matrix: (Units=GPa)
#
#
# Indices 1 2 3 4 5 6 
#
# 1 97.5069 32.6991 13.7620 -4.7491 -17.0101 0.1144
# 2 32.6991 190.8635 54.3539 29.8984 -13.0840 -6.0684
# 3 13.7620 54.3539 130.8974 28.3901 -13.8201 -15.8701
# 4 -4.7491 29.8984 28.3901 49.3824 5.5924 -5.1309
# 5 -17.0101 -13.0840 -13.8201 5.5924 33.9542 2.7807
# 6 0.1144 -6.0684 -15.8701 -5.1309 2.7807 32.6904
#
#
#
# Elastic Compliance Matrix: (Units=1/GPa)
#
#
# Indices 1 2 3 4 5 6 
#
# 1 0.011888 -0.001906 -0.000465 0.001949 0.004770 -0.000721
# 2 -0.001906 0.006686 -0.001696 -0.003454 0.001521 -0.000247
# 3 -0.000465 -0.001696 0.010321 -0.005015 0.003847 0.003583
# 4 0.001949 -0.003454 -0.005015 0.026360 -0.006871 0.001639
# 5 0.004770 0.001521 0.003847 -0.006871 0.035284 -0.001947
# 6 -0.000721 -0.000247 0.003583 0.001639 -0.001947 0.032709
#
#
# Mechanical properties :
#
#
# Convention : Reuss Voigt Hill
#
# Bulk Modulus (GPa) = 48.16621 68.98866 58.57743
# Shear Modulus (GPa) = 36.15234 44.43559 40.29396
#
# Velocity S-wave (km/s) = 3.90532 4.32966 4.12296
# Velocity P-wave (km/s) = 6.37615 7.35519 6.88310
#
# Compressibility (1/GPa) = 0.02076144
#
# Stress axis : x y z
#
# Youngs Moduli (GPa) = 84.11639 149.55817 96.88961
#
# Poissons Ratio (x) = 0.28499 0.04507
# Poissons Ratio (y) = 0.16029 0.16436
# Poissons Ratio (z) = 0.03913 0.25371
#
# Static dielectric constant tensor:
#      x y z
#    x 1.903500 -0.176290 0.027030 
#    y -0.176290 1.716400 0.056060 
#    z 0.027030 0.056060 1.890290 
# 
# From -- ./inp_files/381573.got.cif
#   From: 2010.05.17/outbox.cif.g08.bks.cpg/sg2_191_cif.got.tgz:381573.got - 2010.06.03 11:33:40.
