data_PCOD9037739
_publ_section_title
;
Structure prediction by ZEFSAII (Michael W. Deem and Ramdas Pophale) SiO2 
 PCOD9037739
Probable space group: P -1
;
_chemical_formula_sum "Si O2"
_cell_formula_units_Z 16
_cell_length_a 6.841047
_cell_length_b 10.126619
_cell_length_c 11.765108
_cell_angle_alpha 90.906822
_cell_angle_beta 99.297728
_cell_angle_gamma 69.967473
_cell_volume 754.988938
_symmetry_space_group_name_H-M "P -1"
_symmetry_group_IT_number 2
_symmetry_cell_setting 'triclinic'
loop_
_space_group_symop_operation_xyz
x,y,z
-x,-y,-z
loop_
_atom_site_type_symbol
_atom_site_label
_atom_site_fract_x
_atom_site_fract_y
_atom_site_fract_z
Si Si1 0.995030 0.638205 0.246339
Si Si2 0.430883 0.685512 0.283606
Si Si3 0.588998 0.794400 0.091478
Si Si4 0.139074 0.308308 0.298973
Si Si5 0.671453 0.073439 0.547495
Si Si6 0.791092 0.625894 0.450527
Si Si7 0.500223 0.888719 0.834184
Si Si8 0.133393 0.856400 0.652048
O O1 0.210934 0.665820 0.268067
O O2 0.059620 0.468934 0.249033
O O3 0.839722 0.720320 0.133440
O O4 0.868368 0.697681 0.352943
O O5 0.494873 0.701560 0.161437
O O6 0.417514 0.824988 0.353868
O O7 0.612817 0.576020 0.375408
O O8 0.509014 0.953859 0.134556
O O9 0.527310 0.806028 0.954765
O O10 0.258727 0.299420 0.431756
O O11 0.303623 0.198543 0.228844
O O12 0.930489 0.270664 0.305874
O O13 0.734556 0.157860 0.451918
O O14 0.500000 0.000000 0.500000
O O15 0.899488 0.965772 0.605596
O O16 0.000000 0.500000 0.500000
O O17 0.278855 0.901184 0.755211
#
# Coordination Sequence:
#
# PCOD9037739 Si02
#       8
#     2   2   2   2   2   2   2   2
#     4  10  23  41  62  89 126 164 199 247 307 368
#     4  11  20  37  62  85 119 166 202 241 308 366
#     4  10  24  44  61  87 120 157 208 261 303 353
#     4  11  23  39  61  93 126 159 203 249 300 367
#     4  11  22  37  61  94 127 158 199 250 305 366
#     4   9  20  36  56  87 123 154 193 241 291 358
#     4  11  24  42  65  88 118 158 209 260 301 356
#     4  11  22  37  61  92 124 157 196 250 307 359
#
# _framework density 21.192364999999999
#
# number of rings (size 3 to 8) (size 9 to 14) (size 15 to 20)
#    0.000    1.500    0.000    5.250    0.000   10.500 
#    0.000    6.250    0.000    0.000    0.000    0.000 
#    0.000    0.000    0.000    0.000    0.000    0.000 
#
# Total GULP energy -89315.420549 kJ/mol
# GULP energy per Si atom -5582.213784 kJ/mol
# Density = 2.114413 g / cm^3
# Si number density = 21.192365 Si / 1000 Ang^3
#
#
#
# Elastic Constant Matrix: (Units=GPa)
#
#
# Indices 1 2 3 4 5 6 
#
# 1 150.9834 28.9853 44.7566 5.6039 0.0865 -7.8080
# 2 28.9853 67.1128 7.7789 2.7563 -7.9700 -10.7656
# 3 44.7566 7.7789 111.3908 -9.6034 -3.2704 -2.5042
# 4 5.6039 2.7563 -9.6034 22.6364 -8.0961 2.3114
# 5 0.0865 -7.9700 -3.2704 -8.0961 21.8375 -3.3555
# 6 -7.8080 -10.7656 -2.5042 2.3114 -3.3555 31.9574
#
#
#
# Elastic Compliance Matrix: (Units=1/GPa)
#
#
# Indices 1 2 3 4 5 6 
#
# 1 0.008571 -0.003391 -0.003686 -0.004559 -0.003417 0.000634
# 2 -0.003391 0.018195 0.000565 0.001136 0.008099 0.006113
# 3 -0.003686 0.000565 0.011179 0.007215 0.004589 0.000126
# 4 -0.004559 0.001136 0.007215 0.056329 0.022102 -0.001919
# 5 -0.003417 0.008099 0.004589 0.022102 0.058691 0.006817
# 6 0.000634 0.006113 0.000126 -0.001919 0.006817 0.034370
#
#
# Mechanical properties :
#
#
# Convention : Reuss Voigt Hill
#
# Bulk Modulus (GPa) = 40.12779 54.72541 47.42660
# Shear Modulus (GPa) = 23.96168 31.81735 27.88951
#
# Velocity S-wave (km/s) = 3.36620 3.87894 3.63163
# Velocity P-wave (km/s) = 5.83820 6.77797 6.32556
#
# Compressibility (1/GPa) = 0.02492039
#
# Stress axis : x y z
#
# Youngs Moduli (GPa) = 116.67324 54.95921 89.45682
#
# Poissons Ratio (x) = 0.18638 0.32975
# Poissons Ratio (y) = 0.39567 -0.05056
# Poissons Ratio (z) = 0.43007 -0.03106
#
# Static dielectric constant tensor:
#      x y z
#    x 1.783890 -0.051960 0.014880 
#    y -0.051960 1.863030 -0.028670 
#    z 0.014880 -0.028670 1.791200 
# 
# From -- ./inp_files/364570.got.cif
#   From: 2010.05.17/outbox.cif.g08.bks.cpg/sg2_183_cif.got.tgz:364570.got - 2010.06.03 11:33:40.
