data_PCOD9037905
_publ_section_title
;
Structure prediction by ZEFSAII (Michael W. Deem and Ramdas Pophale) SiO2 
 PCOD9037905
Probable space group: P -1
;
_chemical_formula_sum "Si O2"
_cell_formula_units_Z 16
_cell_length_a 14.906991
_cell_length_b 11.351989
_cell_length_c 20.267376
_cell_angle_alpha 150.611623
_cell_angle_beta 148.797068
_cell_angle_gamma 27.385645
_cell_volume 721.716726
_symmetry_space_group_name_H-M "P -1"
_symmetry_group_IT_number 2
_symmetry_cell_setting 'triclinic'
loop_
_space_group_symop_operation_xyz
x,y,z
-x,-y,-z
loop_
_atom_site_type_symbol
_atom_site_label
_atom_site_fract_x
_atom_site_fract_y
_atom_site_fract_z
Si Si1 0.552922 0.194882 0.088219
Si Si2 0.087349 0.148657 0.584212
Si Si3 0.309619 0.826585 0.057694
Si Si4 0.976900 0.120211 0.346770
Si Si5 0.706275 0.703208 0.502707
Si Si6 0.398493 0.591598 0.300972
Si Si7 0.909927 0.802969 0.785573
Si Si8 0.528637 0.929578 0.816404
O O1 0.800106 0.056461 0.188305
O O2 0.420060 0.496802 0.191518
O O3 0.500000 0.000000 0.000000
O O4 0.489455 0.175165 0.964751
O O5 0.044613 0.113088 0.462947
O O6 0.984136 0.484474 0.703102
O O7 0.330082 0.002753 0.684118
O O8 0.000000 0.000000 0.500000
O O9 0.288654 0.939508 0.174292
O O10 0.314080 0.060878 0.129630
O O11 0.500000 0.500000 0.000000
O O12 0.098991 0.840267 0.922825
O O13 0.833688 0.464742 0.410910
O O14 0.189728 0.898055 0.335206
O O15 0.612258 0.580462 0.436568
O O16 0.855176 0.779106 0.665747
O O17 0.500000 0.000000 0.500000
O O18 0.401674 0.356365 0.236378
#
# Coordination Sequence:
#
# PCOD9037905 Si02
#       8
#     2   2   2   2   2   2   2   2
#     4   9  20  42  59  91 136 168 216 272 329 391
#     4  11  22  41  67  99 136 172 221 276 336 403
#     4  11  24  44  64  97 135 179 226 271 336 407
#     4  10  23  41  64  96 127 173 222 273 336 400
#     4  10  23  44  67  92 131 176 220 282 336 398
#     4  10  23  42  65 100 133 168 229 279 332 401
#     4  10  24  44  65  97 137 175 222 280 339 401
#     4  11  23  40  69  97 133 182 217 280 335 397
#
# _framework density 22.169363000000001
#
# number of rings (size 3 to 8) (size 9 to 14) (size 15 to 20)
#    0.000    1.750    1.250    3.000    3.500    6.000 
#    2.250    0.000    0.000    0.000    0.000    0.000 
#    0.000    0.000    0.000    0.000    0.000    0.000 
#
# Total GULP energy -89188.053853 kJ/mol
# GULP energy per Si atom -5574.253366 kJ/mol
# Density = 2.211890 g / cm^3
# Si number density = 22.169363 Si / 1000 Ang^3
#
#
#
# Elastic Constant Matrix: (Units=GPa)
#
#
# Indices 1 2 3 4 5 6 
#
# 1 91.6600 34.5591 35.1532 8.0951 17.1281 -19.1717
# 2 34.5591 105.2336 19.9106 14.7848 2.7438 -25.3713
# 3 35.1532 19.9106 114.5827 -10.0441 14.7297 -8.5722
# 4 8.0951 14.7848 -10.0441 26.5838 2.1012 0.7214
# 5 17.1281 2.7438 14.7297 2.1012 31.9492 5.9687
# 6 -19.1717 -25.3713 -8.5722 0.7214 5.9687 44.1838
#
#
#
# Elastic Compliance Matrix: (Units=1/GPa)
#
#
# Indices 1 2 3 4 5 6 
#
# 1 0.016288 -0.002360 -0.003528 -0.004534 -0.007754 0.006150
# 2 -0.002360 0.013172 -0.001786 -0.007474 0.000276 0.006278
# 3 -0.003528 -0.001786 0.011145 0.006557 -0.003520 -0.000025
# 4 -0.004534 -0.007474 0.006557 0.045935 -0.001949 -0.005474
# 5 -0.007754 0.000276 -0.003520 -0.001949 0.038886 -0.009110
# 6 0.006150 0.006278 -0.000025 -0.005474 -0.009110 0.030221
#
#
# Mechanical properties :
#
#
# Convention : Reuss Voigt Hill
#
# Bulk Modulus (GPa) = 39.59005 54.52466 47.05736
# Shear Modulus (GPa) = 27.86860 35.33359 31.60109
#
# Velocity S-wave (km/s) = 3.54937 3.99658 3.77960
# Velocity P-wave (km/s) = 5.89018 6.77826 6.34976
#
# Compressibility (1/GPa) = 0.02525887
#
# Stress axis : x y z
#
# Youngs Moduli (GPa) = 61.39430 75.91872 89.72331
#
# Poissons Ratio (x) = 0.17915 0.31652
# Poissons Ratio (y) = 0.14488 0.16023
# Poissons Ratio (z) = 0.21658 0.13558
#
# Static dielectric constant tensor:
#      x y z
#    x 1.841630 0.046590 -0.015700 
#    y 0.046590 1.860430 0.034290 
#    z -0.015700 0.034290 1.886650 
# 
# From -- ./inp_files/597890.got.cif
#   From: 2010.05.17/outbox.cif.g08.bks.cpg/sg2_299_cif.got.tgz:597890.got - 2010.06.03 11:33:40.
