data_PCOD9037435
_publ_section_title
;
Structure prediction by ZEFSAII (Michael W. Deem and Ramdas Pophale) SiO2 
 PCOD9037435
Probable space group: P -1
;
_chemical_formula_sum "Si O2"
_cell_formula_units_Z 16
_cell_length_a 14.054210
_cell_length_b 6.501316
_cell_length_c 10.103882
_cell_angle_alpha 116.925983
_cell_angle_beta 111.437841
_cell_angle_gamma 102.809460
_cell_volume 677.661632
_symmetry_space_group_name_H-M "P -1"
_symmetry_group_IT_number 2
_symmetry_cell_setting 'triclinic'
loop_
_space_group_symop_operation_xyz
x,y,z
-x,-y,-z
loop_
_atom_site_type_symbol
_atom_site_label
_atom_site_fract_x
_atom_site_fract_y
_atom_site_fract_z
Si Si1 0.769033 0.397951 0.925159
Si Si2 0.384615 0.690949 0.432669
Si Si3 0.486470 0.252989 0.102550
Si Si4 0.321211 0.338710 0.837692
Si Si5 0.998503 0.765674 0.263915
Si Si6 0.211620 0.793311 0.519525
Si Si7 0.377358 0.176186 0.316121
Si Si8 0.080010 0.358829 0.515903
O O1 0.693110 0.408862 0.767197
O O2 0.737314 0.095642 0.825316
O O3 0.714332 0.472675 0.044659
O O4 0.905202 0.590763 0.056500
O O5 0.332052 0.850054 0.531162
O O6 0.357785 0.419299 0.412516
O O7 0.523995 0.831618 0.542135
O O8 0.606596 0.509205 0.209222
O O9 0.434782 0.227269 0.214320
O O10 0.400155 0.275170 0.959231
O O11 0.500000 0.000000 0.000000
O O12 0.221074 0.055326 0.665222
O O13 0.927344 0.684338 0.343220
O O14 0.108789 0.716445 0.336647
O O15 0.039352 0.072136 0.351545
O O16 0.188425 0.572343 0.552829
O O17 0.000000 0.500000 0.500000
#
# Coordination Sequence:
#
# PCOD9037435 Si02
#       8
#     2   2   2   2   2   2   2   2
#     4  12  24  43  68  97 136 171 225 278 327 393
#     4  11  27  45  64  96 135 182 221 271 331 406
#     4  11  22  40  65 102 130 165 220 274 330 388
#     4  11  24  38  69 104 131 165 218 283 326 386
#     4  10  23  40  67 101 128 175 221 278 332 390
#     4  11  25  43  69  97 138 176 219 274 331 402
#     4  11  25  45  69  93 133 183 221 269 343 396
#     4   9  19  40  65  98 134 168 218 275 335 385
#
# _framework density 23.610603999999999
#
# number of rings (size 3 to 8) (size 9 to 14) (size 15 to 20)
#    0.000    1.250    2.500    3.375    3.500    8.500 
#    0.000    1.250    0.000    0.000    0.000    0.000 
#    0.000    0.000    0.000    0.000    0.000    0.000 
#
# Total GULP energy -89414.360370 kJ/mol
# GULP energy per Si atom -5588.397523 kJ/mol
# Density = 2.355687 g / cm^3
# Si number density = 23.610604 Si / 1000 Ang^3
#
#
#
# Elastic Constant Matrix: (Units=GPa)
#
#
# Indices 1 2 3 4 5 6 
#
# 1 54.6230 10.4991 -2.7354 -4.7363 -1.4799 -7.3979
# 2 10.4991 103.8910 28.1031 12.3993 9.0519 3.1175
# 3 -2.7354 28.1031 98.3312 5.0911 19.5937 2.3908
# 4 -4.7363 12.3993 5.0911 42.2377 -2.2679 -0.6660
# 5 -1.4799 9.0519 19.5937 -2.2679 31.8275 1.1602
# 6 -7.3979 3.1175 2.3908 -0.6660 1.1602 42.8013
#
#
#
# Elastic Compliance Matrix: (Units=1/GPa)
#
#
# Indices 1 2 3 4 5 6 
#
# 1 0.019670 -0.002800 0.000848 0.003050 0.001276 0.003569
# 2 -0.002800 0.011246 -0.002718 -0.003406 -0.001856 -0.001154
# 3 0.000848 -0.002718 0.012396 -0.000973 -0.006882 -0.000176
# 4 0.003050 -0.003406 -0.000973 0.025339 0.003474 0.001130
# 5 0.001276 -0.001856 -0.006882 0.003474 0.036498 -0.000195
# 6 0.003569 -0.001154 -0.000176 0.001130 -0.000195 0.024097
#
#
# Mechanical properties :
#
#
# Convention : Reuss Voigt Hill
#
# Bulk Modulus (GPa) = 29.43372 36.50876 32.97124
# Shear Modulus (GPa) = 33.35328 38.10518 35.72923
#
# Velocity S-wave (km/s) = 3.76259 4.02170 3.89430
# Velocity P-wave (km/s) = 5.60084 6.08784 5.84941
#
# Compressibility (1/GPa) = 0.03397464
#
# Stress axis : x y z
#
# Youngs Moduli (GPa) = 50.83790 88.91718 80.67076
#
# Poissons Ratio (x) = 0.24894 -0.06844
# Poissons Ratio (y) = 0.14233 0.21925
# Poissons Ratio (z) = -0.04313 0.24167
#
# Static dielectric constant tensor:
#      x y z
#    x 1.932000 0.033160 0.025070 
#    y 0.033160 1.901240 -0.022060 
#    z 0.025070 -0.022060 1.904410 
# 
# From -- ./inp_files/71033.got.cif
#   From: 2010.05.17/outbox.cif.g08.bks.cpg/sg2_36_cif.got.tgz:71033.got - 2010.06.03 11:33:40.
