data_PCOD9037273
_publ_section_title
;
Structure prediction by ZEFSAII (Michael W. Deem and Ramdas Pophale) SiO2 
 PCOD9037273
Probable space group: P -1
;
_chemical_formula_sum "Si O2"
_cell_formula_units_Z 12
_cell_length_a 6.170034
_cell_length_b 14.834594
_cell_length_c 6.959178
_cell_angle_alpha 55.072466
_cell_angle_beta 77.801536
_cell_angle_gamma 95.902333
_cell_volume 490.136481
_symmetry_space_group_name_H-M "P -1"
_symmetry_group_IT_number 2
_symmetry_cell_setting 'triclinic'
loop_
_space_group_symop_operation_xyz
x,y,z
-x,-y,-z
loop_
_atom_site_type_symbol
_atom_site_label
_atom_site_fract_x
_atom_site_fract_y
_atom_site_fract_z
Si Si1 0.580919 0.730016 0.551602
Si Si2 0.766473 0.916668 0.562350
Si Si3 0.787819 0.544079 0.749903
Si Si4 0.111765 0.673176 0.870190
Si Si5 0.395475 0.932033 0.913091
Si Si6 0.948630 0.738476 0.200394
O O1 0.754397 0.798624 0.599078
O O2 0.563900 0.593721 0.729567
O O3 0.716266 0.767523 0.281213
O O4 0.334054 0.747669 0.621456
O O5 0.580728 0.892911 0.796862
O O6 0.691195 0.986409 0.317421
O O7 0.000000 0.000000 0.500000
O O8 0.781922 0.412760 0.916605
O O9 0.918012 0.614502 0.455142
O O10 0.934083 0.600154 0.840333
O O11 0.993036 0.735757 0.969861
O O12 0.173374 0.828529 0.131066
O O13 0.500000 0.000000 0.000000
#
# Coordination Sequence:
#
# PCOD9037273 Si02
#       6
#     2   2   2   2   2   2
#     4  10  23  40  64  95 124 165 216 259 320 389
#     4  11  25  43  66  94 132 172 216 272 326 386
#     4   9  24  40  65  95 126 165 220 259 318 393
#     4  11  20  46  63  88 136 168 202 277 316 371
#     4  11  25  43  66  94 132 172 216 272 326 386
#     4  10  23  40  64  95 124 165 216 259 320 389
#
# _framework density 24.482977000000002
#
# number of rings (size 3 to 8) (size 9 to 14) (size 15 to 20)
#    1.000    0.667    1.667    2.000    4.667    2.667 
#    3.000    1.667    0.000    0.000    0.000    0.000 
#    0.000    0.000    0.000    0.000    0.000    0.000 
#
# Total GULP energy -67021.948704 kJ/mol
# GULP energy per Si atom -5585.162392 kJ/mol
# Density = 2.442725 g / cm^3
# Si number density = 24.482977 Si / 1000 Ang^3
#
#
#
# Elastic Constant Matrix: (Units=GPa)
#
#
# Indices 1 2 3 4 5 6 
#
# 1 59.3347 21.9412 68.2160 19.2856 -27.2616 -1.2659
# 2 21.9412 61.7605 21.6538 16.2941 -14.5358 -1.9376
# 3 68.2160 21.6538 122.5153 23.1436 -23.5376 -4.1420
# 4 19.2856 16.2941 23.1436 52.2748 -8.1603 -0.2639
# 5 -27.2616 -14.5358 -23.5376 -8.1603 57.6503 3.7661
# 6 -1.2659 -1.9376 -4.1420 -0.2639 3.7661 34.6933
#
#
#
# Elastic Compliance Matrix: (Units=1/GPa)
#
#
# Indices 1 2 3 4 5 6 
#
# 1 0.061609 -0.006793 -0.029349 -0.005309 0.014902 -0.003293
# 2 -0.006793 0.019573 0.001422 -0.003957 0.001691 0.000801
# 3 -0.029349 0.001422 0.023678 -0.000728 -0.004104 0.002275
# 4 -0.005309 -0.003957 -0.000728 0.022549 -0.000596 -0.000265
# 5 0.014902 0.001691 -0.004104 -0.000596 0.023214 -0.002376
# 6 -0.003293 0.000801 0.002275 -0.000265 -0.002376 0.029276
#
#
# Mechanical properties :
#
#
# Convention : Reuss Voigt Hill
#
# Bulk Modulus (GPa) = 28.23124 51.91472 40.07298
# Shear Modulus (GPa) = 19.14639 37.71033 28.42836
#
# Velocity S-wave (km/s) = 2.79951 3.92888 3.41126
# Velocity P-wave (km/s) = 4.69102 6.46776 5.64967
#
# Compressibility (1/GPa) = 0.03542175
#
# Stress axis : x y z
#
# Youngs Moduli (GPa) = 16.23140 51.09027 42.23329
#
# Poissons Ratio (x) = 0.34705 1.23949
# Poissons Ratio (y) = 0.11026 -0.06006
# Poissons Ratio (z) = 0.47637 -0.07266
#
# Static dielectric constant tensor:
#      x y z
#    x 2.014530 -0.079820 0.010920 
#    y -0.079820 1.923300 -0.045510 
#    z 0.010920 -0.045510 1.948130 
# 
# From -- ./inp_files/6304.got.cif
#   From: 2010.05.17/outbox.cif.g08.bks.cpg/sg2_4_cif.got.tgz:6304.got - 2010.06.03 11:33:40.
