data_PCOD9037594
_publ_section_title
;
Structure prediction by ZEFSAII (Michael W. Deem and Ramdas Pophale) SiO2 
 PCOD9037594
Probable space group: P -1
;
_chemical_formula_sum "Si O2"
_cell_formula_units_Z 13
_cell_length_a 15.693331
_cell_length_b 13.729847
_cell_length_c 12.494679
_cell_angle_alpha 43.691803
_cell_angle_beta 30.864313
_cell_angle_gamma 24.077996
_cell_volume 539.304617
_symmetry_space_group_name_H-M "P -1"
_symmetry_group_IT_number 2
_symmetry_cell_setting 'triclinic'
loop_
_space_group_symop_operation_xyz
x,y,z
-x,-y,-z
loop_
_atom_site_type_symbol
_atom_site_label
_atom_site_fract_x
_atom_site_fract_y
_atom_site_fract_z
Si Si1 0.518886 0.629242 0.443471
Si Si2 0.379321 0.409228 0.003446
Si Si3 0.087937 0.815254 0.277381
Si Si4 0.000000 0.500000 0.500000
Si Si5 0.757712 0.543816 0.474335
Si Si6 0.671191 0.731102 0.021636
Si Si7 0.150831 0.101249 0.745614
O O1 0.500000 0.500000 0.500000
O O2 0.660487 0.518954 0.496526
O O3 0.682375 0.637552 0.194005
O O4 0.191375 0.915616 0.584774
O O5 0.620693 0.325510 0.875192
O O6 0.493445 0.255602 0.895819
O O7 0.266922 0.369154 0.238429
O O8 0.087174 0.709135 0.054313
O O9 0.089033 0.650608 0.441960
O O10 0.044215 0.847828 0.172239
O O11 0.806015 0.771505 0.447901
O O12 0.005997 0.471463 0.216092
O O13 0.468634 0.809527 0.630033
O O14 0.500000 0.000000 0.000000
#
# Coordination Sequence:
#
# PCOD9037594 Si02
#       7
#     2   2   2   1   2   2   2
#     4  11  26  43  66 101 132 178 226 266 330 398
#     4  10  23  40  69  96 131 174 215 274 329 394
#     4  11  22  43  69  97 135 173 215 281 332 386
#     4   8  20  40  62  94 132 160 222 266 326 384
#     4  11  24  42  70  94 134 174 221 276 325 396
#     4  12  25  43  69  98 136 179 219 271 334 389
#     4   9  22  43  65  97 128 170 222 267 334 390
#
# _framework density 24.105117
#
# number of rings (size 3 to 8) (size 9 to 14) (size 15 to 20)
#    0.923    0.615    1.538    2.769    4.308    3.692 
#    0.000    0.000    0.000    0.000    0.000    0.000 
#    0.000    0.000    0.000    0.000    0.000    0.000 
#
# Total GULP energy -72442.772940 kJ/mol
# GULP energy per Si atom -5572.520995 kJ/mol
# Density = 2.405025 g / cm^3
# Si number density = 24.105117 Si / 1000 Ang^3
#
#
#
# Elastic Constant Matrix: (Units=GPa)
#
#
# Indices 1 2 3 4 5 6 
#
# 1 102.3031 19.2841 14.5122 10.8696 -5.7962 5.8939
# 2 19.2841 95.5729 13.3288 16.2294 5.2265 11.5288
# 3 14.5122 13.3288 82.4174 8.1416 -4.8300 -4.0587
# 4 10.8696 16.2294 8.1416 39.6055 -3.4611 8.1321
# 5 -5.7962 5.2265 -4.8300 -3.4611 31.4863 -1.3561
# 6 5.8939 11.5288 -4.0587 8.1321 -1.3561 27.7829
#
#
#
# Elastic Compliance Matrix: (Units=1/GPa)
#
#
# Indices 1 2 3 4 5 6 
#
# 1 0.010619 -0.001632 -0.001410 -0.001545 0.001786 -0.001242
# 2 -0.001632 0.012329 -0.001732 -0.003686 -0.003194 -0.004100
# 3 -0.001410 -0.001732 0.013175 -0.002196 0.001966 0.003681
# 4 -0.001545 -0.003686 -0.002196 0.029306 0.002915 -0.006899
# 5 0.001786 -0.003194 0.001966 0.002915 0.033327 0.002007
# 6 -0.001242 -0.004100 0.003681 -0.006899 0.002007 0.040614
#
#
# Mechanical properties :
#
#
# Convention : Reuss Voigt Hill
#
# Bulk Modulus (GPa) = 37.62607 41.61595 39.62101
# Shear Modulus (GPa) = 31.69056 35.31948 33.50502
#
# Velocity S-wave (km/s) = 3.62979 3.83198 3.73225
# Velocity P-wave (km/s) = 5.76283 6.07294 5.91992
#
# Compressibility (1/GPa) = 0.02657732
#
# Stress axis : x y z
#
# Youngs Moduli (GPa) = 94.16790 81.10921 75.90088
#
# Poissons Ratio (x) = 0.13233 0.10701
# Poissons Ratio (y) = 0.15364 0.13143
# Poissons Ratio (z) = 0.13277 0.14045
#
# Static dielectric constant tensor:
#      x y z
#    x 2.104770 0.060730 -0.047570 
#    y 0.060730 1.939960 -0.018110 
#    z -0.047570 -0.018110 1.943530 
# 
# From -- ./inp_files/538672.got.cif
#   From: 2010.05.17/outbox.cif.g08.bks.cpg/sg2_270_cif.got.tgz:538672.got - 2010.06.03 11:33:40.
