data_PCOD9037885
_publ_section_title
;
Structure prediction by ZEFSAII (Michael W. Deem and Ramdas Pophale) SiO2 
 PCOD9037885
Probable space group: P -1
;
_chemical_formula_sum "Si O2"
_cell_formula_units_Z 12
_cell_length_a 6.847302
_cell_length_b 7.549843
_cell_length_c 16.691362
_cell_angle_alpha 39.591157
_cell_angle_beta 78.184648
_cell_angle_gamma 95.229786
_cell_volume 493.546616
_symmetry_space_group_name_H-M "P -1"
_symmetry_group_IT_number 2
_symmetry_cell_setting 'triclinic'
loop_
_space_group_symop_operation_xyz
x,y,z
-x,-y,-z
loop_
_atom_site_type_symbol
_atom_site_label
_atom_site_fract_x
_atom_site_fract_y
_atom_site_fract_z
Si Si1 0.211335 0.502180 0.520974
Si Si2 0.366581 0.094934 0.729257
Si Si3 0.333096 0.622649 0.768462
Si Si4 0.094148 0.743708 0.599315
Si Si5 0.331729 0.654284 0.150963
Si Si6 0.092128 0.674750 0.015270
O O1 0.191192 0.180028 0.666731
O O2 0.408266 0.620763 0.400198
O O3 0.234782 0.705698 0.526864
O O4 0.000000 0.500000 0.500000
O O5 0.398981 0.832944 0.768310
O O6 0.272023 0.992311 0.859902
O O7 0.247257 0.778644 0.651620
O O8 0.117725 0.335021 0.915971
O O9 0.528724 0.527676 0.766771
O O10 0.876744 0.433673 0.741978
O O11 0.000000 0.000000 0.500000
O O12 0.216066 0.540194 0.113397
O O13 0.500000 0.000000 0.000000
O O14 0.000000 0.500000 0.000000
#
# Coordination Sequence:
#
# PCOD9037885 Si02
#       6
#     2   2   2   2   2   2
#     4  11  25  39  63  94 131 167 220 273 323 394
#     4  10  23  41  64  93 126 173 217 265 333 387
#     4  10  23  44  68  94 135 170 223 274 331 400
#     4  11  25  44  68  96 134 179 222 274 336 403
#     4  11  26  40  69 104 133 176 228 275 341 393
#     4   9  22  42  66  95 131 174 220 269 333 399
#
# _framework density 24.313813
#
# number of rings (size 3 to 8) (size 9 to 14) (size 15 to 20)
#    0.000    1.667    0.000    2.000    7.000   10.667 
#    0.000    0.000    0.000    0.000    0.000    0.000 
#    0.000    0.000    0.000    0.000    0.000    0.000 
#
# Total GULP energy -67017.947757 kJ/mol
# GULP energy per Si atom -5584.828980 kJ/mol
# Density = 2.425847 g / cm^3
# Si number density = 24.313813 Si / 1000 Ang^3
#
#
#
# Elastic Constant Matrix: (Units=GPa)
#
#
# Indices 1 2 3 4 5 6 
#
# 1 137.7242 8.1957 28.6726 14.7537 9.7746 1.3824
# 2 8.1957 51.6007 -1.5962 6.7968 -0.6953 9.3220
# 3 28.6726 -1.5962 125.0559 18.9638 -9.1271 -1.0937
# 4 14.7537 6.7968 18.9638 34.5604 -3.6661 4.7901
# 5 9.7746 -0.6953 -9.1271 -3.6661 34.1990 8.1572
# 6 1.3824 9.3220 -1.0937 4.7901 8.1572 34.5541
#
#
#
# Elastic Compliance Matrix: (Units=1/GPa)
#
#
# Indices 1 2 3 4 5 6 
#
# 1 0.008226 -0.001238 -0.001708 -0.002853 -0.003413 0.001152
# 2 -0.001238 0.021087 0.001148 -0.003245 0.002088 -0.005646
# 3 -0.001708 0.001148 0.009239 -0.004309 0.002502 0.000058
# 4 -0.002853 -0.003245 -0.004309 0.034315 0.004460 -0.004957
# 5 -0.003413 0.002088 0.002502 0.004460 0.033522 -0.008880
# 6 0.001152 -0.005646 0.000058 -0.004957 -0.008880 0.033202
#
#
# Mechanical properties :
#
#
# Convention : Reuss Voigt Hill
#
# Bulk Modulus (GPa) = 28.60690 42.76942 35.68816
# Shear Modulus (GPa) = 32.29108 39.26995 35.78051
#
# Velocity S-wave (km/s) = 3.64826 4.02323 3.84032
# Velocity P-wave (km/s) = 5.43485 6.26183 5.86294
#
# Compressibility (1/GPa) = 0.03495661
#
# Stress axis : x y z
#
# Youngs Moduli (GPa) = 121.55898 47.42206 108.23378
#
# Poissons Ratio (x) = 0.05870 0.18490
# Poissons Ratio (y) = 0.15046 -0.12425
# Poissons Ratio (z) = 0.20767 -0.05444
#
# Static dielectric constant tensor:
#      x y z
#    x 1.901630 0.056710 -0.017350 
#    y 0.056710 2.043810 -0.064570 
#    z -0.017350 -0.064570 2.038890 
# 
# From -- ./inp_files/385215.got.cif
#   From: 2010.05.17/outbox.cif.g08.bks.cpg/sg2_193_cif.got.tgz:385215.got - 2010.06.03 11:33:40.
