data_PCOD9037360
_publ_section_title
;
Structure prediction by ZEFSAII (Michael W. Deem and Ramdas Pophale) SiO2 
 PCOD9037360
Probable space group: P -1
;
_chemical_formula_sum "Si O2"
_cell_formula_units_Z 16
_cell_length_a 16.775216
_cell_length_b 5.416774
_cell_length_c 15.702286
_cell_angle_alpha 65.212234
_cell_angle_beta 148.350718
_cell_angle_gamma 124.595695
_cell_volume 609.480062
_symmetry_space_group_name_H-M "P -1"
_symmetry_group_IT_number 2
_symmetry_cell_setting 'triclinic'
loop_
_space_group_symop_operation_xyz
x,y,z
-x,-y,-z
loop_
_atom_site_type_symbol
_atom_site_label
_atom_site_fract_x
_atom_site_fract_y
_atom_site_fract_z
Si Si1 0.645938 0.620280 0.186347
Si Si2 0.958785 0.635518 0.204525
Si Si3 0.351606 0.025231 0.698109
Si Si4 0.023958 0.784751 0.923306
Si Si5 0.023666 0.230840 0.609695
Si Si6 0.304639 0.718114 0.115423
Si Si7 0.411425 0.307491 0.362717
Si Si8 0.743153 0.352612 0.601863
O O1 0.593476 0.773441 0.194543
O O2 0.839099 0.851665 0.300117
O O3 0.669016 0.316184 0.265204
O O4 0.500000 0.500000 0.000000
O O5 0.906550 0.675102 0.245281
O O6 0.143145 0.640239 0.376212
O O7 0.992008 0.906532 0.127887
O O8 0.803995 0.362237 0.058201
O O9 0.499097 0.144505 0.745445
O O10 0.169398 0.019027 0.516478
O O11 0.882355 0.620115 0.745647
O O12 0.223566 0.907473 0.062629
O O13 0.000000 0.500000 0.000000
O O14 0.000000 0.500000 0.500000
O O15 0.282400 0.428976 0.193336
O O16 0.500000 0.500000 0.500000
O O17 0.564872 0.362214 0.429176
O O18 0.317335 0.959251 0.354568
#
# Coordination Sequence:
#
# PCOD9037360 Si02
#       8
#     2   2   2   2   2   2   2   2
#     4  11  24  48  76 105 145 187 238 300 370 441
#     4  11  24  46  69  97 140 182 242 293 362 435
#     4  11  26  45  71 111 140 189 238 302 367 438
#     4  11  23  43  67  98 140 185 234 293 358 435
#     4  10  25  48  71 102 140 186 237 302 366 436
#     4  11  26  41  68 103 139 186 240 297 362 436
#     4  11  23  41  64  99 143 181 235 294 364 427
#     4  10  23  40  65  99 130 189 232 293 355 431
#
# _framework density 26.251885999999999
#
# number of rings (size 3 to 8) (size 9 to 14) (size 15 to 20)
#    0.000    1.250    0.000    4.500    7.000    6.000 
#    9.000    0.000    0.000    0.000    0.000    0.000 
#    0.000    0.000    0.000    0.000    0.000    0.000 
#
# Total GULP energy -89389.433545 kJ/mol
# GULP energy per Si atom -5586.839597 kJ/mol
# Density = 2.619214 g / cm^3
# Si number density = 26.251886 Si / 1000 Ang^3
#
#
#
# Elastic Constant Matrix: (Units=GPa)
#
#
# Indices 1 2 3 4 5 6 
#
# 1 52.4382 -0.3235 12.7108 -9.8398 22.8601 -6.3448
# 2 -0.3235 61.6711 23.0972 -5.8447 11.6070 -2.6729
# 3 12.7108 23.0972 118.2330 -4.4083 23.2726 5.1991
# 4 -9.8398 -5.8447 -4.4083 38.7732 -5.9937 -1.3116
# 5 22.8601 11.6070 23.2726 -5.9937 64.8315 3.8423
# 6 -6.3448 -2.6729 5.1991 -1.3116 3.8423 28.7735
#
#
#
# Elastic Compliance Matrix: (Units=1/GPa)
#
#
# Indices 1 2 3 4 5 6 
#
# 1 0.025351 0.003320 -0.001762 0.005627 -0.008834 0.007653
# 2 0.003320 0.018541 -0.003398 0.002876 -0.003220 0.003630
# 3 -0.001762 -0.003398 0.009830 -0.000255 -0.002192 -0.002199
# 4 0.005627 0.002876 -0.000255 0.027717 -0.000012 0.002819
# 5 -0.008834 -0.003220 -0.002192 -0.000012 0.020171 -0.004545
# 6 0.007653 0.003630 -0.002199 0.002819 -0.004545 0.037912
#
#
# Mechanical properties :
#
#
# Convention : Reuss Voigt Hill
#
# Bulk Modulus (GPa) = 19.98265 33.70127 26.84196
# Shear Modulus (GPa) = 31.27334 39.59947 35.43640
#
# Velocity S-wave (km/s) = 3.45524 3.88808 3.67803
# Velocity P-wave (km/s) = 4.85249 5.74646 5.31829
#
# Compressibility (1/GPa) = 0.05004341
#
# Stress axis : x y z
#
# Youngs Moduli (GPa) = 39.44655 53.93501 101.73218
#
# Poissons Ratio (x) = -0.17909 0.17924
# Poissons Ratio (y) = -0.13098 0.34564
# Poissons Ratio (z) = 0.06950 0.18325
#
# Static dielectric constant tensor:
#      x y z
#    x 2.117880 -0.132320 0.019220 
#    y -0.132320 0.787010 0.076330 
#    z 0.019220 0.076330 2.016990 
# 
# From -- ./inp_files/52256.got.cif
#   From: 2010.05.17/outbox.cif.g08.bks.cpg/sg2_27_cif.got.tgz:52256.got - 2010.06.03 11:33:40.
