data_PCOD9037167
_publ_section_title
;
Structure prediction by ZEFSAII (Michael W. Deem and Ramdas Pophale) SiO2 
 PCOD9037167
Probable space group: P -1
;
_chemical_formula_sum "Si O2"
_cell_formula_units_Z 16
_cell_length_a 14.284313
_cell_length_b 9.187090
_cell_length_c 12.519397
_cell_angle_alpha 124.926675
_cell_angle_beta 72.475994
_cell_angle_gamma 63.587538
_cell_volume 788.445878
_symmetry_space_group_name_H-M "P -1"
_symmetry_group_IT_number 2
_symmetry_cell_setting 'triclinic'
loop_
_space_group_symop_operation_xyz
x,y,z
-x,-y,-z
loop_
_atom_site_type_symbol
_atom_site_label
_atom_site_fract_x
_atom_site_fract_y
_atom_site_fract_z
Si Si1 0.841205 0.823937 0.650659
Si Si2 0.654290 0.507456 0.739828
Si Si3 0.413543 0.741528 0.223019
Si Si4 0.752700 0.611713 0.940930
Si Si5 0.615692 0.747525 0.268233
Si Si6 0.129551 0.852102 0.981483
Si Si7 0.007923 0.031067 0.336267
Si Si8 0.692804 0.041398 0.024438
O O1 0.000000 0.500000 0.500000
O O2 0.898274 0.933932 0.634718
O O3 0.719055 0.939063 0.648991
O O4 0.734549 0.984078 0.860658
O O5 0.660345 0.296749 0.688847
O O6 0.650401 0.642031 0.902204
O O7 0.821766 0.309735 0.542794
O O8 0.495775 0.738904 0.817913
O O9 0.541218 0.673334 0.214440
O O10 0.500000 0.500000 0.000000
O O11 0.665107 0.774919 0.152829
O O12 0.785577 0.750959 0.930439
O O13 0.904370 0.270084 0.775454
O O14 0.768600 0.468507 0.165120
O O15 0.500000 0.000000 0.500000
O O16 0.244322 0.855969 0.916163
O O17 0.000000 0.000000 0.000000
O O18 0.040262 0.010780 0.191267
#
# Coordination Sequence:
#
# PCOD9037167 Si02
#       8
#     2   2   2   2   2   2   2   2
#     4  11  22  37  61  96 129 170 212 257 325 389
#     4  12  21  38  68  99 131 165 212 271 329 380
#     4  12  20  42  68  93 132 177 214 267 325 387
#     4  11  22  40  65  97 135 164 210 272 329 386
#     4  11  24  44  66  94 128 177 221 266 328 389
#     4  10  23  48  65  85 129 177 221 266 323 389
#     4  10  23  40  62  95 131 166 210 271 330 380
#     4  11  23  39  64  97 126 164 218 269 320 384
#
# _framework density 20.293085000000001
#
# number of rings (size 3 to 8) (size 9 to 14) (size 15 to 20)
#    0.000    1.000    5.000    2.250    1.750    4.000 
#    2.250    2.500    0.000    0.000    0.000    0.000 
#    0.000    0.000    0.000    0.000    0.000    0.000 
#
# Total GULP energy -89266.434978 kJ/mol
# GULP energy per Si atom -5579.152186 kJ/mol
# Density = 2.024690 g / cm^3
# Si number density = 20.293085 Si / 1000 Ang^3
#
#
#
# Elastic Constant Matrix: (Units=GPa)
#
#
# Indices 1 2 3 4 5 6 
#
# 1 52.7190 31.8516 17.6182 -3.6644 -12.6919 -11.7337
# 2 31.8516 108.6652 16.2838 16.0697 -6.1331 -4.2949
# 3 17.6182 16.2838 90.6683 -2.9493 -12.3931 -7.3364
# 4 -3.6644 16.0697 -2.9493 22.4202 -0.0892 -10.3267
# 5 -12.6919 -6.1331 -12.3931 -0.0892 29.1308 -1.8809
# 6 -11.7337 -4.2949 -7.3364 -10.3267 -1.8809 43.0814
#
#
#
# Elastic Compliance Matrix: (Units=1/GPa)
#
#
# Indices 1 2 3 4 5 6 
#
# 1 0.033440 -0.011295 -0.001054 0.019470 0.012643 0.013021
# 2 -0.011295 0.014637 -0.001803 -0.015213 -0.003021 -0.005703
# 3 -0.001054 -0.001803 0.012566 0.004111 0.004705 0.002864
# 4 0.019470 -0.015213 0.004111 0.069138 0.008625 0.021435
# 5 0.012643 -0.003021 0.004705 0.008625 0.041734 0.007833
# 6 0.013021 -0.005703 0.002864 0.021435 0.007833 0.032158
#
#
# Mechanical properties :
#
#
# Convention : Reuss Voigt Hill
#
# Bulk Modulus (GPa) = 30.92244 42.61774 36.77009
# Shear Modulus (GPa) = 20.59663 31.34641 25.97152
#
# Velocity S-wave (km/s) = 3.18930 3.93451 3.58134
# Velocity P-wave (km/s) = 5.36965 6.45656 5.93803
#
# Compressibility (1/GPa) = 0.03233897
#
# Stress axis : x y z
#
# Youngs Moduli (GPa) = 29.90403 68.31794 79.57686
#
# Poissons Ratio (x) = 0.77165 0.08390
# Poissons Ratio (y) = 0.33777 0.14350
# Poissons Ratio (z) = 0.03153 0.12320
#
# Static dielectric constant tensor:
#      x y z
#    x 1.693390 0.017740 0.027650 
#    y 0.017740 1.735190 0.017380 
#    z 0.027650 0.017380 1.748390 
# 
# From -- ./inp_files/240997.got.cif
#   From: 2010.05.17/outbox.cif.g08.bks.cpg/sg2_121_cif.got.tgz:240997.got - 2010.06.03 11:33:40.
