data_PCOD9037499
_publ_section_title
;
Structure prediction by ZEFSAII (Michael W. Deem and Ramdas Pophale) SiO2 
 PCOD9037499
Probable space group: P -1
;
_chemical_formula_sum "Si O2"
_cell_formula_units_Z 16
_cell_length_a 11.101037
_cell_length_b 19.665743
_cell_length_c 6.759325
_cell_angle_alpha 140.796996
_cell_angle_beta 116.907811
_cell_angle_gamma 51.577265
_cell_volume 729.465824
_symmetry_space_group_name_H-M "P -1"
_symmetry_group_IT_number 2
_symmetry_cell_setting 'triclinic'
loop_
_space_group_symop_operation_xyz
x,y,z
-x,-y,-z
loop_
_atom_site_type_symbol
_atom_site_label
_atom_site_fract_x
_atom_site_fract_y
_atom_site_fract_z
Si Si1 0.665926 0.942976 0.897840
Si Si2 0.093057 0.483049 0.330683
Si Si3 0.309319 0.885858 0.026814
Si Si4 0.911624 0.705710 0.412852
Si Si5 0.601031 0.482472 0.840864
Si Si6 0.884063 0.240965 0.564316
Si Si7 0.902247 0.942581 0.394098
Si Si8 0.438969 0.363308 0.201379
O O1 0.738608 0.803392 0.561033
O O2 0.658183 0.031277 0.914028
O O3 0.788368 0.935404 0.134870
O O4 0.500000 0.000000 0.000000
O O5 0.276744 0.434135 0.356305
O O6 0.000000 0.500000 0.500000
O O7 0.007957 0.612648 0.446743
O O8 0.084757 0.379461 0.956067
O O9 0.198127 0.970519 0.306474
O O10 0.218690 0.824675 0.706464
O O11 0.466204 0.780271 0.002754
O O12 0.996409 0.781614 0.574341
O O13 0.773966 0.386810 0.814104
O O14 0.549736 0.411858 0.485985
O O15 0.586126 0.597679 0.961842
O O16 0.500000 0.500000 0.000000
O O17 0.979070 0.186711 0.711584
O O18 0.000000 0.000000 0.500000
#
# Coordination Sequence:
#
# PCOD9037499 Si02
#       8
#     2   2   2   2   2   2   2   2
#     4  12  29  47  71 108 147 190 234 289 360 427
#     4  11  27  46  70  98 134 193 232 286 351 416
#     4  11  25  45  69 106 147 177 234 299 345 428
#     4  11  26  47  68  99 144 177 241 297 332 422
#     4  10  23  40  68 100 135 180 221 294 352 409
#     4  11  22  46  70 101 139 179 237 301 337 411
#     4  12  25  43  75 104 135 195 235 284 363 417
#     4  10  24  42  65 100 138 176 233 282 353 420
#
# _framework density 21.933859000000002
#
# number of rings (size 3 to 8) (size 9 to 14) (size 15 to 20)
#    0.000    1.000    3.750    1.125    8.750    0.500 
#    0.000    0.000    0.000    0.000    0.000    0.000 
#    0.000    0.000    0.000    0.000    0.000    0.000 
#
# Total GULP energy -89497.641896 kJ/mol
# GULP energy per Si atom -5593.602619 kJ/mol
# Density = 2.188394 g / cm^3
# Si number density = 21.933859 Si / 1000 Ang^3
#
#
#
# Elastic Constant Matrix: (Units=GPa)
#
#
# Indices 1 2 3 4 5 6 
#
# 1 135.2976 79.5420 30.0609 2.4524 -28.0843 -0.0321
# 2 79.5420 223.4401 54.3020 3.5790 -20.8970 -3.7198
# 3 30.0609 54.3020 58.1792 0.2738 -17.5971 3.8612
# 4 2.4524 3.5790 0.2738 28.3901 0.3385 -7.9410
# 5 -28.0843 -20.8970 -17.5971 0.3385 36.7518 -0.7350
# 6 -0.0321 -3.7198 3.8612 -7.9410 -0.7350 38.2559
#
#
#
# Elastic Compliance Matrix: (Units=1/GPa)
#
#
# Indices 1 2 3 4 5 6 
#
# 1 0.010598 -0.003000 -0.000847 -0.000662 0.005989 -0.000220
# 2 -0.003000 0.006711 -0.005048 -0.000221 -0.000870 0.001097
# 3 -0.000847 -0.005048 0.025089 -0.000460 0.008440 -0.002957
# 4 -0.000662 -0.000221 -0.000460 0.037504 -0.001041 0.007789
# 5 0.005989 -0.000870 0.008440 -0.001041 0.035333 -0.000469
# 6 -0.000220 0.001097 -0.002957 0.007789 -0.000469 0.028153
#
#
# Mechanical properties :
#
#
# Convention : Reuss Voigt Hill
#
# Bulk Modulus (GPa) = 40.63759 82.74742 61.69251
# Shear Modulus (GPa) = 29.51933 37.54702 33.53318
#
# Velocity S-wave (km/s) = 3.67254 4.14191 3.91427
# Velocity P-wave (km/s) = 6.04574 7.78985 6.97254
#
# Compressibility (1/GPa) = 0.02460776
#
# Stress axis : x y z
#
# Youngs Moduli (GPa) = 94.35696 149.01484 39.85800
#
# Poissons Ratio (x) = 0.44703 0.03375
# Poissons Ratio (y) = 0.28306 0.20122
# Poissons Ratio (z) = 0.07990 0.75228
#
# Static dielectric constant tensor:
#      x y z
#    x 1.778080 -0.012620 0.003190 
#    y -0.012620 1.807220 0.004120 
#    z 0.003190 0.004120 1.827340 
# 
# From -- ./inp_files/81720.got.cif
#   From: 2010.05.17/outbox.cif.g08.bks.cpg/sg2_41_cif.got.tgz:81720.got - 2010.06.03 11:33:40.
