data_PCOD9037373
_publ_section_title
;
Structure prediction by ZEFSAII (Michael W. Deem and Ramdas Pophale) SiO2 
 PCOD9037373
Probable space group: P -1
;
_chemical_formula_sum "Si O2"
_cell_formula_units_Z 14
_cell_length_a 9.352262
_cell_length_b 9.092849
_cell_length_c 13.865604
_cell_angle_alpha 114.433492
_cell_angle_beta 51.224700
_cell_angle_gamma 76.269966
_cell_volume 598.208027
_symmetry_space_group_name_H-M "P -1"
_symmetry_group_IT_number 2
_symmetry_cell_setting 'triclinic'
loop_
_space_group_symop_operation_xyz
x,y,z
-x,-y,-z
loop_
_atom_site_type_symbol
_atom_site_label
_atom_site_fract_x
_atom_site_fract_y
_atom_site_fract_z
Si Si1 0.463921 0.925712 0.169430
Si Si2 0.882257 0.368717 0.257560
Si Si3 0.976057 0.005573 0.397259
Si Si4 0.149258 0.246884 0.904540
Si Si5 0.197569 0.348097 0.289032
Si Si6 0.723129 0.474488 0.856508
Si Si7 0.676266 0.174325 0.389742
O O1 0.206244 0.987156 0.268980
O O2 0.548433 0.908363 0.237570
O O3 0.435741 0.104701 0.167908
O O4 0.685358 0.663000 0.978401
O O5 0.782278 0.253312 0.299092
O O6 0.631126 0.638863 0.435891
O O7 0.056473 0.329164 0.261381
O O8 0.011826 0.279101 0.072413
O O9 0.031898 0.782007 0.296637
O O10 0.000000 0.000000 0.500000
O O11 0.742491 0.184696 0.474864
O O12 0.176029 0.078849 0.775317
O O13 0.000000 0.500000 0.000000
O O14 0.283182 0.463704 0.234785
O O15 0.000000 0.500000 0.500000
O O16 0.500000 0.500000 0.000000
#
# Coordination Sequence:
#
# PCOD9037373 Si02
#       7
#     2   2   2   2   2   2   2
#     4  11  23  45  69 105 137 185 244 294 358 429
#     4  11  26  49  72 104 149 195 244 297 370 437
#     4  11  24  45  70 105 143 184 235 302 370 425
#     4  12  27  47  74 105 146 193 243 301 370 437
#     4  12  23  43  73 108 141 185 248 301 358 434
#     4  10  23  40  66 103 143 179 230 300 363 424
#     4  11  26  49  71 106 146 195 244 296 365 447
#
# _framework density 23.403231999999999
#
# number of rings (size 3 to 8) (size 9 to 14) (size 15 to 20)
#    0.000    0.857    2.857    3.429    2.000    0.571 
#    0.000    0.000    0.000    0.000    0.000    0.000 
#    0.000    0.000    0.000    0.000    0.000    0.000 
#
# Total GULP energy -78053.396502 kJ/mol
# GULP energy per Si atom -5575.242607 kJ/mol
# Density = 2.334997 g / cm^3
# Si number density = 23.403232 Si / 1000 Ang^3
#
#
#
# Elastic Constant Matrix: (Units=GPa)
#
#
# Indices 1 2 3 4 5 6 
#
# 1 86.5251 41.7341 30.0708 8.8903 12.4075 -23.6072
# 2 41.7341 151.4027 35.3781 -1.0588 0.7648 -13.1697
# 3 30.0708 35.3781 91.6019 -4.1797 24.5395 -0.5338
# 4 8.8903 -1.0588 -4.1797 37.2197 -3.3597 -2.2441
# 5 12.4075 0.7648 24.5395 -3.3597 29.3364 -0.5135
# 6 -23.6072 -13.1697 -0.5338 -2.2441 -0.5135 41.9225
#
#
#
# Elastic Compliance Matrix: (Units=1/GPa)
#
#
# Indices 1 2 3 4 5 6 
#
# 1 0.017957 -0.003411 -0.003386 -0.004700 -0.005060 0.008684
# 2 -0.003411 0.008324 -0.003101 0.001107 0.003959 0.000763
# 3 -0.003386 -0.003101 0.016545 0.001309 -0.012225 -0.002750
# 4 -0.004700 0.001107 0.001309 0.028497 0.004115 -0.000706
# 5 -0.005060 0.003959 -0.012225 0.004115 0.046804 -0.000967
# 6 0.008684 0.000763 -0.002750 -0.000706 -0.000967 0.028898
#
#
# Mechanical properties :
#
#
# Convention : Reuss Voigt Hill
#
# Bulk Modulus (GPa) = 43.42140 60.43288 51.92714
# Shear Modulus (GPa) = 28.65391 36.51883 32.58637
#
# Velocity S-wave (km/s) = 3.50288 3.95450 3.73552
# Velocity P-wave (km/s) = 5.91220 6.83588 6.39075
#
# Compressibility (1/GPa) = 0.02303012
#
# Stress axis : x y z
#
# Youngs Moduli (GPa) = 55.68931 120.13938 60.44283
#
# Poissons Ratio (x) = 0.40974 0.20466
# Poissons Ratio (y) = 0.18993 0.18743
# Poissons Ratio (z) = 0.18857 0.37254
#
# Static dielectric constant tensor:
#      x y z
#    x 1.964790 -0.019010 0.019030 
#    y -0.019010 1.928750 -0.055470 
#    z 0.019030 -0.055470 2.016320 
# 
# From -- ./inp_files/186121.got.cif
#   From: 2010.05.17/outbox.cif.g08.bks.cpg/sg2_94_cif.got.tgz:186121.got - 2010.06.03 11:33:40.
