data_PCOD9037559
_publ_section_title
;
Structure prediction by ZEFSAII (Michael W. Deem and Ramdas Pophale) SiO2 
 PCOD9037559
Probable space group: P -1
;
_chemical_formula_sum "Si O2"
_cell_formula_units_Z 16
_cell_length_a 7.525720
_cell_length_b 12.294795
_cell_length_c 10.803637
_cell_angle_alpha 83.796147
_cell_angle_beta 81.819648
_cell_angle_gamma 136.650865
_cell_volume 645.450670
_symmetry_space_group_name_H-M "P -1"
_symmetry_group_IT_number 2
_symmetry_cell_setting 'triclinic'
loop_
_space_group_symop_operation_xyz
x,y,z
-x,-y,-z
loop_
_atom_site_type_symbol
_atom_site_label
_atom_site_fract_x
_atom_site_fract_y
_atom_site_fract_z
Si Si1 0.446306 0.346914 0.551220
Si Si2 0.445125 0.890259 0.196668
Si Si3 0.476930 0.315286 0.282128
Si Si4 0.884283 0.360812 0.130235
Si Si5 0.117270 0.539541 0.344278
Si Si6 0.079762 0.989088 0.714869
Si Si7 0.242382 0.375289 0.946726
Si Si8 0.826470 0.029415 0.910976
O O1 0.500000 0.500000 0.500000
O O2 0.554145 0.340693 0.414428
O O3 0.606709 0.397339 0.654640
O O4 0.173211 0.147688 0.624194
O O5 0.193257 0.694849 0.272260
O O6 0.660523 0.965668 0.278194
O O7 0.311695 0.945328 0.171835
O O8 0.602767 0.920339 0.055345
O O9 0.576518 0.255860 0.201886
O O10 0.652103 0.492997 0.184496
O O11 0.151522 0.179176 0.320158
O O12 0.006290 0.427608 0.247643
O O13 0.000000 0.500000 0.000000
O O14 0.980126 0.294413 0.064575
O O15 0.000000 0.500000 0.500000
O O16 0.916387 0.955255 0.855620
O O17 0.110335 0.212612 0.910487
O O18 0.500000 0.500000 0.000000
#
# Coordination Sequence:
#
# PCOD9037559 Si02
#       8
#     2   2   2   2   2   2   2   2
#     4  11  25  44  69  97 139 187 235 293 353 428
#     4  10  24  41  67  97 142 179 235 289 352 423
#     4  11  23  44  66  97 139 180 233 286 359 419
#     4  10  23  40  68  97 138 181 228 287 353 414
#     4  11  23  43  71 100 137 188 236 286 361 431
#     4  11  25  42  71  98 139 188 234 292 361 419
#     4  11  25  40  67 102 139 176 234 298 350 416
#     4  11  24  43  69 102 141 183 238 292 361 419
#
# _framework density 24.788882000000001
#
# number of rings (size 3 to 8) (size 9 to 14) (size 15 to 20)
#    0.000    1.250    1.250    3.750   14.000    0.000 
#    0.000    0.000    0.000    3.750    0.000    0.000 
#    0.000    0.000    0.000    0.000    0.000    0.000 
#
# Total GULP energy -89290.902180 kJ/mol
# GULP energy per Si atom -5580.681386 kJ/mol
# Density = 2.473246 g / cm^3
# Si number density = 24.788882 Si / 1000 Ang^3
#
#
#
# Elastic Constant Matrix: (Units=GPa)
#
#
# Indices 1 2 3 4 5 6 
#
# 1 69.1594 5.3034 23.3350 8.4961 11.3979 13.6099
# 2 5.3034 92.5550 40.4906 -2.2611 18.2106 13.0727
# 3 23.3350 40.4906 124.8895 -10.4975 3.8723 1.1554
# 4 8.4961 -2.2611 -10.4975 46.3892 2.7200 7.4158
# 5 11.3979 18.2106 3.8723 2.7200 43.7229 4.6493
# 6 13.6099 13.0727 1.1554 7.4158 4.6493 35.5746
#
#
#
# Elastic Compliance Matrix: (Units=1/GPa)
#
#
# Indices 1 2 3 4 5 6 
#
# 1 0.018078 0.002569 -0.004248 -0.002836 -0.004535 -0.006538
# 2 0.002569 0.014790 -0.005014 0.000347 -0.005815 -0.005567
# 3 -0.004248 -0.005014 0.010551 0.002433 0.001857 0.002375
# 4 -0.002836 0.000347 0.002433 0.023304 -0.000656 -0.003894
# 5 -0.004535 -0.005815 0.001857 -0.000656 0.026297 0.000511
# 6 -0.006538 -0.005567 0.002375 -0.003894 0.000511 0.033325
#
#
# Mechanical properties :
#
#
# Convention : Reuss Voigt Hill
#
# Bulk Modulus (GPa) = 33.29673 47.20689 40.25181
# Shear Modulus (GPa) = 33.39060 39.63566 36.51313
#
# Velocity S-wave (km/s) = 3.67413 4.00300 3.84208
# Velocity P-wave (km/s) = 5.60894 6.36005 5.99627
#
# Compressibility (1/GPa) = 0.03003298
#
# Stress axis : x y z
#
# Youngs Moduli (GPa) = 55.31554 67.61504 94.77496
#
# Poissons Ratio (x) = -0.17370 0.40260
# Poissons Ratio (y) = -0.14210 0.47520
# Poissons Ratio (z) = 0.23498 0.33902
#
# Static dielectric constant tensor:
#      x y z
#    x 2.094690 0.055700 -0.005100 
#    y 0.055700 2.061940 -0.015150 
#    z -0.005100 -0.015150 1.996510 
# 
# From -- ./inp_files/206465.got.cif
#   From: 2010.05.17/outbox.cif.g08.bks.cpg/sg2_104_cif.got.tgz:206465.got - 2010.06.03 11:33:40.
