data_PCOD9037866
_publ_section_title
;
Structure prediction by ZEFSAII (Michael W. Deem and Ramdas Pophale) SiO2 
 PCOD9037866
Probable space group: P -1
;
_chemical_formula_sum "Si O2"
_cell_formula_units_Z 14
_cell_length_a 10.968896
_cell_length_b 12.677253
_cell_length_c 5.445714
_cell_angle_alpha 134.660433
_cell_angle_beta 79.352736
_cell_angle_gamma 90.357464
_cell_volume 521.007175
_symmetry_space_group_name_H-M "P -1"
_symmetry_group_IT_number 2
_symmetry_cell_setting 'triclinic'
loop_
_space_group_symop_operation_xyz
x,y,z
-x,-y,-z
loop_
_atom_site_type_symbol
_atom_site_label
_atom_site_fract_x
_atom_site_fract_y
_atom_site_fract_z
Si Si1 0.911338 0.638976 0.135083
Si Si2 0.726566 0.462292 0.060394
Si Si3 0.379308 0.133379 0.274549
Si Si4 0.220585 0.495207 0.395042
Si Si5 0.046878 0.916838 0.596684
Si Si6 0.508520 0.693108 0.110523
Si Si7 0.683985 0.009539 0.434407
O O1 0.773436 0.628307 0.289417
O O2 0.975133 0.776757 0.391051
O O3 0.881693 0.606426 0.808359
O O4 0.000000 0.500000 0.000000
O O5 0.795817 0.409444 0.199598
O O6 0.777269 0.401569 0.677077
O O7 0.589859 0.419898 0.054012
O O8 0.452914 0.266933 0.562175
O O9 0.306680 0.085333 0.469172
O O10 0.500000 0.000000 0.000000
O O11 0.318427 0.100770 0.980667
O O12 0.359869 0.392033 0.192895
O O13 0.197540 0.907068 0.514056
O O14 0.000000 0.000000 0.500000
O O15 0.000000 0.000000 0.000000
O O16 0.437870 0.853294 0.290373
#
# Coordination Sequence:
#
# PCOD9037866 Si02
#       7
#     2   2   2   2   2   2   2
#     4  10  26  51  74 105 145 197 246 301 361 432
#     4  10  24  42  65 102 135 181 236 291 365 423
#     4  10  23  41  64 103 137 180 232 287 364 435
#     4  10  25  40  68  99 141 179 234 295 361 428
#     4  12  29  50  76 108 148 196 255 304 362 431
#     4  11  22  42  69 100 141 179 233 297 370 431
#     4  11  25  43  67 103 138 192 237 297 359 440
#
# _framework density 26.871030999999999
#
# number of rings (size 3 to 8) (size 9 to 14) (size 15 to 20)
#    0.857    0.571    0.000    4.286    6.000    7.429 
#    2.571    0.000    0.000    0.000    0.000    0.000 
#    0.000    0.000    0.000    0.000    0.000    0.000 
#
# Total GULP energy -78172.415997 kJ/mol
# GULP energy per Si atom -5583.744000 kJ/mol
# Density = 2.680987 g / cm^3
# Si number density = 26.871031 Si / 1000 Ang^3
#
#
#
# Elastic Constant Matrix: (Units=GPa)
#
#
# Indices 1 2 3 4 5 6 
#
# 1 163.5459 43.2871 81.5177 -0.2822 42.9234 14.3469
# 2 43.2871 159.1194 95.0512 -9.4698 37.0583 16.2498
# 3 81.5177 95.0512 190.5798 -14.1519 48.1802 18.2616
# 4 -0.2822 -9.4698 -14.1519 61.4774 5.4883 15.3634
# 5 42.9234 37.0583 48.1802 5.4883 56.4743 5.3782
# 6 14.3469 16.2498 18.2616 15.3634 5.3782 47.4793
#
#
#
# Elastic Compliance Matrix: (Units=1/GPa)
#
#
# Indices 1 2 3 4 5 6 
#
# 1 0.008595 0.000407 -0.002607 0.000226 -0.004474 -0.001300
# 2 0.000407 0.009477 -0.003789 0.001375 -0.003240 -0.001987
# 3 -0.002607 -0.003789 0.009566 0.002430 -0.003743 -0.001957
# 4 0.000226 0.001375 0.002430 0.019225 -0.004330 -0.007204
# 5 -0.004474 -0.003240 -0.003743 -0.004330 0.026630 0.002285
# 6 -0.001300 -0.001987 -0.001957 -0.007204 0.002285 0.024960
#
#
# Mechanical properties :
#
#
# Convention : Reuss Voigt Hill
#
# Bulk Modulus (GPa) = 63.85598 105.88414 84.87006
# Shear Modulus (GPa) = 43.23379 52.64545 47.93962
#
# Velocity S-wave (km/s) = 4.01551 4.43108 4.22840
# Velocity P-wave (km/s) = 6.73161 8.10366 7.44929
#
# Compressibility (1/GPa) = 0.01566024
#
# Stress axis : x y z
#
# Youngs Moduli (GPa) = 116.35024 105.52403 104.53323
#
# Poissons Ratio (x) = -0.04299 0.27252
# Poissons Ratio (y) = -0.04740 0.39608
# Poissons Ratio (z) = 0.30333 0.39983
#
# Static dielectric constant tensor:
#      x y z
#    x 2.214190 -0.109340 -0.149870 
#    y -0.109340 2.318560 0.151090 
#    z -0.149870 0.151090 2.197400 
# 
# From -- ./inp_files/76917.got.cif
#   From: 2010.05.17/outbox.cif.g08.bks.cpg/sg2_39_cif.got.tgz:76917.got - 2010.06.03 11:33:40.
