data_PCOD9037072
_publ_section_title
;
Structure prediction by ZEFSAII (Michael W. Deem and Ramdas Pophale) SiO2 
 PCOD9037072
Probable space group: P -1
;
_chemical_formula_sum "Si O2"
_cell_formula_units_Z 13
_cell_length_a 8.914542
_cell_length_b 11.639859
_cell_length_c 14.967995
_cell_angle_alpha 34.280061
_cell_angle_beta 41.000069
_cell_angle_gamma 52.618893
_cell_volume 573.340979
_symmetry_space_group_name_H-M "P -1"
_symmetry_group_IT_number 2
_symmetry_cell_setting 'triclinic'
loop_
_space_group_symop_operation_xyz
x,y,z
-x,-y,-z
loop_
_atom_site_type_symbol
_atom_site_label
_atom_site_fract_x
_atom_site_fract_y
_atom_site_fract_z
Si Si1 0.254485 0.896666 0.196309
Si Si2 0.747888 0.814633 0.288973
Si Si3 0.402362 0.807090 0.609173
Si Si4 0.916476 0.909122 0.688643
Si Si5 0.982856 0.800859 0.020853
Si Si6 0.000000 0.500000 0.500000
Si Si7 0.337045 0.495388 0.989990
O O1 0.201353 0.666464 0.338671
O O2 0.190202 0.918158 0.314663
O O3 0.500000 0.000000 0.000000
O O4 0.090887 0.051106 0.119523
O O5 0.530103 0.794033 0.465346
O O6 0.770646 0.758483 0.210659
O O7 0.925258 0.670160 0.350523
O O8 0.827745 0.055293 0.104329
O O9 0.137060 0.825097 0.693922
O O10 0.500000 0.000000 0.500000
O O11 0.443256 0.619800 0.777936
O O12 0.730749 0.729317 0.868206
O O13 0.000000 0.000000 0.500000
O O14 0.107331 0.607183 0.051509
O O15 0.500000 0.500000 0.000000
#
# Coordination Sequence:
#
# PCOD9037072 Si02
#       7
#     2   2   2   2   2   1   2
#     4  11  26  48  74 103 149 187 241 304 367 436
#     4  10  23  39  73  98 139 182 237 287 360 431
#     4  12  23  47  72 104 142 188 238 302 374 431
#     4  12  29  47  69 110 147 183 252 307 358 450
#     4  10  23  45  65 105 140 183 241 298 352 442
#     4  10  24  46  70 106 138 190 236 292 362 438
#     4  12  27  45  74 101 146 196 240 297 373 424
#
# _framework density 22.674116000000001
#
# number of rings (size 3 to 8) (size 9 to 14) (size 15 to 20)
#    0.000    0.923    3.077    2.308    8.615    1.231 
#    0.000    1.538    0.000    0.000    0.000    0.000 
#    0.000    0.000    0.000    0.000    0.000    0.000 
#
# Total GULP energy -72406.501988 kJ/mol
# GULP energy per Si atom -5569.730922 kJ/mol
# Density = 2.262251 g / cm^3
# Si number density = 22.674116 Si / 1000 Ang^3
#
#
#
# Elastic Constant Matrix: (Units=GPa)
#
#
# Indices 1 2 3 4 5 6 
#
# 1 80.2512 8.1409 31.4334 -4.0449 -10.1930 3.9904
# 2 8.1409 68.3670 30.6290 23.7903 0.4067 16.9452
# 3 31.4334 30.6290 135.1873 8.7080 -0.9959 19.9383
# 4 -4.0449 23.7903 8.7080 50.7183 13.8841 11.3459
# 5 -10.1930 0.4067 -0.9959 13.8841 43.5838 -5.7470
# 6 3.9904 16.9452 19.9383 11.3459 -5.7470 18.7073
#
#
#
# Elastic Compliance Matrix: (Units=1/GPa)
#
#
# Indices 1 2 3 4 5 6 
#
# 1 0.014255 -0.000968 -0.003415 0.000848 0.003253 0.001961
# 2 -0.000968 0.021246 -0.002322 -0.006909 0.000096 -0.012343
# 3 -0.003415 -0.002322 0.010017 0.001962 -0.002464 -0.009791
# 4 0.000848 -0.006909 0.001962 0.029774 -0.011499 -0.017604
# 5 0.003253 0.000096 -0.002464 -0.011499 0.029676 0.017936
# 6 0.001961 -0.012343 -0.009791 -0.017604 0.017936 0.090839
#
#
# Mechanical properties :
#
#
# Convention : Reuss Voigt Hill
#
# Bulk Modulus (GPa) = 31.14604 47.13466 39.14035
# Shear Modulus (GPa) = 22.73555 36.84203 29.78879
#
# Velocity S-wave (km/s) = 3.16999 4.03532 3.62854
# Velocity P-wave (km/s) = 5.21198 6.52263 5.90379
#
# Compressibility (1/GPa) = 0.03210681
#
# Stress axis : x y z
#
# Youngs Moduli (GPa) = 70.14991 47.06872 99.83146
#
# Poissons Ratio (x) = 0.04556 0.34094
# Poissons Ratio (y) = 0.06790 0.23184
# Poissons Ratio (z) = 0.23957 0.10931
#
# Static dielectric constant tensor:
#      x y z
#    x 1.995590 -0.062790 -0.102760 
#    y -0.062790 1.858990 0.057150 
#    z -0.102760 0.057150 1.872070 
# 
# From -- ./inp_files/185188.got.cif
#   From: 2010.05.17/outbox.cif.g08.bks.cpg/sg2_93_cif.got.tgz:185188.got - 2010.06.03 11:33:40.
