data_PCOD9037112
_publ_section_title
;
Structure prediction by ZEFSAII (Michael W. Deem and Ramdas Pophale) SiO2 
 PCOD9037112
Probable space group: P -1
;
_chemical_formula_sum "Si O2"
_cell_formula_units_Z 16
_cell_length_a 12.727178
_cell_length_b 11.346209
_cell_length_c 10.452768
_cell_angle_alpha 106.031346
_cell_angle_beta 136.330224
_cell_angle_gamma 106.006237
_cell_volume 698.802373
_symmetry_space_group_name_H-M "P -1"
_symmetry_group_IT_number 2
_symmetry_cell_setting 'triclinic'
loop_
_space_group_symop_operation_xyz
x,y,z
-x,-y,-z
loop_
_atom_site_type_symbol
_atom_site_label
_atom_site_fract_x
_atom_site_fract_y
_atom_site_fract_z
Si Si1 0.206404 0.218310 0.120399
Si Si2 0.735894 0.974242 0.699029
Si Si3 0.296522 0.463103 0.765754
Si Si4 0.440830 0.823333 0.991808
Si Si5 0.689502 0.203443 0.867764
Si Si6 0.915543 0.426078 0.760561
Si Si7 0.635301 0.482740 0.452215
Si Si8 0.856754 0.192290 0.456693
O O1 0.253652 0.118790 0.206422
O O2 0.372087 0.332535 0.183418
O O3 0.268907 0.361725 0.319185
O O4 0.948168 0.074315 0.828878
O O5 0.509199 0.837426 0.383437
O O6 0.742465 0.114502 0.805127
O O7 0.273666 0.437936 0.584476
O O8 0.078352 0.308000 0.606744
O O9 0.500000 0.500000 0.000000
O O10 0.363317 0.642793 0.898686
O O11 0.383094 0.873761 0.078123
O O12 0.699857 0.984184 0.250546
O O13 0.297177 0.793789 0.742117
O O14 0.899467 0.409889 0.118160
O O15 0.708485 0.392128 0.541641
O O16 0.892427 0.271921 0.652504
O O17 0.000000 0.500000 0.000000
#
# Coordination Sequence:
#
# PCOD9037112 Si02
#       8
#     2   2   2   2   2   2   2   2
#     4  10  23  42  64  93 137 179 222 277 347 408
#     4  10  23  40  61 102 134 178 221 287 334 411
#     4  12  27  47  70 101 143 186 225 286 346 416
#     4  11  25  46  74 102 134 186 233 289 341 412
#     4  11  23  40  67  99 136 171 233 282 341 399
#     4  12  24  42  72 100 133 180 230 289 347 400
#     4  11  24  43  67  97 135 181 229 278 347 412
#     4  11  26  47  72 102 139 180 239 289 340 412
#
# _framework density 22.896318000000001
#
# number of rings (size 3 to 8) (size 9 to 14) (size 15 to 20)
#    0.000    1.000    3.750    1.875    7.000    3.500 
#    2.250    0.000    0.000    0.000    0.000    0.000 
#    0.000    0.000    0.000    0.000    0.000    0.000 
#
# Total GULP energy -89523.175246 kJ/mol
# GULP energy per Si atom -5595.198453 kJ/mol
# Density = 2.284420 g / cm^3
# Si number density = 22.896318 Si / 1000 Ang^3
#
#
#
# Elastic Constant Matrix: (Units=GPa)
#
#
# Indices 1 2 3 4 5 6 
#
# 1 84.6687 6.6148 42.2200 -4.5949 11.7753 17.6431
# 2 6.6148 36.9335 10.9325 1.0482 14.6672 7.7093
# 3 42.2200 10.9325 97.4814 16.0271 35.9485 3.6296
# 4 -4.5949 1.0482 16.0271 42.7927 12.6646 3.7308
# 5 11.7753 14.6672 35.9485 12.6646 35.1875 0.4960
# 6 17.6431 7.7093 3.6296 3.7308 0.4960 24.3779
#
#
#
# Elastic Compliance Matrix: (Units=1/GPa)
#
#
# Indices 1 2 3 4 5 6 
#
# 1 0.019729 0.002205 -0.009255 0.006911 -0.000347 -0.014649
# 2 0.002205 0.036742 0.001781 0.005728 -0.019737 -0.013956
# 3 -0.009255 0.001781 0.021178 -0.004020 -0.017890 0.003961
# 4 0.006911 0.005728 -0.004020 0.029688 -0.011130 -0.010531
# 5 -0.000347 -0.019737 -0.017890 -0.011130 0.058909 0.009661
# 6 -0.014649 -0.013956 0.003961 -0.010531 0.009661 0.056861
#
#
# Mechanical properties :
#
#
# Convention : Reuss Voigt Hill
#
# Bulk Modulus (GPa) = 14.90058 37.62424 26.26241
# Shear Modulus (GPa) = 19.53006 31.09270 25.31138
#
# Velocity S-wave (km/s) = 2.92375 3.68907 3.32848
# Velocity P-wave (km/s) = 4.23317 5.88335 5.12511
#
# Compressibility (1/GPa) = 0.06711150
#
# Stress axis : x y z
#
# Youngs Moduli (GPa) = 50.68632 27.21665 47.21924
#
# Poissons Ratio (x) = -0.06002 0.43701
# Poissons Ratio (y) = -0.11178 -0.08408
# Poissons Ratio (z) = 0.46910 -0.04846
#
# Static dielectric constant tensor:
#      x y z
#    x 1.855580 -0.017030 0.008830 
#    y -0.017030 1.779960 0.041060 
#    z 0.008830 0.041060 1.846290 
# 
# From -- ./inp_files/428601.got.cif
#   From: 2010.05.17/outbox.cif.g08.bks.cpg/sg2_215_cif.got.tgz:428601.got - 2010.06.03 11:33:40.
