data_PCOD9037183
_publ_section_title
;
Structure prediction by ZEFSAII (Michael W. Deem and Ramdas Pophale) SiO2 
 PCOD9037183
Probable space group: P -1
;
_chemical_formula_sum "Si O2"
_cell_formula_units_Z 16
_cell_length_a 12.515076
_cell_length_b 15.441042
_cell_length_c 5.269367
_cell_angle_alpha 72.257362
_cell_angle_beta 94.295843
_cell_angle_gamma 46.982252
_cell_volume 647.986739
_symmetry_space_group_name_H-M "P -1"
_symmetry_group_IT_number 2
_symmetry_cell_setting 'triclinic'
loop_
_space_group_symop_operation_xyz
x,y,z
-x,-y,-z
loop_
_atom_site_type_symbol
_atom_site_label
_atom_site_fract_x
_atom_site_fract_y
_atom_site_fract_z
Si Si1 0.037647 0.291252 0.400220
Si Si2 0.206200 0.368269 0.303328
Si Si3 0.757010 0.483539 0.515797
Si Si4 0.385051 0.659672 0.768302
Si Si5 0.549691 0.719376 0.942566
Si Si6 0.138080 0.122843 0.064229
Si Si7 0.805275 0.256712 0.857179
Si Si8 0.524974 0.090977 0.874215
O O1 0.077187 0.370747 0.279692
O O2 0.121843 0.202995 0.752240
O O3 0.854397 0.396128 0.357025
O O4 0.094028 0.197456 0.255454
O O5 0.159208 0.487944 0.341884
O O6 0.282374 0.345535 0.067223
O O7 0.360972 0.228681 0.598200
O O8 0.758274 0.392860 0.760754
O O9 0.588951 0.626344 0.264203
O O10 0.481202 0.694048 0.746435
O O11 0.286028 0.710801 0.446278
O O12 0.500000 0.500000 0.000000
O O13 0.261993 0.749148 0.901588
O O14 0.451802 0.865271 0.904028
O O15 0.998763 0.135864 0.980686
O O16 0.323688 0.981581 0.210012
O O17 0.500000 0.000000 0.000000
#
# Coordination Sequence:
#
# PCOD9037183 Si02
#       8
#     2   2   2   2   2   2   2   2
#     4  11  24  41  68  98 140 180 224 272 349 408
#     4  11  24  40  67  98 140 179 225 284 337 411
#     4  10  23  40  63 104 139 173 220 279 349 417
#     4  12  24  43  72 101 136 176 223 282 345 404
#     4  11  26  40  68 102 136 178 229 283 338 407
#     4  11  25  44  69  98 133 184 232 278 329 408
#     4  11  24  44  69  98 136 177 223 276 347 398
#     4  11  24  46  68  97 137 183 236 277 334 397
#
# _framework density 24.691863000000001
#
# number of rings (size 3 to 8) (size 9 to 14) (size 15 to 20)
#    0.000    1.000    2.500    3.750   10.500    1.500 
#    0.000    1.250    0.000    0.000    0.000    0.000 
#    0.000    0.000    0.000    0.000    0.000    0.000 
#
# Total GULP energy -89561.479491 kJ/mol
# GULP energy per Si atom -5597.592468 kJ/mol
# Density = 2.463566 g / cm^3
# Si number density = 24.691863 Si / 1000 Ang^3
#
#
#
# Elastic Constant Matrix: (Units=GPa)
#
#
# Indices 1 2 3 4 5 6 
#
# 1 105.6445 34.5425 11.9273 11.6052 7.6200 -19.4912
# 2 34.5425 114.6198 33.6423 30.0515 10.1574 -7.9755
# 3 11.9273 33.6423 93.5717 24.9129 2.1475 -7.6998
# 4 11.6052 30.0515 24.9129 43.2657 -0.6968 -7.6329
# 5 7.6200 10.1574 2.1475 -0.6968 38.4534 8.2650
# 6 -19.4912 -7.9755 -7.6998 -7.6329 8.2650 40.0336
#
#
#
# Elastic Compliance Matrix: (Units=1/GPa)
#
#
# Indices 1 2 3 4 5 6 
#
# 1 0.011654 -0.002838 0.000140 -0.000282 -0.002788 0.005657
# 2 -0.002838 0.012154 -0.002237 -0.006449 -0.002623 -0.000079
# 3 0.000140 -0.002237 0.013139 -0.005856 -0.000522 0.001140
# 4 -0.000282 -0.006449 -0.005856 0.031613 0.002000 0.003066
# 5 -0.002788 -0.002623 -0.000522 0.002000 0.028944 -0.007575
# 6 0.005657 -0.000079 0.001140 0.003066 -0.007575 0.030085
#
#
# Mechanical properties :
#
#
# Convention : Reuss Voigt Hill
#
# Bulk Modulus (GPa) = 36.93595 52.67337 44.80466
# Shear Modulus (GPa) = 34.13280 39.93213 37.03246
#
# Velocity S-wave (km/s) = 3.72203 4.02583 3.87691
# Velocity P-wave (km/s) = 5.78468 6.55655 6.18267
#
# Compressibility (1/GPa) = 0.02707389
#
# Stress axis : x y z
#
# Youngs Moduli (GPa) = 85.80852 82.27534 76.11185
#
# Poissons Ratio (x) = 0.23353 -0.01062
# Poissons Ratio (y) = 0.24356 0.17030
# Poissons Ratio (z) = -0.01197 0.18409
#
# Static dielectric constant tensor:
#      x y z
#    x 1.966060 -0.018180 0.028510 
#    y -0.018180 1.975330 -0.035290 
#    z 0.028510 -0.035290 2.056180 
# 
# From -- ./inp_files/77646.got.cif
#   From: 2010.05.17/outbox.cif.g08.bks.cpg/sg2_39_cif.got.tgz:77646.got - 2010.06.03 11:33:40.
