data_PCOD9037883
_publ_section_title
;
Structure prediction by ZEFSAII (Michael W. Deem and Ramdas Pophale) SiO2 
 PCOD9037883
Probable space group: P -1
;
_chemical_formula_sum "Si O2"
_cell_formula_units_Z 16
_cell_length_a 8.853619
_cell_length_b 8.821260
_cell_length_c 15.913199
_cell_angle_alpha 119.239594
_cell_angle_beta 49.864548
_cell_angle_gamma 130.274092
_cell_volume 719.431216
_symmetry_space_group_name_H-M "P -1"
_symmetry_group_IT_number 2
_symmetry_cell_setting 'triclinic'
loop_
_space_group_symop_operation_xyz
x,y,z
-x,-y,-z
loop_
_atom_site_type_symbol
_atom_site_label
_atom_site_fract_x
_atom_site_fract_y
_atom_site_fract_z
Si Si1 0.769938 0.457979 0.027184
Si Si2 0.159146 0.219432 0.035555
Si Si3 0.107407 0.590402 0.725487
Si Si4 0.221712 0.678293 0.360797
Si Si5 0.482372 0.892162 0.065719
Si Si6 0.649841 0.038153 0.372955
Si Si7 0.072499 0.248103 0.377122
Si Si8 0.471168 0.733713 0.770402
O O1 0.589419 0.364048 0.141638
O O2 0.757539 0.637725 0.036639
O O3 0.751497 0.310864 0.917626
O O4 0.000000 0.500000 0.000000
O O5 0.023740 0.298871 0.160850
O O6 0.350890 0.198722 0.010534
O O7 0.000000 0.000000 0.000000
O O8 0.276281 0.593023 0.737180
O O9 0.917139 0.388041 0.694741
O O10 0.279575 0.747629 0.636279
O O11 0.485505 0.854076 0.320907
O O12 0.187149 0.467880 0.352145
O O13 0.079187 0.743188 0.490489
O O14 0.527607 0.055848 0.163429
O O15 0.500000 0.000000 0.000000
O O16 0.500000 0.000000 0.500000
O O17 0.896293 0.078945 0.329391
O O18 0.276177 0.217594 0.327574
#
# Coordination Sequence:
#
# PCOD9037883 Si02
#       8
#     2   2   2   2   2   2   2   2
#     4  11  23  44  65  95 137 175 233 275 335 406
#     4  12  23  44  65  95 134 183 218 279 335 398
#     4  11  23  39  67  96 136 171 228 273 339 405
#     4   9  20  41  66  97 126 171 226 277 338 410
#     4  10  23  41  64  92 139 175 219 281 331 394
#     4   9  20  42  67  93 126 171 222 276 339 406
#     4   9  20  41  68  93 131 171 220 282 339 400
#     4  11  23  44  62 101 137 178 223 282 341 397
#
# _framework density 22.239788999999998
#
# number of rings (size 3 to 8) (size 9 to 14) (size 15 to 20)
#    0.000    1.750    2.500    1.875    7.000    2.500 
#    2.250    2.500    0.000    0.000    0.000    0.000 
#    0.000    0.000    0.000    0.000    0.000    0.000 
#
# Total GULP energy -89256.151511 kJ/mol
# GULP energy per Si atom -5578.509469 kJ/mol
# Density = 2.218917 g / cm^3
# Si number density = 22.239789 Si / 1000 Ang^3
#
#
#
# Elastic Constant Matrix: (Units=GPa)
#
#
# Indices 1 2 3 4 5 6 
#
# 1 172.8537 52.4828 38.4913 10.6234 -1.4093 28.2361
# 2 52.4828 110.0451 18.8308 11.3139 11.0175 24.8040
# 3 38.4913 18.8308 57.7660 -3.9811 -3.0266 3.3804
# 4 10.6234 11.3139 -3.9811 14.7157 2.7245 13.7061
# 5 -1.4093 11.0175 -3.0266 2.7245 43.3064 2.7594
# 6 28.2361 24.8040 3.3804 13.7061 2.7594 59.9326
#
#
#
# Elastic Compliance Matrix: (Units=1/GPa)
#
#
# Indices 1 2 3 4 5 6 
#
# 1 0.008079 -0.002344 -0.004739 -0.003869 0.000881 -0.001725
# 2 -0.002344 0.012066 -0.002775 -0.005661 -0.002837 -0.002308
# 3 -0.004739 -0.002775 0.022311 0.011962 0.001402 -0.000677
# 4 -0.003869 -0.005661 0.011962 0.095897 -0.002716 -0.018315
# 5 0.000881 -0.002837 0.001402 -0.002716 0.024098 0.000191
# 6 -0.001725 -0.002308 -0.000677 -0.018315 0.000191 0.022671
#
#
# Mechanical properties :
#
#
# Convention : Reuss Voigt Hill
#
# Bulk Modulus (GPa) = 43.97491 62.25271 53.11381
# Shear Modulus (GPa) = 23.53853 38.98160 31.26006
#
# Velocity S-wave (km/s) = 3.25683 4.19117 3.75319
# Velocity P-wave (km/s) = 5.82740 7.17451 6.53575
#
# Compressibility (1/GPa) = 0.02274024
#
# Stress axis : x y z
#
# Youngs Moduli (GPa) = 123.78110 82.87696 44.82113
#
# Poissons Ratio (x) = 0.19425 0.21239
# Poissons Ratio (y) = 0.29012 0.12439
# Poissons Ratio (z) = 0.58655 0.23001
#
# Static dielectric constant tensor:
#      x y z
#    x 1.851850 0.080050 0.025000 
#    y 0.080050 1.916500 -0.021500 
#    z 0.025000 -0.021500 1.863540 
# 
# From -- ./inp_files/217173.got.cif
#   From: 2010.05.17/outbox.cif.g08.bks.cpg/sg2_109_cif.got.tgz:217173.got - 2010.06.03 11:33:40.
