data_PCOD9037181
_publ_section_title
;
Structure prediction by ZEFSAII (Michael W. Deem and Ramdas Pophale) SiO2 
 PCOD9037181
Probable space group: P -1
;
_chemical_formula_sum "Si O2"
_cell_formula_units_Z 16
_cell_length_a 9.550645
_cell_length_b 10.423016
_cell_length_c 8.983557
_cell_angle_alpha 90.097396
_cell_angle_beta 95.887327
_cell_angle_gamma 126.175564
_cell_volume 715.906900
_symmetry_space_group_name_H-M "P -1"
_symmetry_group_IT_number 2
_symmetry_cell_setting 'triclinic'
loop_
_space_group_symop_operation_xyz
x,y,z
-x,-y,-z
loop_
_atom_site_type_symbol
_atom_site_label
_atom_site_fract_x
_atom_site_fract_y
_atom_site_fract_z
Si Si1 0.911991 0.188993 0.271461
Si Si2 0.418795 0.844382 0.800239
Si Si3 0.593628 0.420879 0.879211
Si Si4 0.799159 0.850478 0.157171
Si Si5 0.491400 0.376082 0.327950
Si Si6 0.213621 0.289571 0.527529
Si Si7 0.936707 0.690102 0.021065
Si Si8 0.304283 0.791523 0.136695
O O1 0.754238 0.195712 0.299054
O O2 0.037776 0.222118 0.419702
O O3 0.025608 0.308604 0.149475
O O4 0.832366 0.018188 0.184052
O O5 0.477077 0.737114 0.754849
O O6 0.575963 0.029410 0.790330
O O7 0.361308 0.814756 0.967937
O O8 0.400039 0.282619 0.914475
O O9 0.573651 0.538742 0.779760
O O10 0.743848 0.526218 0.019073
O O11 0.650471 0.324041 0.795795
O O12 0.820257 0.799905 0.322323
O O13 0.920743 0.830528 0.064271
O O14 0.342584 0.277676 0.436122
O O15 0.671369 0.522560 0.421980
O O16 0.099130 0.713279 0.121735
#
# Coordination Sequence:
#
# PCOD9037181 Si02
#       8
#     2   2   2   2   2   2   2   2
#     4  11  22  44  65  96 134 170 214 273 324 386
#     4  10  23  41  65  97 134 173 212 270 331 379
#     4  11  22  41  65  96 131 168 214 266 324 381
#     4  11  24  40  67  99 131 171 219 268 324 387
#     4  10  23  42  68  93 127 177 218 266 323 385
#     4  10  23  43  65  93 130 174 222 266 315 391
#     4  11  24  38  67 101 126 173 217 267 327 386
#     4  10  23  40  63 100 139 162 214 276 324 386
#
# _framework density 22.349277000000001
#
# number of rings (size 3 to 8) (size 9 to 14) (size 15 to 20)
#    0.000    1.500    2.500    1.500    7.000    0.500 
#    0.000    4.375    0.000    0.000    0.000    0.000 
#    0.000    0.000    0.000    0.000    0.000    0.000 
#
# Total GULP energy -89487.055894 kJ/mol
# GULP energy per Si atom -5592.940993 kJ/mol
# Density = 2.229841 g / cm^3
# Si number density = 22.349277 Si / 1000 Ang^3
#
#
#
# Elastic Constant Matrix: (Units=GPa)
#
#
# Indices 1 2 3 4 5 6 
#
# 1 145.9974 65.8631 47.0990 22.5406 20.8973 -18.0132
# 2 65.8631 101.8183 24.8794 20.3832 5.7671 -18.1126
# 3 47.0990 24.8794 52.8385 8.1264 6.6062 3.8388
# 4 22.5406 20.3832 8.1264 22.6039 0.2880 -5.8162
# 5 20.8973 5.7671 6.6062 0.2880 20.3668 9.6831
# 6 -18.0132 -18.1126 3.8388 -5.8162 9.6831 35.5504
#
#
#
# Elastic Compliance Matrix: (Units=1/GPa)
#
#
# Indices 1 2 3 4 5 6 
#
# 1 0.017450 -0.004076 -0.011186 -0.006367 -0.018756 0.012040
# 2 -0.004076 0.015769 -0.002769 -0.007715 -0.001903 0.005524
# 3 -0.011186 -0.002769 0.030146 -0.000579 0.008557 -0.012759
# 4 -0.006367 -0.007715 -0.000579 0.057694 0.008012 0.000162
# 5 -0.018756 -0.001903 0.008557 0.008012 0.081320 -0.032236
# 6 0.012040 0.005524 -0.012759 0.000162 -0.032236 0.047229
#
#
# Mechanical properties :
#
#
# Convention : Reuss Voigt Hill
#
# Bulk Modulus (GPa) = 36.62424 64.03745 50.33084
# Shear Modulus (GPa) = 16.96229 26.55841 21.76035
#
# Velocity S-wave (km/s) = 2.75792 3.45096 3.12372
# Velocity P-wave (km/s) = 5.15405 6.67788 5.96483
#
# Compressibility (1/GPa) = 0.02730432
#
# Stress axis : x y z
#
# Youngs Moduli (GPa) = 57.30707 63.41407 33.17157
#
# Poissons Ratio (x) = 0.25845 0.37105
# Poissons Ratio (y) = 0.23356 0.09186
# Poissons Ratio (z) = 0.64103 0.17561
#
# Static dielectric constant tensor:
#      x y z
#    x 1.818840 0.005890 0.015270 
#    y 0.005890 1.850410 0.002770 
#    z 0.015270 0.002770 1.810500 
# 
# From -- ./inp_files/382691.got.cif
#   From: 2010.05.17/outbox.cif.g08.bks.cpg/sg2_192_cif.got.tgz:382691.got - 2010.06.03 11:33:40.
