data_PCOD9037903
_publ_section_title
;
Structure prediction by ZEFSAII (Michael W. Deem and Ramdas Pophale) SiO2 
 PCOD9037903
Probable space group: P -1
;
_chemical_formula_sum "Si O2"
_cell_formula_units_Z 12
_cell_length_a 11.482728
_cell_length_b 4.995668
_cell_length_c 23.651979
_cell_angle_alpha 58.346173
_cell_angle_beta 27.559175
_cell_angle_gamma 56.051500
_cell_volume 519.164490
_symmetry_space_group_name_H-M "P -1"
_symmetry_group_IT_number 2
_symmetry_cell_setting 'triclinic'
loop_
_space_group_symop_operation_xyz
x,y,z
-x,-y,-z
loop_
_atom_site_type_symbol
_atom_site_label
_atom_site_fract_x
_atom_site_fract_y
_atom_site_fract_z
Si Si1 0.465679 0.024762 0.445733
Si Si2 0.998292 0.529073 0.564550
Si Si3 0.046223 0.126413 0.346515
Si Si4 0.015163 0.882246 0.833864
Si Si5 0.090277 0.775981 0.040308
Si Si6 0.379825 0.580366 0.105166
O O1 0.736374 0.981630 0.303417
O O2 0.298066 0.386565 0.465776
O O3 0.500000 0.000000 0.500000
O O4 0.263236 0.815672 0.536611
O O5 0.900611 0.829628 0.614382
O O6 0.000000 0.500000 0.500000
O O7 0.857225 0.243073 0.674638
O O8 0.172883 0.369417 0.231213
O O9 0.072411 0.495483 0.850053
O O10 0.932369 0.996985 0.920195
O O11 0.787047 0.050343 0.869635
O O12 0.384124 0.549841 0.938716
O O13 0.000000 0.000000 0.000000
O O14 0.500000 0.500000 0.000000
#
# Coordination Sequence:
#
# PCOD9037903 Si02
#       6
#     2   2   2   2   2   2
#     4  10  25  40  68 100 137 171 224 278 340 397
#     4  10  23  41  64  95 136 175 223 266 342 405
#     4  10  24  41  68  99 134 178 220 281 335 400
#     4  11  25  43  71  98 134 175 226 279 335 401
#     4  11  26  46  69  98 133 179 225 279 335 400
#     4  10  24  44  70  98 136 175 230 276 335 400
#
# _framework density 23.114063000000002
#
# number of rings (size 3 to 8) (size 9 to 14) (size 15 to 20)
#    1.000    0.667    0.000    2.500    7.000    6.667 
#    0.000    0.000    0.000    0.000    0.000    0.000 
#    0.000    0.000    0.000    0.000    0.000    0.000 
#
# Total GULP energy -66933.847373 kJ/mol
# GULP energy per Si atom -5577.820614 kJ/mol
# Density = 2.306145 g / cm^3
# Si number density = 23.114063 Si / 1000 Ang^3
#
#
#
# Elastic Constant Matrix: (Units=GPa)
#
#
# Indices 1 2 3 4 5 6 
#
# 1 142.4570 43.4280 33.3548 -9.5484 1.0368 -6.2745
# 2 43.4280 74.0938 20.0938 -15.7237 -2.0494 -4.5576
# 3 33.3548 20.0938 112.5855 -16.1771 -9.6934 -11.4722
# 4 -9.5484 -15.7237 -16.1771 26.7076 4.6026 3.3245
# 5 1.0368 -2.0494 -9.6934 4.6026 22.0443 -5.0066
# 6 -6.2745 -4.5576 -11.4722 3.3245 -5.0066 46.6875
#
#
#
# Elastic Compliance Matrix: (Units=1/GPa)
#
#
# Indices 1 2 3 4 5 6 
#
# 1 0.008947 -0.004871 -0.001996 -0.000616 -0.001598 0.000109
# 2 -0.004871 0.018369 -0.000550 0.008699 -0.000035 0.000380
# 3 -0.001996 -0.000550 0.010850 0.004456 0.004452 0.002504
# 4 -0.000616 0.008699 0.004456 0.046606 -0.007446 -0.002256
# 5 -0.001598 -0.000035 0.004452 -0.007446 0.050497 0.006821
# 6 0.000109 0.000380 0.002504 -0.002256 0.006821 0.022978
#
#
# Mechanical properties :
#
#
# Convention : Reuss Voigt Hill
#
# Bulk Modulus (GPa) = 42.85894 58.09882 50.47888
# Shear Modulus (GPa) = 27.64574 34.57186 31.10880
#
# Velocity S-wave (km/s) = 3.46216 3.87163 3.67261
# Velocity P-wave (km/s) = 5.87917 6.72133 6.31431
#
# Compressibility (1/GPa) = 0.02333236
#
# Stress axis : x y z
#
# Youngs Moduli (GPa) = 111.76760 54.43992 92.16172
#
# Poissons Ratio (x) = 0.26518 0.18399
# Poissons Ratio (y) = 0.54442 0.05066
# Poissons Ratio (z) = 0.22313 0.02992
#
# Static dielectric constant tensor:
#      x y z
#    x 2.262520 0.307600 0.372250 
#    y 0.307600 2.201290 0.299550 
#    z 0.372250 0.299550 2.242860 
# 
# From -- ./inp_files/617812.got.cif
#   From: 2010.05.17/outbox.cif.g08.bks.cpg/sg2_309_cif.got.tgz:617812.got - 2010.06.03 11:33:40.
