data_PCOD9037266
_publ_section_title
;
Structure prediction by ZEFSAII (Michael W. Deem and Ramdas Pophale) SiO2 
 PCOD9037266
Probable space group: P -1
;
_chemical_formula_sum "Si O2"
_cell_formula_units_Z 14
_cell_length_a 9.495714
_cell_length_b 9.023881
_cell_length_c 11.254573
_cell_angle_alpha 55.987809
_cell_angle_beta 108.823582
_cell_angle_gamma 130.992265
_cell_volume 601.870383
_symmetry_space_group_name_H-M "P -1"
_symmetry_group_IT_number 2
_symmetry_cell_setting 'triclinic'
loop_
_space_group_symop_operation_xyz
x,y,z
-x,-y,-z
loop_
_atom_site_type_symbol
_atom_site_label
_atom_site_fract_x
_atom_site_fract_y
_atom_site_fract_z
Si Si1 0.060677 0.257063 0.042163
Si Si2 0.742156 0.756190 0.095820
Si Si3 0.118188 0.411194 0.600059
Si Si4 0.116075 0.939351 0.486690
Si Si5 0.487708 0.287644 0.548371
Si Si6 0.469854 0.790680 0.151511
Si Si7 0.029924 0.412252 0.204926
O O1 0.237655 0.283912 0.019200
O O2 0.059428 0.465849 0.913510
O O3 0.028735 0.256996 0.173740
O O4 0.885265 0.024119 0.042059
O O5 0.815731 0.632669 0.240089
O O6 0.554652 0.694661 0.134743
O O7 0.309233 0.595612 0.500975
O O8 0.000000 0.500000 0.500000
O O9 0.983022 0.159953 0.620666
O O10 0.074656 0.729134 0.643570
O O11 0.331755 0.143397 0.470552
O O12 0.000000 0.000000 0.500000
O O13 0.500000 0.500000 0.500000
O O14 0.440239 0.146729 0.720123
O O15 0.250240 0.603965 0.198400
O O16 0.500000 0.000000 0.000000
#
# Coordination Sequence:
#
# PCOD9037266 Si02
#       7
#     2   2   2   2   2   2   2
#     4  10  23  40  64  94 132 179 220 274 339 409
#     4  11  23  43  65  95 137 175 224 280 344 408
#     4  12  26  45  71 103 137 179 230 293 348 404
#     4  12  23  42  72  99 132 183 231 282 342 411
#     4  12  24  44  70 102 134 183 236 281 339 422
#     4  12  23  40  68 103 134 178 229 283 339 409
#     4  11  22  40  67  98 130 179 228 274 339 409
#
# _framework density 23.260821
#
# number of rings (size 3 to 8) (size 9 to 14) (size 15 to 20)
#    0.000    0.571    5.714    2.571    2.000    1.143 
#    0.000    0.000    0.000    0.000    0.000    0.000 
#    0.000    0.000    0.000    0.000    0.000    0.000 
#
# Total GULP energy -78204.633194 kJ/mol
# GULP energy per Si atom -5586.045228 kJ/mol
# Density = 2.320788 g / cm^3
# Si number density = 23.260821 Si / 1000 Ang^3
#
#
#
# Elastic Constant Matrix: (Units=GPa)
#
#
# Indices 1 2 3 4 5 6 
#
# 1 119.6890 23.6551 5.5859 -4.9048 -9.1475 7.1128
# 2 23.6551 92.2940 1.9474 2.5008 -13.4788 6.5390
# 3 5.5859 1.9474 90.0326 -6.1788 4.6851 -9.8981
# 4 -4.9048 2.5008 -6.1788 37.3929 -10.7300 -6.5338
# 5 -9.1475 -13.4788 4.6851 -10.7300 39.0436 -8.2806
# 6 7.1128 6.5390 -9.8981 -6.5338 -8.2806 40.8324
#
#
#
# Elastic Compliance Matrix: (Units=1/GPa)
#
#
# Indices 1 2 3 4 5 6 
#
# 1 0.009030 -0.002034 -0.000584 0.001592 0.001756 -0.000778
# 2 -0.002034 0.011943 -0.000446 -0.000349 0.003384 -0.001036
# 3 -0.000584 -0.000446 0.011698 0.002369 -0.000340 0.003319
# 4 0.001592 -0.000349 0.002369 0.031615 0.010245 0.007489
# 5 0.001756 0.003384 -0.000340 0.010245 0.031556 0.007109
# 6 -0.000778 -0.001036 0.003319 0.007489 0.007109 0.028236
#
#
# Mechanical properties :
#
#
# Convention : Reuss Voigt Hill
#
# Bulk Modulus (GPa) = 37.67418 40.48805 39.08112
# Shear Modulus (GPa) = 35.95742 41.50891 38.73317
#
# Velocity S-wave (km/s) = 3.93598 4.22892 4.08507
# Velocity P-wave (km/s) = 6.07351 6.42564 6.25205
#
# Compressibility (1/GPa) = 0.02654338
#
# Stress axis : x y z
#
# Youngs Moduli (GPa) = 110.74396 83.73332 85.48397
#
# Poissons Ratio (x) = 0.17028 0.04992
# Poissons Ratio (y) = 0.22521 0.03814
# Poissons Ratio (z) = 0.06466 0.03735
#
# Static dielectric constant tensor:
#      x y z
#    x 1.877800 -0.009400 0.003310 
#    y -0.009400 1.886010 0.046200 
#    z 0.003310 0.046200 1.960550 
# 
# From -- ./inp_files/237276.got.cif
#   From: 2010.05.17/outbox.cif.g08.bks.cpg/sg2_119_cif.got.tgz:237276.got - 2010.06.03 11:33:40.
