data_PCOD9037758
_publ_section_title
;
Structure prediction by ZEFSAII (Michael W. Deem and Ramdas Pophale) SiO2 
 PCOD9037758
Probable space group: P -1
;
_chemical_formula_sum "Si O2"
_cell_formula_units_Z 16
_cell_length_a 17.489301
_cell_length_b 23.459181
_cell_length_c 14.329848
_cell_angle_alpha 32.931009
_cell_angle_beta 156.538086
_cell_angle_gamma 159.703717
_cell_volume 802.478726
_symmetry_space_group_name_H-M "P -1"
_symmetry_group_IT_number 2
_symmetry_cell_setting 'triclinic'
loop_
_space_group_symop_operation_xyz
x,y,z
-x,-y,-z
loop_
_atom_site_type_symbol
_atom_site_label
_atom_site_fract_x
_atom_site_fract_y
_atom_site_fract_z
Si Si1 0.252899 0.565698 0.072492
Si Si2 0.694627 0.649155 0.940100
Si Si3 0.155178 0.662852 0.394565
Si Si4 0.839496 0.929629 0.817401
Si Si5 0.755039 0.955492 0.349672
Si Si6 0.288317 0.616531 0.409883
Si Si7 0.923774 0.812771 0.427730
Si Si8 0.236472 0.756816 0.914964
O O1 0.560833 0.652238 0.254076
O O2 0.045431 0.388867 0.131497
O O3 0.330450 0.686312 0.070757
O O4 0.026445 0.527480 0.799534
O O5 0.957186 0.683478 0.151610
O O6 0.500000 0.500000 0.000000
O O7 0.817875 0.805305 0.916077
O O8 0.465751 0.590956 0.682820
O O9 0.493424 0.820464 0.595773
O O10 0.206803 0.650695 0.362420
O O11 0.000000 0.500000 0.500000
O O12 0.997764 0.072109 0.723416
O O13 0.000000 0.000000 0.000000
O O14 0.526589 0.778302 0.388968
O O15 0.530229 0.921763 0.073588
O O16 0.000000 0.000000 0.500000
O O17 0.932345 0.089657 0.446111
O O18 0.100883 0.779076 0.657290
#
# Coordination Sequence:
#
# PCOD9037758 Si02
#       8
#     2   2   2   2   2   2   2   2
#     4  10  23  41  62  93 132 166 216 267 324 396
#     4  11  22  43  72  93 131 181 226 270 337 403
#     4  11  22  43  69  91 132 177 224 275 327 405
#     4  11  27  44  65 105 137 166 226 283 336 397
#     4  11  21  43  66  92 133 171 217 275 320 392
#     4  10  23  42  63 100 127 171 227 264 327 402
#     4  12  23  42  65  94 132 170 218 272 336 383
#     4  10  23  41  63  92 130 172 214 265 328 395
#
# _framework density 19.938223000000001
#
# number of rings (size 3 to 8) (size 9 to 14) (size 15 to 20)
#    0.000    1.250    6.250    0.750    1.750    4.500 
#    4.500    0.000    0.000    0.000    0.000    0.000 
#    0.000    0.000    0.000    0.000    0.000    0.000 
#
# Total GULP energy -89346.238492 kJ/mol
# GULP energy per Si atom -5584.139906 kJ/mol
# Density = 1.989284 g / cm^3
# Si number density = 19.938223 Si / 1000 Ang^3
#
#
#
# Elastic Constant Matrix: (Units=GPa)
#
#
# Indices 1 2 3 4 5 6 
#
# 1 78.1745 18.9056 44.3526 7.1390 0.3115 9.7613
# 2 18.9056 48.4907 33.5609 6.6627 -0.1763 8.1968
# 3 44.3526 33.5609 148.7667 9.0779 6.5707 -0.6057
# 4 7.1390 6.6627 9.0779 39.9852 -1.7248 -4.7445
# 5 0.3115 -0.1763 6.5707 -1.7248 40.7660 10.0209
# 6 9.7613 8.1968 -0.6057 -4.7445 10.0209 30.1948
#
#
#
# Elastic Compliance Matrix: (Units=1/GPa)
#
#
# Indices 1 2 3 4 5 6 
#
# 1 0.016799 -0.002109 -0.004506 -0.002247 0.001957 -0.005951
# 2 -0.002109 0.027142 -0.005426 -0.003780 0.002901 -0.008352
# 3 -0.004506 -0.005426 0.009419 -0.000070 -0.002476 0.003929
# 4 -0.002247 -0.003780 -0.000070 0.026762 -0.000348 0.006072
# 5 0.001957 0.002901 -0.002476 -0.000348 0.027533 -0.010662
# 6 -0.005951 -0.008352 0.003929 0.006072 -0.010662 0.041881
#
#
# Mechanical properties :
#
#
# Convention : Reuss Voigt Hill
#
# Bulk Modulus (GPa) = 34.15557 52.11889 43.13723
# Shear Modulus (GPa) = 27.26640 34.09673 30.68156
#
# Velocity S-wave (km/s) = 3.70204 4.13984 3.92705
# Velocity P-wave (km/s) = 5.95327 7.00343 6.49959
#
# Compressibility (1/GPa) = 0.02927780
#
# Stress axis : x y z
#
# Youngs Moduli (GPa) = 59.52755 36.84370 106.16819
#
# Poissons Ratio (x) = 0.07771 0.47840
# Poissons Ratio (y) = 0.12555 0.57603
# Poissons Ratio (z) = 0.26824 0.19990
#
# Static dielectric constant tensor:
#      x y z
#    x 1.709070 -0.035300 -0.012800 
#    y -0.035300 1.708830 -0.011790 
#    z -0.012800 -0.011790 1.725980 
# 
# From -- ./inp_files/223894.got.cif
#   From: 2010.05.17/outbox.cif.g08.bks.cpg/sg2_112_cif.got.tgz:223894.got - 2010.06.03 11:33:40.
