data_PCOD9037807
_publ_section_title
;
Structure prediction by ZEFSAII (Michael W. Deem and Ramdas Pophale) SiO2 
 PCOD9037807
Probable space group: P -1
;
_chemical_formula_sum "Si O2"
_cell_formula_units_Z 16
_cell_length_a 9.309739
_cell_length_b 18.392253
_cell_length_c 13.110755
_cell_angle_alpha 21.231430
_cell_angle_beta 122.251629
_cell_angle_gamma 124.039219
_cell_volume 673.139694
_symmetry_space_group_name_H-M "P -1"
_symmetry_group_IT_number 2
_symmetry_cell_setting 'triclinic'
loop_
_space_group_symop_operation_xyz
x,y,z
-x,-y,-z
loop_
_atom_site_type_symbol
_atom_site_label
_atom_site_fract_x
_atom_site_fract_y
_atom_site_fract_z
Si Si1 0.496408 0.903433 0.892763
Si Si2 0.867416 0.495461 0.141254
Si Si3 0.160844 0.590120 0.517726
Si Si4 0.625717 0.754398 0.946183
Si Si5 0.831296 0.955170 0.067911
Si Si6 0.138876 0.898709 0.760830
Si Si7 0.599685 0.765637 0.688838
Si Si8 0.042927 0.881013 0.425269
O O1 0.657845 0.850049 0.082384
O O2 0.527604 0.146835 0.551533
O O3 0.488326 0.785149 0.937474
O O4 0.310131 0.849880 0.945320
O O5 0.889038 0.329498 0.281806
O O6 0.881500 0.424489 0.357412
O O7 0.019552 0.696970 0.934661
O O8 0.682355 0.565487 0.964774
O O9 0.208892 0.827267 0.198642
O O10 0.000000 0.500000 0.500000
O O11 0.305988 0.454153 0.739532
O O12 0.558918 0.772372 0.783199
O O13 0.796181 0.937470 0.783859
O O14 0.890346 0.844483 0.331355
O O15 0.000000 0.000000 0.000000
O O16 0.233240 0.050818 0.510461
O O17 0.041892 0.027392 0.631003
#
# Coordination Sequence:
#
# PCOD9037807 Si02
#       8
#     2   2   2   2   2   2   2   2
#     4  10  23  41  63  92 130 165 202 269 316 360
#     4  11  21  39  65  97 121 174 210 248 316 382
#     4  11  19  35  66  93 121 160 216 259 307 371
#     4  11  20  40  65  95 119 167 212 259 313 365
#     4  12  21  41  65  91 123 162 215 264 306 376
#     4  10  23  44  61  92 137 164 204 264 311 373
#     4   9  22  41  64  89 134 162 208 261 309 374
#     4  12  23  38  72  94 122 171 218 251 311 381
#
# _framework density 23.769212
#
# number of rings (size 3 to 8) (size 9 to 14) (size 15 to 20)
#    0.750    0.500    6.250    0.750    0.000    1.000 
#    2.250    7.500    0.000    0.000    0.000    0.000 
#    0.000    0.000    0.000    0.000    0.000    0.000 
#
# Total GULP energy -89349.717390 kJ/mol
# GULP energy per Si atom -5584.357337 kJ/mol
# Density = 2.371511 g / cm^3
# Si number density = 23.769212 Si / 1000 Ang^3
#
#
#
# Elastic Constant Matrix: (Units=GPa)
#
#
# Indices 1 2 3 4 5 6 
#
# 1 103.6181 39.8014 16.3775 -9.7861 33.5600 -13.0559
# 2 39.8014 85.0444 2.8315 -0.5610 11.1531 10.6863
# 3 16.3775 2.8315 63.8442 -8.3400 31.3716 -6.7314
# 4 -9.7861 -0.5610 -8.3400 41.5545 -6.7940 21.8949
# 5 33.5600 11.1531 31.3716 -6.7940 33.7041 -0.0162
# 6 -13.0559 10.6863 -6.7314 21.8949 -0.0162 27.6887
#
#
#
# Elastic Compliance Matrix: (Units=1/GPa)
#
#
# Indices 1 2 3 4 5 6 
#
# 1 0.028172 -0.012648 0.014965 -0.014871 -0.040777 0.033539
# 2 -0.012648 0.019059 -0.005081 0.010398 0.013102 -0.022769
# 3 0.014965 -0.005081 0.038881 -0.011869 -0.051788 0.027825
# 4 -0.014871 0.010398 -0.011869 0.053235 0.033119 -0.055988
# 5 -0.040777 0.013102 -0.051788 0.033119 0.120787 -0.062993
# 6 0.033539 -0.022769 0.027825 -0.055988 -0.062993 0.111718
#
#
# Mechanical properties :
#
#
# Convention : Reuss Voigt Hill
#
# Bulk Modulus (GPa) = 12.40960 41.16974 26.78967
# Shear Modulus (GPa) = 12.36883 33.48920 22.92901
#
# Velocity S-wave (km/s) = 2.28364 3.75765 3.10925
# Velocity P-wave (km/s) = 3.49078 6.01538 4.91784
#
# Compressibility (1/GPa) = 0.08058275
#
# Stress axis : x y z
#
# Youngs Moduli (GPa) = 35.49593 52.46988 25.71983
#
# Poissons Ratio (x) = 0.66363 -0.38489
# Poissons Ratio (y) = 0.44895 0.13068
# Poissons Ratio (z) = -0.53118 0.26660
#
# Static dielectric constant tensor:
#      x y z
#    x 1.937550 0.040290 0.012260 
#    y 0.040290 1.962220 0.037780 
#    z 0.012260 0.037780 1.981730 
# 
# From -- ./inp_files/508088.got.cif
#   From: 2010.05.17/outbox.cif.g08.bks.cpg/sg2_255_cif.got.tgz:508088.got - 2010.06.03 11:33:40.
