data_PCOD9037862
_publ_section_title
;
Structure prediction by ZEFSAII (Michael W. Deem and Ramdas Pophale) SiO2 
 PCOD9037862
Probable space group: P -1
;
_chemical_formula_sum "Si O2"
_cell_formula_units_Z 16
_cell_length_a 9.881243
_cell_length_b 13.508835
_cell_length_c 10.911977
_cell_angle_alpha 32.434671
_cell_angle_beta 109.286138
_cell_angle_gamma 94.500122
_cell_volume 677.201147
_symmetry_space_group_name_H-M "P -1"
_symmetry_group_IT_number 2
_symmetry_cell_setting 'triclinic'
loop_
_space_group_symop_operation_xyz
x,y,z
-x,-y,-z
loop_
_atom_site_type_symbol
_atom_site_label
_atom_site_fract_x
_atom_site_fract_y
_atom_site_fract_z
Si Si1 0.637661 0.626199 0.800456
Si Si2 0.044549 0.505203 0.867242
Si Si3 0.721184 0.145354 0.959528
Si Si4 0.815578 0.824852 0.106234
Si Si5 0.534560 0.011356 0.234418
Si Si6 0.345894 0.801925 0.703906
Si Si7 0.014183 0.950732 0.411836
Si Si8 0.128148 0.590718 0.307474
O O1 0.475759 0.717902 0.727599
O O2 0.617034 0.767885 0.527946
O O3 0.770824 0.627929 0.932953
O O4 0.675158 0.390757 0.038669
O O5 0.019530 0.734471 0.599044
O O6 0.941852 0.441711 0.809732
O O7 0.000000 0.500000 0.000000
O O8 0.587791 0.098145 0.039040
O O9 0.783771 0.993362 0.024410
O O10 0.716312 0.361312 0.692230
O O11 0.861116 0.098822 0.147125
O O12 0.833935 0.615180 0.392974
O O13 0.979334 0.766490 0.145172
O O14 0.651747 0.906490 0.899382
O O15 0.600990 0.086329 0.292729
O O16 0.185000 0.940326 0.446857
O O17 0.000000 0.000000 0.500000
#
# Coordination Sequence:
#
# PCOD9037862 Si02
#       8
#     2   2   2   2   2   2   2   2
#     4  10  24  41  63 101 139 175 220 275 348 398
#     4  11  22  40  70  99 137 172 220 286 336 396
#     4  12  25  43  69 100 131 177 232 279 335 399
#     4  11  27  49  66  98 135 186 228 275 334 404
#     4  12  25  42  70  96 139 174 225 278 337 405
#     4  10  23  41  64 102 135 181 219 276 343 406
#     4  11  21  39  66 101 138 166 224 278 335 401
#     4  11  26  46  71  97 135 180 232 278 333 405
#
# _framework density 23.626657999999999
#
# number of rings (size 3 to 8) (size 9 to 14) (size 15 to 20)
#    0.000    1.000    2.500    3.375    5.250    1.500 
#    0.000    0.000    0.000    0.000    0.000    0.000 
#    0.000    0.000    0.000    0.000    0.000    0.000 
#
# Total GULP energy -89450.066517 kJ/mol
# GULP energy per Si atom -5590.629157 kJ/mol
# Density = 2.357288 g / cm^3
# Si number density = 23.626658 Si / 1000 Ang^3
#
#
#
# Elastic Constant Matrix: (Units=GPa)
#
#
# Indices 1 2 3 4 5 6 
#
# 1 91.9140 5.9857 15.7463 -9.9468 -6.9564 3.3162
# 2 5.9857 77.5748 -3.7934 -9.4092 -5.9582 7.2079
# 3 15.7463 -3.7934 68.7997 -6.0894 -8.3353 18.0095
# 4 -9.9468 -9.4092 -6.0894 17.7087 2.2939 -5.7973
# 5 -6.9564 -5.9582 -8.3353 2.2939 37.1301 -2.3850
# 6 3.3162 7.2079 18.0095 -5.7973 -2.3850 30.4126
#
#
#
# Elastic Compliance Matrix: (Units=1/GPa)
#
#
# Indices 1 2 3 4 5 6 
#
# 1 0.012027 -0.000350 -0.002461 0.006033 0.001367 0.001486
# 2 -0.000350 0.014378 0.002655 0.006944 0.002187 -0.003446
# 3 -0.002461 0.002655 0.018663 0.002523 0.003313 -0.010672
# 4 0.006033 0.006944 0.002523 0.067462 -0.000779 0.009001
# 5 0.001367 0.002187 0.003313 -0.000779 0.028295 -0.000559
# 6 0.001486 -0.003446 -0.010672 0.009001 -0.000559 0.041527
#
#
# Mechanical properties :
#
#
# Convention : Reuss Voigt Hill
#
# Bulk Modulus (GPa) = 22.34404 30.46286 26.40345
# Shear Modulus (GPa) = 25.30567 31.74028 28.52298
#
# Velocity S-wave (km/s) = 3.27626 3.66923 3.47830
# Velocity P-wave (km/s) = 4.87745 5.55630 5.22790
#
# Compressibility (1/GPa) = 0.04475467
#
# Stress axis : x y z
#
# Youngs Moduli (GPa) = 83.14712 69.55036 53.58262
#
# Poissons Ratio (x) = 0.02432 0.13188
# Poissons Ratio (y) = 0.02908 -0.14224
# Poissons Ratio (z) = 0.20465 -0.18462
#
# Static dielectric constant tensor:
#      x y z
#    x 2.020920 -0.015100 -0.010850 
#    y -0.015100 1.836430 -0.042440 
#    z -0.010850 -0.042440 2.102570 
# 
# From -- ./inp_files/398260.got.cif
#   From: 2010.05.17/outbox.cif.g08.bks.cpg/sg2_200_cif.got.tgz:398260.got - 2010.06.03 11:33:40.
