data_PCOD9037514
_publ_section_title
;
Structure prediction by ZEFSAII (Michael W. Deem and Ramdas Pophale) SiO2 
 PCOD9037514
Probable space group: P -1
;
_chemical_formula_sum "Si O2"
_cell_formula_units_Z 16
_cell_length_a 9.237424
_cell_length_b 11.831382
_cell_length_c 15.815263
_cell_angle_alpha 50.574848
_cell_angle_beta 67.440322
_cell_angle_gamma 34.865600
_cell_volume 725.349181
_symmetry_space_group_name_H-M "P -1"
_symmetry_group_IT_number 2
_symmetry_cell_setting 'triclinic'
loop_
_space_group_symop_operation_xyz
x,y,z
-x,-y,-z
loop_
_atom_site_type_symbol
_atom_site_label
_atom_site_fract_x
_atom_site_fract_y
_atom_site_fract_z
Si Si1 0.043157 0.293581 0.150895
Si Si2 0.488764 0.745513 0.114724
Si Si3 0.024324 0.688989 0.036630
Si Si4 0.255372 0.500342 0.499461
Si Si5 0.711285 0.190740 0.685145
Si Si6 0.726928 0.211678 0.014086
Si Si7 0.471384 0.153586 0.209178
Si Si8 0.307599 0.198829 0.520906
O O1 0.327350 0.145801 0.183959
O O2 0.801662 0.541929 0.142181
O O3 0.073258 0.096006 0.248879
O O4 0.993320 0.356432 0.033156
O O5 0.388538 0.763701 0.218549
O O6 0.473993 0.641450 0.089852
O O7 0.275165 0.035679 0.002016
O O8 0.213753 0.438763 0.166628
O O9 0.211801 0.692479 0.989894
O O10 0.470341 0.348317 0.598192
O O11 0.191459 0.716170 0.387916
O O12 0.356247 0.328618 0.478517
O O13 0.992895 0.607852 0.532289
O O14 0.653193 0.130073 0.127820
O O15 0.000000 0.000000 0.000000
O O16 0.632060 0.947373 0.341671
O O17 0.500000 0.000000 0.500000
#
# Coordination Sequence:
#
# PCOD9037514 Si02
#       8
#     2   2   2   2   2   2   2   2
#     4  11  23  42  65 101 140 178 227 277 347 416
#     4  10  23  40  68 104 136 174 235 266 346 422
#     4  10  23  42  65  98 140 174 230 276 339 415
#     4  10  24  49  70  99 137 179 239 292 341 401
#     4  10  23  44  74  98 138 181 227 297 335 401
#     4  10  23  43  64 101 136 178 230 271 343 420
#     4  12  24  43  69  95 145 182 220 293 339 405
#     4  11  27  47  69 103 139 181 237 282 353 404
#
# _framework density 22.058343000000001
#
# number of rings (size 3 to 8) (size 9 to 14) (size 15 to 20)
#    0.000    1.500    2.500    0.750    7.000    2.500 
#   13.500    2.500    0.000    0.000    0.000    0.000 
#    0.000    0.000    0.000    0.000    0.000    0.000 
#
# Total GULP energy -89293.261580 kJ/mol
# GULP energy per Si atom -5580.828849 kJ/mol
# Density = 2.200814 g / cm^3
# Si number density = 22.058343 Si / 1000 Ang^3
#
#
#
# Elastic Constant Matrix: (Units=GPa)
#
#
# Indices 1 2 3 4 5 6 
#
# 1 122.1754 22.3705 16.0133 -0.8311 -4.2109 10.8063
# 2 22.3705 103.3931 18.2856 -9.2941 -7.3583 5.4497
# 3 16.0133 18.2856 49.8977 -20.5173 -13.9083 -0.0884
# 4 -0.8311 -9.2941 -20.5173 32.0083 7.7722 1.9213
# 5 -4.2109 -7.3583 -13.9083 7.7722 34.1846 -6.5068
# 6 10.8063 5.4497 -0.0884 1.9213 -6.5068 34.7980
#
#
#
# Elastic Compliance Matrix: (Units=1/GPa)
#
#
# Indices 1 2 3 4 5 6 
#
# 1 0.009094 -0.001457 -0.003408 -0.002068 -0.000605 -0.002604
# 2 -0.001457 0.010693 -0.002823 0.001217 0.000467 -0.001209
# 3 -0.003408 -0.002823 0.031550 0.017163 0.008324 0.002189
# 4 -0.002068 0.001217 0.017163 0.043518 -0.003388 -0.002541
# 5 -0.000605 0.000467 0.008324 -0.003388 0.034733 0.006818
# 6 -0.002604 -0.001209 0.002189 -0.002541 0.006818 0.031156
#
#
# Mechanical properties :
#
#
# Convention : Reuss Voigt Hill
#
# Bulk Modulus (GPa) = 27.80747 43.20055 35.50401
# Shear Modulus (GPa) = 26.58067 34.78464 30.68265
#
# Velocity S-wave (km/s) = 3.47510 3.97538 3.73363
# Velocity P-wave (km/s) = 5.36055 6.37955 5.89212
#
# Compressibility (1/GPa) = 0.03596156
#
# Stress axis : x y z
#
# Youngs Moduli (GPa) = 109.96590 93.52339 31.69523
#
# Poissons Ratio (x) = 0.13622 0.10803
# Poissons Ratio (y) = 0.16017 0.08946
# Poissons Ratio (z) = 0.37481 0.26398
#
# Static dielectric constant tensor:
#      x y z
#    x 1.935290 0.001470 -0.020010 
#    y 0.001470 1.908790 -0.068980 
#    z -0.020010 -0.068980 1.791990 
# 
# From -- ./inp_files/500011.got.cif
#   From: 2010.05.17/outbox.cif.g08.bks.cpg/sg2_251_cif.got.tgz:500011.got - 2010.06.03 11:33:40.
