data_PCOD9037714
_publ_section_title
;
Structure prediction by ZEFSAII (Michael W. Deem and Ramdas Pophale) SiO2 
 PCOD9037714
Probable space group: P -1
;
_chemical_formula_sum "Si O2"
_cell_formula_units_Z 14
_cell_length_a 12.196375
_cell_length_b 11.287319
_cell_length_c 12.305938
_cell_angle_alpha 127.190103
_cell_angle_beta 126.050517
_cell_angle_gamma 32.739351
_cell_volume 717.158837
_symmetry_space_group_name_H-M "P -1"
_symmetry_group_IT_number 2
_symmetry_cell_setting 'triclinic'
loop_
_space_group_symop_operation_xyz
x,y,z
-x,-y,-z
loop_
_atom_site_type_symbol
_atom_site_label
_atom_site_fract_x
_atom_site_fract_y
_atom_site_fract_z
Si Si1 0.159958 0.746816 0.411324
Si Si2 0.149099 0.447895 0.147891
Si Si3 0.523952 0.277940 0.778945
Si Si4 0.541081 0.540974 0.380507
Si Si5 0.497175 0.263131 0.102484
Si Si6 0.767809 0.898959 0.872186
Si Si7 0.215213 0.646062 0.975981
O O1 0.069963 0.677807 0.259411
O O2 0.323453 0.691673 0.396624
O O3 0.290655 0.573373 0.492341
O O4 0.000000 0.000000 0.500000
O O5 0.381288 0.276367 0.140044
O O6 0.163748 0.326018 0.191284
O O7 0.000000 0.500000 0.000000
O O8 0.482721 0.317469 0.648855
O O9 0.318633 0.502674 0.845905
O O10 0.614566 0.059281 0.771528
O O11 0.692371 0.268332 0.897219
O O12 0.592956 0.338854 0.242284
O O13 0.310931 0.464776 0.025939
O O14 0.655048 0.044113 0.998046
O O15 0.972559 0.827931 0.936751
#
# Coordination Sequence:
#
# PCOD9037714 Si02
#       7
#     2   2   2   2   2   2   2
#     4  10  23  41  61  84 111 153 197 233 286 343
#     4  11  22  38  58  88 121 147 193 243 286 343
#     4   9  19  33  54  82 117 155 187 236 285 334
#     4   9  20  39  59  82 115 147 198 238 272 347
#     4   9  19  34  56  86 117 154 187 238 291 328
#     4  11  20  32  56  88 120 153 186 235 294 341
#     4   9  17  32  49  86 121 147 195 233 274 349
#
# _framework density 19.521476
#
# number of rings (size 3 to 8) (size 9 to 14) (size 15 to 20)
#    0.000    2.286    1.429    1.714    2.000    1.143 
#    2.571    0.714    0.000    1.714    0.000    0.000 
#    0.000    0.000    0.000    0.000    0.000    0.000 
#
# Total GULP energy -78111.515155 kJ/mol
# GULP energy per Si atom -5579.393940 kJ/mol
# Density = 1.947704 g / cm^3
# Si number density = 19.521476 Si / 1000 Ang^3
#
#
#
# Elastic Constant Matrix: (Units=GPa)
#
#
# Indices 1 2 3 4 5 6 
#
# 1 77.1551 23.1108 18.1158 1.5459 -12.2247 12.0174
# 2 23.1108 56.1048 22.1729 14.7383 2.0946 5.1305
# 3 18.1158 22.1729 77.5864 3.3959 -4.6098 3.6094
# 4 1.5459 14.7383 3.3959 23.2861 5.4949 -6.2098
# 5 -12.2247 2.0946 -4.6098 5.4949 28.1546 -8.0419
# 6 12.0174 5.1305 3.6094 -6.2098 -8.0419 25.8933
#
#
#
# Elastic Compliance Matrix: (Units=1/GPa)
#
#
# Indices 1 2 3 4 5 6 
#
# 1 0.016861 -0.006275 -0.001595 0.000469 0.006201 -0.004322
# 2 -0.006275 0.028105 -0.005722 -0.017466 -0.004467 -0.007435
# 3 -0.001595 -0.005722 0.014935 0.001244 0.002153 0.000759
# 4 0.000469 -0.017466 0.001244 0.059218 -0.005396 0.015596
# 5 0.006201 -0.004467 0.002153 -0.005396 0.042713 0.009679
# 6 -0.004322 -0.007435 0.000759 0.015596 0.009679 0.048739
#
#
# Mechanical properties :
#
#
# Convention : Reuss Voigt Hill
#
# Bulk Modulus (GPa) = 30.56455 37.51615 34.04035
# Shear Modulus (GPa) = 20.10782 25.29657 22.70219
#
# Velocity S-wave (km/s) = 3.21290 3.60367 3.41388
# Velocity P-wave (km/s) = 5.42720 6.04772 5.74584
#
# Compressibility (1/GPa) = 0.03271764
#
# Stress axis : x y z
#
# Youngs Moduli (GPa) = 59.30835 35.58146 66.95874
#
# Poissons Ratio (x) = 0.22326 0.10679
# Poissons Ratio (y) = 0.37214 0.38312
# Poissons Ratio (z) = 0.09458 0.20359
#
# Static dielectric constant tensor:
#      x y z
#    x 1.715500 0.021490 -0.006910 
#    y 0.021490 1.693810 0.010150 
#    z -0.006910 0.010150 1.696830 
# 
# From -- ./inp_files/67847.got.cif
#   From: 2010.05.17/outbox.cif.g08.bks.cpg/sg2_34_cif.got.tgz:67847.got - 2010.06.03 11:33:40.
