data_PCOD9037062
_publ_section_title
;
Structure prediction by ZEFSAII (Michael W. Deem and Ramdas Pophale) SiO2 
 PCOD9037062
Probable space group: P -1
;
_chemical_formula_sum "Si O2"
_cell_formula_units_Z 16
_cell_length_a 7.032111
_cell_length_b 14.578437
_cell_length_c 14.271864
_cell_angle_alpha 140.679453
_cell_angle_beta 107.412149
_cell_angle_gamma 58.078837
_cell_volume 770.336534
_symmetry_space_group_name_H-M "P -1"
_symmetry_group_IT_number 2
_symmetry_cell_setting 'triclinic'
loop_
_space_group_symop_operation_xyz
x,y,z
-x,-y,-z
loop_
_atom_site_type_symbol
_atom_site_label
_atom_site_fract_x
_atom_site_fract_y
_atom_site_fract_z
Si Si1 0.971876 0.256139 0.992878
Si Si2 0.500705 0.200178 0.453575
Si Si3 0.006688 0.461455 0.660284
Si Si4 0.530209 0.610741 0.012555
Si Si5 0.782116 0.000392 0.012672
Si Si6 0.178206 0.674695 0.316194
Si Si7 0.395038 0.238144 0.259755
Si Si8 0.221966 0.181914 0.772260
O O1 0.727951 0.264042 0.958031
O O2 0.077634 0.242549 0.895490
O O3 0.941208 0.419605 0.170656
O O4 0.139829 0.101754 0.959383
O O5 0.239960 0.322166 0.539981
O O6 0.665188 0.245845 0.572722
O O7 0.513937 0.230620 0.369086
O O8 0.586350 0.007877 0.334429
O O9 0.898507 0.376650 0.641389
O O10 0.821144 0.584654 0.655518
O O11 0.662195 0.705018 0.141265
O O12 0.500000 0.500000 0.000000
O O13 0.674579 0.489620 0.854163
O O14 0.572735 0.178662 0.151780
O O15 0.692232 0.897895 0.856913
O O16 0.000000 0.000000 0.000000
O O17 0.955167 0.793544 0.316403
#
# Coordination Sequence:
#
# PCOD9037062 Si02
#       8
#     2   2   2   2   2   2   2   2
#     4  11  22  42  70 102 134 183 230 289 342 410
#     4  12  27  46  67 102 147 182 227 287 357 411
#     4  11  25  44  70  98 141 186 230 284 348 413
#     4  12  24  42  75 101 134 182 239 280 345 413
#     4  10  23  39  72 104 138 173 236 288 345 401
#     4  12  26  44  69 101 140 186 234 284 346 419
#     4  10  24  44  67 103 139 182 232 288 341 418
#     4  12  26  45  73 102 141 179 239 294 337 408
#
# _framework density 20.770143999999998
#
# number of rings (size 3 to 8) (size 9 to 14) (size 15 to 20)
#    0.000    0.750    5.000    1.875    3.500    3.000 
#    0.000    0.000    0.000    0.000    0.000    0.000 
#    0.000    0.000    0.000    0.000    0.000    0.000 
#
# Total GULP energy -89538.133545 kJ/mol
# GULP energy per Si atom -5596.133347 kJ/mol
# Density = 2.072287 g / cm^3
# Si number density = 20.770144 Si / 1000 Ang^3
#
#
#
# Elastic Constant Matrix: (Units=GPa)
#
#
# Indices 1 2 3 4 5 6 
#
# 1 107.5594 19.3579 31.6262 11.9909 -7.7437 -4.8561
# 2 19.3579 90.6442 37.5345 8.8742 5.2686 -20.4318
# 3 31.6262 37.5345 78.7957 9.1826 -20.8784 -7.5130
# 4 11.9909 8.8742 9.1826 18.9300 -12.3210 -0.2005
# 5 -7.7437 5.2686 -20.8784 -12.3210 27.4861 1.5209
# 6 -4.8561 -20.4318 -7.5130 -0.2005 1.5209 38.7505
#
#
#
# Elastic Compliance Matrix: (Units=1/GPa)
#
#
# Indices 1 2 3 4 5 6 
#
# 1 0.011261 0.001092 -0.005237 -0.008180 -0.004743 0.001115
# 2 0.001092 0.022291 -0.014205 -0.019920 -0.024237 0.009984
# 3 -0.005237 -0.014205 0.027050 0.015731 0.029065 -0.003961
# 4 -0.008180 -0.019920 0.015731 0.097055 0.057536 -0.010234
# 5 -0.004743 -0.024237 0.029065 0.057536 0.088164 -0.010901
# 6 0.001115 0.009984 -0.003961 -0.010234 -0.010901 0.030817
#
#
# Mechanical properties :
#
#
# Convention : Reuss Voigt Hill
#
# Bulk Modulus (GPa) = 41.83922 50.44851 46.14387
# Shear Modulus (GPa) = 15.56146 29.59870 22.58008
#
# Velocity S-wave (km/s) = 2.74016 3.77909 3.30076
# Velocity P-wave (km/s) = 5.49536 6.58663 6.06559
#
# Compressibility (1/GPa) = 0.02390102
#
# Stress axis : x y z
#
# Youngs Moduli (GPa) = 88.79858 44.86211 36.96832
#
# Poissons Ratio (x) = -0.04897 0.19361
# Poissons Ratio (y) = -0.09693 0.52513
# Poissons Ratio (z) = 0.46505 0.63727
#
# Static dielectric constant tensor:
#      x y z
#    x 1.719880 -0.022810 -0.005610 
#    y -0.022810 1.752970 -0.001430 
#    z -0.005610 -0.001430 1.737790 
# 
# From -- ./inp_files/550192.got.cif
#   From: 2010.05.17/outbox.cif.g08.bks.cpg/sg2_276_cif.got.tgz:550192.got - 2010.06.03 11:33:40.
