data_PCOD9037052
_publ_section_title
;
Structure prediction by ZEFSAII (Michael W. Deem and Ramdas Pophale) SiO2 
 PCOD9037052
Probable space group: P -1
;
_chemical_formula_sum "Si O2"
_cell_formula_units_Z 16
_cell_length_a 9.329550
_cell_length_b 8.860542
_cell_length_c 23.984095
_cell_angle_alpha 122.336551
_cell_angle_beta 37.428169
_cell_angle_gamma 93.502596
_cell_volume 718.799162
_symmetry_space_group_name_H-M "P -1"
_symmetry_group_IT_number 2
_symmetry_cell_setting 'triclinic'
loop_
_space_group_symop_operation_xyz
x,y,z
-x,-y,-z
loop_
_atom_site_type_symbol
_atom_site_label
_atom_site_fract_x
_atom_site_fract_y
_atom_site_fract_z
Si Si1 0.220783 0.785069 0.842662
Si Si2 0.847276 0.491355 0.382890
Si Si3 0.138132 0.659664 0.374863
Si Si4 0.118934 0.920249 0.680569
Si Si5 0.568780 0.373420 0.012103
Si Si6 0.734405 0.180249 0.739150
Si Si7 0.305979 0.198187 0.359554
Si Si8 0.156468 0.259465 0.132361
O O1 0.532485 0.516333 0.723009
O O2 0.377998 0.846890 0.763124
O O3 0.979024 0.776452 0.884651
O O4 0.000000 0.000000 0.000000
O O5 0.491821 0.775793 0.551363
O O6 0.871796 0.299775 0.373455
O O7 0.138768 0.470959 0.303991
O O8 0.875848 0.407724 0.294892
O O9 0.132522 0.815595 0.360277
O O10 0.814877 0.809663 0.544157
O O11 0.896651 0.086801 0.836527
O O12 0.986335 0.065082 0.691207
O O13 0.500000 0.500000 0.000000
O O14 0.566992 0.523823 0.090537
O O15 0.257775 0.408552 0.121799
O O16 0.658009 0.010080 0.725338
O O17 0.000000 0.500000 0.500000
O O18 0.500000 0.000000 0.000000
#
# Coordination Sequence:
#
# PCOD9037052 Si02
#       8
#     2   2   2   2   2   2   2   2
#     4  11  27  44  73 105 142 189 242 289 350 429
#     4  11  23  41  74 106 139 186 243 295 345 416
#     4  11  24  46  68 106 143 188 232 294 363 419
#     4  10  23  39  71 104 140 185 240 292 351 419
#     4  10  23  43  68 103 145 185 228 298 361 417
#     4  11  23  45  73 101 148 189 236 296 361 426
#     4  10  24  45  73  97 141 187 237 288 353 428
#     4  12  24  44  74 103 139 184 243 293 348 421
#
# _framework density 22.259349
#
# number of rings (size 3 to 8) (size 9 to 14) (size 15 to 20)
#    0.000    1.250    2.500    2.625   10.500    0.500 
#    0.000    1.875    0.000    0.000    0.000    0.000 
#    0.000    0.000    0.000    0.000    0.000    0.000 
#
# Total GULP energy -89202.648168 kJ/mol
# GULP energy per Si atom -5575.165511 kJ/mol
# Density = 2.220869 g / cm^3
# Si number density = 22.259349 Si / 1000 Ang^3
#
#
#
# Elastic Constant Matrix: (Units=GPa)
#
#
# Indices 1 2 3 4 5 6 
#
# 1 112.4122 29.9781 29.6242 17.3424 7.3591 7.5098
# 2 29.9781 119.7883 17.1129 0.1857 1.9829 -6.9119
# 3 29.6242 17.1129 98.6902 -6.9605 8.0894 -4.0664
# 4 17.3424 0.1857 -6.9605 26.6414 -4.1683 17.4518
# 5 7.3591 1.9829 8.0894 -4.1683 32.0250 1.9372
# 6 7.5098 -6.9119 -4.0664 17.4518 1.9372 32.6216
#
#
#
# Elastic Compliance Matrix: (Units=1/GPa)
#
#
# Indices 1 2 3 4 5 6 
#
# 1 0.012233 -0.002335 -0.003673 -0.010902 -0.003294 0.002259
# 2 -0.002335 0.009204 -0.000817 -0.000510 -0.000054 0.002662
# 3 -0.003673 -0.000817 0.011860 0.005907 -0.001276 -0.000934
# 4 -0.010902 -0.000510 0.005907 0.071704 0.012553 -0.035968
# 5 -0.003294 -0.000054 -0.001276 0.012553 0.034436 -0.008173
# 6 0.002259 0.002662 -0.000934 -0.035968 -0.008173 0.050309
#
#
# Mechanical properties :
#
#
# Convention : Reuss Voigt Hill
#
# Bulk Modulus (GPa) = 50.89739 53.81344 52.35542
# Shear Modulus (GPa) = 23.81566 35.20264 29.50915
#
# Velocity S-wave (km/s) = 3.27451 3.98109 3.64496
# Velocity P-wave (km/s) = 6.10015 6.73500 6.42542
#
# Compressibility (1/GPa) = 0.01964737
#
# Stress axis : x y z
#
# Youngs Moduli (GPa) = 81.74558 108.64364 84.31975
#
# Poissons Ratio (x) = 0.25368 0.30970
# Poissons Ratio (y) = 0.19087 0.06889
# Poissons Ratio (z) = 0.30025 0.08876
#
# Static dielectric constant tensor:
#      x y z
#    x 1.833850 0.012810 0.038230 
#    y 0.012810 1.749570 0.013720 
#    z 0.038230 0.013720 1.941780 
# 
# From -- ./inp_files/606776.got.cif
#   From: 2010.05.17/outbox.cif.g08.bks.cpg/sg2_304_cif.got.tgz:606776.got - 2010.06.03 11:33:40.
