data_PCOD9037616
_publ_section_title
;
Structure prediction by ZEFSAII (Michael W. Deem and Ramdas Pophale) SiO2 
 PCOD9037616
Probable space group: P -1
;
_chemical_formula_sum "Si O2"
_cell_formula_units_Z 16
_cell_length_a 8.915333
_cell_length_b 15.605264
_cell_length_c 5.447269
_cell_angle_alpha 80.214554
_cell_angle_beta 89.969018
_cell_angle_gamma 110.259897
_cell_volume 699.178708
_symmetry_space_group_name_H-M "P -1"
_symmetry_group_IT_number 2
_symmetry_cell_setting 'triclinic'
loop_
_space_group_symop_operation_xyz
x,y,z
-x,-y,-z
loop_
_atom_site_type_symbol
_atom_site_label
_atom_site_fract_x
_atom_site_fract_y
_atom_site_fract_z
Si Si1 0.178161 0.842324 0.065439
Si Si2 0.348744 0.551738 0.728173
Si Si3 0.459251 0.913508 0.363082
Si Si4 0.041988 0.086097 0.277947
Si Si5 0.323504 0.160281 0.909868
Si Si6 0.711719 0.551350 0.722687
Si Si7 0.866123 0.752010 0.436287
Si Si8 0.639151 0.249762 0.192300
O O1 0.337986 0.915343 0.147402
O O2 0.035391 0.797998 0.278832
O O3 0.228732 0.760345 0.989494
O O4 0.109443 0.894489 0.839754
O O5 0.534988 0.559584 0.724672
O O6 0.288016 0.516755 0.471246
O O7 0.337625 0.650296 0.749947
O O8 0.265087 0.483343 0.988655
O O9 0.609491 0.892324 0.265965
O O10 0.363761 0.820695 0.557352
O O11 0.500000 0.000000 0.500000
O O12 0.137600 0.178986 0.381270
O O13 0.165224 0.085948 0.064584
O O14 0.000000 0.000000 0.500000
O O15 0.269324 0.241617 0.755605
O O16 0.468308 0.206517 0.074976
O O17 0.833676 0.651572 0.595488
#
# Coordination Sequence:
#
# PCOD9037616 Si02
#       8
#     2   2   2   2   2   2   2   2
#     4  10  26  45  70  96 142 182 228 288 361 420
#     4  10  23  40  70 105 142 187 242 301 360 422
#     4  11  25  45  70 100 137 183 232 286 353 424
#     4  11  25  45  70 100 137 183 232 286 353 424
#     4  10  24  41  70 100 132 180 238 284 351 420
#     4  10  23  40  70 105 142 187 242 301 360 422
#     4  11  24  43  69 101 140 181 234 293 354 421
#     4  11  24  43  69 101 140 181 234 293 354 421
#
# _framework density 22.883991999999999
#
# number of rings (size 3 to 8) (size 9 to 14) (size 15 to 20)
#    0.000    1.500    0.000    3.000   12.250   10.000 
#    0.000    5.000    0.000    0.000    0.000    0.000 
#    0.000    0.000    0.000    0.000    0.000    0.000 
#
# Total GULP energy -89629.768548 kJ/mol
# GULP energy per Si atom -5601.860534 kJ/mol
# Density = 2.283191 g / cm^3
# Si number density = 22.883992 Si / 1000 Ang^3
#
#
#
# Elastic Constant Matrix: (Units=GPa)
#
#
# Indices 1 2 3 4 5 6 
#
# 1 108.3787 26.4441 38.1476 7.0456 -8.4978 -16.9098
# 2 26.4441 127.2838 32.9392 1.0141 -13.2144 -23.5237
# 3 38.1476 32.9392 97.1808 -2.2719 -11.5973 -12.0469
# 4 7.0456 1.0141 -2.2719 41.1308 -3.5438 -8.2372
# 5 -8.4978 -13.2144 -11.5973 -3.5438 41.2212 6.7565
# 6 -16.9098 -23.5237 -12.0469 -8.2372 6.7565 25.6046
#
#
#
# Elastic Compliance Matrix: (Units=1/GPa)
#
#
# Indices 1 2 3 4 5 6 
#
# 1 0.011533 -0.000469 -0.003746 -0.001150 0.000257 0.004985
# 2 -0.000469 0.010115 -0.002039 0.001465 0.001365 0.008135
# 3 -0.003746 -0.002039 0.012974 0.001956 0.002092 0.001835
# 4 -0.001150 0.001465 0.001956 0.026650 0.001486 0.009688
# 5 0.000257 0.001365 0.002092 0.001486 0.026123 -0.004007
# 6 0.004985 0.008135 0.001835 0.009688 -0.004007 0.054859
#
#
# Mechanical properties :
#
#
# Convention : Reuss Voigt Hill
#
# Bulk Modulus (GPa) = 45.22108 58.65614 51.93861
# Shear Modulus (GPa) = 30.83870 37.27882 34.05876
#
# Velocity S-wave (km/s) = 3.67496 4.04051 3.86206
# Velocity P-wave (km/s) = 6.14907 6.88877 6.52941
#
# Compressibility (1/GPa) = 0.02211358
#
# Stress axis : x y z
#
# Youngs Moduli (GPa) = 86.70957 98.86279 77.07440
#
# Poissons Ratio (x) = 0.04641 0.28874
# Poissons Ratio (y) = 0.04071 0.15712
# Poissons Ratio (z) = 0.32484 0.20154
#
# Static dielectric constant tensor:
#      x y z
#    x 1.826360 0.011500 0.011400 
#    y 0.011500 1.808870 0.012410 
#    z 0.011400 0.012410 1.916110 
# 
# From -- ./inp_files/38056.got.cif
#   From: 2010.05.17/outbox.cif.g08.bks.cpg/sg2_20_cif.got.tgz:38056.got - 2010.06.03 11:33:40.
