data_PCOD9037541
_publ_section_title
;
Structure prediction by ZEFSAII (Michael W. Deem and Ramdas Pophale) SiO2 
 PCOD9037541
Probable space group: P -1
;
_chemical_formula_sum "Si O2"
_cell_formula_units_Z 14
_cell_length_a 10.174787
_cell_length_b 8.937743
_cell_length_c 8.920707
_cell_angle_alpha 65.717472
_cell_angle_beta 117.451005
_cell_angle_gamma 89.093674
_cell_volume 634.706076
_symmetry_space_group_name_H-M "P -1"
_symmetry_group_IT_number 2
_symmetry_cell_setting 'triclinic'
loop_
_space_group_symop_operation_xyz
x,y,z
-x,-y,-z
loop_
_atom_site_type_symbol
_atom_site_label
_atom_site_fract_x
_atom_site_fract_y
_atom_site_fract_z
Si Si1 0.440539 0.923400 0.218637
Si Si2 0.700458 0.430367 0.209875
Si Si3 0.509591 0.233086 0.014187
Si Si4 0.994904 0.507178 0.670781
Si Si5 0.893960 0.869261 0.983874
Si Si6 0.838671 0.633414 0.807236
Si Si7 0.496596 0.377474 0.405287
O O1 0.466905 0.809493 0.426016
O O2 0.534507 0.064971 0.195231
O O3 0.477746 0.811805 0.134335
O O4 0.265579 0.029826 0.070735
O O5 0.623888 0.340057 0.082495
O O6 0.876450 0.390690 0.277562
O O7 0.625736 0.390337 0.344904
O O8 0.652084 0.635059 0.094301
O O9 0.028756 0.311274 0.823027
O O10 0.000000 0.500000 0.500000
O O11 0.849326 0.614760 0.640403
O O12 0.850576 0.806618 0.822210
O O13 0.000000 0.000000 0.000000
O O14 0.674315 0.593432 0.768926
O O15 0.000000 0.500000 0.000000
O O16 0.500000 0.500000 0.500000
#
# Coordination Sequence:
#
# PCOD9037541 Si02
#       7
#     2   2   2   2   2   2   2
#     4  11  24  43  68  99 138 170 234 288 338 400
#     4  11  23  41  68  99 131 177 232 272 345 408
#     4  10  23  40  68  95 133 175 218 287 341 399
#     4  11  25  45  69  99 140 180 227 283 340 418
#     4  11  26  44  69  98 139 187 228 279 352 410
#     4  10  26  46  70  98 141 184 229 277 345 422
#     4  12  25  42  75 103 133 179 239 286 341 410
#
# _framework density 22.057454
#
# number of rings (size 3 to 8) (size 9 to 14) (size 15 to 20)
#    0.000    1.143    2.857    1.714   14.000    2.286 
#    0.000    0.714    0.000    0.000    0.000    0.000 
#    0.000    0.000    0.000    0.000    0.000    0.000 
#
# Total GULP energy -78083.853524 kJ/mol
# GULP energy per Si atom -5577.418109 kJ/mol
# Density = 2.200725 g / cm^3
# Si number density = 22.057454 Si / 1000 Ang^3
#
#
#
# Elastic Constant Matrix: (Units=GPa)
#
#
# Indices 1 2 3 4 5 6 
#
# 1 94.6012 39.3571 8.6292 -0.3854 -17.9740 20.9117
# 2 39.3571 126.8276 31.1044 6.8379 -14.2218 13.5830
# 3 8.6292 31.1044 66.7178 -11.8958 -30.3012 17.7946
# 4 -0.3854 6.8379 -11.8958 28.4543 7.2535 -4.3519
# 5 -17.9740 -14.2218 -30.3012 7.2535 36.3934 1.0813
# 6 20.9117 13.5830 17.7946 -4.3519 1.0813 33.5959
#
#
#
# Elastic Compliance Matrix: (Units=1/GPa)
#
#
# Indices 1 2 3 4 5 6 
#
# 1 0.018838 -0.005042 0.012885 -0.000536 0.018678 -0.017182
# 2 -0.005042 0.010882 -0.007464 -0.004543 -0.003613 0.002220
# 3 0.012885 -0.007464 0.043120 0.005702 0.039054 -0.028360
# 4 -0.000536 -0.004543 0.005702 0.040731 -0.005547 0.004605
# 5 0.018678 -0.003613 0.039054 -0.005547 0.069918 -0.033820
# 6 -0.017182 0.002220 -0.028360 0.004605 -0.033820 0.056269
#
#
# Mechanical properties :
#
#
# Convention : Reuss Voigt Hill
#
# Bulk Modulus (GPa) = 13.58767 49.59199 31.58983
# Shear Modulus (GPa) = 18.97293 33.62578 26.29936
#
# Velocity S-wave (km/s) = 2.93603 3.90867 3.45673
# Velocity P-wave (km/s) = 4.20324 6.54998 5.50315
#
# Compressibility (1/GPa) = 0.07359616
#
# Stress axis : x y z
#
# Youngs Moduli (GPa) = 53.08454 91.89446 23.19114
#
# Poissons Ratio (x) = 0.46334 -0.29881
# Poissons Ratio (y) = 0.26766 0.17310
# Poissons Ratio (z) = -0.68397 0.68592
#
# Static dielectric constant tensor:
#      x y z
#    x 1.693800 -0.035630 -0.108060 
#    y -0.035630 1.783730 -0.031510 
#    z -0.108060 -0.031510 1.836190 
# 
# From -- ./inp_files/157587.got.cif
#   From: 2010.05.17/outbox.cif.g08.bks.cpg/sg2_79_cif.got.tgz:157587.got - 2010.06.03 11:33:40.
