data_PCOD9037920
_publ_section_title
;
Structure prediction by ZEFSAII (Michael W. Deem and Ramdas Pophale) SiO2 
 PCOD9037920
Probable space group: P -1
;
_chemical_formula_sum "Si O2"
_cell_formula_units_Z 16
_cell_length_a 6.361307
_cell_length_b 22.567393
_cell_length_c 11.349082
_cell_angle_alpha 32.080474
_cell_angle_beta 111.169531
_cell_angle_gamma 123.987940
_cell_volume 693.658361
_symmetry_space_group_name_H-M "P -1"
_symmetry_group_IT_number 2
_symmetry_cell_setting 'triclinic'
loop_
_space_group_symop_operation_xyz
x,y,z
-x,-y,-z
loop_
_atom_site_type_symbol
_atom_site_label
_atom_site_fract_x
_atom_site_fract_y
_atom_site_fract_z
Si Si1 0.062034 0.862925 0.868192
Si Si2 0.549014 0.844400 0.088562
Si Si3 0.218682 0.716804 0.456742
Si Si4 0.766529 0.765379 0.758461
Si Si5 0.688411 0.649243 0.324341
Si Si6 0.045264 0.940571 0.339710
Si Si7 0.761514 0.537605 0.059942
Si Si8 0.257583 0.768460 0.650073
O O1 0.011584 0.866438 0.714689
O O2 0.324521 0.861707 0.951311
O O3 0.032279 0.971803 0.746724
O O4 0.821152 0.731650 0.094700
O O5 0.454651 0.817102 0.250587
O O6 0.553029 0.719888 0.245359
O O7 0.828530 0.971759 0.898726
O O8 0.230693 0.586410 0.688862
O O9 0.237432 0.771201 0.499840
O O10 0.938618 0.676605 0.408985
O O11 0.514317 0.768407 0.740897
O O12 0.797486 0.800203 0.565345
O O13 0.756419 0.630851 0.001421
O O14 0.500000 0.500000 0.500000
O O15 0.253021 0.893197 0.487044
O O16 0.500000 0.500000 0.000000
O O17 0.016321 0.632294 0.875075
#
# Coordination Sequence:
#
# PCOD9037920 Si02
#       8
#     2   2   2   2   2   2   2   2
#     4  10  23  41  64  97 131 171 220 267 324 380
#     4  10  24  44  65  92 133 172 215 273 317 383
#     4  11  25  42  67  96 132 173 212 267 327 387
#     4  11  24  39  68  99 128 175 216 269 328 383
#     4  10  25  40  66  96 131 173 214 261 326 389
#     4  10  23  44  65  96 132 170 226 266 324 378
#     4  11  25  41  66  99 133 167 215 265 327 393
#     4  11  25  42  67  96 131 171 217 271 326 381
#
# _framework density 23.066112
#
# number of rings (size 3 to 8) (size 9 to 14) (size 15 to 20)
#    0.000    1.500    1.250    1.500    7.000    5.500 
#    0.000    6.250    0.000    0.000    0.000    0.000 
#    0.000    0.000    0.000    0.000    0.000    0.000 
#
# Total GULP energy -89229.217540 kJ/mol
# GULP energy per Si atom -5576.826096 kJ/mol
# Density = 2.301361 g / cm^3
# Si number density = 23.066112 Si / 1000 Ang^3
#
#
#
# Elastic Constant Matrix: (Units=GPa)
#
#
# Indices 1 2 3 4 5 6 
#
# 1 141.4827 37.6451 55.6066 12.1316 33.5507 -8.6756
# 2 37.6451 65.1532 26.3753 20.7001 19.1262 -9.0163
# 3 55.6066 26.3753 123.5770 -4.4945 15.1522 0.6733
# 4 12.1316 20.7001 -4.4945 36.3878 -3.2982 4.9828
# 5 33.5507 19.1262 15.1522 -3.2982 34.6495 -11.3896
# 6 -8.6756 -9.0163 0.6733 4.9828 -11.3896 23.1217
#
#
#
# Elastic Compliance Matrix: (Units=1/GPa)
#
#
# Indices 1 2 3 4 5 6 
#
# 1 0.011496 -0.000610 -0.004092 -0.004925 -0.009243 0.000703
# 2 -0.000610 0.028534 -0.005132 -0.019006 -0.011630 0.009414
# 3 -0.004092 -0.005132 0.011171 0.006403 0.000950 -0.004774
# 4 -0.004925 -0.019006 0.006403 0.043595 0.012429 -0.012718
# 5 -0.009243 -0.011630 0.000950 0.012429 0.049490 0.013670
# 6 0.000703 0.009414 -0.004774 -0.012718 0.013670 0.056798
#
#
# Mechanical properties :
#
#
# Convention : Reuss Voigt Hill
#
# Bulk Modulus (GPa) = 31.71403 63.27409 47.49406
# Shear Modulus (GPa) = 21.62034 32.87085 27.24560
#
# Velocity S-wave (km/s) = 3.06489 3.77911 3.44058
# Velocity P-wave (km/s) = 5.12872 6.82154 6.03478
#
# Compressibility (1/GPa) = 0.03153178
#
# Stress axis : x y z
#
# Youngs Moduli (GPa) = 86.98697 35.04608 89.51552
#
# Poissons Ratio (x) = 0.02139 0.36633
# Poissons Ratio (y) = 0.05309 0.45939
# Poissons Ratio (z) = 0.35598 0.17986
#
# Static dielectric constant tensor:
#      x y z
#    x 1.871730 -0.010340 -0.116410 
#    y -0.010340 1.860610 0.054680 
#    z -0.116410 0.054680 1.636610 
# 
# From -- ./inp_files/69868.got.cif
#   From: 2010.05.17/outbox.cif.g08.bks.cpg/sg2_35_cif.got.tgz:69868.got - 2010.06.03 11:33:40.
