data_PCOD9037010
_publ_section_title
;
Structure prediction by ZEFSAII (Michael W. Deem and Ramdas Pophale) SiO2 
 PCOD9037010
Probable space group: P -1
;
_chemical_formula_sum "Si O2"
_cell_formula_units_Z 16
_cell_length_a 16.291220
_cell_length_b 9.242410
_cell_length_c 11.678126
_cell_angle_alpha 41.047225
_cell_angle_beta 129.661787
_cell_angle_gamma 101.151417
_cell_volume 730.616864
_symmetry_space_group_name_H-M "P -1"
_symmetry_group_IT_number 2
_symmetry_cell_setting 'triclinic'
loop_
_space_group_symop_operation_xyz
x,y,z
-x,-y,-z
loop_
_atom_site_type_symbol
_atom_site_label
_atom_site_fract_x
_atom_site_fract_y
_atom_site_fract_z
Si Si1 0.865961 0.129890 0.944791
Si Si2 0.513230 0.696507 0.976151
Si Si3 0.326817 0.959736 0.849777
Si Si4 0.929795 0.973100 0.344020
Si Si5 0.130632 0.399461 0.774559
Si Si6 0.219706 0.510556 0.549224
Si Si7 0.569098 0.481018 0.458243
Si Si8 0.413132 0.029954 0.301637
O O1 0.878523 0.234676 0.769457
O O2 0.714704 0.369593 0.684449
O O3 0.931997 0.097194 0.147669
O O4 0.878061 0.851603 0.105530
O O5 0.647754 0.518000 0.277149
O O6 0.500000 0.500000 0.000000
O O7 0.376519 0.877915 0.813315
O O8 0.538094 0.892647 0.811639
O O9 0.219044 0.907767 0.824367
O O10 0.265442 0.255519 0.663403
O O11 0.467726 0.772937 0.144718
O O12 0.000000 0.000000 0.500000
O O13 0.010749 0.654233 0.578690
O O14 0.157919 0.488554 0.624137
O O15 0.263236 0.271802 0.039573
O O16 0.500000 0.500000 0.500000
O O17 0.575233 0.244993 0.535523
O O18 0.500000 0.000000 0.500000
#
# Coordination Sequence:
#
# PCOD9037010 Si02
#       8
#     2   2   2   2   2   2   2   2
#     4  11  23  44  76  97 133 189 235 286 340 419
#     4  11  24  39  65 106 148 172 218 301 352 403
#     4  12  24  43  69 102 146 174 229 293 345 416
#     4  12  28  47  70  98 144 191 226 290 349 411
#     4  10  24  48  68 100 140 183 239 278 341 414
#     4  11  24  44  74 107 132 186 234 290 349 405
#     4  11  20  37  67 101 127 172 230 275 344 402
#     4  10  23  39  68  97 132 185 222 281 348 407
#
# _framework density 21.899301999999999
#
# number of rings (size 3 to 8) (size 9 to 14) (size 15 to 20)
#    0.000    1.000    3.750    3.000    8.750    0.500 
#    0.000    0.625    0.000    0.000    0.000    0.000 
#    0.000    0.000    0.000    0.000    0.000    0.000 
#
# Total GULP energy -89266.420750 kJ/mol
# GULP energy per Si atom -5579.151297 kJ/mol
# Density = 2.184946 g / cm^3
# Si number density = 21.899302 Si / 1000 Ang^3
#
#
#
# Elastic Constant Matrix: (Units=GPa)
#
#
# Indices 1 2 3 4 5 6 
#
# 1 82.8928 18.2700 46.1290 -13.3368 0.2026 -6.2515
# 2 18.2700 104.4638 47.8647 19.5631 -3.6738 -6.5191
# 3 46.1290 47.8647 150.1824 13.5806 2.8682 -7.3069
# 4 -13.3368 19.5631 13.5806 40.2773 -5.3696 3.3562
# 5 0.2026 -3.6738 2.8682 -5.3696 50.5781 -6.3861
# 6 -6.2515 -6.5191 -7.3069 3.3562 -6.3861 23.6376
#
#
#
# Elastic Compliance Matrix: (Units=1/GPa)
#
#
# Indices 1 2 3 4 5 6 
#
# 1 0.016877 -0.001977 -0.005263 0.008359 0.001153 0.001416
# 2 -0.001977 0.012499 -0.002699 -0.005968 0.000835 0.003163
# 3 -0.005263 -0.002699 0.009558 -0.003878 -0.000990 0.001102
# 4 0.008359 -0.005968 -0.003878 0.032532 0.002633 -0.004542
# 5 0.001153 0.000835 -0.000990 0.002633 0.020856 0.005490
# 6 0.001416 0.003163 0.001102 -0.004542 0.005490 0.046021
#
#
# Mechanical properties :
#
#
# Convention : Reuss Voigt Hill
#
# Bulk Modulus (GPa) = 52.47143 62.45184 57.46163
# Shear Modulus (GPa) = 30.38159 37.91695 34.14927
#
# Velocity S-wave (km/s) = 3.72873 4.16555 3.95318
# Velocity P-wave (km/s) = 6.52305 7.19134 6.86533
#
# Compressibility (1/GPa) = 0.01905799
#
# Stress axis : x y z
#
# Youngs Moduli (GPa) = 59.25230 80.00388 104.61944
#
# Poissons Ratio (x) = 0.15814 0.55059
# Poissons Ratio (y) = 0.11712 0.28236
# Poissons Ratio (z) = 0.31183 0.21592
#
# Static dielectric constant tensor:
#      x y z
#    x 1.950290 -0.030570 -0.040050 
#    y -0.030570 1.755840 0.021500 
#    z -0.040050 0.021500 1.795570 
# 
# From -- ./inp_files/461809.got.cif
#   From: 2010.05.17/outbox.cif.g08.bks.cpg/sg2_231_cif.got.tgz:461809.got - 2010.06.03 11:33:40.
