data_PCOD9037944
_publ_section_title
;
Structure prediction by ZEFSAII (Michael W. Deem and Ramdas Pophale) SiO2 
 PCOD9037944
Probable space group: P -1
;
_chemical_formula_sum "Si O2"
_cell_formula_units_Z 14
_cell_length_a 13.392134
_cell_length_b 11.312176
_cell_length_c 13.642719
_cell_angle_alpha 146.237966
_cell_angle_beta 30.762389
_cell_angle_gamma 126.755343
_cell_volume 536.363483
_symmetry_space_group_name_H-M "P -1"
_symmetry_group_IT_number 2
_symmetry_cell_setting 'triclinic'
loop_
_space_group_symop_operation_xyz
x,y,z
-x,-y,-z
loop_
_atom_site_type_symbol
_atom_site_label
_atom_site_fract_x
_atom_site_fract_y
_atom_site_fract_z
Si Si1 0.633040 0.327245 0.994400
Si Si2 0.753039 0.801849 0.550512
Si Si3 0.684390 0.106207 0.086634
Si Si4 0.154134 0.619429 0.557766
Si Si5 0.670268 0.744110 0.368160
Si Si6 0.112458 0.666164 0.408767
Si Si7 0.044146 0.692615 0.902646
O O1 0.728092 0.352581 0.825913
O O2 0.748500 0.056699 0.740673
O O3 0.380505 0.405183 0.243170
O O4 0.657058 0.509429 0.177095
O O5 0.508326 0.825900 0.780731
O O6 0.806618 0.725998 0.339358
O O7 0.903390 0.583473 0.335833
O O8 0.561999 0.087551 0.277485
O O9 0.786022 0.288764 0.150539
O O10 0.887148 0.882024 0.731448
O O11 0.182600 0.705345 0.485939
O O12 0.102827 0.770478 0.803799
O O13 0.949797 0.553331 0.680212
O O14 0.799681 0.816794 0.227760
#
# Coordination Sequence:
#
# PCOD9037944 Si02
#       7
#     2   2   2   2   2   2   2
#     4  12  22  46  68 101 134 175 224 272 339 395
#     4  10  24  42  67 102 138 171 218 277 333 400
#     4  10  23  43  65  98 136 172 223 273 334 392
#     4  11  23  43  66  98 130 176 230 269 330 397
#     4  10  23  41  65 101 133 173 219 268 334 397
#     4  11  24  43  70  92 136 176 222 282 327 391
#     4  12  22  44  66  96 141 173 217 278 332 396
#
# _framework density 26.101703000000001
#
# number of rings (size 3 to 8) (size 9 to 14) (size 15 to 20)
#    0.857    0.286    4.286    2.143    0.000    1.714 
#    2.571    0.714    0.000    0.000    0.000    0.000 
#    0.000    0.000    0.000    0.000    0.000    0.000 
#
# Total GULP energy -78258.441801 kJ/mol
# GULP energy per Si atom -5589.888700 kJ/mol
# Density = 2.604229 g / cm^3
# Si number density = 26.101703 Si / 1000 Ang^3
#
#
#
# Elastic Constant Matrix: (Units=GPa)
#
#
# Indices 1 2 3 4 5 6 
#
# 1 89.5365 31.8464 7.1869 -11.3800 32.9045 0.3223
# 2 31.8464 88.1966 37.5919 -10.0298 10.7451 0.5114
# 3 7.1869 37.5919 89.4943 -38.4549 24.1309 0.4357
# 4 -11.3800 -10.0298 -38.4549 51.9091 -1.6620 10.1718
# 5 32.9045 10.7451 24.1309 -1.6620 43.7854 -12.3960
# 6 0.3223 0.5114 0.4357 10.1718 -12.3960 32.4995
#
#
#
# Elastic Compliance Matrix: (Units=1/GPa)
#
#
# Indices 1 2 3 4 5 6 
#
# 1 0.034669 -0.015811 0.028680 0.029598 -0.044409 -0.026682
# 2 -0.015811 0.021261 -0.020490 -0.016468 0.021097 0.013298
# 3 0.028680 -0.020490 0.051731 0.045870 -0.053298 -0.035341
# 4 0.029598 -0.016468 0.045870 0.062773 -0.052515 -0.040326
# 5 -0.044409 0.021097 -0.053298 -0.052515 0.093385 0.052878
# 6 -0.026682 0.013298 -0.035341 -0.040326 0.052878 0.064089
#
#
# Mechanical properties :
#
#
# Convention : Reuss Voigt Hill
#
# Bulk Modulus (GPa) = 10.82056 46.71976 28.77016
# Shear Modulus (GPa) = 13.37054 38.34561 25.85808
#
# Velocity S-wave (km/s) = 2.26574 3.83702 3.15090
# Velocity P-wave (km/s) = 3.31652 6.12930 4.92786
#
# Compressibility (1/GPa) = 0.09241669
#
# Stress axis : x y z
#
# Youngs Moduli (GPa) = 28.84445 47.03461 19.33094
#
# Poissons Ratio (x) = 0.74368 -0.55441
# Poissons Ratio (y) = 0.45607 0.39610
# Poissons Ratio (z) = -0.82725 0.96375
#
# Static dielectric constant tensor:
#      x y z
#    x 2.128900 -0.001250 0.054550 
#    y -0.001250 2.082310 0.016290 
#    z 0.054550 0.016290 2.013900 
# 
# From -- ./inp_files/532696.got.cif
#   From: 2010.05.17/outbox.cif.g08.bks.cpg/sg2_267_cif.got.tgz:532696.got - 2010.06.03 11:33:40.
