data_PCOD9037385
_publ_section_title
;
Structure prediction by ZEFSAII (Michael W. Deem and Ramdas Pophale) SiO2 
 PCOD9037385
Probable space group: P -1
;
_chemical_formula_sum "Si O2"
_cell_formula_units_Z 14
_cell_length_a 17.165303
_cell_length_b 9.868110
_cell_length_c 21.143035
_cell_angle_alpha 142.251522
_cell_angle_beta 161.415703
_cell_angle_gamma 47.117572
_cell_volume 653.627715
_symmetry_space_group_name_H-M "P -1"
_symmetry_group_IT_number 2
_symmetry_cell_setting 'triclinic'
loop_
_space_group_symop_operation_xyz
x,y,z
-x,-y,-z
loop_
_atom_site_type_symbol
_atom_site_label
_atom_site_fract_x
_atom_site_fract_y
_atom_site_fract_z
Si Si1 0.062883 0.874306 0.328059
Si Si2 0.987799 0.530202 0.243252
Si Si3 0.794227 0.260004 0.280067
Si Si4 0.664686 0.031111 0.848748
Si Si5 0.430034 0.356958 0.459824
Si Si6 0.369724 0.851711 0.747666
Si Si7 0.805535 0.749499 0.961706
O O1 0.362850 0.943644 0.605117
O O2 0.947862 0.075608 0.329663
O O3 0.903053 0.638206 0.156209
O O4 0.047608 0.826866 0.223758
O O5 0.201260 0.419303 0.341495
O O6 0.116229 0.749261 0.470718
O O7 0.773944 0.311777 0.031614
O O8 0.705762 0.272840 0.288425
O O9 0.000000 0.500000 0.500000
O O10 0.528235 0.129474 0.986836
O O11 0.662718 0.911426 0.734310
O O12 0.819760 0.926971 0.979801
O O13 0.500000 0.500000 0.500000
O O14 0.687468 0.482590 0.746461
O O15 0.582211 0.774577 0.845602
#
# Coordination Sequence:
#
# PCOD9037385 Si02
#       7
#     2   2   2   2   2   2   2
#     4  11  23  40  60  94 121 158 208 252 304 358
#     4  11  22  39  64  90 125 163 201 249 305 361
#     4  10  23  40  66  91 118 159 207 252 308 368
#     4  11  22  40  62  93 125 165 204 245 302 366
#     4   9  17  40  65  84 127 167 198 249 303 351
#     4   9  20  40  62  85 124 155 198 252 309 347
#     4   9  20  40  64  86 127 166 199 255 304 347
#
# _framework density 21.41892
#
# number of rings (size 3 to 8) (size 9 to 14) (size 15 to 20)
#    0.000    2.000    4.286    0.429    4.000    4.571 
#    2.571    2.143    0.000    0.000    0.000    0.000 
#    0.000    0.000    0.000    0.000    0.000    0.000 
#
# Total GULP energy -78053.333813 kJ/mol
# GULP energy per Si atom -5575.238129 kJ/mol
# Density = 2.137017 g / cm^3
# Si number density = 21.418920 Si / 1000 Ang^3
#
#
#
# Elastic Constant Matrix: (Units=GPa)
#
#
# Indices 1 2 3 4 5 6 
#
# 1 78.0771 7.9407 23.7041 13.1044 -9.3782 8.8784
# 2 7.9407 72.1556 28.5537 17.0045 -2.5405 14.8935
# 3 23.7041 28.5537 96.0621 19.6850 -11.8915 31.6678
# 4 13.1044 17.0045 19.6850 29.2556 6.9846 6.6969
# 5 -9.3782 -2.5405 -11.8915 6.9846 33.2890 -1.1765
# 6 8.8784 14.8935 31.6678 6.6969 -1.1765 29.2127
#
#
#
# Elastic Compliance Matrix: (Units=1/GPa)
#
#
# Indices 1 2 3 4 5 6 
#
# 1 0.015200 0.001181 -0.001260 -0.007505 0.005429 -0.001917
# 2 0.001181 0.017749 -0.001469 -0.009277 0.002912 -0.005572
# 3 -0.001260 -0.001469 0.020200 -0.009977 0.008201 -0.018148
# 4 -0.007505 -0.009277 -0.009977 0.052604 -0.017244 0.005072
# 5 0.005429 0.002912 0.008201 -0.017244 0.038108 -0.006537
# 6 -0.001917 -0.005572 -0.018148 0.005072 -0.006537 0.055902
#
#
# Mechanical properties :
#
#
# Convention : Reuss Voigt Hill
#
# Bulk Modulus (GPa) = 19.97873 40.74353 30.36113
# Shear Modulus (GPa) = 22.77458 30.75789 26.76624
#
# Velocity S-wave (km/s) = 3.26435 3.79359 3.53888
# Velocity P-wave (km/s) = 4.85344 6.18482 5.55913
#
# Compressibility (1/GPa) = 0.05005322
#
# Stress axis : x y z
#
# Youngs Moduli (GPa) = 65.78998 56.34099 49.50533
#
# Poissons Ratio (x) = -0.06655 0.06238
# Poissons Ratio (y) = -0.07771 0.07272
# Poissons Ratio (z) = 0.08290 0.08277
#
# Static dielectric constant tensor:
#      x y z
#    x 1.781740 -0.020180 -0.029730 
#    y -0.020180 1.780150 -0.024920 
#    z -0.029730 -0.024920 1.868470 
# 
# From -- ./inp_files/315310.got.cif
#   From: 2010.05.17/outbox.cif.g08.bks.cpg/sg2_158_cif.got.tgz:315310.got - 2010.06.03 11:33:40.
