data_PCOD9037532
_publ_section_title
;
Structure prediction by ZEFSAII (Michael W. Deem and Ramdas Pophale) SiO2 
 PCOD9037532
Probable space group: P -1
;
_chemical_formula_sum "Si O2"
_cell_formula_units_Z 10
_cell_length_a 12.852303
_cell_length_b 9.933658
_cell_length_c 9.120715
_cell_angle_alpha 111.469182
_cell_angle_beta 139.978173
_cell_angle_gamma 38.786588
_cell_volume 384.357141
_symmetry_space_group_name_H-M "P -1"
_symmetry_group_IT_number 2
_symmetry_cell_setting 'triclinic'
loop_
_space_group_symop_operation_xyz
x,y,z
-x,-y,-z
loop_
_atom_site_type_symbol
_atom_site_label
_atom_site_fract_x
_atom_site_fract_y
_atom_site_fract_z
Si Si1 0.307276 0.084821 0.172565
Si Si2 0.069726 0.375869 0.318746
Si Si3 0.807832 0.855749 0.251572
Si Si4 0.534056 0.320280 0.277410
Si Si5 0.648621 0.232908 0.712222
O O1 0.626059 0.913485 0.407820
O O2 0.376253 0.888704 0.261334
O O3 0.133005 0.316815 0.188180
O O4 0.153159 0.158842 0.886666
O O5 0.036288 0.560678 0.422856
O O6 0.767653 0.514385 0.055466
O O7 0.786180 0.027220 0.370966
O O8 0.500000 0.000000 0.000000
O O9 0.542646 0.298707 0.455181
O O10 0.522848 0.499155 0.304781
O O11 0.000000 0.000000 0.000000
#
# Coordination Sequence:
#
# PCOD9037532 Si02
#       5
#     2   2   2   2   2
#     4  11  24  39  68  98 122 172 209 257 314 379
#     4  10  23  40  68  94 128 160 216 256 314 375
#     4  10  24  40  62  98 132 160 205 269 317 362
#     4  10  24  43  65  93 129 168 206 265 313 370
#     4  11  24  43  66  91 128 171 214 252 316 381
#
# _framework density 26.017469999999999
#
# number of rings (size 3 to 8) (size 9 to 14) (size 15 to 20)
#    0.000    1.600    2.000    0.600   14.000    5.600 
#    0.000    2.000    0.000    0.000    0.000    0.000 
#    0.000    0.000    0.000    0.000    0.000    0.000 
#
# Total GULP energy -55913.781416 kJ/mol
# GULP energy per Si atom -5591.378142 kJ/mol
# Density = 2.595825 g / cm^3
# Si number density = 26.017470 Si / 1000 Ang^3
#
#
#
# Elastic Constant Matrix: (Units=GPa)
#
#
# Indices 1 2 3 4 5 6 
#
# 1 79.2445 24.2273 18.1788 5.6027 -16.6393 27.0379
# 2 24.2273 219.8743 -6.8737 28.6767 -1.1112 24.3253
# 3 18.1788 -6.8737 88.4470 14.0394 3.3040 -0.5647
# 4 5.6027 28.6767 14.0394 36.0366 -14.4628 0.0549
# 5 -16.6393 -1.1112 3.3040 -14.4628 44.0463 -4.8877
# 6 27.0379 24.3253 -0.5647 0.0549 -4.8877 45.0876
#
#
#
# Elastic Compliance Matrix: (Units=1/GPa)
#
#
# Indices 1 2 3 4 5 6 
#
# 1 0.018848 -0.001523 -0.004830 0.003146 0.007396 -0.009743
# 2 -0.001523 0.005866 0.001867 -0.006329 -0.002927 -0.002538
# 3 -0.004830 0.001867 0.013981 -0.008352 -0.005404 0.001489
# 4 0.003146 -0.006329 -0.008352 0.041864 0.015743 0.003079
# 5 0.007396 -0.002927 -0.005404 0.015743 0.031045 0.000423
# 6 -0.009743 -0.002538 0.001489 0.003079 0.000423 0.029452
#
#
# Mechanical properties :
#
#
# Convention : Reuss Voigt Hill
#
# Bulk Modulus (GPa) = 33.64531 50.95896 42.30214
# Shear Modulus (GPa) = 31.26260 48.50302 39.88281
#
# Velocity S-wave (km/s) = 3.47017 4.32238 3.91951
# Velocity P-wave (km/s) = 5.38665 6.67380 6.06447
#
# Compressibility (1/GPa) = 0.02972182
#
# Stress axis : x y z
#
# Youngs Moduli (GPa) = 53.05691 170.48601 71.52494
#
# Poissons Ratio (x) = 0.25961 0.34547
# Poissons Ratio (y) = 0.08079 -0.13351
# Poissons Ratio (z) = 0.25627 -0.31823
#
# Static dielectric constant tensor:
#      x y z
#    x 2.125610 -0.024210 0.028270 
#    y -0.024210 2.072520 -0.007150 
#    z 0.028270 -0.007150 2.050540 
# 
# From -- ./inp_files/15926.got.cif
#   From: 2010.05.17/outbox.cif.g08.bks.cpg/sg2_8_cif.got.tgz:15926.got - 2010.06.03 11:33:40.
