data_PCOD9037693
_publ_section_title
;
Structure prediction by ZEFSAII (Michael W. Deem and Ramdas Pophale) SiO2 
 PCOD9037693
Probable space group: P -1
;
_chemical_formula_sum "Si O2"
_cell_formula_units_Z 12
_cell_length_a 14.792373
_cell_length_b 21.300005
_cell_length_c 11.662133
_cell_angle_alpha 25.799511
_cell_angle_beta 25.786085
_cell_angle_gamma 17.952292
_cell_volume 465.732036
_symmetry_space_group_name_H-M "P -1"
_symmetry_group_IT_number 2
_symmetry_cell_setting 'triclinic'
loop_
_space_group_symop_operation_xyz
x,y,z
-x,-y,-z
loop_
_atom_site_type_symbol
_atom_site_label
_atom_site_fract_x
_atom_site_fract_y
_atom_site_fract_z
Si Si1 0.584613 0.122872 0.336806
Si Si2 0.647174 0.828750 0.253005
Si Si3 0.836476 0.708143 0.662662
Si Si4 0.038432 0.995541 0.598534
Si Si5 0.809289 0.289865 0.927124
Si Si6 0.939447 0.707338 0.892623
O O1 0.470848 0.174919 0.251260
O O2 0.745768 0.186461 0.085245
O O3 0.314618 0.239645 0.548196
O O4 0.785890 0.872635 0.530055
O O5 0.403545 0.837253 0.466048
O O6 0.420446 0.084599 0.075481
O O7 0.930140 0.697499 0.059553
O O8 0.938166 0.507981 0.933427
O O9 0.062134 0.652237 0.397277
O O10 0.897265 0.222088 0.429883
O O11 0.969062 0.894073 0.924113
O O12 0.000000 0.000000 0.500000
O O13 0.500000 0.500000 0.000000
#
# Coordination Sequence:
#
# PCOD9037693 Si02
#       6
#     2   2   2   2   2   2
#     4  10  23  41  56  86 125 155 197 233 291 355
#     4   8  18  35  56  80 113 144 193 236 283 339
#     4  11  23  38  63  84 119 162 191 239 290 353
#     4   9  19  34  53  85 116 141 182 248 289 337
#     4  11  24  38  63  89 115 153 197 247 292 337
#     4   9  19  36  58  84 111 148 196 239 290 333
#
# _framework density 25.765888
#
# number of rings (size 3 to 8) (size 9 to 14) (size 15 to 20)
#    1.000    1.333    0.000    2.500    4.667    2.000 
#    0.000    0.000    0.000    2.000    0.000    0.000 
#    0.000    0.000    0.000    0.000    0.000    0.000 
#
# Total GULP energy -66954.692663 kJ/mol
# GULP energy per Si atom -5579.557722 kJ/mol
# Density = 2.570724 g / cm^3
# Si number density = 25.765888 Si / 1000 Ang^3
#
#
#
# Elastic Constant Matrix: (Units=GPa)
#
#
# Indices 1 2 3 4 5 6 
#
# 1 122.5555 17.8967 23.3074 -14.7727 -3.4063 15.6078
# 2 17.8967 79.2026 27.3593 -37.9037 -12.3486 22.1166
# 3 23.3074 27.3593 121.7527 -36.2103 -9.5959 -0.8142
# 4 -14.7727 -37.9037 -36.2103 54.8482 16.5200 -1.5070
# 5 -3.4063 -12.3486 -9.5959 16.5200 45.2126 2.6506
# 6 15.6078 22.1166 -0.8142 -1.5070 2.6506 16.5100
#
#
#
# Elastic Compliance Matrix: (Units=1/GPa)
#
#
# Indices 1 2 3 4 5 6 
#
# 1 0.010460 0.005295 -0.001904 0.004390 0.001215 -0.016870
# 2 0.005295 0.042379 -0.002939 0.025421 0.005608 -0.060501
# 3 -0.001904 -0.002939 0.010693 0.004974 -0.000896 0.006862
# 4 0.004390 0.025421 0.004974 0.040727 -0.004587 -0.033505
# 5 0.001215 0.005608 -0.000896 -0.004587 0.026007 -0.013300
# 6 -0.016870 -0.060501 0.006862 -0.033505 -0.013300 0.156980
#
#
# Mechanical properties :
#
#
# Convention : Reuss Voigt Hill
#
# Bulk Modulus (GPa) = 15.51893 51.18197 33.35045
# Shear Modulus (GPa) = 16.24335 40.31067 28.27701
#
# Velocity S-wave (km/s) = 2.51354 3.95966 3.31639
# Velocity P-wave (km/s) = 3.80263 6.38847 5.25702
#
# Compressibility (1/GPa) = 0.06443743
#
# Stress axis : x y z
#
# Youngs Moduli (GPa) = 95.60480 23.59657 93.52110
#
# Poissons Ratio (x) = -0.12495 0.17802
# Poissons Ratio (y) = -0.50627 0.27485
# Poissons Ratio (z) = 0.18199 0.06935
#
# Static dielectric constant tensor:
#      x y z
#    x 2.074490 0.008070 -0.002740 
#    y 0.008070 2.097190 -0.021920 
#    z -0.002740 -0.021920 2.110720 
# 
# From -- ./inp_files/388105.got.cif
#   From: 2010.05.17/outbox.cif.g08.bks.cpg/sg2_195_cif.got.tgz:388105.got - 2010.06.03 11:33:40.
