data_PCOD9037863
_publ_section_title
;
Structure prediction by ZEFSAII (Michael W. Deem and Ramdas Pophale) SiO2 
 PCOD9037863
Probable space group: P -1
;
_chemical_formula_sum "Si O2"
_cell_formula_units_Z 16
_cell_length_a 12.469049
_cell_length_b 22.943326
_cell_length_c 29.541600
_cell_angle_alpha 10.162808
_cell_angle_beta 152.309411
_cell_angle_gamma 149.769031
_cell_volume 689.991287
_symmetry_space_group_name_H-M "P -1"
_symmetry_group_IT_number 2
_symmetry_cell_setting 'triclinic'
loop_
_space_group_symop_operation_xyz
x,y,z
-x,-y,-z
loop_
_atom_site_type_symbol
_atom_site_label
_atom_site_fract_x
_atom_site_fract_y
_atom_site_fract_z
Si Si1 0.020128 0.218094 0.641538
Si Si2 0.170195 0.267097 0.122363
Si Si3 0.851151 0.484300 0.910796
Si Si4 0.012410 0.300959 0.900830
Si Si5 0.484907 0.311317 0.029813
Si Si6 0.354478 0.287299 0.899741
Si Si7 0.721136 0.429219 0.604992
Si Si8 0.957366 0.856490 0.530751
O O1 0.215261 0.300192 0.615231
O O2 0.862496 0.560743 0.327441
O O3 0.836069 0.015323 0.700521
O O4 0.090065 0.990378 0.884929
O O5 0.410165 0.376345 0.146351
O O6 0.005888 0.226075 0.134866
O O7 0.035230 0.581339 0.806746
O O8 0.598102 0.368106 0.908271
O O9 0.858520 0.869342 0.605836
O O10 0.000000 0.500000 0.000000
O O11 0.914682 0.350979 0.775646
O O12 0.965007 0.645497 0.648177
O O13 0.287145 0.201162 0.073096
O O14 0.705060 0.047386 0.301440
O O15 0.371412 0.411133 0.862959
O O16 0.323930 0.899755 0.187763
O O17 0.500000 0.500000 0.500000
#
# Coordination Sequence:
#
# PCOD9037863 Si02
#       8
#     2   2   2   2   2   2   2   2
#     4  11  27  45  69 103 134 176 238 276 346 416
#     4  10  23  41  64 102 142 180 224 279 344 413
#     4  11  21  37  67 100 133 179 219 272 346 406
#     4  11  27  46  72 103 137 184 229 286 345 406
#     4  11  22  42  69 100 143 183 215 288 349 396
#     4  12  25  42  67 102 135 176 234 285 336 413
#     4  12  27  51  72  93 138 181 235 293 339 399
#     4  10  23  42  65 103 147 174 232 276 342 418
#
# _framework density 23.188699
#
# number of rings (size 3 to 8) (size 9 to 14) (size 15 to 20)
#    0.000    1.000    3.750    3.375    7.000    2.500 
#    0.000    0.000    0.000    0.000    0.000    0.000 
#    0.000    0.000    0.000    0.000    0.000    0.000 
#
# Total GULP energy -89347.744883 kJ/mol
# GULP energy per Si atom -5584.234055 kJ/mol
# Density = 2.313592 g / cm^3
# Si number density = 23.188699 Si / 1000 Ang^3
#
#
#
# Elastic Constant Matrix: (Units=GPa)
#
#
# Indices 1 2 3 4 5 6 
#
# 1 62.6803 21.6760 3.8082 6.6093 -25.4341 36.6974
# 2 21.6760 70.9274 3.4753 -3.4139 -4.2885 22.2717
# 3 3.8082 3.4753 61.7500 -8.6478 -17.7043 12.4866
# 4 6.6093 -3.4139 -8.6478 22.1579 0.6865 -4.7515
# 5 -25.4341 -4.2885 -17.7043 0.6865 30.1511 -5.2225
# 6 36.6974 22.2717 12.4866 -4.7515 -5.2225 40.9279
#
#
#
# Elastic Compliance Matrix: (Units=1/GPa)
#
#
# Indices 1 2 3 4 5 6 
#
# 1 0.209941 0.001119 0.067928 -0.083631 0.185157 -0.195656
# 2 0.001119 0.017160 0.001970 0.000741 0.002704 -0.010512
# 3 0.067928 0.001970 0.043511 -0.019868 0.071734 -0.068406
# 4 -0.083631 0.000741 -0.019868 0.082025 -0.069903 0.081248
# 5 0.185157 0.002704 0.071734 -0.069903 0.203749 -0.171491
# 6 -0.195656 -0.010512 -0.068406 0.081248 -0.171491 0.214005
#
#
# Mechanical properties :
#
#
# Convention : Reuss Voigt Hill
#
# Bulk Modulus (GPa) = 2.42338 28.14186 15.28262
# Shear Modulus (GPa) = 6.52821 29.74059 18.13440
#
# Velocity S-wave (km/s) = 1.67969 3.58515 2.79952
# Velocity P-wave (km/s) = 2.19298 5.41296 4.12973
#
# Compressibility (1/GPa) = 0.41264614
#
# Stress axis : x y z
#
# Youngs Moduli (GPa) = 4.76324 58.27435 22.98261
#
# Poissons Ratio (x) = -0.06523 -1.56116
# Poissons Ratio (y) = -0.00533 -0.04527
# Poissons Ratio (z) = -0.32356 -0.11479
#
# Static dielectric constant tensor:
#      x y z
#    x 1.865260 -0.029150 0.002940 
#    y -0.029150 1.908350 0.083160 
#    z 0.002940 0.083160 2.070960 
# 
# From -- ./inp_files/505247.got.cif
#   From: 2010.05.17/outbox.cif.g08.bks.cpg/sg2_253_cif.got.tgz:505247.got - 2010.06.03 11:33:40.
