data_PCOD9037205
_publ_section_title
;
Structure prediction by ZEFSAII (Michael W. Deem and Ramdas Pophale) SiO2 
 PCOD9037205
Probable space group: P -1
;
_chemical_formula_sum "Si O2"
_cell_formula_units_Z 16
_cell_length_a 26.336938
_cell_length_b 12.446471
_cell_length_c 10.196027
_cell_angle_alpha 33.901862
_cell_angle_beta 147.067373
_cell_angle_gamma 157.954367
_cell_volume 659.455678
_symmetry_space_group_name_H-M "P -1"
_symmetry_group_IT_number 2
_symmetry_cell_setting 'triclinic'
loop_
_space_group_symop_operation_xyz
x,y,z
-x,-y,-z
loop_
_atom_site_type_symbol
_atom_site_label
_atom_site_fract_x
_atom_site_fract_y
_atom_site_fract_z
Si Si1 0.508270 0.696629 0.530431
Si Si2 0.703129 0.200045 0.272611
Si Si3 0.475217 0.882441 0.706215
Si Si4 0.046361 0.675186 0.290790
Si Si5 0.756765 0.299690 0.977067
Si Si6 0.210314 0.205608 0.513334
Si Si7 0.740473 0.782792 0.092043
Si Si8 0.898205 0.837270 0.153871
O O1 0.344702 0.371900 0.536231
O O2 0.555135 0.843886 0.336109
O O3 0.529182 0.941082 0.390213
O O4 0.623979 0.743051 0.810887
O O5 0.761472 0.492595 0.166051
O O6 0.813891 0.218985 0.554817
O O7 0.729935 0.273564 0.101760
O O8 0.336640 0.542229 0.749640
O O9 0.500000 0.000000 0.500000
O O10 0.615361 0.977670 0.945624
O O11 0.000000 0.500000 0.500000
O O12 0.907124 0.435056 0.141647
O O13 0.073000 0.942465 0.107675
O O14 0.769364 0.528857 0.706155
O O15 0.228736 0.138958 0.765448
O O16 0.042644 0.935793 0.379944
O O17 0.872776 0.935466 0.128160
#
# Coordination Sequence:
#
# PCOD9037205 Si02
#       8
#     2   2   2   2   2   2   2   2
#     4  11  23  41  65  96 130 167 208 269 313 375
#     4  11  22  41  67  95 131 162 218 258 317 381
#     4  11  22  41  66  92 125 173 214 254 325 375
#     4   9  20  40  63  91 131 166 206 261 312 379
#     4   9  21  40  66  92 128 165 209 265 316 371
#     4  10  23  40  63  93 126 170 215 258 315 374
#     4  12  22  42  66  90 134 166 215 263 312 376
#     4  11  23  41  66  96 124 175 207 263 319 374
#
# _framework density 24.262435
#
# number of rings (size 3 to 8) (size 9 to 14) (size 15 to 20)
#    0.000    1.500    5.000    0.750    0.000    7.500 
#    0.000    5.000    0.000    0.000    0.000    0.000 
#    0.000    0.000    0.000    0.000    0.000    0.000 
#
# Total GULP energy -89078.068321 kJ/mol
# GULP energy per Si atom -5567.379270 kJ/mol
# Density = 2.420721 g / cm^3
# Si number density = 24.262435 Si / 1000 Ang^3
#
#
#
# Elastic Constant Matrix: (Units=GPa)
#
#
# Indices 1 2 3 4 5 6 
#
# 1 -2.9131 97.3626 19.1319 10.5668 8.8199 4.2694
# 2 97.3626 -12.1158 29.4177 -6.0032 -36.6557 39.6891
# 3 19.1319 29.4177 116.8919 -4.8347 2.6105 7.2286
# 4 10.5668 -6.0032 -4.8347 27.9584 -0.1360 -2.6102
# 5 8.8199 -36.6557 2.6105 -0.1360 29.6038 0.3409
# 6 4.2694 39.6891 7.2286 -2.6102 0.3409 27.4846
#
#
#
# Elastic Compliance Matrix: (Units=1/GPa)
#
#
# Indices 1 2 3 4 5 6 
#
# 1 0.014578 0.012050 -0.004714 -0.005465 0.011187 -0.019083
# 2 0.012050 0.001655 -0.002312 -0.004989 -0.001312 -0.004112
# 3 -0.004714 -0.002312 0.009982 0.003166 -0.002344 0.001775
# 4 -0.005465 -0.004989 0.003166 0.038305 -0.004778 0.010917
# 5 0.011187 -0.001312 -0.002344 -0.004778 0.029007 -0.000040
# 6 -0.019083 -0.004112 0.001775 0.010917 -0.000040 0.045857
#
#
# Mechanical properties :
#
#
# Convention : Reuss Voigt Hill
#
# Bulk Modulus (GPa) = 27.57635 43.74304 35.65969
# Shear Modulus (GPa) = 35.35488 14.07275 24.71381
#
# Velocity S-wave (km/s) = 3.82145 2.41098 3.19502
# Velocity P-wave (km/s) = 5.55535 5.08121 5.32356
#
# Compressibility (1/GPa) = 0.03626296
#
# Stress axis : x y z
#
# Youngs Moduli (GPa) = 68.59716 604.10073 100.18246
#
# Poissons Ratio (x) = -7.27933 0.47229
# Poissons Ratio (y) = -0.82659 0.23158
# Poissons Ratio (z) = 0.32339 1.39643
#
# Static dielectric constant tensor:
#      x y z
#    x 2.092170 0.127400 -0.026980 
#    y 0.127400 2.078160 0.029540 
#    z -0.026980 0.029540 1.989680 
# 
# From -- ./inp_files/477674.got.cif
#   From: 2010.05.17/outbox.cif.g08.bks.cpg/sg2_239_cif.got.tgz:477674.got - 2010.06.03 11:33:40.
