data_PCOD9037155
_publ_section_title
;
Structure prediction by ZEFSAII (Michael W. Deem and Ramdas Pophale) SiO2 
 PCOD9037155
Probable space group: P -1
;
_chemical_formula_sum "Si O2"
_cell_formula_units_Z 16
_cell_length_a 7.873080
_cell_length_b 18.931343
_cell_length_c 8.689576
_cell_angle_alpha 133.245923
_cell_angle_beta 49.329728
_cell_angle_gamma 119.357105
_cell_volume 713.313489
_symmetry_space_group_name_H-M "P -1"
_symmetry_group_IT_number 2
_symmetry_cell_setting 'triclinic'
loop_
_space_group_symop_operation_xyz
x,y,z
-x,-y,-z
loop_
_atom_site_type_symbol
_atom_site_label
_atom_site_fract_x
_atom_site_fract_y
_atom_site_fract_z
Si Si1 0.950373 0.960257 0.297093
Si Si2 0.276140 0.287359 0.275716
Si Si3 0.825878 0.578859 0.179289
Si Si4 0.475867 0.096624 0.377591
Si Si5 0.722301 0.913426 0.866920
Si Si6 0.157000 0.775351 0.763348
Si Si7 0.633985 0.542061 0.719754
Si Si8 0.947991 0.394242 0.210722
O O1 0.697987 0.913925 0.395884
O O2 0.000000 0.000000 0.500000
O O3 0.019146 0.044338 0.257031
O O4 0.101416 0.872691 0.033113
O O5 0.220727 0.350396 0.549636
O O6 0.336111 0.184077 0.149965
O O7 0.427779 0.359872 0.183739
O O8 0.054715 0.261983 0.267815
O O9 0.588628 0.520498 0.187966
O O10 0.949415 0.638947 0.057800
O O11 0.000000 0.500000 0.000000
O O12 0.366640 0.100134 0.275857
O O13 0.640934 0.193408 0.423566
O O14 0.605619 0.999338 0.148373
O O15 0.186539 0.691109 0.742170
O O16 0.826373 0.566649 0.770896
O O17 0.774992 0.477604 0.423356
#
# Coordination Sequence:
#
# PCOD9037155 Si02
#       8
#     2   2   2   2   2   2   2   2
#     4   9  19  38  61  89 122 154 204 251 301 368
#     4  11  24  43  59  93 130 162 202 265 315 366
#     4  12  25  42  64  94 129 166 213 262 316 373
#     4   9  19  39  63  89 118 163 203 249 309 373
#     4   9  20  38  60  87 123 158 202 255 306 368
#     4  10  23  40  62  92 127 159 207 255 309 372
#     4  10  23  46  64  89 131 166 208 264 317 373
#     4  10  23  42  67  93 123 169 213 257 313 376
#
# _framework density 22.430531999999999
#
# number of rings (size 3 to 8) (size 9 to 14) (size 15 to 20)
#    0.000    2.000    1.250    1.500    5.250    2.000 
#    6.750    1.250    0.000    0.000    0.000    0.000 
#    0.000    0.000    0.000    0.000    0.000    0.000 
#
# Total GULP energy -89316.243423 kJ/mol
# GULP energy per Si atom -5582.265214 kJ/mol
# Density = 2.237948 g / cm^3
# Si number density = 22.430532 Si / 1000 Ang^3
#
#
#
# Elastic Constant Matrix: (Units=GPa)
#
#
# Indices 1 2 3 4 5 6 
#
# 1 31.3577 21.1840 7.0585 2.6467 -5.4522 5.3070
# 2 21.1840 127.9628 38.3365 21.4896 -22.2029 -9.9912
# 3 7.0585 38.3365 6.4145 -25.4384 -11.2072 2.2781
# 4 2.6467 21.4896 -25.4384 10.7260 7.7173 -1.2639
# 5 -5.4522 -22.2029 -11.2072 7.7173 24.7823 0.1914
# 6 5.3070 -9.9912 2.2781 -1.2639 0.1914 31.0890
#
#
#
# Elastic Compliance Matrix: (Units=1/GPa)
#
#
# Indices 1 2 3 4 5 6 
#
# 1 0.038216 -0.006209 -0.000315 -0.000949 0.003064 -0.008553
# 2 -0.006209 0.006065 0.009257 0.007367 0.005940 0.002594
# 3 -0.000315 0.009257 -0.000911 -0.033574 0.018255 0.001618
# 4 -0.000949 0.007367 -0.033574 0.007819 -0.011268 0.005377
# 5 0.003064 0.005940 0.018255 -0.011268 0.058117 -0.000768
# 6 -0.008553 0.002594 0.001618 0.005377 -0.000768 0.034564
#
#
# Mechanical properties :
#
#
# Convention : Reuss Voigt Hill
#
# Bulk Modulus (GPa) = 20.47643 33.21033 26.84338
# Shear Modulus (GPa) = 32.32418 19.92985 26.12702
#
# Velocity S-wave (km/s) = 3.80027 2.98403 3.41661
# Velocity P-wave (km/s) = 5.32961 5.16823 5.24954
#
# Compressibility (1/GPa) = 0.04883663
#
# Stress axis : x y z
#
# Youngs Moduli (GPa) = 26.16705 164.87389 -1097.38428
#
# Poissons Ratio (x) = 1.02373 -0.34540
# Poissons Ratio (y) = 0.16248 10.15879
# Poissons Ratio (z) = 0.00824 -1.52628
#
# Static dielectric constant tensor:
#      x y z
#    x 1.916930 0.036180 -0.009020 
#    y 0.036180 1.900040 -0.014840 
#    z -0.009020 -0.014840 1.774820 
# 
# From -- ./inp_files/206171.got.cif
#   From: 2010.05.17/outbox.cif.g08.bks.cpg/sg2_104_cif.got.tgz:206171.got - 2010.06.03 11:33:40.
