data_PCOD9037157
_publ_section_title
;
Structure prediction by ZEFSAII (Michael W. Deem and Ramdas Pophale) SiO2 
 PCOD9037157
Probable space group: P -1
;
_chemical_formula_sum "Si O2"
_cell_formula_units_Z 14
_cell_length_a 9.109399
_cell_length_b 17.027358
_cell_length_c 20.963485
_cell_angle_alpha 162.904198
_cell_angle_beta 41.097650
_cell_angle_gamma 131.554737
_cell_volume 600.428607
_symmetry_space_group_name_H-M "P -1"
_symmetry_group_IT_number 2
_symmetry_cell_setting 'triclinic'
loop_
_space_group_symop_operation_xyz
x,y,z
-x,-y,-z
loop_
_atom_site_type_symbol
_atom_site_label
_atom_site_fract_x
_atom_site_fract_y
_atom_site_fract_z
Si Si1 0.758246 0.499698 0.929785
Si Si2 0.243200 0.554133 0.972264
Si Si3 0.268863 0.433984 0.339091
Si Si4 0.072674 0.503930 0.258988
Si Si5 0.408674 0.535134 0.629204
Si Si6 0.276577 0.850334 0.548593
Si Si7 0.471704 0.102309 0.895857
O O1 0.794279 0.345815 0.865232
O O2 0.774945 0.817498 0.176904
O O3 0.500000 0.500000 0.000000
O O4 0.907177 0.373825 0.722002
O O5 0.474671 0.287212 0.676880
O O6 0.307111 0.780071 0.082643
O O7 0.000000 0.500000 0.000000
O O8 0.443932 0.354071 0.280503
O O9 0.298629 0.697076 0.491567
O O10 0.000000 0.500000 0.500000
O O11 0.334453 0.185925 0.072425
O O12 0.076934 0.741537 0.494058
O O13 0.869720 0.355257 0.203718
O O14 0.305888 0.267975 0.022340
O O15 0.500000 0.500000 0.500000
O O16 0.451148 0.218461 0.392001
#
# Coordination Sequence:
#
# PCOD9037157 Si02
#       7
#     2   2   2   2   2   2   2
#     4  12  22  39  65  93 126 172 214 253 317 375
#     4  10  23  40  62  92 130 170 207 260 320 367
#     4  10  23  44  68  94 127 167 208 265 329 368
#     4  10  24  42  64  98 126 168 216 259 315 378
#     4  12  26  42  70  97 123 169 217 259 322 385
#     4  10  23  41  64  90 131 167 210 267 315 376
#     4  10  24  46  63  93 138 161 211 269 313 378
#
# _framework density 23.316678
#
# number of rings (size 3 to 8) (size 9 to 14) (size 15 to 20)
#    0.000    1.714    2.857    3.000    6.000    4.000 
#    0.000    1.429    0.000    0.000    0.000    0.000 
#    0.000    0.000    0.000    0.000    0.000    0.000 
#
# Total GULP energy -78086.601505 kJ/mol
# GULP energy per Si atom -5577.614393 kJ/mol
# Density = 2.326361 g / cm^3
# Si number density = 23.316678 Si / 1000 Ang^3
#
#
#
# Elastic Constant Matrix: (Units=GPa)
#
#
# Indices 1 2 3 4 5 6 
#
# 1 132.3524 29.7996 4.7160 -31.5350 2.0340 6.7159
# 2 29.7996 87.1005 4.0278 -33.1418 -6.0720 0.4854
# 3 4.7160 4.0278 42.1733 5.8553 -0.3628 -0.7142
# 4 -31.5350 -33.1418 5.8553 51.4863 0.5566 4.0667
# 5 2.0340 -6.0720 -0.3628 0.5566 28.9773 -10.0426
# 6 6.7159 0.4854 -0.7142 4.0667 -10.0426 39.4359
#
#
#
# Elastic Compliance Matrix: (Units=1/GPa)
#
#
# Indices 1 2 3 4 5 6 
#
# 1 0.009331 -0.001186 -0.001739 0.005381 -0.001950 -0.002657
# 2 -0.001186 0.015985 -0.002741 0.009862 0.003116 -0.000268
# 3 -0.001739 -0.002741 0.025003 -0.005797 0.000494 0.001506
# 4 0.005381 0.009862 -0.005797 0.030076 -0.000474 -0.004365
# 5 -0.001950 0.003116 0.000494 -0.000474 0.038867 0.010249
# 6 -0.002657 -0.000268 0.001506 -0.004365 0.010249 0.028901
#
#
# Mechanical properties :
#
#
# Convention : Reuss Voigt Hill
#
# Bulk Modulus (GPa) = 25.64961 37.63477 31.64219
# Shear Modulus (GPa) = 28.98714 38.85208 33.91961
#
# Velocity S-wave (km/s) = 3.52972 4.08644 3.81824
# Velocity P-wave (km/s) = 5.25703 6.20008 5.74793
#
# Compressibility (1/GPa) = 0.03898695
#
# Stress axis : x y z
#
# Youngs Moduli (GPa) = 107.16476 62.55942 39.99577
#
# Poissons Ratio (x) = 0.07418 0.06956
# Poissons Ratio (y) = 0.12708 0.10963
# Poissons Ratio (z) = 0.18637 0.17148
#
# Static dielectric constant tensor:
#      x y z
#    x 1.824740 -0.008700 -0.003860 
#    y -0.008700 1.918920 0.000720 
#    z -0.003860 0.000720 1.939670 
# 
# From -- ./inp_files/175792.got.cif
#   From: 2010.05.17/outbox.cif.g08.bks.cpg/sg2_88_cif.got.tgz:175792.got - 2010.06.03 11:33:40.
