data_PCOD9037405
_publ_section_title
;
Structure prediction by ZEFSAII (Michael W. Deem and Ramdas Pophale) SiO2 
 PCOD9037405
Probable space group: P -1
;
_chemical_formula_sum "Si O2"
_cell_formula_units_Z 16
_cell_length_a 5.070941
_cell_length_b 14.693795
_cell_length_c 12.471394
_cell_angle_alpha 120.192829
_cell_angle_beta 68.829827
_cell_angle_gamma 120.887205
_cell_volume 682.611793
_symmetry_space_group_name_H-M "P -1"
_symmetry_group_IT_number 2
_symmetry_cell_setting 'triclinic'
loop_
_space_group_symop_operation_xyz
x,y,z
-x,-y,-z
loop_
_atom_site_type_symbol
_atom_site_label
_atom_site_fract_x
_atom_site_fract_y
_atom_site_fract_z
Si Si1 0.305992 0.432672 0.858203
Si Si2 0.462211 0.707232 0.716780
Si Si3 0.554275 0.934772 0.353005
Si Si4 0.937401 0.966224 0.828625
Si Si5 0.219508 0.674651 0.304259
Si Si6 0.802274 0.350585 0.055596
Si Si7 0.997211 0.374255 0.449566
Si Si8 0.419678 0.906971 0.123265
O O1 0.608914 0.409383 0.789340
O O2 0.343554 0.562313 0.910266
O O3 0.060824 0.358960 0.758785
O O4 0.131785 0.390716 0.971950
O O5 0.687040 0.836963 0.794329
O O6 0.216260 0.651809 0.815018
O O7 0.274923 0.707950 0.637765
O O8 0.681453 0.637908 0.628946
O O9 0.474154 0.804083 0.322336
O O10 0.347329 0.919542 0.266677
O O11 0.500000 0.000000 0.500000
O O12 0.890517 0.011411 0.299623
O O13 0.792698 0.059708 0.904160
O O14 0.773485 0.998323 0.113599
O O15 0.090183 0.659577 0.434554
O O16 0.609813 0.220857 0.966288
O O17 0.000000 0.500000 0.500000
#
# Coordination Sequence:
#
# PCOD9037405 Si02
#       8
#     2   2   2   2   2   2   2   2
#     4  11  25  44  70 104 131 178 226 283 341 391
#     4  12  26  44  69 100 135 187 222 272 342 401
#     4  10  23  40  66  96 131 174 223 279 331 394
#     4  10  23  42  62  94 133 167 226 264 336 392
#     4  12  24  45  71 101 136 175 227 285 338 400
#     4  11  25  45  71  98 141 177 228 277 333 413
#     4  12  26  46  69 101 138 177 229 280 338 402
#     4  10  23  43  62  97 130 172 221 273 335 388
#
# _framework density 23.439384
#
# number of rings (size 3 to 8) (size 9 to 14) (size 15 to 20)
#    0.750    0.250    1.250    4.875    1.750    6.500 
#    0.000    0.000    0.000    0.000    0.000    0.000 
#    0.000    0.000    0.000    0.000    0.000    0.000 
#
# Total GULP energy -89551.545960 kJ/mol
# GULP energy per Si atom -5596.971622 kJ/mol
# Density = 2.338604 g / cm^3
# Si number density = 23.439384 Si / 1000 Ang^3
#
#
#
# Elastic Constant Matrix: (Units=GPa)
#
#
# Indices 1 2 3 4 5 6 
#
# 1 69.6416 -0.1925 24.6159 -10.2004 12.9364 1.5978
# 2 -0.1925 103.6020 37.2805 -6.2093 -0.0430 0.4583
# 3 24.6159 37.2805 123.5668 -25.2813 7.4903 -2.5401
# 4 -10.2004 -6.2093 -25.2813 48.4646 2.9138 5.4388
# 5 12.9364 -0.0430 7.4903 2.9138 23.6968 -1.4880
# 6 1.5978 0.4583 -2.5401 5.4388 -1.4880 14.1098
#
#
#
# Elastic Compliance Matrix: (Units=1/GPa)
#
#
# Indices 1 2 3 4 5 6 
#
# 1 0.017736 0.001234 -0.002685 0.003621 -0.009587 -0.004939
# 2 0.001234 0.010957 -0.003628 -0.000138 0.000444 -0.001049
# 3 -0.002685 -0.003628 0.010855 0.004754 -0.002539 0.000276
# 4 0.003621 -0.000138 0.004754 0.025428 -0.007242 -0.010115
# 5 -0.009587 0.000444 -0.002539 -0.007242 0.049670 0.008644
# 6 -0.004939 -0.001049 0.000276 -0.010115 0.008644 0.076326
#
#
# Mechanical properties :
#
#
# Convention : Reuss Voigt Hill
#
# Bulk Modulus (GPa) = 34.02647 46.69093 40.35870
# Shear Modulus (GPa) = 23.70488 32.92802 28.31645
#
# Velocity S-wave (km/s) = 3.18359 3.75215 3.47950
# Velocity P-wave (km/s) = 5.29735 6.22372 5.77913
#
# Compressibility (1/GPa) = 0.02938888
#
# Stress axis : x y z
#
# Youngs Moduli (GPa) = 56.38178 91.26773 92.12707
#
# Poissons Ratio (x) = -0.11263 0.24737
# Poissons Ratio (y) = -0.06958 0.33426
# Poissons Ratio (z) = 0.15139 0.33115
#
# Static dielectric constant tensor:
#      x y z
#    x 1.844350 0.017230 0.011430 
#    y 0.017230 1.869450 -0.008760 
#    z 0.011430 -0.008760 1.912150 
# 
# From -- ./inp_files/367916.got.cif
#   From: 2010.05.17/outbox.cif.g08.bks.cpg/sg2_184_cif.got.tgz:367916.got - 2010.06.03 11:33:40.
