data_PCOD9037338
_publ_section_title
;
Structure prediction by ZEFSAII (Michael W. Deem and Ramdas Pophale) SiO2 
 PCOD9037338
Probable space group: P -1
;
_chemical_formula_sum "Si O2"
_cell_formula_units_Z 12
_cell_length_a 9.769785
_cell_length_b 13.181021
_cell_length_c 16.127514
_cell_angle_alpha 29.455733
_cell_angle_beta 44.082155
_cell_angle_gamma 31.754064
_cell_volume 535.520063
_symmetry_space_group_name_H-M "P -1"
_symmetry_group_IT_number 2
_symmetry_cell_setting 'triclinic'
loop_
_space_group_symop_operation_xyz
x,y,z
-x,-y,-z
loop_
_atom_site_type_symbol
_atom_site_label
_atom_site_fract_x
_atom_site_fract_y
_atom_site_fract_z
Si Si1 0.793400 0.860815 0.493215
Si Si2 0.261571 0.942308 0.448502
Si Si3 0.350082 0.717143 0.062264
Si Si4 0.109285 0.486272 0.052909
Si Si5 0.827014 0.421385 0.603619
Si Si6 0.021516 0.282478 0.880283
O O1 0.942652 0.553109 0.679843
O O2 0.969927 0.831868 0.364645
O O3 0.500000 0.000000 0.500000
O O4 0.757488 0.034224 0.461453
O O5 0.553835 0.657517 0.507542
O O6 0.228329 0.193352 0.247464
O O7 0.000000 0.000000 0.500000
O O8 0.251526 0.647430 0.231376
O O9 0.212890 0.716350 0.041186
O O10 0.655612 0.517653 0.059985
O O11 0.255310 0.010933 0.922210
O O12 0.938264 0.697983 0.053280
O O13 0.000000 0.500000 0.000000
O O14 0.000000 0.500000 0.500000
#
# Coordination Sequence:
#
# PCOD9037338 Si02
#       6
#     2   2   2   2   2   2
#     4  11  22  41  69  98 131 172 221 273 326 391
#     4  11  25  44  68  96 134 175 220 271 330 391
#     4  11  23  40  67  97 132 165 218 272 328 390
#     4  11  25  43  65  93 135 174 217 267 328 396
#     4  12  23  41  69 100 131 168 221 272 327 392
#     4  10  23  40  65  96 127 170 218 266 328 380
#
# _framework density 22.408124000000001
#
# number of rings (size 3 to 8) (size 9 to 14) (size 15 to 20)
#    0.000    1.000    3.333    2.500    2.333    5.333 
#    0.000    0.000    0.000    0.000    0.000    0.000 
#    0.000    0.000    0.000    0.000    0.000    0.000 
#
# Total GULP energy -67005.295108 kJ/mol
# GULP energy per Si atom -5583.774592 kJ/mol
# Density = 2.235712 g / cm^3
# Si number density = 22.408124 Si / 1000 Ang^3
#
#
#
# Elastic Constant Matrix: (Units=GPa)
#
#
# Indices 1 2 3 4 5 6 
#
# 1 135.1657 39.3239 -3.7787 17.4265 8.0666 5.2196
# 2 39.3239 105.1034 20.2380 13.0879 -0.0379 -0.8591
# 3 -3.7787 20.2380 89.0785 6.5725 1.9378 -5.1043
# 4 17.4265 13.0879 6.5725 37.2604 -1.5795 0.7250
# 5 8.0666 -0.0379 1.9378 -1.5795 26.9634 8.3155
# 6 5.2196 -0.8591 -5.1043 0.7250 8.3155 41.8495
#
#
#
# Elastic Compliance Matrix: (Units=1/GPa)
#
#
# Indices 1 2 3 4 5 6 
#
# 1 0.009004 -0.003215 0.001407 -0.003445 -0.002882 -0.000385
# 2 -0.003215 0.011473 -0.002606 -0.002027 0.000999 0.000155
# 3 0.001407 -0.002606 0.012164 -0.002003 -0.001932 0.001673
# 4 -0.003445 -0.002027 -0.002003 0.029671 0.003221 -0.001010
# 5 -0.002882 0.000999 -0.001932 0.003221 0.040748 -0.008008
# 6 -0.000385 0.000155 0.001673 -0.001010 -0.008008 0.025759
#
#
# Mechanical properties :
#
#
# Convention : Reuss Voigt Hill
#
# Bulk Modulus (GPa) = 41.99445 48.99044 45.49245
# Shear Modulus (GPa) = 34.34425 39.45230 36.89827
#
# Velocity S-wave (km/s) = 3.91918 4.20053 4.06229
# Velocity P-wave (km/s) = 6.26589 6.74064 6.50760
#
# Compressibility (1/GPa) = 0.02381267
#
# Stress axis : x y z
#
# Youngs Moduli (GPa) = 111.06151 87.15935 82.21292
#
# Poissons Ratio (x) = 0.28022 -0.11569
# Poissons Ratio (y) = 0.35706 0.21427
# Poissons Ratio (z) = -0.15628 0.22716
#
# Static dielectric constant tensor:
#      x y z
#    x 1.836740 0.075510 0.001140 
#    y 0.075510 1.851530 -0.019640 
#    z 0.001140 -0.019640 1.885130 
# 
# From -- ./inp_files/181597.got.cif
#   From: 2010.05.17/outbox.cif.g08.bks.cpg/sg2_91_cif.got.tgz:181597.got - 2010.06.03 11:33:40.
