data_PCOD9037721
_publ_section_title
;
Structure prediction by ZEFSAII (Michael W. Deem and Ramdas Pophale) SiO2 
 PCOD9037721
Probable space group: P -1
;
_chemical_formula_sum "Si O2"
_cell_formula_units_Z 16
_cell_length_a 8.366965
_cell_length_b 16.071876
_cell_length_c 8.284102
_cell_angle_alpha 120.440112
_cell_angle_beta 90.871943
_cell_angle_gamma 122.216865
_cell_volume 747.819157
_symmetry_space_group_name_H-M "P -1"
_symmetry_group_IT_number 2
_symmetry_cell_setting 'triclinic'
loop_
_space_group_symop_operation_xyz
x,y,z
-x,-y,-z
loop_
_atom_site_type_symbol
_atom_site_label
_atom_site_fract_x
_atom_site_fract_y
_atom_site_fract_z
Si Si1 0.244235 0.930514 0.674768
Si Si2 0.774897 0.877995 0.824609
Si Si3 0.320137 0.992160 0.273227
Si Si4 0.604648 0.301389 0.136173
Si Si5 0.175190 0.251457 0.600299
Si Si6 0.321872 0.141159 0.715435
Si Si7 0.880311 0.224020 0.157409
Si Si8 0.300125 0.446760 0.551669
O O1 0.473914 0.991414 0.688784
O O2 0.213661 0.876377 0.798614
O O3 0.064646 0.812719 0.453098
O O4 0.218106 0.035431 0.749061
O O5 0.657476 0.923884 0.789843
O O6 0.614371 0.773407 0.846766
O O7 0.806942 0.813268 0.618079
O O8 0.000000 0.000000 0.000000
O O9 0.299951 0.055467 0.486541
O O10 0.139830 0.851361 0.075716
O O11 0.742771 0.266704 0.170599
O O12 0.711236 0.444237 0.302440
O O13 0.541662 0.250836 0.902159
O O14 0.235971 0.209316 0.712549
O O15 0.298509 0.389254 0.667364
O O16 0.104117 0.338783 0.336362
O O17 0.500000 0.500000 0.500000
#
# Coordination Sequence:
#
# PCOD9037721 Si02
#       8
#     2   2   2   2   2   2   2   2
#     4  11  20  39  64  97 129 163 202 262 322 376
#     4  11  21  36  63  95 125 163 204 264 316 370
#     4  11  22  38  63  95 135 156 202 257 326 382
#     4  12  23  41  66  91 131 166 214 259 308 374
#     4  10  23  41  61  90 130 166 212 257 312 373
#     4  11  24  39  62  98 135 166 195 255 334 384
#     4  11  23  41  67  94 124 164 214 269 306 368
#     4  11  24  45  67  90 117 171 227 261 301 361
#
# _framework density 21.395547000000001
#
# number of rings (size 3 to 8) (size 9 to 14) (size 15 to 20)
#    0.000    1.000    3.750    4.500    0.000    1.500 
#    0.000    0.000    0.000    3.750    0.000    0.000 
#    0.000    0.000    0.000    0.000    0.000    0.000 
#
# Total GULP energy -89247.172496 kJ/mol
# GULP energy per Si atom -5577.948281 kJ/mol
# Density = 2.134685 g / cm^3
# Si number density = 21.395547 Si / 1000 Ang^3
#
#
#
# Elastic Constant Matrix: (Units=GPa)
#
#
# Indices 1 2 3 4 5 6 
#
# 1 79.8758 47.7878 41.1586 -4.4870 14.5111 -22.4989
# 2 47.7878 115.3302 50.0349 11.7229 5.5875 -34.1249
# 3 41.1586 50.0349 117.7692 12.6376 -1.6392 -7.0710
# 4 -4.4870 11.7229 12.6376 24.6427 -10.1211 7.3794
# 5 14.5111 5.5875 -1.6392 -10.1211 31.4823 1.4487
# 6 -22.4989 -34.1249 -7.0710 7.3794 1.4487 40.7204
#
#
#
# Elastic Compliance Matrix: (Units=1/GPa)
#
#
# Indices 1 2 3 4 5 6 
#
# 1 0.021981 -0.004294 -0.005890 0.003202 -0.008981 0.007263
# 2 -0.004294 0.018692 -0.003964 -0.015266 -0.007172 0.015626
# 3 -0.005890 -0.003964 0.012358 -0.002972 0.003291 -0.004009
# 4 0.003202 -0.015266 -0.002972 0.067058 0.023766 -0.024538
# 5 -0.008981 -0.007172 0.003291 0.023766 0.045740 -0.016335
# 6 0.007263 0.015626 -0.004009 -0.024538 -0.016335 0.045997
#
#
# Mechanical properties :
#
#
# Convention : Reuss Voigt Hill
#
# Bulk Modulus (GPa) = 40.43001 65.65977 53.04489
# Shear Modulus (GPa) = 20.13145 30.96866 25.55005
#
# Velocity S-wave (km/s) = 3.07077 3.80864 3.45943
# Velocity P-wave (km/s) = 5.61340 7.07786 6.38774
#
# Compressibility (1/GPa) = 0.02473410
#
# Stress axis : x y z
#
# Youngs Moduli (GPa) = 45.49456 53.49751 80.91896
#
# Poissons Ratio (x) = 0.22971 0.47663
# Poissons Ratio (y) = 0.19535 0.32080
# Poissons Ratio (z) = 0.26797 0.21209
#
# Static dielectric constant tensor:
#      x y z
#    x 1.809520 0.000120 -0.010040 
#    y 0.000120 1.819870 -0.038790 
#    z -0.010040 -0.038790 1.841430 
# 
# From -- ./inp_files/190684.got.cif
#   From: 2010.05.17/outbox.cif.g08.bks.cpg/sg2_96_cif.got.tgz:190684.got - 2010.06.03 11:33:40.
