data_PCOD9037736
_publ_section_title
;
Structure prediction by ZEFSAII (Michael W. Deem and Ramdas Pophale) SiO2 
 PCOD9037736
Probable space group: P -1
;
_chemical_formula_sum "Si O2"
_cell_formula_units_Z 12
_cell_length_a 11.983454
_cell_length_b 13.512553
_cell_length_c 11.292383
_cell_angle_alpha 90.000692
_cell_angle_beta 61.891238
_cell_angle_gamma 32.549363
_cell_volume 475.009874
_symmetry_space_group_name_H-M "P -1"
_symmetry_group_IT_number 2
_symmetry_cell_setting 'triclinic'
loop_
_space_group_symop_operation_xyz
x,y,z
-x,-y,-z
loop_
_atom_site_type_symbol
_atom_site_label
_atom_site_fract_x
_atom_site_fract_y
_atom_site_fract_z
Si Si1 0.219057 0.229005 0.758182
Si Si2 0.969427 0.199397 0.141828
Si Si3 0.219035 0.229020 0.022772
Si Si4 0.030562 0.800609 0.111252
Si Si5 0.995296 0.121194 0.628583
Si Si6 0.995259 0.121238 0.376151
O O1 0.000017 0.499989 0.859652
O O2 0.910514 0.362435 0.915920
O O3 0.500000 0.000000 0.500000
O O4 0.432562 0.064399 0.783722
O O5 0.189510 0.011347 0.155887
O O6 0.522149 0.473057 0.366845
O O7 0.910483 0.362456 0.173576
O O8 0.185257 0.015001 0.907378
O O9 0.500000 0.000000 0.000000
O O10 0.810468 0.988685 0.345389
O O11 0.477884 0.526898 0.888976
O O12 0.161723 0.035025 0.419148
O O13 0.000034 0.999967 0.624056
#
# Coordination Sequence:
#
# PCOD9037736 Si02
#       6
#     2   2   2   2   2   2
#     4  10  23  41  62  87 119 158 199 245 293 347
#     4   9  19  35  52  79 112 142 184 234 285 339
#     4  10  23  41  62  87 119 158 199 245 293 347
#     4   9  19  35  52  79 112 142 184 234 285 339
#     4   9  18  32  55  81 106 142 183 227 283 344
#     4   9  18  32  55  81 106 142 183 227 283 344
#
# _framework density 25.262633999999998
#
# number of rings (size 3 to 8) (size 9 to 14) (size 15 to 20)
#    0.000    2.667    0.000    0.000    4.667    2.667 
#    0.000    0.000    0.000    0.000    0.000    0.000 
#    0.000    0.000    0.000    0.000    0.000    0.000 
#
# Total GULP energy -66881.776426 kJ/mol
# GULP energy per Si atom -5573.481369 kJ/mol
# Density = 2.520513 g / cm^3
# Si number density = 25.262634 Si / 1000 Ang^3
#
#
#
# Elastic Constant Matrix: (Units=GPa)
#
#
# Indices 1 2 3 4 5 6 
#
# 1 104.2713 29.3985 58.2382 -37.0133 12.7273 -13.1025
# 2 29.3985 129.4615 86.4794 -76.5350 32.6090 -20.7311
# 3 58.2382 86.4794 129.2658 -65.9368 41.3468 -37.9585
# 4 -37.0133 -76.5350 -65.9368 63.2616 -27.4899 11.5489
# 5 12.7273 32.6090 41.3468 -27.4899 59.4000 -11.2844
# 6 -13.1025 -20.7311 -37.9585 11.5489 -11.2844 30.2522
#
#
#
# Elastic Compliance Matrix: (Units=1/GPa)
#
#
# Indices 1 2 3 4 5 6 
#
# 1 0.015131 0.007520 -0.006343 0.012585 0.002872 0.000015
# 2 0.007520 0.032206 -0.003796 0.039448 0.002855 0.006569
# 3 -0.006343 -0.003796 0.030743 0.016848 -0.005455 0.024758
# 4 0.012585 0.039448 0.016848 0.088171 0.009167 0.023384
# 5 0.002872 0.002855 -0.005455 0.009167 0.022962 0.001421
# 6 0.000015 0.006569 0.024758 0.023384 0.001421 0.060232
#
#
# Mechanical properties :
#
#
# Convention : Reuss Voigt Hill
#
# Bulk Modulus (GPa) = 13.72829 79.02567 46.37698
# Shear Modulus (GPa) = 17.92343 43.17491 30.54917
#
# Velocity S-wave (km/s) = 2.66650 4.13854 3.48122
# Velocity P-wave (km/s) = 3.86346 7.36113 5.87846
#
# Compressibility (1/GPa) = 0.07284230
#
# Stress axis : x y z
#
# Youngs Moduli (GPa) = 66.08749 31.04989 32.52814
#
# Poissons Ratio (x) = -0.23349 0.20631
# Poissons Ratio (y) = -0.49697 0.12349
# Poissons Ratio (z) = 0.41916 0.11788
#
# Static dielectric constant tensor:
#      x y z
#    x 1.967610 -0.047100 -0.003040 
#    y -0.047100 2.039070 0.020120 
#    z -0.003040 0.020120 2.063990 
# 
# From -- ./inp_files/213715.got.cif
#   From: 2010.05.17/outbox.cif.g08.bks.cpg/sg2_107_cif.got.tgz:213715.got - 2010.06.03 11:33:40.
