data_PCOD9037990
_publ_section_title
;
Structure prediction by ZEFSAII (Michael W. Deem and Ramdas Pophale) SiO2 
 PCOD9037990
Probable space group: P -1
;
_chemical_formula_sum "Si O2"
_cell_formula_units_Z 16
_cell_length_a 6.942517
_cell_length_b 20.976031
_cell_length_c 12.022260
_cell_angle_alpha 28.299840
_cell_angle_beta 66.140566
_cell_angle_gamma 70.880116
_cell_volume 757.424177
_symmetry_space_group_name_H-M "P -1"
_symmetry_group_IT_number 2
_symmetry_cell_setting 'triclinic'
loop_
_space_group_symop_operation_xyz
x,y,z
-x,-y,-z
loop_
_atom_site_type_symbol
_atom_site_label
_atom_site_fract_x
_atom_site_fract_y
_atom_site_fract_z
Si Si1 0.653938 0.583393 0.983860
Si Si2 0.072088 0.948161 0.943612
Si Si3 0.017877 0.520157 0.596756
Si Si4 0.301068 0.267981 0.631819
Si Si5 0.593532 0.262265 0.783810
Si Si6 0.966594 0.816545 0.581693
Si Si7 0.252262 0.303414 0.987989
Si Si8 0.594994 0.291978 0.336327
O O1 0.630030 0.597918 0.099407
O O2 0.481940 0.662592 0.835435
O O3 0.872445 0.673074 0.773480
O O4 0.655870 0.433144 0.169335
O O5 0.886988 0.836415 0.124448
O O6 0.286562 0.873938 0.022268
O O7 0.082487 0.064928 0.670897
O O8 0.000000 0.000000 0.000000
O O9 0.224945 0.618561 0.423261
O O10 0.000000 0.500000 0.500000
O O11 0.811392 0.592375 0.573104
O O12 0.061731 0.381907 0.859975
O O13 0.482042 0.274020 0.672886
O O14 0.401708 0.227846 0.553278
O O15 0.413029 0.270071 0.906534
O O16 0.212932 0.802361 0.563884
O O17 0.844589 0.817996 0.725892
#
# Coordination Sequence:
#
# PCOD9037990 Si02
#       8
#     2   2   2   2   2   2   2   2
#     4   9  23  37  60  96 133 168 209 261 337 385
#     4  11  25  46  68  93 131 176 230 272 316 387
#     4  11  23  39  69  99 137 167 215 265 335 397
#     4  11  25  40  69 100 126 176 221 272 325 386
#     4  11  24  44  66  98 131 172 224 273 323 393
#     4  10  24  41  62  95 130 173 213 271 319 382
#     4  10  23  41  65  95 135 169 206 270 337 388
#     4  11  21  38  64  96 130 171 216 265 329 391
#
# _framework density 21.124227000000001
#
# number of rings (size 3 to 8) (size 9 to 14) (size 15 to 20)
#    0.750    0.750    1.250    3.000    5.250    5.500 
#    0.000    0.625    0.000    0.000    0.000    0.000 
#    0.000    0.000    0.000    0.000    0.000    0.000 
#
# Total GULP energy -89402.902807 kJ/mol
# GULP energy per Si atom -5587.681425 kJ/mol
# Density = 2.107615 g / cm^3
# Si number density = 21.124227 Si / 1000 Ang^3
#
#
#
# Elastic Constant Matrix: (Units=GPa)
#
#
# Indices 1 2 3 4 5 6 
#
# 1 103.3298 27.8219 32.2228 3.9341 31.4208 -9.1454
# 2 27.8219 42.1872 17.3791 10.6967 24.9314 5.0633
# 3 32.2228 17.3791 117.3447 20.5693 27.3072 -9.4740
# 4 3.9341 10.6967 20.5693 23.8188 5.0116 6.2117
# 5 31.4208 24.9314 27.3072 5.0116 37.9087 2.5185
# 6 -9.1454 5.0633 -9.4740 6.2117 2.5185 36.6749
#
#
#
# Elastic Compliance Matrix: (Units=1/GPa)
#
#
# Indices 1 2 3 4 5 6 
#
# 1 0.014161 -0.004951 -0.001199 0.001528 -0.008099 0.004202
# 2 -0.004951 0.045214 0.003373 -0.016447 -0.025752 -0.002051
# 3 -0.001199 0.003373 0.013072 -0.012007 -0.009405 0.005292
# 4 0.001528 -0.016447 -0.012007 0.060141 0.011005 -0.011392
# 5 -0.008099 -0.025752 -0.009405 0.011005 0.055786 -0.006589
# 6 0.004202 -0.002051 0.005292 -0.011392 -0.006589 0.032347
#
#
# Mechanical properties :
#
#
# Convention : Reuss Voigt Hill
#
# Bulk Modulus (GPa) = 14.94900 46.41215 30.68057
# Shear Modulus (GPa) = 20.11479 32.04299 26.07889
#
# Velocity S-wave (km/s) = 3.08914 3.89894 3.51743
# Velocity P-wave (km/s) = 4.45150 6.50290 5.57241
#
# Compressibility (1/GPa) = 0.06689413
#
# Stress axis : x y z
#
# Youngs Moduli (GPa) = 70.61515 22.11693 76.49835
#
# Poissons Ratio (x) = 0.10949 0.09175
# Poissons Ratio (y) = 0.34959 -0.25805
# Poissons Ratio (z) = 0.08469 -0.07461
#
# Static dielectric constant tensor:
#      x y z
#    x 1.767770 0.015410 -0.048790 
#    y 0.015410 1.739080 -0.015490 
#    z -0.048790 -0.015490 1.774170 
# 
# From -- ./inp_files/370265.got.cif
#   From: 2010.05.17/outbox.cif.g08.bks.cpg/sg2_186_cif.got.tgz:370265.got - 2010.06.03 11:33:40.
