data_PCOD9037649
_publ_section_title
;
Structure prediction by ZEFSAII (Michael W. Deem and Ramdas Pophale) SiO2 
 PCOD9037649
Probable space group: P -1
;
_chemical_formula_sum "Si O2"
_cell_formula_units_Z 14
_cell_length_a 11.284712
_cell_length_b 11.645994
_cell_length_c 12.602027
_cell_angle_alpha 140.724058
_cell_angle_beta 35.746155
_cell_angle_gamma 118.085105
_cell_volume 554.187319
_symmetry_space_group_name_H-M "P -1"
_symmetry_group_IT_number 2
_symmetry_cell_setting 'triclinic'
loop_
_space_group_symop_operation_xyz
x,y,z
-x,-y,-z
loop_
_atom_site_type_symbol
_atom_site_label
_atom_site_fract_x
_atom_site_fract_y
_atom_site_fract_z
Si Si1 0.359476 0.077643 0.012371
Si Si2 0.039510 0.580061 0.371754
Si Si3 0.444476 0.702439 0.799655
Si Si4 0.823222 0.299449 0.288698
Si Si5 0.281746 0.950968 0.636316
Si Si6 0.520232 0.267725 0.866686
Si Si7 0.128059 0.757410 0.237979
O O1 0.475505 0.171220 0.081129
O O2 0.099746 0.219924 0.319022
O O3 0.442718 0.106822 0.858576
O O4 0.401635 0.851875 0.840488
O O5 0.003233 0.653400 0.325691
O O6 0.923722 0.432349 0.375941
O O7 0.296757 0.451043 0.122114
O O8 0.630736 0.478343 0.492456
O O9 0.222885 0.695260 0.006808
O O10 0.722532 0.185891 0.358861
O O11 0.043229 0.143595 0.956199
O O12 0.500000 0.000000 0.500000
O O13 0.310090 0.830005 0.421028
O O14 0.650827 0.310648 0.898429
O O15 0.000000 0.000000 0.500000
#
# Coordination Sequence:
#
# PCOD9037649 Si02
#       7
#     2   2   2   2   2   2   2
#     4   9  19  34  58  90 130 159 203 261 330 386
#     4  11  20  38  63  99 129 167 211 269 330 392
#     4   9  18  37  58  91 127 170 206 257 326 394
#     4  10  23  40  71  90 129 173 222 268 327 370
#     4  11  23  46  63  95 127 176 226 275 310 376
#     4  11  23  37  63  94 133 170 218 268 320 385
#     4  11  22  38  63  98 137 171 204 266 336 395
#
# _framework density 25.262215000000001
#
# number of rings (size 3 to 8) (size 9 to 14) (size 15 to 20)
#    0.000    1.714    2.857    1.714    2.000    3.429 
#    0.000    0.714    0.000    1.714    0.000    0.000 
#    0.000    0.000    0.000    0.000    0.000    0.000 
#
# Total GULP energy -78251.799478 kJ/mol
# GULP energy per Si atom -5589.414248 kJ/mol
# Density = 2.520472 g / cm^3
# Si number density = 25.262215 Si / 1000 Ang^3
#
#
#
# Elastic Constant Matrix: (Units=GPa)
#
#
# Indices 1 2 3 4 5 6 
#
# 1 25.6546 39.2732 7.7563 2.8156 -5.9084 -3.4540
# 2 39.2732 222.4077 90.3616 -4.3340 -5.8380 -24.0243
# 3 7.7563 90.3616 175.9514 5.7932 -9.8159 -21.7608
# 4 2.8156 -4.3340 5.7932 54.9984 -2.1840 -6.6532
# 5 -5.9084 -5.8380 -9.8159 -2.1840 29.3491 2.9737
# 6 -3.4540 -24.0243 -21.7608 -6.6532 2.9737 45.3742
#
#
#
# Elastic Compliance Matrix: (Units=1/GPa)
#
#
# Indices 1 2 3 4 5 6 
#
# 1 0.058857 -0.012011 0.004157 -0.004118 0.010664 -0.001188
# 2 -0.012011 0.008313 -0.003651 0.001831 -0.002066 0.002140
# 3 0.004157 -0.003651 0.007767 -0.001003 0.002451 0.001801
# 4 -0.004118 0.001831 -0.001003 0.019012 0.000316 0.002942
# 5 0.010664 -0.002066 0.002451 0.000316 0.036801 -0.001472
# 6 -0.001188 0.002140 0.001801 0.002942 -0.001472 0.024473
#
#
# Mechanical properties :
#
#
# Convention : Reuss Voigt Hill
#
# Bulk Modulus (GPa) = 19.25695 77.64401 48.45048
# Shear Modulus (GPa) = 25.57004 45.05252 35.31128
#
# Velocity S-wave (km/s) = 3.18494 4.22761 3.74276
# Velocity P-wave (km/s) = 4.60049 7.39136 6.15616
#
# Compressibility (1/GPa) = 0.05192932
#
# Stress axis : x y z
#
# Youngs Moduli (GPa) = 16.99032 120.29357 128.74221
#
# Poissons Ratio (x) = 1.44482 -0.53522
# Poissons Ratio (y) = 0.20407 0.46999
# Poissons Ratio (z) = -0.07063 0.43914
#
# Static dielectric constant tensor:
#      x y z
#    x 2.004650 0.079720 -0.059090 
#    y 0.079720 2.089080 -0.037920 
#    z -0.059090 -0.037920 1.920230 
# 
# From -- ./inp_files/518679.got.cif
#   From: 2010.05.17/outbox.cif.g08.bks.cpg/sg2_260_cif.got.tgz:518679.got - 2010.06.03 11:33:40.
