data_PCOD9037040
_publ_section_title
;
Structure prediction by ZEFSAII (Michael W. Deem and Ramdas Pophale) SiO2 
 PCOD9037040
Probable space group: P -1
;
_chemical_formula_sum "Si O2"
_cell_formula_units_Z 12
_cell_length_a 9.648278
_cell_length_b 15.881586
_cell_length_c 10.404253
_cell_angle_alpha 23.887893
_cell_angle_beta 42.695438
_cell_angle_gamma 45.660072
_cell_volume 435.666670
_symmetry_space_group_name_H-M "P -1"
_symmetry_group_IT_number 2
_symmetry_cell_setting 'triclinic'
loop_
_space_group_symop_operation_xyz
x,y,z
-x,-y,-z
loop_
_atom_site_type_symbol
_atom_site_label
_atom_site_fract_x
_atom_site_fract_y
_atom_site_fract_z
Si Si1 0.215297 0.340560 0.712450
Si Si2 0.296727 0.983328 0.363359
Si Si3 0.001556 0.002957 0.211786
Si Si4 0.647437 0.909133 0.413374
Si Si5 0.259660 0.572993 0.596975
Si Si6 0.359504 0.526134 0.868268
O O1 0.138305 0.496161 0.663690
O O2 0.404857 0.438902 0.378572
O O3 0.144432 0.010486 0.792771
O O4 0.071680 0.236371 0.854034
O O5 0.285807 0.134935 0.037931
O O6 0.267540 0.748353 0.671516
O O7 0.522697 0.982623 0.270419
O O8 0.129588 0.036014 0.515351
O O9 0.178668 0.812606 0.343056
O O10 0.500000 0.000000 0.500000
O O11 0.652921 0.660257 0.765072
O O12 0.500000 0.500000 0.500000
O O13 0.247482 0.470952 0.888964
#
# Coordination Sequence:
#
# PCOD9037040 Si02
#       6
#     2   2   2   2   2   2
#     4  11  24  44  74 103 137 179 241 287 339 404
#     4  11  23  42  73 102 141 185 225 286 350 410
#     4  11  24  44  71 107 137 180 240 286 336 417
#     4  10  24  45  67 100 148 185 223 282 353 415
#     4  10  23  39  70 104 139 175 231 289 348 393
#     4  11  23  43  73 100 141 185 231 280 356 407
#
# _framework density 27.543991999999999
#
# number of rings (size 3 to 8) (size 9 to 14) (size 15 to 20)
#    0.000    1.333    1.667    3.500    4.667    1.333 
#    0.000    4.167    3.667    0.000    0.000    0.000 
#    0.000    0.000    0.000    0.000    0.000    0.000 
#
# Total GULP energy -67267.629473 kJ/mol
# GULP energy per Si atom -5605.635789 kJ/mol
# Density = 2.748130 g / cm^3
# Si number density = 27.543992 Si / 1000 Ang^3
#
#
#
# Elastic Constant Matrix: (Units=GPa)
#
#
# Indices 1 2 3 4 5 6 
#
# 1 130.4889 29.9895 54.7951 10.1808 -28.4369 5.5658
# 2 29.9895 160.0668 49.0426 -19.3743 -9.1850 8.0773
# 3 54.7951 49.0426 98.6537 -2.6479 -35.7228 19.9632
# 4 10.1808 -19.3743 -2.6479 48.0209 9.6064 -11.2120
# 5 -28.4369 -9.1850 -35.7228 9.6064 38.0706 -11.5863
# 6 5.5658 8.0773 19.9632 -11.2120 -11.5863 30.4231
#
#
#
# Elastic Compliance Matrix: (Units=1/GPa)
#
#
# Indices 1 2 3 4 5 6 
#
# 1 0.011042 -0.001060 -0.003975 -0.003742 0.005714 0.001667
# 2 -0.001060 0.008296 -0.005334 0.004514 -0.004495 0.001443
# 3 -0.003975 -0.005334 0.022054 -0.005094 0.015157 -0.008433
# 4 -0.003742 0.004514 -0.005094 0.027362 -0.010701 0.008837
# 5 0.005714 -0.004495 0.015157 -0.010701 0.047722 0.004433
# 6 0.001667 0.001443 -0.008433 0.008837 0.004433 0.042661
#
#
# Mechanical properties :
#
#
# Convention : Reuss Voigt Hill
#
# Bulk Modulus (GPa) = 48.41520 72.98486 60.70003
# Shear Modulus (GPa) = 26.77255 40.32840 33.55047
#
# Velocity S-wave (km/s) = 3.12106 3.83057 3.49387
# Velocity P-wave (km/s) = 5.53205 6.79113 6.19367
#
# Compressibility (1/GPa) = 0.02065467
#
# Stress axis : x y z
#
# Youngs Moduli (GPa) = 90.56044 120.54350 45.34386
#
# Poissons Ratio (x) = 0.12779 0.18023
# Poissons Ratio (y) = 0.09601 0.24185
# Poissons Ratio (z) = 0.35996 0.64293
#
# Static dielectric constant tensor:
#      x y z
#    x 2.188690 -0.057050 -0.051210 
#    y -0.057050 2.070660 0.072620 
#    z -0.051210 0.072620 2.146010 
# 
# From -- ./inp_files/430676.got.cif
#   From: 2010.05.17/outbox.cif.g08.bks.cpg/sg2_216_cif.got.tgz:430676.got - 2010.06.03 11:33:40.
