data_PCOD9037363
_publ_section_title
;
Structure prediction by ZEFSAII (Michael W. Deem and Ramdas Pophale) SiO2 
 PCOD9037363
Probable space group: P -1
;
_chemical_formula_sum "Si O2"
_cell_formula_units_Z 16
_cell_length_a 17.183962
_cell_length_b 20.125343
_cell_length_c 11.562459
_cell_angle_alpha 32.931135
_cell_angle_beta 29.612701
_cell_angle_gamma 21.276867
_cell_volume 707.430044
_symmetry_space_group_name_H-M "P -1"
_symmetry_group_IT_number 2
_symmetry_cell_setting 'triclinic'
loop_
_space_group_symop_operation_xyz
x,y,z
-x,-y,-z
loop_
_atom_site_type_symbol
_atom_site_label
_atom_site_fract_x
_atom_site_fract_y
_atom_site_fract_z
Si Si1 0.543055 0.235724 0.950389
Si Si2 0.883939 0.188782 0.429821
Si Si3 0.442673 0.707284 0.693136
Si Si4 0.679075 0.986429 0.722386
Si Si5 0.934260 0.385790 0.920008
Si Si6 0.151592 0.641443 0.182500
Si Si7 0.553527 0.955774 0.273221
Si Si8 0.279361 0.942487 0.781653
O O1 0.650374 0.276680 0.669593
O O2 0.259328 0.407083 0.085406
O O3 0.668646 0.169609 0.009836
O O4 0.605374 0.065665 0.069872
O O5 0.849040 0.307715 0.200711
O O6 0.072066 0.139207 0.349857
O O7 0.000000 0.000000 0.500000
O O8 0.703926 0.529354 0.667677
O O9 0.284723 0.855404 0.787661
O O10 0.421254 0.817827 0.457283
O O11 0.334976 0.638545 0.904614
O O12 0.673975 0.929813 0.683600
O O13 0.500000 0.000000 0.000000
O O14 0.928772 0.382086 0.793730
O O15 0.212071 0.236369 0.809949
O O16 0.941566 0.840054 0.224189
O O17 0.498437 0.908062 0.526357
#
# Coordination Sequence:
#
# PCOD9037363 Si02
#       8
#     2   2   2   2   2   2   2   2
#     4  12  24  42  69  99 133 177 226 275 329 399
#     4  12  23  45  75  96 131 181 226 277 328 396
#     4  10  23  40  66 100 136 178 218 286 333 402
#     4  11  22  44  70  97 135 178 221 271 345 393
#     4  12  24  42  68  98 132 175 230 271 332 398
#     4  11  22  41  67 102 136 173 228 277 340 397
#     4  11  25  43  66  96 136 179 214 278 333 398
#     4  11  22  41  66  97 134 176 221 274 340 396
#
# _framework density 22.617076999999998
#
# number of rings (size 3 to 8) (size 9 to 14) (size 15 to 20)
#    0.000    0.750    5.000    2.625    0.000    3.500 
#    0.000    0.625    2.750    0.000    0.000    0.000 
#    0.000    0.000    0.000    0.000    0.000    0.000 
#
# Total GULP energy -89411.204433 kJ/mol
# GULP energy per Si atom -5588.200277 kJ/mol
# Density = 2.256560 g / cm^3
# Si number density = 22.617077 Si / 1000 Ang^3
#
#
#
# Elastic Constant Matrix: (Units=GPa)
#
#
# Indices 1 2 3 4 5 6 
#
# 1 67.7581 2.0310 -12.5606 10.0516 -6.2740 -9.0429
# 2 2.0310 118.9966 10.3931 12.9041 12.2076 1.6877
# 3 -12.5606 10.3931 93.4731 -2.0916 1.2157 -1.2285
# 4 10.0516 12.9041 -2.0916 33.2305 -3.9020 1.6465
# 5 -6.2740 12.2076 1.2157 -3.9020 33.9835 -1.8563
# 6 -9.0429 1.6877 -1.2285 1.6465 -1.8563 20.4955
#
#
#
# Elastic Compliance Matrix: (Units=1/GPa)
#
#
# Indices 1 2 3 4 5 6 
#
# 1 0.017377 -0.000403 0.002339 -0.005004 0.003161 0.008529
# 2 -0.000403 0.009360 -0.001147 -0.003992 -0.003911 -0.001051
# 3 0.002339 -0.001147 0.011166 0.000420 0.000592 0.001816
# 4 -0.005004 -0.003992 0.000420 0.033879 0.004156 -0.004199
# 5 0.003161 -0.003911 0.000592 0.004156 0.032107 0.004326
# 6 0.008529 -0.001051 0.001816 -0.004199 0.004326 0.053479
#
#
# Mechanical properties :
#
#
# Convention : Reuss Voigt Hill
#
# Bulk Modulus (GPa) = 25.32969 31.10608 28.21789
# Shear Modulus (GPa) = 29.59442 36.23284 32.91363
#
# Velocity S-wave (km/s) = 3.62124 4.00686 3.81892
# Velocity P-wave (km/s) = 5.35800 5.93210 5.65234
#
# Compressibility (1/GPa) = 0.03947936
#
# Stress axis : x y z
#
# Youngs Moduli (GPa) = 57.54647 106.84051 89.56003
#
# Poissons Ratio (x) = 0.04311 -0.20948
# Poissons Ratio (y) = 0.02322 0.10274
# Poissons Ratio (z) = -0.13460 0.12257
#
# Static dielectric constant tensor:
#      x y z
#    x 1.848140 -0.027340 0.020540 
#    y -0.027340 1.841820 0.008120 
#    z 0.020540 0.008120 1.881130 
# 
# From -- ./inp_files/432239.got.cif
#   From: 2010.05.17/outbox.cif.g08.bks.cpg/sg2_217_cif.got.tgz:432239.got - 2010.06.03 11:33:40.
