data_PCOD9037429
_publ_section_title
;
Structure prediction by ZEFSAII (Michael W. Deem and Ramdas Pophale) SiO2 
 PCOD9037429
Probable space group: P -1
;
_chemical_formula_sum "Si O2"
_cell_formula_units_Z 16
_cell_length_a 11.061436
_cell_length_b 11.645424
_cell_length_c 12.474226
_cell_angle_alpha 120.191394
_cell_angle_beta 109.256674
_cell_angle_gamma 118.960899
_cell_volume 792.521183
_symmetry_space_group_name_H-M "P -1"
_symmetry_group_IT_number 2
_symmetry_cell_setting 'triclinic'
loop_
_space_group_symop_operation_xyz
x,y,z
-x,-y,-z
loop_
_atom_site_type_symbol
_atom_site_label
_atom_site_fract_x
_atom_site_fract_y
_atom_site_fract_z
Si Si1 0.496469 0.544077 0.691524
Si Si2 0.066715 0.173708 0.019854
Si Si3 0.971062 0.889216 0.697289
Si Si4 0.659832 0.626445 0.205243
Si Si5 0.889196 0.079077 0.486132
Si Si6 0.143553 0.761332 0.775380
Si Si7 0.358737 0.050529 0.165589
Si Si8 0.238250 0.749876 0.554322
O O1 0.282433 0.313352 0.468426
O O2 0.442354 0.526891 0.792673
O O3 0.557794 0.735219 0.745977
O O4 0.690785 0.601249 0.771706
O O5 0.067501 0.102981 0.871569
O O6 0.880576 0.126615 0.944905
O O7 0.000000 0.000000 0.000000
O O8 0.045465 0.914531 0.611985
O O9 0.045991 0.827288 0.761347
O O10 0.886599 0.743593 0.303291
O O11 0.725351 0.830275 0.356731
O O12 0.500000 0.500000 0.000000
O O13 0.792815 0.144622 0.476223
O O14 0.213711 0.770530 0.682799
O O15 0.957651 0.511282 0.644167
O O16 0.326164 0.931351 0.995523
O O17 0.534157 0.131674 0.331511
#
# Coordination Sequence:
#
# PCOD9037429 Si02
#       8
#     2   2   2   2   2   2   2   2
#     4  10  20  32  52  79 106 138 173 213 267 305
#     4  10  20  31  49  77 110 141 178 214 250 308
#     4  10  17  33  52  73 112 137 168 219 258 307
#     4  10  20  34  57  78 102 135 174 223 266 303
#     4   9  21  36  53  82 106 132 178 214 261 319
#     4  10  19  31  49  74 106 143 168 203 253 319
#     4  11  21  33  50  81 112 139 175 206 259 316
#     4  10  21  34  51  74 110 146 168 204 264 318
#
# _framework density 20.188734
#
# number of rings (size 3 to 8) (size 9 to 14) (size 15 to 20)
#    0.000    2.000    3.750    1.125    3.500    4.000 
#    0.000    0.000    0.000    0.750    0.000   13.125 
#    0.000    0.000    0.000    0.000    0.000    0.000 
#
# Total GULP energy -89276.470535 kJ/mol
# GULP energy per Si atom -5579.779408 kJ/mol
# Density = 2.014278 g / cm^3
# Si number density = 20.188734 Si / 1000 Ang^3
#
#
#
# Elastic Constant Matrix: (Units=GPa)
#
#
# Indices 1 2 3 4 5 6 
#
# 1 70.5848 17.4176 20.2627 -0.1021 25.2462 -17.8329
# 2 17.4176 47.9589 14.1128 -7.2827 12.8186 -21.2616
# 3 20.2627 14.1128 88.3169 -10.5385 29.1422 -12.1139
# 4 -0.1021 -7.2827 -10.5385 22.3941 -2.4809 5.3140
# 5 25.2462 12.8186 29.1422 -2.4809 40.3647 -7.4874
# 6 -17.8329 -21.2616 -12.1139 5.3140 -7.4874 25.5604
#
#
#
# Elastic Compliance Matrix: (Units=1/GPa)
#
#
# Indices 1 2 3 4 5 6 
#
# 1 0.021345 0.000265 0.000070 -0.004047 -0.011387 0.012652
# 2 0.000265 0.034769 0.000733 0.004623 -0.006522 0.026583
# 3 0.000070 0.000733 0.015929 0.005622 -0.010708 0.003902
# 4 -0.004047 0.004623 0.005622 0.050344 -0.001226 -0.007139
# 5 -0.011387 -0.006522 -0.010708 -0.001226 0.040446 -0.006341
# 6 0.012652 0.026583 0.003902 -0.007139 -0.006341 0.071538
#
#
# Mechanical properties :
#
#
# Convention : Reuss Voigt Hill
#
# Bulk Modulus (GPa) = 13.48071 34.49411 23.98741
# Shear Modulus (GPa) = 19.45819 28.00168 23.72993
#
# Velocity S-wave (km/s) = 3.10790 3.72828 3.43214
# Velocity P-wave (km/s) = 4.42387 5.97129 5.25485
#
# Compressibility (1/GPa) = 0.07418007
#
# Stress axis : x y z
#
# Youngs Moduli (GPa) = 46.84900 28.76107 62.77862
#
# Poissons Ratio (x) = -0.00763 -0.00441
# Poissons Ratio (y) = -0.01242 -0.04601
# Poissons Ratio (z) = -0.00329 -0.02108
#
# Static dielectric constant tensor:
#      x y z
#    x 1.756010 0.036480 0.000930 
#    y 0.036480 1.735240 -0.019920 
#    z 0.000930 -0.019920 1.741660 
# 
# From -- ./inp_files/431653.got.cif
#   From: 2010.05.17/outbox.cif.g08.bks.cpg/sg2_216_cif.got.tgz:431653.got - 2010.06.03 11:33:40.
