data_PCOD9037365
_publ_section_title
;
Structure prediction by ZEFSAII (Michael W. Deem and Ramdas Pophale) SiO2 
 PCOD9037365
Probable space group: P -1
;
_chemical_formula_sum "Si O2"
_cell_formula_units_Z 14
_cell_length_a 14.121352
_cell_length_b 8.723910
_cell_length_c 8.968787
_cell_angle_alpha 45.927477
_cell_angle_beta 114.369478
_cell_angle_gamma 87.230543
_cell_volume 620.967810
_symmetry_space_group_name_H-M "P -1"
_symmetry_group_IT_number 2
_symmetry_cell_setting 'triclinic'
loop_
_space_group_symop_operation_xyz
x,y,z
-x,-y,-z
loop_
_atom_site_type_symbol
_atom_site_label
_atom_site_fract_x
_atom_site_fract_y
_atom_site_fract_z
Si Si1 0.397042 0.759933 0.324533
Si Si2 0.301095 0.286180 0.777781
Si Si3 0.113721 0.440006 0.292026
Si Si4 0.062454 0.631964 0.579023
Si Si5 0.169985 0.935938 0.579219
Si Si6 0.152298 0.876094 0.953018
Si Si7 0.396725 0.623906 0.726661
O O1 0.500000 0.500000 0.500000
O O2 0.265200 0.791395 0.192245
O O3 0.420061 0.763158 0.513312
O O4 0.382749 0.999807 0.069705
O O5 0.237140 0.320925 0.553008
O O6 0.183743 0.432894 0.711223
O O7 0.376155 0.421475 0.764545
O O8 0.105506 0.684070 0.056663
O O9 0.001640 0.487891 0.290300
O O10 0.122720 0.227389 0.333006
O O11 0.090984 0.808876 0.579663
O O12 0.043997 0.151669 0.736816
O O13 0.278828 0.801337 0.625571
O O14 0.196572 0.887042 0.806778
O O15 0.500000 0.500000 0.000000
#
# Coordination Sequence:
#
# PCOD9037365 Si02
#       7
#     2   2   2   2   2   2   2
#     4  12  26  44  71  98 127 175 227 275 328 393
#     4  11  24  44  68 101 132 173 224 271 332 391
#     4  11  21  38  69  98 133 179 213 266 326 391
#     4  10  23  40  66 100 144 169 215 277 321 392
#     4  10  23  42  62 100 141 170 215 274 325 389
#     4  11  22  40  68 100 134 176 223 262 329 390
#     4  11  26  46  68  97 133 171 222 284 329 386
#
# _framework density 22.545453999999999
#
# number of rings (size 3 to 8) (size 9 to 14) (size 15 to 20)
#    0.000    1.143    4.286    3.000    0.000    9.714 
#    0.000    0.000    0.000    0.000    0.000    0.000 
#    0.000    0.000    0.000    0.000    0.000    0.000 
#
# Total GULP energy -78250.332688 kJ/mol
# GULP energy per Si atom -5589.309478 kJ/mol
# Density = 2.249414 g / cm^3
# Si number density = 22.545454 Si / 1000 Ang^3
#
#
#
# Elastic Constant Matrix: (Units=GPa)
#
#
# Indices 1 2 3 4 5 6 
#
# 1 40.8374 4.6940 7.0981 -12.8729 -9.5313 -2.6402
# 2 4.6940 93.0725 7.6454 -9.8080 0.3665 -3.0761
# 3 7.0981 7.6454 73.8095 -0.3787 -3.2942 -27.7425
# 4 -12.8729 -9.8080 -0.3787 48.2882 13.3852 8.1718
# 5 -9.5313 0.3665 -3.2942 13.3852 36.4129 -5.5825
# 6 -2.6402 -3.0761 -27.7425 8.1718 -5.5825 33.7355
#
#
#
# Elastic Compliance Matrix: (Units=1/GPa)
#
#
# Indices 1 2 3 4 5 6 
#
# 1 0.028010 -0.000588 -0.002683 0.006151 0.004715 -0.000778
# 2 -0.000588 0.011166 -0.001663 0.002781 -0.001645 -0.001342
# 3 -0.002683 -0.001663 0.021825 -0.006135 0.006636 0.020170
# 4 0.006151 0.002781 -0.006135 0.028212 -0.011340 -0.013020
# 5 0.004715 -0.001645 0.006636 -0.011340 0.035679 0.014327
# 6 -0.000778 -0.001342 0.020170 -0.013020 0.014327 0.051571
#
#
# Mechanical properties :
#
#
# Convention : Reuss Voigt Hill
#
# Bulk Modulus (GPa) = 19.55756 27.39940 23.47848
# Shear Modulus (GPa) = 24.58494 36.23944 30.41219
#
# Velocity S-wave (km/s) = 3.30580 4.01358 3.67676
# Velocity P-wave (km/s) = 4.82334 5.80153 5.33490
#
# Compressibility (1/GPa) = 0.05113113
#
# Stress axis : x y z
#
# Youngs Moduli (GPa) = 35.70091 89.55892 45.81964
#
# Poissons Ratio (x) = 0.05269 0.12294
# Poissons Ratio (y) = 0.02100 0.07622
# Poissons Ratio (z) = 0.09579 0.14898
#
# Static dielectric constant tensor:
#      x y z
#    x 1.859640 0.030260 0.012590 
#    y 0.030260 1.841450 0.029650 
#    z 0.012590 0.029650 1.870880 
# 
# From -- ./inp_files/195960.got.cif
#   From: 2010.05.17/outbox.cif.g08.bks.cpg/sg2_98_cif.got.tgz:195960.got - 2010.06.03 11:33:40.
