data_PCOD9037975
_publ_section_title
;
Structure prediction by ZEFSAII (Michael W. Deem and Ramdas Pophale) SiO2 
 PCOD9037975
Probable space group: P -1
;
_chemical_formula_sum "Si O2"
_cell_formula_units_Z 16
_cell_length_a 5.590603
_cell_length_b 15.876142
_cell_length_c 14.045812
_cell_angle_alpha 35.100518
_cell_angle_beta 68.218123
_cell_angle_gamma 77.255395
_cell_volume 657.579952
_symmetry_space_group_name_H-M "P -1"
_symmetry_group_IT_number 2
_symmetry_cell_setting 'triclinic'
loop_
_space_group_symop_operation_xyz
x,y,z
-x,-y,-z
loop_
_atom_site_type_symbol
_atom_site_label
_atom_site_fract_x
_atom_site_fract_y
_atom_site_fract_z
Si Si1 0.684558 0.565565 0.731272
Si Si2 0.550832 0.966057 0.632193
Si Si3 0.430579 0.898818 0.195088
Si Si4 0.769354 0.672711 0.922279
Si Si5 0.075216 0.329989 0.883148
Si Si6 0.436032 0.613955 0.545631
Si Si7 0.114081 0.990534 0.822938
Si Si8 0.933173 0.248597 0.375005
O O1 0.686306 0.612881 0.576327
O O2 0.852395 0.431869 0.831078
O O3 0.798787 0.705655 0.648638
O O4 0.416178 0.483903 0.892311
O O5 0.613427 0.801773 0.790907
O O6 0.291661 0.984468 0.710160
O O7 0.500000 0.000000 0.500000
O O8 0.794950 0.082608 0.528294
O O9 0.429314 0.722376 0.358303
O O10 0.668775 0.946797 0.189261
O O11 0.136627 0.929275 0.233491
O O12 0.500000 0.000000 0.000000
O O13 0.996986 0.676887 0.807183
O O14 0.861202 0.713063 0.978708
O O15 0.316321 0.444657 0.701451
O O16 0.997880 0.179870 0.975992
O O17 0.258973 0.679699 0.592622
#
# Coordination Sequence:
#
# PCOD9037975 Si02
#       8
#     2   2   2   2   2   2   2   2
#     4  10  23  41  65  94 142 195 249 291 355 428
#     4  12  26  40  66 104 148 195 244 296 357 446
#     4  12  29  52  81 112 142 186 248 310 374 441
#     4  11  23  40  60  98 147 194 254 289 351 431
#     4  10  23  43  68 101 140 193 233 296 359 438
#     4  10  25  42  71 100 140 185 240 300 363 430
#     4  12  26  50  78 106 149 196 237 304 377 425
#     4  11  24  38  62  97 137 200 240 303 348 416
#
# _framework density 24.331641999999999
#
# number of rings (size 3 to 8) (size 9 to 14) (size 15 to 20)
#    0.000    1.000    2.500    2.625    8.750    4.500 
#    0.000    1.250    0.000    0.000    0.000    0.000 
#    0.000    0.000    0.000    0.000    0.000    0.000 
#
# Total GULP energy -89458.181919 kJ/mol
# GULP energy per Si atom -5591.136370 kJ/mol
# Density = 2.427626 g / cm^3
# Si number density = 24.331642 Si / 1000 Ang^3
#
#
#
# Elastic Constant Matrix: (Units=GPa)
#
#
# Indices 1 2 3 4 5 6 
#
# 1 123.4675 34.1566 54.7518 -14.0370 7.9060 3.1462
# 2 34.1566 44.8260 25.0208 -7.7524 -3.1414 -9.3700
# 3 54.7518 25.0208 160.2004 -6.3515 15.3113 6.4160
# 4 -14.0370 -7.7524 -6.3515 34.9972 9.3054 -9.8105
# 5 7.9060 -3.1414 15.3113 9.3054 54.2457 -15.9581
# 6 3.1462 -9.3700 6.4160 -9.8105 -15.9581 24.2492
#
#
#
# Elastic Compliance Matrix: (Units=1/GPa)
#
#
# Indices 1 2 3 4 5 6 
#
# 1 0.012267 -0.009719 -0.001944 0.001572 -0.004100 -0.006894
# 2 -0.009719 0.041764 -0.005291 0.009721 0.012833 0.031176
# 3 -0.001944 -0.005291 0.008391 -0.001354 -0.004341 -0.007417
# 4 0.001572 0.009721 -0.001354 0.036333 -0.000052 0.018575
# 5 -0.004100 0.012833 -0.004341 -0.000052 0.028468 0.025352
# 6 -0.006894 0.031176 -0.007417 0.018575 0.025352 0.080341
#
#
# Mechanical properties :
#
#
# Convention : Reuss Voigt Hill
#
# Bulk Modulus (GPa) = 35.06954 61.81694 48.44324
# Shear Modulus (GPa) = 19.92211 37.00271 28.46241
#
# Velocity S-wave (km/s) = 2.86453 3.90393 3.42390
# Velocity P-wave (km/s) = 5.03836 6.76624 5.96520
#
# Compressibility (1/GPa) = 0.02851477
#
# Stress axis : x y z
#
# Youngs Moduli (GPa) = 81.51939 23.94383 119.16960
#
# Poissons Ratio (x) = 0.23270 0.23171
# Poissons Ratio (y) = 0.79225 0.63054
# Poissons Ratio (z) = 0.15850 0.12669
#
# Static dielectric constant tensor:
#      x y z
#    x 2.041240 -0.003130 -0.022900 
#    y -0.003130 1.918470 0.000500 
#    z -0.022900 0.000500 2.014430 
# 
# From -- ./inp_files/485125.got.cif
#   From: 2010.05.17/outbox.cif.g08.bks.cpg/sg2_243_cif.got.tgz:485125.got - 2010.06.03 11:33:40.
