data_PCOD9037413
_publ_section_title
;
Structure prediction by ZEFSAII (Michael W. Deem and Ramdas Pophale) SiO2 
 PCOD9037413
Probable space group: P -1
;
_chemical_formula_sum "Si O2"
_cell_formula_units_Z 16
_cell_length_a 11.989021
_cell_length_b 13.539315
_cell_length_c 10.887909
_cell_angle_alpha 98.984848
_cell_angle_beta 69.124981
_cell_angle_gamma 37.242700
_cell_volume 628.081607
_symmetry_space_group_name_H-M "P -1"
_symmetry_group_IT_number 2
_symmetry_cell_setting 'triclinic'
loop_
_space_group_symop_operation_xyz
x,y,z
-x,-y,-z
loop_
_atom_site_type_symbol
_atom_site_label
_atom_site_fract_x
_atom_site_fract_y
_atom_site_fract_z
Si Si1 0.308779 0.990338 0.762049
Si Si2 0.504173 0.785821 0.985595
Si Si3 0.426257 0.032950 0.210636
Si Si4 0.384599 0.928145 0.449721
Si Si5 0.764284 0.495781 0.584704
Si Si6 0.844631 0.234291 0.369611
Si Si7 0.620069 0.573276 0.151254
Si Si8 0.182624 0.779173 0.248142
O O1 0.417412 0.983898 0.822186
O O2 0.416942 0.944932 0.576687
O O3 0.466774 0.762579 0.678756
O O4 0.941655 0.268676 0.962206
O O5 0.565819 0.676085 0.065787
O O6 0.566889 0.850978 0.016872
O O7 0.706841 0.579692 0.760598
O O8 0.140691 0.052800 0.144763
O O9 0.062574 0.323472 0.382809
O O10 0.426103 0.971244 0.328704
O O11 0.615543 0.657770 0.277268
O O12 0.050348 0.131336 0.620042
O O13 0.820627 0.335789 0.507384
O O14 0.500000 0.500000 0.500000
O O15 0.982807 0.017630 0.300839
O O16 0.332928 0.719808 0.294693
O O17 0.500000 0.500000 0.000000
#
# Coordination Sequence:
#
# PCOD9037413 Si02
#       8
#     2   2   2   2   2   2   2   2
#     4  12  24  40  66 103 134 175 230 281 337 399
#     4   9  22  44  64  93 133 180 225 272 338 404
#     4  10  24  43  67  95 133 182 227 282 332 403
#     4  11  23  43  68  96 136 174 222 282 342 396
#     4  11  24  42  66  91 137 183 220 273 343 407
#     4  10  23  42  64  98 138 178 221 277 339 410
#     4  10  23  40  66  97 132 174 224 280 334 400
#     4  11  22  42  70  99 136 175 223 282 337 404
#
# _framework density 25.474398000000001
#
# number of rings (size 3 to 8) (size 9 to 14) (size 15 to 20)
#    0.000    1.500    1.250    3.375    1.750    7.000 
#    0.000    0.000    0.000    0.000    0.000    0.000 
#    0.000    0.000    0.000    0.000    0.000    0.000 
#
# Total GULP energy -89540.876359 kJ/mol
# GULP energy per Si atom -5596.304772 kJ/mol
# Density = 2.541642 g / cm^3
# Si number density = 25.474398 Si / 1000 Ang^3
#
#
#
# Elastic Constant Matrix: (Units=GPa)
#
#
# Indices 1 2 3 4 5 6 
#
# 1 111.3391 32.7277 30.2459 3.2162 22.1443 2.0961
# 2 32.7277 108.2485 41.1171 35.5699 -4.9908 1.2827
# 3 30.2459 41.1171 142.1465 13.9307 25.7349 1.7712
# 4 3.2162 35.5699 13.9307 45.3538 -0.4844 0.3718
# 5 22.1443 -4.9908 25.7349 -0.4844 29.2518 -4.7073
# 6 2.0961 1.2827 1.7712 0.3718 -4.7073 43.0688
#
#
#
# Elastic Compliance Matrix: (Units=1/GPa)
#
#
# Indices 1 2 3 4 5 6 
#
# 1 0.012660 -0.005661 0.000716 0.003215 -0.011409 -0.001752
# 2 -0.005661 0.016950 -0.004644 -0.011356 0.011284 0.001293
# 3 0.000716 -0.004644 0.010097 0.000391 -0.010445 -0.001457
# 4 0.003215 -0.011356 0.000391 0.030566 -0.004300 -0.000568
# 5 -0.011409 0.011284 -0.010445 -0.004300 0.054943 0.006691
# 6 -0.001752 0.001293 -0.001457 -0.000568 0.006691 0.024062
#
#
# Mechanical properties :
#
#
# Convention : Reuss Voigt Hill
#
# Bulk Modulus (GPa) = 48.71409 63.32392 56.01901
# Shear Modulus (GPa) = 28.52260 40.71112 34.61686
#
# Velocity S-wave (km/s) = 3.34976 4.00199 3.69031
# Velocity P-wave (km/s) = 5.84170 6.80194 6.34002
#
# Compressibility (1/GPa) = 0.02052794
#
# Stress axis : x y z
#
# Youngs Moduli (GPa) = 78.98663 58.99673 99.03865
#
# Poissons Ratio (x) = 0.33400 -0.07091
# Poissons Ratio (y) = 0.44717 0.45998
# Poissons Ratio (z) = -0.05655 0.27401
#
# Static dielectric constant tensor:
#      x y z
#    x 1.990280 0.016230 0.016080 
#    y 0.016230 2.056950 -0.061150 
#    z 0.016080 -0.061150 2.010370 
# 
# From -- ./inp_files/433095.got.cif
#   From: 2010.05.17/outbox.cif.g08.bks.cpg/sg2_217_cif.got.tgz:433095.got - 2010.06.03 11:33:40.
