data_PCOD9037891
_publ_section_title
;
Structure prediction by ZEFSAII (Michael W. Deem and Ramdas Pophale) SiO2 
 PCOD9037891
Probable space group: P -1
;
_chemical_formula_sum "Si O2"
_cell_formula_units_Z 16
_cell_length_a 6.184781
_cell_length_b 23.706528
_cell_length_c 7.459540
_cell_angle_alpha 55.398675
_cell_angle_beta 109.589247
_cell_angle_gamma 74.498910
_cell_volume 684.713453
_symmetry_space_group_name_H-M "P -1"
_symmetry_group_IT_number 2
_symmetry_cell_setting 'triclinic'
loop_
_space_group_symop_operation_xyz
x,y,z
-x,-y,-z
loop_
_atom_site_type_symbol
_atom_site_label
_atom_site_fract_x
_atom_site_fract_y
_atom_site_fract_z
Si Si1 0.317059 0.185967 0.362789
Si Si2 0.888445 0.759360 0.392580
Si Si3 0.705329 0.112077 0.100039
Si Si4 0.829466 0.519935 0.600175
Si Si5 0.183068 0.574330 0.726649
Si Si6 0.180755 0.628186 0.221345
Si Si7 0.903964 0.132181 0.744686
Si Si8 0.211795 0.053951 0.610835
O O1 0.214551 0.202190 0.509569
O O2 0.613020 0.173728 0.476211
O O3 0.348287 0.099549 0.487877
O O4 0.065642 0.272186 0.042390
O O5 0.074512 0.659738 0.644742
O O6 0.055265 0.796882 0.306395
O O7 0.596186 0.796479 0.138791
O O8 0.916307 0.096426 0.343564
O O9 0.862451 0.096452 0.980259
O O10 0.629432 0.044818 0.208077
O O11 0.501442 0.597500 0.336254
O O12 0.851788 0.434480 0.797766
O O13 0.000000 0.500000 0.500000
O O14 0.975095 0.546014 0.731449
O O15 0.179539 0.600659 0.472857
O O16 0.500000 0.500000 0.000000
O O17 0.144031 0.069406 0.778396
#
# Coordination Sequence:
#
# PCOD9037891 Si02
#       8
#     2   2   2   2   2   2   2   2
#     4  10  24  40  66  93 127 166 213 259 315 382
#     4  10  25  41  62  93 132 164 212 267 313 378
#     4  10  23  43  65  96 129 169 215 264 317 379
#     4   9  22  41  62  87 117 161 206 260 305 378
#     4  11  26  40  63  94 126 164 208 265 315 374
#     4  10  23  41  66  90 120 168 210 257 319 380
#     4  10  23  41  64  94 130 175 208 261 318 378
#     4  10  23  41  67  96 129 167 216 264 314 382
#
# _framework density 23.367439999999998
#
# number of rings (size 3 to 8) (size 9 to 14) (size 15 to 20)
#    0.000    2.000    0.000    0.375   12.250    9.000 
#    0.000    2.500    0.000    0.000    0.000    0.000 
#    0.000    0.000    0.000    0.000    0.000    0.000 
#
# Total GULP energy -89421.055735 kJ/mol
# GULP energy per Si atom -5588.815983 kJ/mol
# Density = 2.331425 g / cm^3
# Si number density = 23.367440 Si / 1000 Ang^3
#
#
#
# Elastic Constant Matrix: (Units=GPa)
#
#
# Indices 1 2 3 4 5 6 
#
# 1 72.2087 14.7837 19.5017 1.9647 5.7542 13.1618
# 2 14.7837 56.6668 -5.3330 0.1996 -5.3031 19.3002
# 3 19.5017 -5.3330 84.3474 0.4135 -5.9931 5.8125
# 4 1.9647 0.1996 0.4135 28.7072 2.0375 2.8428
# 5 5.7542 -5.3031 -5.9931 2.0375 21.7092 4.2242
# 6 13.1618 19.3002 5.8125 2.8428 4.2242 39.0781
#
#
#
# Elastic Compliance Matrix: (Units=1/GPa)
#
#
# Indices 1 2 3 4 5 6 
#
# 1 0.016940 -0.004799 -0.004547 -0.000408 -0.006504 -0.001926
# 2 -0.004799 0.024508 0.004272 0.000552 0.010785 -0.012329
# 3 -0.004547 0.004272 0.013889 -0.000064 0.006745 -0.003369
# 4 -0.000408 0.000552 -0.000064 0.035284 -0.002617 -0.002410
# 5 -0.006504 0.010785 0.006745 -0.002617 0.054443 -0.009834
# 6 -0.001926 -0.012329 -0.003369 -0.002410 -0.009834 0.034067
#
#
# Mechanical properties :
#
#
# Convention : Reuss Voigt Hill
#
# Bulk Modulus (GPa) = 22.12933 30.12528 26.12730
# Shear Modulus (GPa) = 24.46891 30.18360 27.32625
#
# Velocity S-wave (km/s) = 3.23946 3.59791 3.42338
# Velocity P-wave (km/s) = 4.84591 5.49363 5.17990
#
# Compressibility (1/GPa) = 0.04518890
#
# Stress axis : x y z
#
# Youngs Moduli (GPa) = 59.03234 40.80373 71.99985
#
# Poissons Ratio (x) = 0.19580 0.32741
# Poissons Ratio (y) = 0.28327 -0.30760
# Poissons Ratio (z) = 0.26844 -0.17432
#
# Static dielectric constant tensor:
#      x y z
#    x 1.941410 -0.052280 0.039790 
#    y -0.052280 2.135450 -0.064890 
#    z 0.039790 -0.064890 1.943980 
# 
# From -- ./inp_files/53407.got.cif
#   From: 2010.05.17/outbox.cif.g08.bks.cpg/sg2_27_cif.got.tgz:53407.got - 2010.06.03 11:33:40.
