data_PCOD9037706
_publ_section_title
;
Structure prediction by ZEFSAII (Michael W. Deem and Ramdas Pophale) SiO2 
 PCOD9037706
Probable space group: P -1
;
_chemical_formula_sum "Si O2"
_cell_formula_units_Z 10
_cell_length_a 10.596517
_cell_length_b 8.512129
_cell_length_c 10.695701
_cell_angle_alpha 47.487137
_cell_angle_beta 140.779849
_cell_angle_gamma 121.948436
_cell_volume 449.619170
_symmetry_space_group_name_H-M "P -1"
_symmetry_group_IT_number 2
_symmetry_cell_setting 'triclinic'
loop_
_space_group_symop_operation_xyz
x,y,z
-x,-y,-z
loop_
_atom_site_type_symbol
_atom_site_label
_atom_site_fract_x
_atom_site_fract_y
_atom_site_fract_z
Si Si1 0.429021 0.729857 0.771458
Si Si2 0.786904 0.533336 0.757144
Si Si3 0.658991 0.907826 0.071423
Si Si4 0.922827 0.996172 0.583598
Si Si5 0.609557 0.469390 0.400371
O O1 0.434040 0.716599 0.632719
O O2 0.204446 0.795163 0.598587
O O3 0.500000 0.500000 0.000000
O O4 0.565216 0.890013 0.871554
O O5 0.781476 0.789887 0.600497
O O6 0.603194 0.464799 0.740049
O O7 0.751114 0.431801 0.647821
O O8 0.000000 0.500000 0.000000
O O9 0.696185 0.669489 0.281467
O O10 0.873730 0.021214 0.172443
O O11 0.500000 0.000000 0.000000
O O12 0.000000 0.000000 0.500000
#
# Coordination Sequence:
#
# PCOD9037706 Si02
#       5
#     2   2   2   2   2
#     4  10  24  40  66  97 130 164 212 272 314 367
#     4  11  24  41  66  91 131 171 206 261 322 380
#     4  11  20  39  68  93 126 167 215 260 314 376
#     4  12  23  41  67  96 125 168 222 255 309 387
#     4  10  23  41  60  92 130 166 211 256 322 373
#
# _framework density 22.241046999999998
#
# number of rings (size 3 to 8) (size 9 to 14) (size 15 to 20)
#    0.000    1.200    4.000    1.200    2.800    7.200 
#    0.000    2.000    0.000    0.000    0.000    0.000 
#    0.000    0.000    0.000    0.000    0.000    0.000 
#
# Total GULP energy -55854.639194 kJ/mol
# GULP energy per Si atom -5585.463919 kJ/mol
# Density = 2.219042 g / cm^3
# Si number density = 22.241047 Si / 1000 Ang^3
#
#
#
# Elastic Constant Matrix: (Units=GPa)
#
#
# Indices 1 2 3 4 5 6 
#
# 1 93.1547 41.2435 34.1683 17.9504 -12.5000 -38.7400
# 2 41.2435 107.5558 35.5952 33.2035 -12.4829 -25.3026
# 3 34.1683 35.5952 129.2173 27.3461 2.1687 -31.9917
# 4 17.9504 33.2035 27.3461 54.2269 -10.2360 -17.5475
# 5 -12.5000 -12.4829 2.1687 -10.2360 21.5951 5.8550
# 6 -38.7400 -25.3026 -31.9917 -17.5475 5.8550 62.5529
#
#
#
# Elastic Compliance Matrix: (Units=1/GPa)
#
#
# Indices 1 2 3 4 5 6 
#
# 1 0.016903 -0.003696 -0.001921 0.001355 0.006375 0.007775
# 2 -0.003696 0.013367 -0.001457 -0.005483 0.002984 0.000555
# 3 -0.001921 -0.001457 0.010261 -0.003745 -0.005556 0.002939
# 4 0.001355 -0.005483 -0.003745 0.026040 0.009487 0.003123
# 5 0.006375 0.002984 -0.005556 0.009487 0.056871 -0.000348
# 6 0.007775 0.000555 0.002939 0.003123 -0.000348 0.023438
#
#
# Mechanical properties :
#
#
# Convention : Reuss Voigt Hill
#
# Bulk Modulus (GPa) = 37.90056 61.32687 49.61372
# Shear Modulus (GPa) = 29.44288 42.26970 35.85629
#
# Velocity S-wave (km/s) = 3.64236 4.36423 4.01954
# Velocity P-wave (km/s) = 5.89635 7.28210 6.62555
#
# Compressibility (1/GPa) = 0.02638483
#
# Stress axis : x y z
#
# Youngs Moduli (GPa) = 59.16124 74.81381 97.45225
#
# Poissons Ratio (x) = 0.27648 0.18716
# Poissons Ratio (y) = 0.21863 0.14199
# Poissons Ratio (z) = 0.11362 0.10900
#
# Static dielectric constant tensor:
#      x y z
#    x 1.774690 -0.024940 -0.028810 
#    y -0.024940 1.884070 -0.014810 
#    z -0.028810 -0.014810 1.849430 
# 
# From -- ./inp_files/149026.got.cif
#   From: 2010.05.17/outbox.cif.g08.bks.cpg/sg2_75_cif.got.tgz:149026.got - 2010.06.03 11:33:40.
