data_PCOD9037165
_publ_section_title
;
Structure prediction by ZEFSAII (Michael W. Deem and Ramdas Pophale) SiO2 
 PCOD9037165
Probable space group: P -1
;
_chemical_formula_sum "Si O2"
_cell_formula_units_Z 16
_cell_length_a 15.828981
_cell_length_b 8.835445
_cell_length_c 8.997675
_cell_angle_alpha 53.215192
_cell_angle_beta 124.179412
_cell_angle_gamma 133.457366
_cell_volume 706.823506
_symmetry_space_group_name_H-M "P -1"
_symmetry_group_IT_number 2
_symmetry_cell_setting 'triclinic'
loop_
_space_group_symop_operation_xyz
x,y,z
-x,-y,-z
loop_
_atom_site_type_symbol
_atom_site_label
_atom_site_fract_x
_atom_site_fract_y
_atom_site_fract_z
Si Si1 0.176442 0.670833 0.909139
Si Si2 0.755581 0.962898 0.037522
Si Si3 0.514805 0.861563 0.725284
Si Si4 0.192693 0.038769 0.239707
Si Si5 0.642580 0.478229 0.737242
Si Si6 0.726127 0.240955 0.348719
Si Si7 0.047251 0.363549 0.716452
Si Si8 0.579911 0.571339 0.302113
O O1 0.235162 0.820770 0.730217
O O2 0.067619 0.445610 0.860228
O O3 0.277228 0.625524 0.092794
O O4 0.151899 0.807314 0.923498
O O5 0.641412 0.976225 0.862795
O O6 0.804334 0.925555 0.954619
O O7 0.694172 0.765185 0.213481
O O8 0.407258 0.813321 0.756360
O O9 0.489490 0.633574 0.760375
O O10 0.500000 0.000000 0.500000
O O11 0.275610 0.269293 0.269187
O O12 0.247655 0.884886 0.423053
O O13 0.054457 0.893136 0.243585
O O14 0.616661 0.486843 0.533005
O O15 0.515527 0.369050 0.763586
O O16 0.816880 0.510096 0.286412
O O17 0.000000 0.500000 0.500000
#
# Coordination Sequence:
#
# PCOD9037165 Si02
#       8
#     2   2   2   2   2   2   2   2
#     4  10  23  40  62  95 117 165 206 258 297 365
#     4  12  24  36  63  95 127 160 201 253 316 366
#     4  12  21  37  63  94 127 159 203 254 313 362
#     4  11  21  40  66  89 122 166 203 254 310 361
#     4  11  23  41  62  88 130 164 210 245 305 374
#     4   9  20  39  62  88 121 161 204 248 304 366
#     4   8  20  41  66  86 117 164 212 251 302 366
#     4  11  25  39  59  92 133 168 197 251 309 372
#
# _framework density 22.636486999999999
#
# number of rings (size 3 to 8) (size 9 to 14) (size 15 to 20)
#    0.750    0.750    2.500    2.625    1.750    5.000 
#    0.000    0.000    0.000    1.500    0.000    0.000 
#    0.000    0.000    0.000    0.000    0.000    0.000 
#
# Total GULP energy -89308.296477 kJ/mol
# GULP energy per Si atom -5581.768530 kJ/mol
# Density = 2.258497 g / cm^3
# Si number density = 22.636487 Si / 1000 Ang^3
#
#
#
# Elastic Constant Matrix: (Units=GPa)
#
#
# Indices 1 2 3 4 5 6 
#
# 1 21.5110 1.3233 5.5743 -9.2360 -9.4399 1.8622
# 2 1.3233 66.7890 -0.0684 9.3241 -8.7694 -1.9871
# 3 5.5743 -0.0684 96.5546 -0.9651 -5.2075 -11.0279
# 4 -9.2360 9.3241 -0.9651 33.3772 3.3440 -6.5292
# 5 -9.4399 -8.7694 -5.2075 3.3440 30.9825 2.0205
# 6 1.8622 -1.9871 -11.0279 -6.5292 2.0205 23.6762
#
#
#
# Elastic Compliance Matrix: (Units=1/GPa)
#
#
# Indices 1 2 3 4 5 6 
#
# 1 0.061222 -0.001237 -0.002909 0.014855 0.016445 -0.003581
# 2 -0.001237 0.016398 0.000255 -0.005475 0.004920 -0.000337
# 3 -0.002909 0.000255 0.011198 0.000465 0.000657 0.005538
# 4 0.014855 -0.005475 0.000465 0.037549 -0.001590 0.009080
# 5 0.016445 0.004920 0.000657 -0.001590 0.039246 -0.004362
# 6 -0.003581 -0.000337 0.005538 0.009080 -0.004362 0.047945
#
#
# Mechanical properties :
#
#
# Convention : Reuss Voigt Hill
#
# Bulk Modulus (GPa) = 12.34028 22.05700 17.19864
# Shear Modulus (GPa) = 20.13276 29.47555 24.80415
#
# Velocity S-wave (km/s) = 2.98551 3.61241 3.31382
# Velocity P-wave (km/s) = 4.16505 5.21196 4.71764
#
# Compressibility (1/GPa) = 0.08103546
#
# Stress axis : x y z
#
# Youngs Moduli (GPa) = 16.33395 60.98475 89.30545
#
# Poissons Ratio (x) = 0.07545 0.25978
# Poissons Ratio (y) = 0.02021 -0.02279
# Poissons Ratio (z) = 0.04751 -0.01556
#
# Static dielectric constant tensor:
#      x y z
#    x 1.854820 0.005420 -0.011350 
#    y 0.005420 1.869190 -0.022990 
#    z -0.011350 -0.022990 1.833550 
# 
# From -- ./inp_files/325815.got.cif
#   From: 2010.05.17/outbox.cif.g08.bks.cpg/sg2_163_cif.got.tgz:325815.got - 2010.06.03 11:33:40.
