data_PCOD9037630
_publ_section_title
;
Structure prediction by ZEFSAII (Michael W. Deem and Ramdas Pophale) SiO2 
 PCOD9037630
Probable space group: P -1
;
_chemical_formula_sum "Si O2"
_cell_formula_units_Z 16
_cell_length_a 19.427696
_cell_length_b 11.500875
_cell_length_c 8.217972
_cell_angle_alpha 88.984424
_cell_angle_beta 63.327382
_cell_angle_gamma 144.979251
_cell_volume 621.273524
_symmetry_space_group_name_H-M "P -1"
_symmetry_group_IT_number 2
_symmetry_cell_setting 'triclinic'
loop_
_space_group_symop_operation_xyz
x,y,z
-x,-y,-z
loop_
_atom_site_type_symbol
_atom_site_label
_atom_site_fract_x
_atom_site_fract_y
_atom_site_fract_z
Si Si1 0.616948 0.239189 0.235345
Si Si2 0.885044 0.456241 0.739917
Si Si3 0.060054 0.654046 0.091303
Si Si4 0.932136 0.688438 0.398593
Si Si5 0.626300 0.671323 0.600177
Si Si6 0.494346 0.301848 0.504571
Si Si7 0.482019 0.806667 0.007413
Si Si8 0.729732 0.735424 0.815308
O O1 0.628921 0.383545 0.298320
O O2 0.500000 0.000000 0.500000
O O3 0.811433 0.439031 0.963662
O O4 0.509042 0.116196 0.178972
O O5 0.013423 0.533183 0.681487
O O6 0.985855 0.675399 0.489900
O O7 0.685257 0.118966 0.880011
O O8 0.978741 0.672199 0.195322
O O9 0.000000 0.500000 0.000000
O O10 0.305364 0.997770 0.822593
O O11 0.701570 0.401155 0.680379
O O12 0.073613 0.996664 0.283433
O O13 0.625265 0.576017 0.460973
O O14 0.620226 0.787537 0.516177
O O15 0.775462 0.844620 0.582185
O O16 0.410981 0.370850 0.932788
O O17 0.404233 0.567884 0.057403
#
# Coordination Sequence:
#
# PCOD9037630 Si02
#       8
#     2   2   2   2   2   2   2   2
#     4  11  22  39  69  99 136 173 232 277 335 402
#     4  11  26  45  69  99 135 186 233 273 344 415
#     4  12  27  41  67 100 141 178 219 293 349 401
#     4  11  25  44  66 102 138 174 233 284 341 404
#     4  10  23  40  70  97 131 185 227 281 339 418
#     4  11  22  43  65  99 137 174 232 277 345 408
#     4  11  25  45  73  97 136 189 230 281 337 413
#     4  11  22  42  69  98 134 178 235 281 337 401
#
# _framework density 25.753551000000002
#
# number of rings (size 3 to 8) (size 9 to 14) (size 15 to 20)
#    0.000    1.000    3.750    3.000    7.000    0.000 
#    0.000    0.000    0.000    2.250    0.000    0.000 
#    0.000    0.000    0.000    0.000    0.000    0.000 
#
# Total GULP energy -89504.263638 kJ/mol
# GULP energy per Si atom -5594.016477 kJ/mol
# Density = 2.569493 g / cm^3
# Si number density = 25.753551 Si / 1000 Ang^3
#
#
#
# Elastic Constant Matrix: (Units=GPa)
#
#
# Indices 1 2 3 4 5 6 
#
# 1 84.8970 34.2962 15.5873 12.3211 10.5782 -14.8760
# 2 34.2962 159.5953 32.8192 16.1455 -20.5440 -24.9623
# 3 15.5873 32.8192 95.0689 26.8231 -10.6881 -12.6719
# 4 12.3211 16.1455 26.8231 42.0950 -15.2541 -10.4023
# 5 10.5782 -20.5440 -10.6881 -15.2541 43.2159 13.6131
# 6 -14.8760 -24.9623 -12.6719 -10.4023 13.6131 37.9677
#
#
#
# Elastic Compliance Matrix: (Units=1/GPa)
#
#
# Indices 1 2 3 4 5 6 
#
# 1 0.016039 -0.003098 -0.000343 -0.005130 -0.009191 0.006023
# 2 -0.003098 0.008063 -0.001790 0.000892 0.003706 0.002405
# 3 -0.000343 -0.001790 0.013468 -0.007678 -0.000548 0.001277
# 4 -0.005130 0.000892 -0.007678 0.034285 0.011475 0.001293
# 5 -0.009191 0.003706 -0.000548 0.011475 0.034384 -0.010532
# 6 0.006023 0.002405 0.001277 0.001293 -0.010532 0.034836
#
#
# Mechanical properties :
#
#
# Convention : Reuss Voigt Hill
#
# Bulk Modulus (GPa) = 36.89203 56.10741 46.49972
# Shear Modulus (GPa) = 31.13865 41.77962 36.45913
#
# Velocity S-wave (km/s) = 3.48099 4.03213 3.76665
# Velocity P-wave (km/s) = 5.52381 6.59629 6.08373
#
# Compressibility (1/GPa) = 0.02710613
#
# Stress axis : x y z
#
# Youngs Moduli (GPa) = 62.34931 124.02774 74.25195
#
# Poissons Ratio (x) = 0.38427 0.02549
# Poissons Ratio (y) = 0.19317 0.13290
# Poissons Ratio (z) = 0.02141 0.22199
#
# Static dielectric constant tensor:
#      x y z
#    x 2.101390 0.009210 0.031540 
#    y 0.009210 2.075680 -0.010610 
#    z 0.031540 -0.010610 2.038150 
# 
# From -- ./inp_files/353572.got.cif
#   From: 2010.05.17/outbox.cif.g08.bks.cpg/sg2_177_cif.got.tgz:353572.got - 2010.06.03 11:33:40.
