data_PCOD9037874
_publ_section_title
;
Structure prediction by ZEFSAII (Michael W. Deem and Ramdas Pophale) SiO2 
 PCOD9037874
Probable space group: P -1
;
_chemical_formula_sum "Si O2"
_cell_formula_units_Z 16
_cell_length_a 7.670149
_cell_length_b 12.251688
_cell_length_c 10.024301
_cell_angle_alpha 114.700490
_cell_angle_beta 107.756514
_cell_angle_gamma 112.200447
_cell_volume 661.619178
_symmetry_space_group_name_H-M "P -1"
_symmetry_group_IT_number 2
_symmetry_cell_setting 'triclinic'
loop_
_space_group_symop_operation_xyz
x,y,z
-x,-y,-z
loop_
_atom_site_type_symbol
_atom_site_label
_atom_site_fract_x
_atom_site_fract_y
_atom_site_fract_z
Si Si1 0.293041 0.157831 0.493140
Si Si2 0.449659 0.840783 0.944708
Si Si3 0.960832 0.296105 0.843761
Si Si4 0.733981 0.453477 0.761082
Si Si5 0.224453 0.153708 0.178114
Si Si6 0.516151 0.943529 0.296114
Si Si7 0.073654 0.360693 0.339389
Si Si8 0.969931 0.223417 0.520455
O O1 0.469341 0.333307 0.653774
O O2 0.302887 0.132860 0.327634
O O3 0.374942 0.082112 0.565689
O O4 0.049299 0.120078 0.445327
O O5 0.589281 0.803965 0.867023
O O6 0.184321 0.720990 0.806021
O O7 0.518316 0.858950 0.124065
O O8 0.500000 0.000000 0.000000
O O9 0.851063 0.378597 0.807299
O O10 0.750017 0.144432 0.781286
O O11 0.047429 0.272699 0.714823
O O12 0.150506 0.397291 0.048947
O O13 0.784799 0.488593 0.633770
O O14 0.165027 0.268517 0.256980
O O15 0.000000 0.000000 0.000000
O O16 0.696872 0.118370 0.400293
O O17 0.067185 0.348011 0.491852
#
# Coordination Sequence:
#
# PCOD9037874 Si02
#       8
#     2   2   2   2   2   2   2   2
#     4  10  25  44  64  94 136 169 216 272 321 397
#     4  12  22  40  68  98 132 171 215 268 337 387
#     4  10  23  41  64  91 129 173 216 268 319 387
#     4  10  23  45  60  88 135 173 218 264 315 390
#     4  11  24  43  67  98 134 169 214 277 332 383
#     4  11  22  41  65  98 132 164 215 277 326 391
#     4  11  24  43  65  97 133 168 224 267 319 398
#     4  11  23  39  65  99 124 168 219 273 336 379
#
# _framework density 24.183097
#
# number of rings (size 3 to 8) (size 9 to 14) (size 15 to 20)
#    0.000    1.250    3.750    1.500    3.500    6.000 
#    2.250    0.000    0.000    0.000    0.000    0.000 
#    0.000    0.000    0.000    0.000    0.000    0.000 
#
# Total GULP energy -89530.615594 kJ/mol
# GULP energy per Si atom -5595.663475 kJ/mol
# Density = 2.412805 g / cm^3
# Si number density = 24.183097 Si / 1000 Ang^3
#
#
#
# Elastic Constant Matrix: (Units=GPa)
#
#
# Indices 1 2 3 4 5 6 
#
# 1 96.4720 21.5068 30.6172 1.5789 -9.6547 22.8603
# 2 21.5068 96.5705 32.1341 -3.8897 -3.0913 18.1071
# 3 30.6172 32.1341 136.3114 -30.0482 -16.0867 13.2033
# 4 1.5789 -3.8897 -30.0482 32.9186 9.7876 -3.4946
# 5 -9.6547 -3.0913 -16.0867 9.7876 39.7379 -11.1963
# 6 22.8603 18.1071 13.2033 -3.4946 -11.1963 25.9950
#
#
#
# Elastic Compliance Matrix: (Units=1/GPa)
#
#
# Indices 1 2 3 4 5 6 
#
# 1 0.014161 -0.000196 -0.003065 -0.004752 0.000163 -0.011328
# 2 -0.000196 0.012756 -0.002658 -0.001144 -0.002239 -0.008481
# 3 -0.003065 -0.002658 0.010790 0.009373 0.001366 0.000915
# 4 -0.004752 -0.001144 0.009373 0.041360 -0.006839 0.002830
# 5 0.000163 -0.002239 0.001366 -0.006839 0.030971 0.013143
# 6 -0.011328 -0.008481 0.000915 0.002830 0.013143 0.059915
#
#
# Mechanical properties :
#
#
# Convention : Reuss Voigt Hill
#
# Bulk Modulus (GPa) = 38.65788 55.31890 46.98839
# Shear Modulus (GPa) = 26.25862 36.07000 31.16431
#
# Velocity S-wave (km/s) = 3.29876 3.86623 3.59372
# Velocity P-wave (km/s) = 5.52533 6.54638 6.05741
#
# Compressibility (1/GPa) = 0.02586795
#
# Stress axis : x y z
#
# Youngs Moduli (GPa) = 70.61810 78.39660 92.67818
#
# Poissons Ratio (x) = 0.01534 0.28410
# Poissons Ratio (y) = 0.01382 0.24634
# Poissons Ratio (z) = 0.21648 0.20838
#
# Static dielectric constant tensor:
#      x y z
#    x 1.984490 0.016690 0.058070 
#    y 0.016690 1.991060 0.034100 
#    z 0.058070 0.034100 2.009650 
# 
# From -- ./inp_files/207856.got.cif
#   From: 2010.05.17/outbox.cif.g08.bks.cpg/sg2_104_cif.got.tgz:207856.got - 2010.06.03 11:33:40.
