data_PCOD9037298
_publ_section_title
;
Structure prediction by ZEFSAII (Michael W. Deem and Ramdas Pophale) SiO2 
 PCOD9037298
Probable space group: P -1
;
_chemical_formula_sum "Si O2"
_cell_formula_units_Z 14
_cell_length_a 6.767944
_cell_length_b 13.018775
_cell_length_c 10.948824
_cell_angle_alpha 73.712665
_cell_angle_beta 82.434746
_cell_angle_gamma 128.851913
_cell_volume 657.253473
_symmetry_space_group_name_H-M "P -1"
_symmetry_group_IT_number 2
_symmetry_cell_setting 'triclinic'
loop_
_space_group_symop_operation_xyz
x,y,z
-x,-y,-z
loop_
_atom_site_type_symbol
_atom_site_label
_atom_site_fract_x
_atom_site_fract_y
_atom_site_fract_z
Si Si1 0.672511 0.360622 0.591326
Si Si2 0.506387 0.062036 0.673546
Si Si3 0.288252 0.053858 0.430093
Si Si4 0.189453 0.590330 0.072890
Si Si5 0.397790 0.386909 0.826689
Si Si6 0.369251 0.618344 0.687134
Si Si7 0.749617 0.139328 0.015926
O O1 0.625731 0.216629 0.665865
O O2 0.526677 0.375965 0.701924
O O3 0.548478 0.345010 0.473828
O O4 0.000000 0.500000 0.500000
O O5 0.389562 0.047523 0.554823
O O6 0.720066 0.045675 0.632785
O O7 0.281030 0.929278 0.827924
O O8 0.494384 0.226267 0.314616
O O9 0.000000 0.000000 0.500000
O O10 0.436989 0.601157 0.075991
O O11 0.962888 0.496091 0.231631
O O12 0.296371 0.751062 0.006876
O O13 0.000000 0.500000 0.000000
O O14 0.447923 0.532964 0.763754
O O15 0.065522 0.243237 0.908139
O O16 0.500000 0.000000 0.000000
#
# Coordination Sequence:
#
# PCOD9037298 Si02
#       7
#     2   2   2   2   2   2   2
#     4  11  22  41  70  96 132 172 220 283 337 397
#     4  10  24  42  63  96 133 169 214 279 328 392
#     4  10  23  41  67  97 128 174 219 272 338 396
#     4  11  24  43  66  97 137 184 228 278 333 410
#     4  11  25  43  70 100 137 185 223 281 346 398
#     4  10  23  40  65 101 127 172 227 277 336 403
#     4  11  26  44  68  99 140 179 232 279 338 411
#
# _framework density 21.300761999999999
#
# number of rings (size 3 to 8) (size 9 to 14) (size 15 to 20)
#    0.000    1.429    1.429    2.143    4.000   11.429 
#    0.000    0.000    0.000    0.000    0.000    0.000 
#    0.000    0.000    0.000    0.000    0.000    0.000 
#
# Total GULP energy -78219.374733 kJ/mol
# GULP energy per Si atom -5587.098195 kJ/mol
# Density = 2.125228 g / cm^3
# Si number density = 21.300762 Si / 1000 Ang^3
#
#
#
# Elastic Constant Matrix: (Units=GPa)
#
#
# Indices 1 2 3 4 5 6 
#
# 1 144.0991 51.8037 41.3172 -12.7714 5.3774 -12.0529
# 2 51.8037 75.3197 40.7956 -13.3544 29.4702 -10.4807
# 3 41.3172 40.7956 105.1273 -18.3120 -4.2452 -14.5061
# 4 -12.7714 -13.3544 -18.3120 41.1708 -9.9220 4.7648
# 5 5.3774 29.4702 -4.2452 -9.9220 19.3985 -1.2705
# 6 -12.0529 -10.4807 -14.5061 4.7648 -1.2705 28.6878
#
#
#
# Elastic Compliance Matrix: (Units=1/GPa)
#
#
# Indices 1 2 3 4 5 6 
#
# 1 0.125456 -0.595135 0.256848 0.211694 1.032247 -0.024284
# 2 -0.595135 3.017127 -1.317222 -1.071417 -5.246281 0.131775
# 3 0.256848 -1.317222 0.587659 0.473568 2.297270 -0.053080
# 4 0.211694 -1.071417 0.473568 0.411724 1.880084 -0.048144
# 5 1.032247 -5.246281 2.297270 1.880084 9.185055 -0.226826
# 6 -0.024284 0.131775 -0.053080 -0.048144 -0.226826 0.043909
#
#
# Mechanical properties :
#
#
# Convention : Reuss Voigt Hill
#
# Bulk Modulus (GPa) = 2.38535 65.81991 34.10263
# Shear Modulus (GPa) = 0.29724 30.56006 15.42865
#
# Velocity S-wave (km/s) = 0.37396 3.79184 2.69425
# Velocity P-wave (km/s) = 1.14400 7.08083 5.07183
#
# Compressibility (1/GPa) = 0.41922523
#
# Stress axis : x y z
#
# Youngs Moduli (GPa) = 7.97093 0.33144 1.70167
#
# Poissons Ratio (x) = 0.19725 -0.43707
# Poissons Ratio (y) = 4.74378 2.24147
# Poissons Ratio (z) = -2.04732 0.43658
#
# Static dielectric constant tensor:
#      x y z
#    x 1.759740 0.022190 0.023880 
#    y 0.022190 1.736110 0.037780 
#    z 0.023880 0.037780 1.800290 
# 
# From -- ./inp_files/66516.got.cif
#   From: 2010.05.17/outbox.cif.g08.bks.cpg/sg2_34_cif.got.tgz:66516.got - 2010.06.03 11:33:40.
