data_PCOD9037225
_publ_section_title
;
Structure prediction by ZEFSAII (Michael W. Deem and Ramdas Pophale) SiO2 
 PCOD9037225
Probable space group: P -1
;
_chemical_formula_sum "Si O2"
_cell_formula_units_Z 16
_cell_length_a 9.694612
_cell_length_b 13.354092
_cell_length_c 9.350876
_cell_angle_alpha 86.263748
_cell_angle_beta 100.067299
_cell_angle_gamma 36.514676
_cell_volume 664.112321
_symmetry_space_group_name_H-M "P -1"
_symmetry_group_IT_number 2
_symmetry_cell_setting 'triclinic'
loop_
_space_group_symop_operation_xyz
x,y,z
-x,-y,-z
loop_
_atom_site_type_symbol
_atom_site_label
_atom_site_fract_x
_atom_site_fract_y
_atom_site_fract_z
Si Si1 0.493484 0.920565 0.201232
Si Si2 0.151756 0.986714 0.632592
Si Si3 0.745895 0.107643 0.015959
Si Si4 0.310954 0.672706 0.357779
Si Si5 0.583832 0.518091 0.140943
Si Si6 0.954559 0.673329 0.867305
Si Si7 0.029971 0.567600 0.204106
Si Si8 0.471035 0.250664 0.513920
O O1 0.761379 0.769092 0.187225
O O2 0.554713 0.819098 0.364613
O O3 0.311942 0.965663 0.055798
O O4 0.327821 0.116584 0.189216
O O5 0.237515 0.891811 0.809526
O O6 0.378513 0.882136 0.582378
O O7 0.000000 0.000000 0.500000
O O8 0.961925 0.182966 0.640187
O O9 0.506654 0.314836 0.911428
O O10 0.000000 0.000000 0.000000
O O11 0.500000 0.500000 0.500000
O O12 0.403468 0.588872 0.227462
O O13 0.367542 0.757301 0.380002
O O14 0.884639 0.348053 0.205330
O O15 0.500000 0.500000 0.000000
O O16 0.971003 0.551078 0.820926
O O17 0.076492 0.593318 0.056574
O O18 0.231720 0.449113 0.381061
#
# Coordination Sequence:
#
# PCOD9037225 Si02
#       8
#     2   2   2   2   2   2   2   2
#     4  12  25  46  73 103 141 187 243 295 357 422
#     4  10  23  40  63  96 134 179 227 278 347 422
#     4  12  21  42  68  97 138 182 232 288 354 413
#     4  11  25  42  64 103 146 182 229 288 359 426
#     4  12  25  41  68 103 139 185 232 291 353 422
#     4  11  26  45  73 105 139 184 246 293 353 429
#     4  11  25  49  71 103 146 185 240 298 351 428
#     4  11  24  46  72  99 144 190 231 298 358 419
#
# _framework density 24.092310000000001
#
# number of rings (size 3 to 8) (size 9 to 14) (size 15 to 20)
#    0.000    0.750    3.750    3.000    8.750    0.500 
#    2.250    0.000    0.000    0.000    0.000    0.000 
#    0.000    0.000    0.000    0.000    0.000    0.000 
#
# Total GULP energy -89350.812272 kJ/mol
# GULP energy per Si atom -5584.425767 kJ/mol
# Density = 2.403748 g / cm^3
# Si number density = 24.092310 Si / 1000 Ang^3
#
#
#
# Elastic Constant Matrix: (Units=GPa)
#
#
# Indices 1 2 3 4 5 6 
#
# 1 51.9183 27.7861 7.5606 19.2783 15.4749 -5.4694
# 2 27.7861 159.1356 25.8578 15.8211 -2.8571 -25.5920
# 3 7.5606 25.8578 117.0916 26.1388 -0.7120 -10.6978
# 4 19.2783 15.8211 26.1388 52.9067 -4.4555 -6.6375
# 5 15.4749 -2.8571 -0.7120 -4.4555 30.1045 0.2662
# 6 -5.4694 -25.5920 -10.6978 -6.6375 0.2662 38.3137
#
#
#
# Elastic Compliance Matrix: (Units=1/GPa)
#
#
# Indices 1 2 3 4 5 6 
#
# 1 0.031887 -0.004986 0.001707 -0.012589 -0.018684 -0.000353
# 2 -0.004986 0.008043 -0.001219 0.000856 0.003385 0.004445
# 3 0.001707 -0.001219 0.009959 -0.005140 -0.001530 0.001330
# 4 -0.012589 0.000856 -0.005140 0.026888 0.010394 0.001926
# 5 -0.018684 0.003385 -0.001530 0.010394 0.044640 0.000657
# 6 -0.000353 0.004445 0.001330 0.001926 0.000657 0.029720
#
#
# Mechanical properties :
#
#
# Convention : Reuss Voigt Hill
#
# Bulk Modulus (GPa) = 24.45378 50.06163 37.25771
# Shear Modulus (GPa) = 28.77469 42.06104 35.41787
#
# Velocity S-wave (km/s) = 3.45969 4.18284 3.83833
# Velocity P-wave (km/s) = 5.11188 6.64473 5.92806
#
# Compressibility (1/GPa) = 0.04089347
#
# Stress axis : x y z
#
# Youngs Moduli (GPa) = 31.36045 124.33155 100.41341
#
# Poissons Ratio (x) = 0.61987 -0.17136
# Poissons Ratio (y) = 0.15635 0.12237
# Poissons Ratio (z) = -0.05352 0.15152
#
# Static dielectric constant tensor:
#      x y z
#    x 1.978500 -0.119000 -0.023080 
#    y -0.119000 1.906710 -0.119740 
#    z -0.023080 -0.119740 1.871110 
# 
# From -- ./inp_files/273180.got.cif
#   From: 2010.05.17/outbox.cif.g08.bks.cpg/sg2_137_cif.got.tgz:273180.got - 2010.06.03 11:33:40.
