data_PCOD9037502
_publ_section_title
;
Structure prediction by ZEFSAII (Michael W. Deem and Ramdas Pophale) SiO2 
 PCOD9037502
Probable space group: P -1
;
_chemical_formula_sum "Si O2"
_cell_formula_units_Z 14
_cell_length_a 9.376405
_cell_length_b 10.797817
_cell_length_c 12.464068
_cell_angle_alpha 117.968529
_cell_angle_beta 143.369157
_cell_angle_gamma 46.233653
_cell_volume 532.773721
_symmetry_space_group_name_H-M "P -1"
_symmetry_group_IT_number 2
_symmetry_cell_setting 'triclinic'
loop_
_space_group_symop_operation_xyz
x,y,z
-x,-y,-z
loop_
_atom_site_type_symbol
_atom_site_label
_atom_site_fract_x
_atom_site_fract_y
_atom_site_fract_z
Si Si1 0.586644 0.328422 0.169521
Si Si2 0.941357 0.481676 0.579242
Si Si3 0.833118 0.943323 0.699854
Si Si4 0.487741 0.196123 0.259232
Si Si5 0.718047 0.252561 0.637883
Si Si6 0.914791 0.327504 0.085021
Si Si7 0.238405 0.192648 0.800614
O O1 0.526346 0.309944 0.247651
O O2 0.595778 0.580661 0.441773
O O3 0.456813 0.236445 0.992374
O O4 0.412092 0.524241 0.096937
O O5 0.933478 0.206872 0.302973
O O6 0.125115 0.286362 0.655729
O O7 0.000000 0.500000 0.500000
O O8 0.034633 0.577062 0.751289
O O9 0.969545 0.853904 0.861619
O O10 0.500000 0.000000 0.500000
O O11 0.832088 0.108417 0.740755
O O12 0.644395 0.180740 0.459966
O O13 0.144563 0.287733 0.115010
O O14 0.623210 0.008968 0.212294
O O15 0.961421 0.275153 0.749595
#
# Coordination Sequence:
#
# PCOD9037502 Si02
#       7
#     2   2   2   2   2   2   2
#     4  11  25  45  69 100 141 178 221 289 344 396
#     4  10  23  40  68 100 141 180 222 286 343 399
#     4  12  23  43  74  94 139 176 237 272 335 405
#     4  11  22  41  73 101 132 183 226 274 337 412
#     4  11  24  42  70 102 135 183 231 280 333 411
#     4  10  24  44  67 102 138 175 228 279 338 409
#     4  11  24  43  67 105 141 171 231 282 348 397
#
# _framework density 26.277571999999999
#
# number of rings (size 3 to 8) (size 9 to 14) (size 15 to 20)
#    0.000    1.143    4.286    2.143    4.000    0.000 
#    0.000    5.000    0.000    0.000    0.000    0.000 
#    0.000    0.000    0.000    0.000    0.000    0.000 
#
# Total GULP energy -78550.918527 kJ/mol
# GULP energy per Si atom -5610.779895 kJ/mol
# Density = 2.621776 g / cm^3
# Si number density = 26.277572 Si / 1000 Ang^3
#
#
#
# Elastic Constant Matrix: (Units=GPa)
#
#
# Indices 1 2 3 4 5 6 
#
# 1 181.5669 42.3866 43.6693 -28.8384 -9.0356 -10.4714
# 2 42.3866 118.9366 50.5637 -39.8873 -6.7256 18.4141
# 3 43.6693 50.5637 112.2340 2.7680 -4.3778 5.0190
# 4 -28.8384 -39.8873 2.7680 43.6824 5.6751 -2.3160
# 5 -9.0356 -6.7256 -4.3778 5.6751 44.2797 -11.5745
# 6 -10.4714 18.4141 5.0190 -2.3160 -11.5745 53.6555
#
#
#
# Elastic Compliance Matrix: (Units=1/GPa)
#
#
# Indices 1 2 3 4 5 6 
#
# 1 0.007177 0.000173 -0.003046 0.005059 0.001085 0.002078
# 2 0.000173 0.018713 -0.008767 0.017693 -0.001603 -0.005151
# 3 -0.003046 -0.008767 0.014322 -0.011021 0.001094 0.000835
# 4 0.005059 0.017693 -0.011021 0.043410 -0.003713 -0.002981
# 5 0.001085 -0.001603 0.001094 -0.003713 0.024667 0.005820
# 6 0.002078 -0.005151 0.000835 -0.002981 0.005820 0.021859
#
#
# Mechanical properties :
#
#
# Convention : Reuss Voigt Hill
#
# Bulk Modulus (GPa) = 59.05497 76.21962 67.63730
# Shear Modulus (GPa) = 31.43224 46.73140 39.08182
#
# Velocity S-wave (km/s) = 3.46231 4.22165 3.86070
# Velocity P-wave (km/s) = 6.20530 7.26854 6.75786
#
# Compressibility (1/GPa) = 0.01693338
#
# Stress axis : x y z
#
# Youngs Moduli (GPa) = 139.33218 53.43777 69.82354
#
# Poissons Ratio (x) = -0.00926 0.21268
# Poissons Ratio (y) = -0.02413 0.61212
# Poissons Ratio (z) = 0.42440 0.46847
#
# Static dielectric constant tensor:
#      x y z
#    x 2.002560 0.003320 0.009730 
#    y 0.003320 2.060680 -0.000270 
#    z 0.009730 -0.000270 2.074960 
# 
# From -- ./inp_files/426748.got.cif
#   From: 2010.05.17/outbox.cif.g08.bks.cpg/sg2_214_cif.got.tgz:426748.got - 2010.06.03 11:33:40.
