data_PCOD9037272
_publ_section_title
;
Structure prediction by ZEFSAII (Michael W. Deem and Ramdas Pophale) SiO2 
 PCOD9037272
Probable space group: P -1
;
_chemical_formula_sum "Si O2"
_cell_formula_units_Z 16
_cell_length_a 8.804276
_cell_length_b 20.825915
_cell_length_c 6.905522
_cell_angle_alpha 131.950572
_cell_angle_beta 121.144554
_cell_angle_gamma 60.342712
_cell_volume 783.540512
_symmetry_space_group_name_H-M "P -1"
_symmetry_group_IT_number 2
_symmetry_cell_setting 'triclinic'
loop_
_space_group_symop_operation_xyz
x,y,z
-x,-y,-z
loop_
_atom_site_type_symbol
_atom_site_label
_atom_site_fract_x
_atom_site_fract_y
_atom_site_fract_z
Si Si1 0.010307 0.906856 0.206867
Si Si2 0.426490 0.572640 0.933589
Si Si3 0.103365 0.512415 0.397052
Si Si4 0.200574 0.376411 0.857238
Si Si5 0.254710 0.767506 0.341154
Si Si6 0.561114 0.805854 0.333739
Si Si7 0.707790 0.147112 0.066316
Si Si8 0.648068 0.971101 0.875656
O O1 0.076770 0.825435 0.233361
O O2 0.152022 0.888149 0.085187
O O3 0.000000 0.000000 0.500000
O O4 0.820071 0.915869 0.995078
O O5 0.293360 0.538538 0.627077
O O6 0.500000 0.500000 0.000000
O O7 0.609491 0.595827 0.015243
O O8 0.301448 0.662749 0.124087
O O9 0.000000 0.500000 0.500000
O O10 0.962428 0.584585 0.320668
O O11 0.141721 0.422286 0.116040
O O12 0.256612 0.270330 0.680058
O O13 0.423833 0.797954 0.405147
O O14 0.240372 0.793830 0.609036
O O15 0.465091 0.795014 0.045670
O O16 0.590533 0.904397 0.553693
O O17 0.680496 0.058616 0.973668
O O18 0.500000 0.000000 0.000000
#
# Coordination Sequence:
#
# PCOD9037272 Si02
#       8
#     2   2   2   2   2   2   2   2
#     4  11  23  42  64  90 128 169 211 263 314 380
#     4  11  23  43  71  95 129 177 214 265 335 385
#     4  11  23  44  66  97 130 167 219 267 325 391
#     4  10  24  44  66  94 136 168 214 273 324 384
#     4  10  23  43  63  95 128 166 216 260 318 390
#     4  10  23  40  64  95 123 166 213 264 315 378
#     4  11  22  43  64  89 129 169 209 259 319 384
#     4  12  22  41  65  91 127 166 210 257 320 375
#
# _framework density 20.420128999999999
#
# number of rings (size 3 to 8) (size 9 to 14) (size 15 to 20)
#    0.000    1.250    3.750    1.875    3.500    0.000 
#    4.500    0.000    0.000    0.000    0.000    0.000 
#    0.000    0.000    0.000    0.000    0.000    0.000 
#
# Total GULP energy -89371.100083 kJ/mol
# GULP energy per Si atom -5585.693755 kJ/mol
# Density = 2.037365 g / cm^3
# Si number density = 20.420129 Si / 1000 Ang^3
#
#
#
# Elastic Constant Matrix: (Units=GPa)
#
#
# Indices 1 2 3 4 5 6 
#
# 1 32.9339 15.1001 18.5147 -12.1915 -10.2939 -12.4745
# 2 15.1001 93.0703 22.4958 -0.6540 -14.7998 -16.3371
# 3 18.5147 22.4958 82.8735 -16.7333 -20.3248 9.6197
# 4 -12.1915 -0.6540 -16.7333 36.2679 -4.1068 3.6209
# 5 -10.2939 -14.7998 -20.3248 -4.1068 36.2033 -2.9785
# 6 -12.4745 -16.3371 9.6197 3.6209 -2.9785 19.2322
#
#
#
# Elastic Compliance Matrix: (Units=1/GPa)
#
#
# Indices 1 2 3 4 5 6 
#
# 1 0.070795 0.006648 -0.017560 0.011908 0.019367 0.061108
# 2 0.006648 0.016695 -0.007911 -0.002830 0.005919 0.023901
# 3 -0.017560 -0.007911 0.024555 0.008874 0.003978 -0.031447
# 4 0.011908 -0.002830 0.008874 0.037315 0.011079 -0.004428
# 5 0.019367 0.005919 0.003978 0.011079 0.040668 0.019813
# 6 0.061108 0.023901 -0.031447 -0.004428 0.019813 0.131566
#
#
# Mechanical properties :
#
#
# Convention : Reuss Voigt Hill
#
# Bulk Modulus (GPa) = 13.44107 35.67766 24.55936
# Shear Modulus (GPa) = 13.01950 28.52514 20.77232
#
# Velocity S-wave (km/s) = 2.52778 3.74158 3.19289
# Velocity P-wave (km/s) = 3.88794 6.01462 5.06418
#
# Compressibility (1/GPa) = 0.07439887
#
# Stress axis : x y z
#
# Youngs Moduli (GPa) = 14.12528 59.89870 40.72564
#
# Poissons Ratio (x) = -0.39822 0.71514
# Poissons Ratio (y) = -0.09391 0.32219
# Poissons Ratio (z) = 0.24804 0.47387
#
# Static dielectric constant tensor:
#      x y z
#    x 1.745430 -0.034920 0.038820 
#    y -0.034920 1.763840 -0.005730 
#    z 0.038820 -0.005730 1.741040 
# 
# From -- ./inp_files/51142.got.cif
#   From: 2010.05.17/outbox.cif.g08.bks.cpg/sg2_26_cif.got.tgz:51142.got - 2010.06.03 11:33:40.
