data_PCOD9037651
_publ_section_title
;
Structure prediction by ZEFSAII (Michael W. Deem and Ramdas Pophale) SiO2 
 PCOD9037651
Probable space group: P -1
;
_chemical_formula_sum "Si O2"
_cell_formula_units_Z 13
_cell_length_a 5.339136
_cell_length_b 9.458955
_cell_length_c 14.767096
_cell_angle_alpha 52.612307
_cell_angle_beta 98.436153
_cell_angle_gamma 84.772873
_cell_volume 570.530730
_symmetry_space_group_name_H-M "P -1"
_symmetry_group_IT_number 2
_symmetry_cell_setting 'triclinic'
loop_
_space_group_symop_operation_xyz
x,y,z
-x,-y,-z
loop_
_atom_site_type_symbol
_atom_site_label
_atom_site_fract_x
_atom_site_fract_y
_atom_site_fract_z
Si Si1 0.350811 0.178476 0.040213
Si Si2 0.849295 0.445982 0.871735
Si Si3 0.705367 0.601850 0.425330
Si Si4 0.711986 0.956241 0.398222
Si Si5 0.534987 0.234633 0.826593
Si Si6 0.500000 0.500000 0.000000
Si Si7 0.855354 0.828571 0.658036
O O1 0.367353 0.965350 0.135198
O O2 0.396464 0.204562 0.925058
O O3 0.540381 0.274310 0.069393
O O4 0.075421 0.316323 0.992088
O O5 0.766837 0.326068 0.834580
O O6 0.609787 0.520338 0.896373
O O7 0.945400 0.617963 0.772353
O O8 0.500000 0.500000 0.500000
O O9 0.674901 0.801907 0.387719
O O10 0.643650 0.629887 0.304964
O O11 0.000000 0.500000 0.500000
O O12 0.816346 0.855151 0.537774
O O13 0.430951 0.087528 0.350272
O O14 0.932946 0.061707 0.342311
#
# Coordination Sequence:
#
# PCOD9037651 Si02
#       7
#     2   2   2   2   2   1   2
#     4  10  23  45  68 100 137 188 230 299 351 426
#     4  11  23  42  71  99 140 188 232 298 356 429
#     4  12  27  46  72 104 143 189 238 293 353 429
#     4  10  23  44  63 105 133 183 234 286 345 419
#     4  10  25  43  69  99 142 184 240 285 361 422
#     4  10  24  42  64 106 134 174 250 284 356 424
#     4  10  23  40  71  95 140 178 230 290 353 409
#
# _framework density 22.785799999999998
#
# number of rings (size 3 to 8) (size 9 to 14) (size 15 to 20)
#    0.000    1.538    0.000    2.769   10.769    1.231 
#    0.000    0.000    0.000    0.000    0.000    0.000 
#    0.000    0.000    0.000    0.000    0.000    0.000 
#
# Total GULP energy -72458.341140 kJ/mol
# GULP energy per Si atom -5573.718549 kJ/mol
# Density = 2.273394 g / cm^3
# Si number density = 22.785800 Si / 1000 Ang^3
#
#
#
# Elastic Constant Matrix: (Units=GPa)
#
#
# Indices 1 2 3 4 5 6 
#
# 1 99.5568 10.3158 47.9341 -17.6252 -8.9547 20.7107
# 2 10.3158 94.0428 33.0661 -23.8575 -21.0117 17.3374
# 3 47.9341 33.0661 102.1962 -14.2997 -0.7473 6.0173
# 4 -17.6252 -23.8575 -14.2997 24.8596 8.9912 -6.2798
# 5 -8.9547 -21.0117 -0.7473 8.9912 28.5770 -12.3965
# 6 20.7107 17.3374 6.0173 -6.2798 -12.3965 30.6543
#
#
#
# Elastic Compliance Matrix: (Units=1/GPa)
#
#
# Indices 1 2 3 4 5 6 
#
# 1 0.017477 0.005817 -0.008032 0.010010 0.001720 -0.010775
# 2 0.005817 0.018898 -0.006422 0.013818 0.008047 -0.007273
# 3 -0.008032 -0.006422 0.015331 -0.000211 -0.005052 0.003963
# 4 0.010010 0.013818 -0.000211 0.062235 -0.008568 -0.005252
# 5 0.001720 0.008047 -0.005052 -0.008568 0.049969 0.013730
# 6 -0.010775 -0.007273 0.003963 -0.005252 0.013730 0.047713
#
#
# Mechanical properties :
#
#
# Convention : Reuss Voigt Hill
#
# Bulk Modulus (GPa) = 29.04356 53.15865 41.10110
# Shear Modulus (GPa) = 20.80088 30.45017 25.62552
#
# Velocity S-wave (km/s) = 3.02468 3.65960 3.35718
# Velocity P-wave (km/s) = 4.99723 6.42162 5.75367
#
# Compressibility (1/GPa) = 0.03443104
#
# Stress axis : x y z
#
# Youngs Moduli (GPa) = 57.21676 52.91632 65.22885
#
# Poissons Ratio (x) = -0.30782 0.52393
# Poissons Ratio (y) = -0.33284 0.41892
# Poissons Ratio (z) = 0.45957 0.33985
#
# Static dielectric constant tensor:
#      x y z
#    x 1.912540 -0.017670 0.040480 
#    y -0.017670 1.842970 0.007570 
#    z 0.040480 0.007570 1.897060 
# 
# From -- ./inp_files/54369.got.cif
#   From: 2010.05.17/outbox.cif.g08.bks.cpg/sg2_28_cif.got.tgz:54369.got - 2010.06.03 11:33:40.
