data_PCOD9037727
_publ_section_title
;
Structure prediction by ZEFSAII (Michael W. Deem and Ramdas Pophale) SiO2 
 PCOD9037727
Probable space group: P -1
;
_chemical_formula_sum "Si O2"
_cell_formula_units_Z 16
_cell_length_a 6.760118
_cell_length_b 17.300314
_cell_length_c 9.505034
_cell_angle_alpha 119.451619
_cell_angle_beta 45.999324
_cell_angle_gamma 104.653630
_cell_volume 689.299497
_symmetry_space_group_name_H-M "P -1"
_symmetry_group_IT_number 2
_symmetry_cell_setting 'triclinic'
loop_
_space_group_symop_operation_xyz
x,y,z
-x,-y,-z
loop_
_atom_site_type_symbol
_atom_site_label
_atom_site_fract_x
_atom_site_fract_y
_atom_site_fract_z
Si Si1 0.199596 0.157637 0.882499
Si Si2 0.632677 0.261092 0.210932
Si Si3 0.077613 0.180528 0.397374
Si Si4 0.272774 0.610204 0.962257
Si Si5 0.198045 0.074285 0.508469
Si Si6 0.656334 0.962188 0.033346
Si Si7 0.653788 0.586132 0.307522
Si Si8 0.461342 0.682812 0.209411
O O1 0.192678 0.093967 0.693313
O O2 0.352463 0.111306 0.901704
O O3 0.346528 0.240274 0.833805
O O4 0.878833 0.195603 0.103752
O O5 0.381108 0.208366 0.244103
O O6 0.511419 0.341989 0.444123
O O7 0.750111 0.307262 0.059236
O O8 0.076115 0.157108 0.542914
O O9 0.840500 0.262047 0.558242
O O10 0.068439 0.090645 0.228174
O O11 0.462451 0.631340 0.016003
O O12 0.977823 0.596772 0.162702
O O13 0.380243 0.517203 0.747546
O O14 0.515099 0.045236 0.274135
O O15 0.000000 0.000000 0.500000
O O16 0.500000 0.000000 0.000000
O O17 0.559138 0.614511 0.222653
#
# Coordination Sequence:
#
# PCOD9037727 Si02
#       8
#     2   2   2   2   2   2   2   2
#     4  12  24  42  72 104 134 188 242 285 353 435
#     4  12  23  45  70 106 141 186 238 286 354 413
#     4  11  23  42  69 100 139 184 230 299 349 416
#     4  11  24  45  69 103 151 185 227 300 349 414
#     4  11  23  44  67  99 141 183 227 296 364 414
#     4  10  23  41  61  95 137 176 229 288 348 407
#     4  11  24  44  69 106 144 189 235 285 357 417
#     4  12  23  45  71 105 139 187 241 285 354 414
#
# _framework density 23.211973
#
# number of rings (size 3 to 8) (size 9 to 14) (size 15 to 20)
#    0.000    0.750    2.500    5.625    0.000    0.000 
#    0.000   10.625    0.000    0.000    0.000    0.000 
#    0.000    0.000    0.000    0.000    0.000    0.000 
#
# Total GULP energy -89289.609269 kJ/mol
# GULP energy per Si atom -5580.600579 kJ/mol
# Density = 2.315914 g / cm^3
# Si number density = 23.211973 Si / 1000 Ang^3
#
#
#
# Elastic Constant Matrix: (Units=GPa)
#
#
# Indices 1 2 3 4 5 6 
#
# 1 81.0135 47.4106 16.0390 9.1118 7.4224 0.4762
# 2 47.4106 105.5159 4.8133 -8.3871 4.8421 -2.9762
# 3 16.0390 4.8133 123.5157 24.2548 19.3189 6.9186
# 4 9.1118 -8.3871 24.2548 21.9024 -7.2425 7.7560
# 5 7.4224 4.8421 19.3189 -7.2425 43.2886 -3.4469
# 6 0.4762 -2.9762 6.9186 7.7560 -3.4469 40.0474
#
#
#
# Elastic Compliance Matrix: (Units=1/GPa)
#
#
# Indices 1 2 3 4 5 6 
#
# 1 0.020470 -0.010334 0.001965 -0.017143 -0.005983 0.001454
# 2 -0.010334 0.015204 -0.002614 0.014486 0.003598 -0.000791
# 3 0.001965 -0.002614 0.013216 -0.019677 -0.009193 0.000519
# 4 -0.017143 0.014486 -0.019677 0.092190 0.024645 -0.011053
# 5 -0.005983 0.003598 -0.009193 0.024645 0.031943 -0.000097
# 6 0.001454 -0.000791 0.000519 -0.011053 -0.000097 0.026937
#
#
# Mechanical properties :
#
#
# Convention : Reuss Voigt Hill
#
# Bulk Modulus (GPa) = 37.14061 49.61900 43.37980
# Shear Modulus (GPa) = 21.65447 37.16650 29.41049
#
# Velocity S-wave (km/s) = 3.05766 4.00581 3.56341
# Velocity P-wave (km/s) = 5.33864 6.54357 5.97157
#
# Compressibility (1/GPa) = 0.02692471
#
# Stress axis : x y z
#
# Youngs Moduli (GPa) = 48.85139 65.77242 75.66810
#
# Poissons Ratio (x) = 0.67972 -0.14872
# Poissons Ratio (y) = 0.50485 0.19776
# Poissons Ratio (z) = -0.09601 0.17190
#
# Static dielectric constant tensor:
#      x y z
#    x 1.914470 0.067200 0.003430 
#    y 0.067200 1.862310 0.016060 
#    z 0.003430 0.016060 1.884770 
# 
# From -- ./inp_files/139314.got.cif
#   From: 2010.05.17/outbox.cif.g08.bks.cpg/sg2_70_cif.got.tgz:139314.got - 2010.06.03 11:33:40.
