data_PCOD9037230
_publ_section_title
;
Structure prediction by ZEFSAII (Michael W. Deem and Ramdas Pophale) SiO2 
 PCOD9037230
Probable space group: P -1
;
_chemical_formula_sum "Si O2"
_cell_formula_units_Z 14
_cell_length_a 9.473242
_cell_length_b 9.477829
_cell_length_c 12.801494
_cell_angle_alpha 35.405927
_cell_angle_beta 112.624589
_cell_angle_gamma 91.256195
_cell_volume 515.235509
_symmetry_space_group_name_H-M "P -1"
_symmetry_group_IT_number 2
_symmetry_cell_setting 'triclinic'
loop_
_space_group_symop_operation_xyz
x,y,z
-x,-y,-z
loop_
_atom_site_type_symbol
_atom_site_label
_atom_site_fract_x
_atom_site_fract_y
_atom_site_fract_z
Si Si1 0.476840 0.156587 0.616725
Si Si2 0.744634 0.235824 0.528349
Si Si3 0.627348 0.527083 0.106378
Si Si4 0.918628 0.614645 0.604433
Si Si5 0.928439 0.179849 0.253986
Si Si6 0.771716 0.528428 0.806067
Si Si7 0.065406 0.078525 0.866563
O O1 0.617650 0.246148 0.578805
O O2 0.278808 0.342714 0.503054
O O3 0.403833 0.179324 0.462981
O O4 0.578481 0.848084 0.883973
O O5 0.908233 0.216561 0.651289
O O6 0.621589 0.461976 0.265880
O O7 0.872230 0.949410 0.663293
O O8 0.500000 0.500000 0.000000
O O9 0.837647 0.296282 0.271561
O O10 0.929381 0.527571 0.783289
O O11 0.079044 0.344593 0.748955
O O12 0.886527 0.924684 0.383952
O O13 0.802816 0.461289 0.975749
O O14 0.779917 0.238458 0.940947
O O15 0.000000 0.000000 0.000000
#
# Coordination Sequence:
#
# PCOD9037230 Si02
#       7
#     2   2   2   2   2   2   2
#     4  10  23  40  63  97 131 167 212 260 326 380
#     4  11  26  40  64 103 126 164 222 265 318 382
#     4  12  24  43  67  91 135 173 210 268 316 383
#     4   9  20  39  68  93 123 175 208 257 325 381
#     4  11  22  41  66  94 127 169 222 262 313 382
#     4   8  19  37  64  90 122 163 213 252 315 377
#     4   9  19  43  70  93 128 168 211 270 316 380
#
# _framework density 27.172039000000002
#
# number of rings (size 3 to 8) (size 9 to 14) (size 15 to 20)
#    0.857    1.143    1.429    1.286    0.000   10.286 
#    0.000    2.143    0.000    0.000    0.000    0.000 
#    0.000    0.000    0.000    0.000    0.000    0.000 
#
# Total GULP energy -78002.773580 kJ/mol
# GULP energy per Si atom -5571.626684 kJ/mol
# Density = 2.711019 g / cm^3
# Si number density = 27.172039 Si / 1000 Ang^3
#
#
#
# Elastic Constant Matrix: (Units=GPa)
#
#
# Indices 1 2 3 4 5 6 
#
# 1 102.2640 3.1854 40.7083 -5.7566 -4.7845 -8.7211
# 2 3.1854 70.5037 32.6732 13.7066 -3.3784 -14.6404
# 3 40.7083 32.6732 157.5248 16.4341 -27.5718 6.5958
# 4 -5.7566 13.7066 16.4341 39.3630 -3.5016 6.1127
# 5 -4.7845 -3.3784 -27.5718 -3.5016 51.5229 0.5582
# 6 -8.7211 -14.6404 6.5958 6.1127 0.5582 32.3466
#
#
#
# Elastic Compliance Matrix: (Units=1/GPa)
#
#
# Indices 1 2 3 4 5 6 
#
# 1 0.011741 0.001788 -0.003939 0.001980 -0.000814 0.004418
# 2 0.001788 0.019932 -0.004671 -0.006697 -0.001609 0.011750
# 3 -0.003939 -0.004671 0.009481 -0.001769 0.004334 -0.004850
# 4 0.001980 -0.006697 -0.001769 0.030064 0.000926 -0.007833
# 5 -0.000814 -0.001609 0.004334 0.000926 0.021636 -0.002380
# 6 0.004418 0.011750 -0.004850 -0.007833 -0.002380 0.039935
#
#
# Mechanical properties :
#
#
# Convention : Reuss Voigt Hill
#
# Bulk Modulus (GPa) = 36.34980 53.71404 45.03192
# Shear Modulus (GPa) = 32.13297 41.56153 36.84725
#
# Velocity S-wave (km/s) = 3.44259 3.91521 3.68648
# Velocity P-wave (km/s) = 5.40450 6.34426 5.89314
#
# Compressibility (1/GPa) = 0.02751047
#
# Stress axis : x y z
#
# Youngs Moduli (GPa) = 85.17034 50.16976 105.46974
#
# Poissons Ratio (x) = -0.08973 0.41547
# Poissons Ratio (y) = -0.15233 0.49270
# Poissons Ratio (z) = 0.33550 0.23437
#
# Static dielectric constant tensor:
#      x y z
#    x 2.248260 0.077920 0.005470 
#    y 0.077920 2.287270 0.007180 
#    z 0.005470 0.007180 2.131830 
# 
# From -- ./inp_files/517492.got.cif
#   From: 2010.05.17/outbox.cif.g08.bks.cpg/sg2_259_cif.got.tgz:517492.got - 2010.06.03 11:33:40.
