data_PCOD9037722
_publ_section_title
;
Structure prediction by ZEFSAII (Michael W. Deem and Ramdas Pophale) SiO2 
 PCOD9037722
Probable space group: P -1
;
_chemical_formula_sum "Si O2"
_cell_formula_units_Z 16
_cell_length_a 14.243553
_cell_length_b 8.847738
_cell_length_c 14.437969
_cell_angle_alpha 79.428855
_cell_angle_beta 44.809407
_cell_angle_gamma 113.950676
_cell_volume 798.414245
_symmetry_space_group_name_H-M "P -1"
_symmetry_group_IT_number 2
_symmetry_cell_setting 'triclinic'
loop_
_space_group_symop_operation_xyz
x,y,z
-x,-y,-z
loop_
_atom_site_type_symbol
_atom_site_label
_atom_site_fract_x
_atom_site_fract_y
_atom_site_fract_z
Si Si1 0.624190 0.847682 0.843549
Si Si2 0.210196 0.352731 0.270936
Si Si3 0.981414 0.635792 0.433895
Si Si4 0.762916 0.009239 0.532233
Si Si5 0.651041 0.842442 0.291791
Si Si6 0.514731 0.400628 0.364313
Si Si7 0.931120 0.595077 0.086634
Si Si8 0.763783 0.343827 0.428469
O O1 0.711419 0.752358 0.776198
O O2 0.639298 0.938076 0.721721
O O3 0.393364 0.623245 0.071026
O O4 0.786226 0.083428 0.768779
O O5 0.150708 0.359792 0.413537
O O6 0.998358 0.178464 0.378903
O O7 0.874169 0.499681 0.427700
O O8 0.000000 0.500000 0.500000
O O9 0.767760 0.163204 0.447158
O O10 0.641729 0.766867 0.591656
O O11 0.602061 0.650052 0.285530
O O12 0.607661 0.750927 0.438110
O O13 0.475661 0.812278 0.393104
O O14 0.882207 0.115707 0.086837
O O15 0.715371 0.467881 0.209227
O O16 0.881847 0.516927 0.237269
O O17 0.000000 0.500000 0.000000
#
# Coordination Sequence:
#
# PCOD9037722 Si02
#       8
#     2   2   2   2   2   2   2   2
#     4  10  23  41  61  91 122 163 211 246 307 364
#     4  10  23  41  62  88 122 164 206 253 302 362
#     4  11  21  42  62  88 130 161 198 259 301 358
#     4  11  21  40  61  89 124 161 206 247 308 365
#     4  10  23  42  63  91 125 155 203 255 307 364
#     4  10  23  41  65  90 121 162 199 254 309 363
#     4  11  23  43  65  93 126 158 204 254 302 369
#     4  11  24  39  63  94 119 167 204 244 315 360
#
# _framework density 20.039722999999999
#
# number of rings (size 3 to 8) (size 9 to 14) (size 15 to 20)
#    0.000    1.500    2.500    3.375    3.500    6.500 
#    2.250    0.000    0.000    0.000    0.000    0.000 
#    0.000    0.000    0.000    0.000    0.000    0.000 
#
# Total GULP energy -89460.913589 kJ/mol
# GULP energy per Si atom -5591.307099 kJ/mol
# Density = 1.999411 g / cm^3
# Si number density = 20.039723 Si / 1000 Ang^3
#
#
#
# Elastic Constant Matrix: (Units=GPa)
#
#
# Indices 1 2 3 4 5 6 
#
# 1 52.7131 7.8465 23.1899 -0.7430 -3.6992 8.2080
# 2 7.8465 84.1090 27.5679 -12.0745 -12.3646 10.4023
# 3 23.1899 27.5679 120.6623 -28.6596 -9.6923 6.5355
# 4 -0.7430 -12.0745 -28.6596 37.3830 -7.0821 -1.1082
# 5 -3.6992 -12.3646 -9.6923 -7.0821 10.5038 -4.6633
# 6 8.2080 10.4023 6.5355 -1.1082 -4.6633 36.0197
#
#
#
# Elastic Compliance Matrix: (Units=1/GPa)
#
#
# Indices 1 2 3 4 5 6 
#
# 1 0.021710 -0.000908 -0.005004 -0.004373 -0.002891 -0.004286
# 2 -0.000908 0.017837 0.001592 0.012673 0.030281 -0.000923
# 3 -0.005004 0.001592 0.014854 0.016774 0.025954 0.001862
# 4 -0.004373 0.012673 0.016774 0.056928 0.069477 0.005040
# 5 -0.002891 0.030281 0.025954 0.069477 0.207840 0.016251
# 6 -0.004286 -0.000923 0.001862 0.005040 0.016251 0.030927
#
#
# Mechanical properties :
#
#
# Convention : Reuss Voigt Hill
#
# Bulk Modulus (GPa) = 21.85274 41.63254 31.74264
# Shear Modulus (GPa) = 13.36937 30.03997 21.70467
#
# Velocity S-wave (km/s) = 2.58571 3.87592 3.29459
# Velocity P-wave (km/s) = 4.45454 6.39144 5.50878
#
# Compressibility (1/GPa) = 0.04576085
#
# Stress axis : x y z
#
# Youngs Moduli (GPa) = 46.06211 56.06239 67.32269
#
# Poissons Ratio (x) = 0.05090 0.33685
# Poissons Ratio (y) = 0.04182 -0.10715
# Poissons Ratio (z) = 0.23048 -0.08922
#
# Static dielectric constant tensor:
#      x y z
#    x 1.695120 -0.029370 0.010000 
#    y -0.029370 1.709570 -0.000670 
#    z 0.010000 -0.000670 1.686840 
# 
# From -- ./inp_files/529649.got.cif
#   From: 2010.05.17/outbox.cif.g08.bks.cpg/sg2_265_cif.got.tgz:529649.got - 2010.06.03 11:33:40.
