data_PCOD9037556
_publ_section_title
;
Structure prediction by ZEFSAII (Michael W. Deem and Ramdas Pophale) SiO2 
 PCOD9037556
Probable space group: P -1
;
_chemical_formula_sum "Si O2"
_cell_formula_units_Z 14
_cell_length_a 5.339027
_cell_length_b 16.750636
_cell_length_c 13.331800
_cell_angle_alpha 44.183104
_cell_angle_beta 57.837290
_cell_angle_gamma 46.442382
_cell_volume 600.467533
_symmetry_space_group_name_H-M "P -1"
_symmetry_group_IT_number 2
_symmetry_cell_setting 'triclinic'
loop_
_space_group_symop_operation_xyz
x,y,z
-x,-y,-z
loop_
_atom_site_type_symbol
_atom_site_label
_atom_site_fract_x
_atom_site_fract_y
_atom_site_fract_z
Si Si1 0.129886 0.986155 0.294406
Si Si2 0.915848 0.477928 0.647912
Si Si3 0.779262 0.032010 0.119905
Si Si4 0.170450 0.739568 0.615287
Si Si5 0.351293 0.680332 0.070726
Si Si6 0.237186 0.721734 0.836879
Si Si7 0.002772 0.453640 0.229840
O O1 0.473605 0.998371 0.209202
O O2 0.029241 0.963298 0.224895
O O3 0.818347 0.130723 0.268721
O O4 0.155976 0.872052 0.463933
O O5 0.562259 0.614843 0.630659
O O6 0.868545 0.351057 0.776443
O O7 0.140633 0.467574 0.705797
O O8 0.000000 0.500000 0.500000
O O9 0.628783 0.190068 0.028345
O O10 0.000000 0.000000 0.000000
O O11 0.044110 0.742196 0.753811
O O12 0.973906 0.688432 0.634405
O O13 0.732006 0.549378 0.117350
O O14 0.170410 0.693967 0.989368
O O15 0.616377 0.596684 0.844855
#
# Coordination Sequence:
#
# PCOD9037556 Si02
#       7
#     2   2   2   2   2   2   2
#     4  11  26  44  71 102 140 182 233 281 344 409
#     4  10  24  42  65  96 132 176 226 282 343 404
#     4  11  27  46  71 103 136 187 230 284 342 405
#     4  10  24  41  66 100 135 181 223 284 338 409
#     4  10  24  42  67  99 132 178 226 284 340 411
#     4  10  23  42  67  99 137 175 229 277 349 400
#     4  10  23  40  68  97 134 177 227 280 344 397
#
# _framework density 23.315165
#
# number of rings (size 3 to 8) (size 9 to 14) (size 15 to 20)
#    0.000    1.714    0.000    1.286   14.000    9.143 
#    0.000    0.000    0.000    0.000    0.000    0.000 
#    0.000    0.000    0.000    0.000    0.000    0.000 
#
# Total GULP energy -78079.685849 kJ/mol
# GULP energy per Si atom -5577.120418 kJ/mol
# Density = 2.326210 g / cm^3
# Si number density = 23.315165 Si / 1000 Ang^3
#
#
#
# Elastic Constant Matrix: (Units=GPa)
#
#
# Indices 1 2 3 4 5 6 
#
# 1 118.4986 19.6742 60.1266 8.4491 -1.0562 16.8040
# 2 19.6742 68.2730 39.9756 6.6538 0.0086 10.7149
# 3 60.1266 39.9756 168.6471 3.9213 -8.3533 9.9625
# 4 8.4491 6.6538 3.9213 45.8525 12.4160 3.6544
# 5 -1.0562 0.0086 -8.3533 12.4160 34.2469 -1.6671
# 6 16.8040 10.7149 9.9625 3.6544 -1.6671 21.4530
#
#
#
# Elastic Compliance Matrix: (Units=1/GPa)
#
#
# Indices 1 2 3 4 5 6 
#
# 1 0.011356 0.000084 -0.003648 -0.001095 -0.000488 -0.007094
# 2 0.000084 0.018188 -0.003921 -0.001551 -0.000743 -0.007122
# 3 -0.003648 -0.003921 0.008190 -0.000088 0.001976 0.001181
# 4 -0.001095 -0.001551 -0.000088 0.025022 -0.009288 -0.003311
# 5 -0.000488 -0.000743 0.001976 -0.009288 0.033229 0.004000
# 6 -0.007094 -0.007122 0.001181 -0.003311 0.004000 0.056054
#
#
# Mechanical properties :
#
#
# Convention : Reuss Voigt Hill
#
# Bulk Modulus (GPa) = 43.93170 66.10794 55.01982
# Shear Modulus (GPa) = 28.63750 36.01998 32.32874
#
# Velocity S-wave (km/s) = 3.50848 3.93481 3.72774
# Velocity P-wave (km/s) = 5.94105 7.00423 6.49443
#
# Compressibility (1/GPa) = 0.02276261
#
# Stress axis : x y z
#
# Youngs Moduli (GPa) = 88.06086 54.98185 122.10406
#
# Poissons Ratio (x) = -0.00461 0.44545
# Poissons Ratio (y) = -0.00738 0.47878
# Poissons Ratio (z) = 0.32126 0.21559
#
# Static dielectric constant tensor:
#      x y z
#    x 2.111460 0.021890 0.007620 
#    y 0.021890 1.867710 0.008910 
#    z 0.007620 0.008910 1.878640 
# 
# From -- ./inp_files/68310.got.cif
#   From: 2010.05.17/outbox.cif.g08.bks.cpg/sg2_35_cif.got.tgz:68310.got - 2010.06.03 11:33:40.
