data_PCOD9037507
_publ_section_title
;
Structure prediction by ZEFSAII (Michael W. Deem and Ramdas Pophale) SiO2 
 PCOD9037507
Probable space group: P -1
;
_chemical_formula_sum "Si O2"
_cell_formula_units_Z 14
_cell_length_a 8.856351
_cell_length_b 13.985968
_cell_length_c 11.171562
_cell_angle_alpha 149.399321
_cell_angle_beta 58.285777
_cell_angle_gamma 104.033725
_cell_volume 524.063688
_symmetry_space_group_name_H-M "P -1"
_symmetry_group_IT_number 2
_symmetry_cell_setting 'triclinic'
loop_
_space_group_symop_operation_xyz
x,y,z
-x,-y,-z
loop_
_atom_site_type_symbol
_atom_site_label
_atom_site_fract_x
_atom_site_fract_y
_atom_site_fract_z
Si Si1 0.420552 0.299646 0.422116
Si Si2 0.559818 0.627043 0.783960
Si Si3 0.961786 0.862119 0.210922
Si Si4 0.222601 0.979001 0.877785
Si Si5 0.445276 0.745928 0.299101
Si Si6 0.808927 0.664014 0.893336
Si Si7 0.783720 0.927346 0.602900
O O1 0.431505 0.501168 0.693018
O O2 0.391136 0.344264 0.341750
O O3 0.646404 0.100464 0.141899
O O4 0.267705 0.230579 0.471248
O O5 0.742441 0.513576 0.682454
O O6 0.420097 0.872459 0.149135
O O7 0.760114 0.079931 0.490738
O O8 0.125010 0.943435 0.223906
O O9 0.984193 0.671745 0.909099
O O10 0.932831 0.812572 0.306195
O O11 0.385891 0.819185 0.539294
O O12 0.185223 0.203137 0.081175
O O13 0.000000 0.000000 0.000000
O O14 0.634835 0.752732 0.165256
O O15 0.500000 0.500000 0.000000
#
# Coordination Sequence:
#
# PCOD9037507 Si02
#       7
#     2   2   2   2   2   2   2
#     4  11  24  44  66  96 139 186 229 274 362 418
#     4  11  24  40  70  95 130 186 229 275 345 422
#     4  10  23  40  68 102 126 175 238 279 347 409
#     4  11  24  40  70 102 137 183 233 290 346 411
#     4  11  22  42  68  99 138 182 232 287 346 417
#     4  11  22  43  70  97 134 184 232 278 348 417
#     4  11  22  45  69  93 139 179 220 293 344 413
#
# _framework density 26.714310999999999
#
# number of rings (size 3 to 8) (size 9 to 14) (size 15 to 20)
#    0.000    1.143    2.857    3.857    4.000    0.000 
#    2.571    4.286    0.000    0.000    0.000    0.000 
#    0.000    0.000    0.000    0.000    0.000    0.000 
#
# Total GULP energy -78196.919842 kJ/mol
# GULP energy per Si atom -5585.494274 kJ/mol
# Density = 2.665351 g / cm^3
# Si number density = 26.714311 Si / 1000 Ang^3
#
#
#
# Elastic Constant Matrix: (Units=GPa)
#
#
# Indices 1 2 3 4 5 6 
#
# 1 143.4193 73.8881 41.4890 -25.8519 34.8889 28.7196
# 2 73.8881 210.1906 42.0977 -18.3972 9.0859 28.5529
# 3 41.4890 42.0977 87.7818 -7.4354 6.8063 -0.6646
# 4 -25.8519 -18.3972 -7.4354 45.8547 -0.8735 10.9916
# 5 34.8889 9.0859 6.8063 -0.8735 54.9064 2.0776
# 6 28.7196 28.5529 -0.6646 10.9916 2.0776 43.5138
#
#
#
# Elastic Compliance Matrix: (Units=1/GPa)
#
#
# Indices 1 2 3 4 5 6 
#
# 1 0.015224 -0.001640 -0.005042 0.009607 -0.008205 -0.011083
# 2 -0.001640 0.006463 -0.002197 0.002225 0.000423 -0.003774
# 3 -0.005042 -0.002197 0.014527 -0.002682 0.001513 0.005597
# 4 0.009607 0.002225 -0.002682 0.031303 -0.005056 -0.015508
# 5 -0.008205 0.000423 0.001513 -0.005056 0.022886 0.005345
# 6 -0.011083 -0.003774 0.005597 -0.015508 0.005345 0.036521
#
#
# Mechanical properties :
#
#
# Convention : Reuss Voigt Hill
#
# Bulk Modulus (GPa) = 54.19058 84.03790 69.11424
# Shear Modulus (GPa) = 33.14876 47.78276 40.46576
#
# Velocity S-wave (km/s) = 3.52641 4.23384 3.89621
# Velocity P-wave (km/s) = 6.07536 7.44492 6.79473
#
# Compressibility (1/GPa) = 0.01845339
#
# Stress axis : x y z
#
# Youngs Moduli (GPa) = 65.68789 154.71565 68.83788
#
# Poissons Ratio (x) = 0.25380 0.34711
# Poissons Ratio (y) = 0.10776 0.15126
# Poissons Ratio (z) = 0.33123 0.33996
#
# Static dielectric constant tensor:
#      x y z
#    x 2.320250 0.026980 -0.023160 
#    y 0.026980 2.077000 0.001190 
#    z -0.023160 0.001190 2.157680 
# 
# From -- ./inp_files/399891.got.cif
#   From: 2010.05.17/outbox.cif.g08.bks.cpg/sg2_200_cif.got.tgz:399891.got - 2010.06.03 11:33:40.
