data_PCOD9037238
_publ_section_title
;
Structure prediction by ZEFSAII (Michael W. Deem and Ramdas Pophale) SiO2 
 PCOD9037238
Probable space group: P -1
;
_chemical_formula_sum "Si O2"
_cell_formula_units_Z 8
_cell_length_a 13.379280
_cell_length_b 10.619444
_cell_length_c 4.998238
_cell_angle_alpha 87.457583
_cell_angle_beta 77.301132
_cell_angle_gamma 31.577338
_cell_volume 348.287201
_symmetry_space_group_name_H-M "P -1"
_symmetry_group_IT_number 2
_symmetry_cell_setting 'triclinic'
loop_
_space_group_symop_operation_xyz
x,y,z
-x,-y,-z
loop_
_atom_site_type_symbol
_atom_site_label
_atom_site_fract_x
_atom_site_fract_y
_atom_site_fract_z
Si Si1 0.784923 0.639418 0.833207
Si Si2 0.024199 0.883900 0.746082
Si Si3 0.614097 0.694183 0.422382
Si Si4 0.810539 0.877031 0.078870
O O1 0.720530 0.680750 0.565049
O O2 0.997405 0.346517 0.813819
O O3 0.622685 0.746098 0.118965
O O4 0.806507 0.759946 0.899478
O O5 0.240287 0.582129 0.638551
O O6 0.857156 0.951336 0.871992
O O7 0.000000 0.000000 0.500000
O O8 0.000000 0.000000 0.000000
O O9 0.394453 0.898863 0.650680
#
# Coordination Sequence:
#
# PCOD9037238 Si02
#       4
#     2   2   2   2
#     4  10  23  40  64 100 125 149 202 255 310 377
#     4  11  25  42  59  88 124 163 214 251 287 360
#     4  11  23  41  66  93 123 160 203 252 310 369
#     4  10  23  41  67  91 126 164 195 255 315 355
#
# _framework density 22.969549000000001
#
# number of rings (size 3 to 8) (size 9 to 14) (size 15 to 20)
#    0.000    1.500    0.000    4.500    0.000   19.000 
#    0.000    0.000    0.000    0.000    0.000    0.000 
#    0.000    0.000    0.000    0.000    0.000    0.000 
#
# Total GULP energy -44878.128283 kJ/mol
# GULP energy per Si atom -5609.766035 kJ/mol
# Density = 2.291727 g / cm^3
# Si number density = 22.969549 Si / 1000 Ang^3
#
#
#
# Elastic Constant Matrix: (Units=GPa)
#
#
# Indices 1 2 3 4 5 6 
#
# 1 87.9021 53.6779 50.7488 11.2244 -34.4543 20.8349
# 2 53.6779 72.7870 49.2621 7.7831 -14.0886 17.0419
# 3 50.7488 49.2621 141.9767 8.5657 -13.9574 9.9750
# 4 11.2244 7.7831 8.5657 53.6175 -3.7772 -6.8297
# 5 -34.4543 -14.0886 -13.9574 -3.7772 52.3246 -1.2844
# 6 20.8349 17.0419 9.9750 -6.8297 -1.2844 53.4275
#
#
#
# Elastic Compliance Matrix: (Units=1/GPa)
#
#
# Indices 1 2 3 4 5 6 
#
# 1 0.030458 -0.015458 -0.003439 -0.003369 0.014577 -0.006385
# 2 -0.015458 0.027922 -0.004349 -0.000685 -0.003925 -0.002248
# 3 -0.003439 -0.004349 0.009644 -0.000136 -0.000851 0.000890
# 4 -0.003369 -0.000685 -0.000136 0.019934 -0.000900 0.004084
# 5 0.014577 -0.003925 -0.000851 -0.000900 0.027269 -0.003733
# 6 -0.006385 -0.002248 0.000890 0.004084 -0.003733 0.022190
#
#
# Mechanical properties :
#
#
# Convention : Reuss Voigt Hill
#
# Bulk Modulus (GPa) = 46.44291 67.78259 57.11275
# Shear Modulus (GPa) = 26.16615 41.80571 33.98593
#
# Velocity S-wave (km/s) = 3.37882 4.27083 3.85074
# Velocity P-wave (km/s) = 5.95694 7.34124 6.68502
#
# Compressibility (1/GPa) = 0.02153181
#
# Stress axis : x y z
#
# Youngs Moduli (GPa) = 32.83189 35.81429 103.69426
#
# Poissons Ratio (x) = 0.55361 0.35658
# Poissons Ratio (y) = 0.50751 0.45101
# Poissons Ratio (z) = 0.11290 0.15577
#
# Static dielectric constant tensor:
#      x y z
#    x 1.842640 -0.024140 -0.018860 
#    y -0.024140 1.852820 0.015820 
#    z -0.018860 0.015820 1.834540 
# 
# From -- ./inp_files/380.got.cif
#   From: 2010.05.17/outbox.cif.g08.bks.cpg/sg2_1_cif.got.tgz:380.got - 2010.06.03 11:33:40.
