data_PCOD9037203
_publ_section_title
;
Structure prediction by ZEFSAII (Michael W. Deem and Ramdas Pophale) SiO2 
 PCOD9037203
Probable space group: P -1
;
_chemical_formula_sum "Si O2"
_cell_formula_units_Z 13
_cell_length_a 6.908074
_cell_length_b 11.630495
_cell_length_c 14.309534
_cell_angle_alpha 47.236975
_cell_angle_beta 137.535185
_cell_angle_gamma 117.720185
_cell_volume 568.378962
_symmetry_space_group_name_H-M "P -1"
_symmetry_group_IT_number 2
_symmetry_cell_setting 'triclinic'
loop_
_space_group_symop_operation_xyz
x,y,z
-x,-y,-z
loop_
_atom_site_type_symbol
_atom_site_label
_atom_site_fract_x
_atom_site_fract_y
_atom_site_fract_z
Si Si1 0.000000 0.000000 0.500000
Si Si2 0.323378 0.279477 0.362122
Si Si3 0.293824 0.119206 0.127172
Si Si4 0.891691 0.380151 0.604665
Si Si5 0.774389 0.940627 0.074955
Si Si6 0.047677 0.471429 0.808452
Si Si7 0.696277 0.232932 0.340360
O O1 0.010073 0.868222 0.481059
O O2 0.860843 0.859248 0.593006
O O3 0.603744 0.305678 0.510192
O O4 0.456849 0.244756 0.326869
O O5 0.128776 0.442117 0.218353
O O6 0.606288 0.112222 0.291091
O O7 0.298197 0.042095 0.070279
O O8 0.193473 0.302988 0.981256
O O9 0.051889 0.035882 0.142999
O O10 0.000000 0.500000 0.500000
O O11 0.139512 0.240885 0.777205
O O12 0.860770 0.448053 0.661036
O O13 0.500000 0.000000 0.000000
O O14 0.265285 0.596358 0.780446
#
# Coordination Sequence:
#
# PCOD9037203 Si02
#       7
#     1   2   2   2   2   2   2
#     4  10  24  40  60  90 128 164 210 254 318 376
#     4  11  23  40  64  93 126 166 211 259 318 374
#     4  10  23  42  61  91 129 161 213 258 311 380
#     4  11  22  42  66  93 126 165 214 262 310 374
#     4  10  24  42  65  90 124 169 210 260 317 370
#     4  10  23  40  63  93 125 167 208 265 310 376
#     4  11  22  40  61  93 125 165 207 262 316 378
#
# _framework density 22.872064000000002
#
# number of rings (size 3 to 8) (size 9 to 14) (size 15 to 20)
#    0.000    1.538    1.538    2.308    2.154    4.308 
#    2.769    0.000    0.000    0.000    0.000    0.000 
#    0.000    0.000    0.000    0.000    0.000    0.000 
#
# Total GULP energy -72469.985695 kJ/mol
# GULP energy per Si atom -5574.614284 kJ/mol
# Density = 2.282001 g / cm^3
# Si number density = 22.872064 Si / 1000 Ang^3
#
#
#
# Elastic Constant Matrix: (Units=GPa)
#
#
# Indices 1 2 3 4 5 6 
#
# 1 180.6572 42.1908 13.7003 -17.9377 18.6567 -1.3387
# 2 42.1908 97.3002 17.6442 -7.9851 -2.1929 6.8942
# 3 13.7003 17.6442 48.6652 -9.8083 4.3904 2.7157
# 4 -17.9377 -7.9851 -9.8083 49.2301 -3.9649 5.8182
# 5 18.6567 -2.1929 4.3904 -3.9649 21.4218 -4.1357
# 6 -1.3387 6.8942 2.7157 5.8182 -4.1357 32.7990
#
#
#
# Elastic Compliance Matrix: (Units=1/GPa)
#
#
# Indices 1 2 3 4 5 6 
#
# 1 0.007043 -0.003055 0.000010 0.001591 -0.006180 -0.000133
# 2 -0.003055 0.012608 -0.003849 0.000766 0.004491 -0.002026
# 3 0.000010 -0.003849 0.023310 0.003915 -0.004926 -0.002436
# 4 0.001591 0.000766 0.003915 0.022396 0.001217 -0.004240
# 5 -0.006180 0.004491 -0.004926 0.001217 0.054901 0.005918
# 6 -0.000133 -0.002026 -0.002436 -0.004240 0.005918 0.032609
#
#
# Mechanical properties :
#
#
# Convention : Reuss Voigt Hill
#
# Bulk Modulus (GPa) = 34.27654 52.63258 43.45456
# Shear Modulus (GPa) = 28.34796 37.56266 32.95531
#
# Velocity S-wave (km/s) = 3.52435 4.05692 3.79998
# Velocity P-wave (km/s) = 5.61962 6.70869 6.18816
#
# Compressibility (1/GPa) = 0.02917447
#
# Stress axis : x y z
#
# Youngs Moduli (GPa) = 141.97892 79.31574 42.89923
#
# Poissons Ratio (x) = 0.24233 -0.00045
# Poissons Ratio (y) = 0.43379 0.16511
# Poissons Ratio (z) = -0.00149 0.30526
#
# Static dielectric constant tensor:
#      x y z
#    x 2.142240 -0.025250 0.416170 
#    y -0.025250 1.895190 0.104780 
#    z 0.416170 0.104780 2.531270 
# 
# From -- ./inp_files/24400.got.cif
#   From: 2010.05.17/outbox.cif.g08.bks.cpg/sg2_13_cif.got.tgz:24400.got - 2010.06.03 11:33:40.
