data_PCOD9037871
_publ_section_title
;
Structure prediction by ZEFSAII (Michael W. Deem and Ramdas Pophale) SiO2 
 PCOD9037871
Probable space group: P -1
;
_chemical_formula_sum "Si O2"
_cell_formula_units_Z 12
_cell_length_a 10.706061
_cell_length_b 4.849188
_cell_length_c 17.968011
_cell_angle_alpha 67.879311
_cell_angle_beta 140.791498
_cell_angle_gamma 90.585589
_cell_volume 478.992470
_symmetry_space_group_name_H-M "P -1"
_symmetry_group_IT_number 2
_symmetry_cell_setting 'triclinic'
loop_
_space_group_symop_operation_xyz
x,y,z
-x,-y,-z
loop_
_atom_site_type_symbol
_atom_site_label
_atom_site_fract_x
_atom_site_fract_y
_atom_site_fract_z
Si Si1 0.957199 0.100250 0.158729
Si Si2 0.200401 0.891969 0.662837
Si Si3 0.330355 0.699847 0.466713
Si Si4 0.268748 0.646924 0.214126
Si Si5 0.691434 0.709273 0.872284
Si Si6 0.099948 0.333477 0.712006
O O1 0.823842 0.944741 0.159109
O O2 0.804016 0.469512 0.019080
O O3 0.150891 0.060246 0.311895
O O4 0.092861 0.845665 0.178965
O O5 0.438701 0.763292 0.747398
O O6 0.179433 0.608706 0.731110
O O7 0.174582 0.177283 0.680445
O O8 0.000000 0.000000 0.500000
O O9 0.500000 0.500000 0.500000
O O10 0.496770 0.651578 0.614906
O O11 0.170438 0.532943 0.427095
O O12 0.190091 0.485947 0.129451
O O13 0.313952 0.932722 0.167615
#
# Coordination Sequence:
#
# PCOD9037871 Si02
#       6
#     2   2   2   2   2   2
#     4   9  23  43  64  99 125 166 209 269 317 368
#     4  12  24  41  63  91 128 168 210 255 309 381
#     4   8  18  42  62  93 120 162 204 258 311 370
#     4  11  22  43  66  94 128 166 212 261 314 378
#     4  12  25  40  66  94 130 170 210 258 317 371
#     4  10  23  41  64  90 126 161 213 255 311 371
#
# _framework density 25.052586999999999
#
# number of rings (size 3 to 8) (size 9 to 14) (size 15 to 20)
#    1.000    0.667    0.000    4.500    0.000    4.000 
#    0.000    3.333    0.000    0.000    0.000    0.000 
#    0.000    0.000    0.000    0.000    0.000    0.000 
#
# Total GULP energy -67162.192565 kJ/mol
# GULP energy per Si atom -5596.849380 kJ/mol
# Density = 2.499557 g / cm^3
# Si number density = 25.052587 Si / 1000 Ang^3
#
#
#
# Elastic Constant Matrix: (Units=GPa)
#
#
# Indices 1 2 3 4 5 6 
#
# 1 94.2210 11.7147 14.4731 -5.0203 1.6755 -6.2312
# 2 11.7147 85.0059 30.8751 4.9204 -6.3232 4.3762
# 3 14.4731 30.8751 154.8104 14.9142 -27.1148 -3.2334
# 4 -5.0203 4.9204 14.9142 17.1311 2.0220 0.9584
# 5 1.6755 -6.3232 -27.1148 2.0220 33.6580 1.5725
# 6 -6.2312 4.3762 -3.2334 0.9584 1.5725 35.7577
#
#
#
# Elastic Compliance Matrix: (Units=1/GPa)
#
#
# Indices 1 2 3 4 5 6 
#
# 1 0.011554 -0.001591 -0.001727 0.005551 -0.002693 0.002022
# 2 -0.001591 0.013064 -0.002072 -0.002431 0.001106 -0.002047
# 3 -0.001727 -0.002072 0.009246 -0.008902 0.007647 0.000691
# 4 0.005551 -0.002431 -0.008902 0.069921 -0.012063 -0.000884
# 5 -0.002693 0.001106 0.007647 -0.012063 0.036995 -0.001217
# 6 0.002022 -0.002047 0.000691 -0.000884 -0.001217 0.028708
#
#
# Mechanical properties :
#
#
# Convention : Reuss Voigt Hill
#
# Bulk Modulus (GPa) = 43.31912 49.79590 46.55751
# Shear Modulus (GPa) = 26.60121 35.77433 31.18777
#
# Velocity S-wave (km/s) = 3.26209 3.78295 3.53213
# Velocity P-wave (km/s) = 5.61401 6.24505 5.93792
#
# Compressibility (1/GPa) = 0.02308449
#
# Stress axis : x y z
#
# Youngs Moduli (GPa) = 86.55166 76.54700 108.15989
#
# Poissons Ratio (x) = 0.12176 0.18682
# Poissons Ratio (y) = 0.13767 0.22405
# Poissons Ratio (z) = 0.14950 0.15857
#
# Static dielectric constant tensor:
#      x y z
#    x 2.018900 -0.036220 -0.015060 
#    y -0.036220 1.916720 -0.009440 
#    z -0.015060 -0.009440 2.047200 
# 
# From -- ./inp_files/95760.got.cif
#   From: 2010.05.17/outbox.cif.g08.bks.cpg/sg2_48_cif.got.tgz:95760.got - 2010.06.03 11:33:40.
