data_PCOD9037804
_publ_section_title
;
Structure prediction by ZEFSAII (Michael W. Deem and Ramdas Pophale) SiO2 
 PCOD9037804
Probable space group: P -1
;
_chemical_formula_sum "Si O2"
_cell_formula_units_Z 16
_cell_length_a 13.114623
_cell_length_b 11.794842
_cell_length_c 9.057708
_cell_angle_alpha 39.831043
_cell_angle_beta 110.201562
_cell_angle_gamma 122.848027
_cell_volume 747.314423
_symmetry_space_group_name_H-M "P -1"
_symmetry_group_IT_number 2
_symmetry_cell_setting 'triclinic'
loop_
_space_group_symop_operation_xyz
x,y,z
-x,-y,-z
loop_
_atom_site_type_symbol
_atom_site_label
_atom_site_fract_x
_atom_site_fract_y
_atom_site_fract_z
Si Si1 0.701121 0.592278 0.182139
Si Si2 0.626303 0.201913 0.031696
Si Si3 0.981318 0.676271 0.238926
Si Si4 0.701121 0.592277 0.834430
Si Si5 0.981319 0.676271 0.889852
Si Si6 0.215043 0.969328 0.211808
Si Si7 0.215044 0.969331 0.564576
Si Si8 0.626303 0.201915 0.690781
O O1 0.620484 0.395533 0.431040
O O2 0.842743 0.638285 0.226950
O O3 0.670640 0.554532 0.030790
O O4 0.702347 0.799037 0.018972
O O5 0.721209 0.161183 0.217519
O O6 0.500000 0.000000 0.178845
O O7 0.620485 0.395531 0.898385
O O8 0.666621 0.236438 0.846873
O O9 0.000000 0.500000 0.500000
O O10 0.082680 0.877797 0.161710
O O11 0.004208 0.679884 0.072221
O O12 0.702347 0.799035 0.585306
O O13 0.842744 0.638286 0.839225
O O14 0.082681 0.877798 0.665377
O O15 0.000000 0.500000 0.000000
O O16 0.200921 0.957835 0.392626
O O17 0.278788 0.838812 0.318679
#
# Coordination Sequence:
#
# PCOD9037804 Si02
#       8
#     2   2   2   2   2   2   2   2
#     4  10  23  41  63  91 123 161 202 246 300 362
#     4  11  25  43  63  88 119 159 206 255 305 357
#     4  11  21  36  61  93 126 162 200 242 299 360
#     4  10  23  41  63  91 123 161 202 246 300 362
#     4  11  21  36  61  93 126 162 200 242 299 360
#     4  11  23  40  63  92 124 160 202 247 302 362
#     4  11  23  40  63  92 124 160 202 247 302 362
#     4  11  25  43  63  88 119 159 206 255 305 357
#
# _framework density 21.409998000000002
#
# number of rings (size 3 to 8) (size 9 to 14) (size 15 to 20)
#    0.000    1.250    2.500    3.000    0.000    6.000 
#    0.000    5.000    0.000    0.000    0.000    0.000 
#    0.000    0.000    0.000    0.000    0.000    0.000 
#
# Total GULP energy -89519.678235 kJ/mol
# GULP energy per Si atom -5594.979890 kJ/mol
# Density = 2.136127 g / cm^3
# Si number density = 21.409998 Si / 1000 Ang^3
#
#
#
# Elastic Constant Matrix: (Units=GPa)
#
#
# Indices 1 2 3 4 5 6 
#
# 1 22.9289 7.8148 10.2066 1.8854 -2.7101 -1.1104
# 2 7.8148 115.1613 41.2875 -18.1867 -6.3190 -13.5196
# 3 10.2066 41.2875 125.6264 -20.6305 -12.3124 -13.2886
# 4 1.8854 -18.1867 -20.6305 27.7957 -4.4275 4.6007
# 5 -2.7101 -6.3190 -12.3124 -4.4275 25.8191 -7.4567
# 6 -1.1104 -13.5196 -13.2886 4.6007 -7.4567 18.7834
#
#
#
# Elastic Compliance Matrix: (Units=1/GPa)
#
#
# Indices 1 2 3 4 5 6 
#
# 1 0.047210 -0.002941 -0.004080 -0.008024 0.000952 0.000132
# 2 -0.002941 0.011524 -0.001134 0.006449 0.005348 0.007862
# 3 -0.004080 -0.001134 0.011827 0.008272 0.008899 0.008817
# 4 -0.008024 0.006449 0.008272 0.048505 0.014074 0.003726
# 5 0.000952 0.005348 0.008899 0.014074 0.055060 0.028612
# 6 0.000132 0.007862 0.008817 0.003726 0.028612 0.075589
#
#
# Mechanical properties :
#
#
# Convention : Reuss Voigt Hill
#
# Bulk Modulus (GPa) = 18.43193 42.48161 30.45677
# Shear Modulus (GPa) = 17.59886 28.10681 22.85284
#
# Velocity S-wave (km/s) = 2.87015 3.62717 3.27064
# Velocity P-wave (km/s) = 4.42848 6.11775 5.34033
#
# Compressibility (1/GPa) = 0.05425367
#
# Stress axis : x y z
#
# Youngs Moduli (GPa) = 21.18188 86.77277 84.54913
#
# Poissons Ratio (x) = 0.25516 0.34494
# Poissons Ratio (y) = 0.06229 0.09586
# Poissons Ratio (z) = 0.08642 0.09839
#
# Static dielectric constant tensor:
#      x y z
#    x 1.764940 0.024320 0.000480 
#    y 0.024320 1.754550 -0.040360 
#    z 0.000480 -0.040360 1.756610 
# 
# From -- ./inp_files/272343.got.cif
#   From: 2010.05.17/outbox.cif.g08.bks.cpg/sg2_137_cif.got.tgz:272343.got - 2010.06.03 11:33:40.
