data_PCOD9037870
_publ_section_title
;
Structure prediction by ZEFSAII (Michael W. Deem and Ramdas Pophale) SiO2 
 PCOD9037870
Probable space group: P -1
;
_chemical_formula_sum "Si O2"
_cell_formula_units_Z 15
_cell_length_a 26.203787
_cell_length_b 24.788387
_cell_length_c 14.705991
_cell_angle_alpha 19.598937
_cell_angle_beta 19.951584
_cell_angle_gamma 11.211299
_cell_volume 604.190986
_symmetry_space_group_name_H-M "P -1"
_symmetry_group_IT_number 2
_symmetry_cell_setting 'triclinic'
loop_
_space_group_symop_operation_xyz
x,y,z
-x,-y,-z
loop_
_atom_site_type_symbol
_atom_site_label
_atom_site_fract_x
_atom_site_fract_y
_atom_site_fract_z
Si Si1 0.732591 0.409755 0.922887
Si Si2 0.659110 0.008537 0.462234
Si Si3 0.197997 0.220081 0.672273
Si Si4 0.246882 0.120192 0.943880
Si Si5 0.000000 0.000000 0.500000
Si Si6 0.370056 0.874039 0.468549
Si Si7 0.029867 0.699593 0.695086
Si Si8 0.907755 0.181001 0.181078
O O1 0.530159 0.697217 0.745210
O O2 0.710866 0.241333 0.198926
O O3 0.034839 0.207076 0.723940
O O4 0.704415 0.421535 0.061924
O O5 0.611227 0.068346 0.555243
O O6 0.542691 0.934896 0.751312
O O7 0.000000 0.500000 0.500000
O O8 0.500000 0.000000 0.500000
O O9 0.131836 0.306793 0.750471
O O10 0.157378 0.077869 0.928925
O O11 0.198196 0.978936 0.222273
O O12 0.090121 0.281668 0.045303
O O13 0.833207 0.248739 0.304177
O O14 0.660489 0.617051 0.340637
O O15 0.153059 0.153170 0.322314
O O16 0.004289 0.913720 0.421831
#
# Coordination Sequence:
#
# PCOD9037870 Si02
#       8
#     2   2   2   2   1   2   2   2
#     4  11  22  39  63  94 130 167 207 258 317 377
#     4  12  24  39  65  95 130 167 209 263 315 377
#     4  11  23  39  62  92 125 159 201 258 317 374
#     4  10  23  42  66  96 128 167 214 261 319 375
#     4   8  18  42  66  90 124 166 210 260 310 376
#     4  11  23  41  64  93 128 170 213 258 313 373
#     4  10  23  41  64  90 125 170 214 259 307 373
#     4   9  19  38  62  87 120 160 205 250 307 369
#
# _framework density 24.826587
#
# number of rings (size 3 to 8) (size 9 to 14) (size 15 to 20)
#    0.000    1.600    0.000    4.800    0.000    5.333 
#    0.000    0.000    0.000   24.800    0.000    0.000 
#    0.000    0.000    0.000    0.000    0.000    0.000 
#
# Total GULP energy -83618.911910 kJ/mol
# GULP energy per Si atom -5574.594127 kJ/mol
# Density = 2.477008 g / cm^3
# Si number density = 24.826587 Si / 1000 Ang^3
#
#
#
# Elastic Constant Matrix: (Units=GPa)
#
#
# Indices 1 2 3 4 5 6 
#
# 1 142.8969 38.9539 58.3922 -0.7805 17.5517 -38.7544
# 2 38.9539 133.9580 53.9566 25.4645 7.9486 -27.2467
# 3 58.3922 53.9566 123.8502 27.3786 0.4595 -18.3134
# 4 -0.7805 25.4645 27.3786 16.1913 -8.4441 -0.9908
# 5 17.5517 7.9486 0.4595 -8.4441 56.3672 3.3276
# 6 -38.7544 -27.2467 -18.3134 -0.9908 3.3276 30.4563
#
#
#
# Elastic Compliance Matrix: (Units=1/GPa)
#
#
# Indices 1 2 3 4 5 6 
#
# 1 0.014552 -0.000797 -0.007475 0.013831 -0.003118 0.014100
# 2 -0.000797 0.016808 0.003214 -0.035309 -0.008366 0.015720
# 3 -0.007475 0.003214 0.020101 -0.041624 -0.004798 0.004621
# 4 0.013831 -0.035309 -0.041624 0.203687 0.033654 -0.036067
# 5 -0.003118 -0.008366 -0.004798 0.033654 0.025921 -0.016074
# 6 0.014100 0.015720 0.004621 -0.036067 -0.016074 0.068201
#
#
# Mechanical properties :
#
#
# Convention : Reuss Voigt Hill
#
# Bulk Modulus (GPa) = 24.18634 78.14561 51.16598
# Shear Modulus (GPa) = 13.39879 37.22981 25.31430
#
# Velocity S-wave (km/s) = 2.32565 3.87666 3.19665
# Velocity P-wave (km/s) = 4.12005 7.18212 5.85482
#
# Compressibility (1/GPa) = 0.04134565
#
# Stress axis : x y z
#
# Youngs Moduli (GPa) = 68.71683 59.49551 49.74939
#
# Poissons Ratio (x) = 0.04743 0.37187
# Poissons Ratio (y) = 0.05478 -0.15991
# Poissons Ratio (z) = 0.51365 -0.19124
#
# Static dielectric constant tensor:
#      x y z
#    x 2.099760 0.063720 0.085420 
#    y 0.063720 1.921690 -0.018680 
#    z 0.085420 -0.018680 2.108280 
# 
# From -- ./inp_files/522056.got.cif
#   From: 2010.05.17/outbox.cif.g08.bks.cpg/sg2_262_cif.got.tgz:522056.got - 2010.06.03 11:33:40.
