data_PCOD9037579
_publ_section_title
;
Structure prediction by ZEFSAII (Michael W. Deem and Ramdas Pophale) SiO2 
 PCOD9037579
Probable space group: P -1
;
_chemical_formula_sum "Si O2"
_cell_formula_units_Z 14
_cell_length_a 5.190955
_cell_length_b 23.377064
_cell_length_c 15.300075
_cell_angle_alpha 157.871455
_cell_angle_beta 114.507332
_cell_angle_gamma 77.580685
_cell_volume 553.431347
_symmetry_space_group_name_H-M "P -1"
_symmetry_group_IT_number 2
_symmetry_cell_setting 'triclinic'
loop_
_space_group_symop_operation_xyz
x,y,z
-x,-y,-z
loop_
_atom_site_type_symbol
_atom_site_label
_atom_site_fract_x
_atom_site_fract_y
_atom_site_fract_z
Si Si1 0.283974 0.636150 0.669761
Si Si2 0.233295 0.060276 0.034773
Si Si3 0.346025 0.670224 0.264992
Si Si4 0.267346 0.629332 0.005359
Si Si5 0.711720 0.046762 0.837250
Si Si6 0.962479 0.721515 0.955023
Si Si7 0.537326 0.415934 0.659723
O O1 0.628705 0.723690 0.893106
O O2 0.210099 0.491773 0.381306
O O3 0.000000 0.500000 0.500000
O O4 0.259251 0.805321 0.881371
O O5 0.388406 0.268002 0.357323
O O6 0.004034 0.006412 0.841781
O O7 0.500000 0.000000 0.000000
O O8 0.000000 0.000000 0.000000
O O9 0.549959 0.668184 0.374411
O O10 0.382306 0.863386 0.542015
O O11 0.467601 0.670198 0.182598
O O12 0.000000 0.500000 0.000000
O O13 0.419645 0.558027 0.853157
O O14 0.176364 0.761857 0.129932
O O15 0.916399 0.497811 0.809804
O O16 0.796586 0.150568 0.904720
#
# Coordination Sequence:
#
# PCOD9037579 Si02
#       7
#     2   2   2   2   2   2   2
#     4   9  21  41  65  98 143 179 223 285 360 423
#     4  12  26  43  68 107 142 178 231 297 361 427
#     4  10  24  49  70  99 141 194 243 297 345 417
#     4  11  25  44  72  99 138 194 237 286 345 425
#     4  11  24  43  71 103 144 182 235 295 359 426
#     4  10  23  40  69 104 140 182 231 290 363 423
#     4  11  24  45  71  99 143 184 239 289 356 419
#
# _framework density 25.296724000000001
#
# number of rings (size 3 to 8) (size 9 to 14) (size 15 to 20)
#    0.000    1.429    1.429    2.143   12.000    0.571 
#    7.714    0.714    0.000    0.000    0.000    0.000 
#    0.000    0.000    0.000    0.000    0.000    0.000 
#
# Total GULP energy -77937.108823 kJ/mol
# GULP energy per Si atom -5566.936345 kJ/mol
# Density = 2.523915 g / cm^3
# Si number density = 25.296724 Si / 1000 Ang^3
#
#
#
# Elastic Constant Matrix: (Units=GPa)
#
#
# Indices 1 2 3 4 5 6 
#
# 1 65.3948 -37.5088 41.9958 -11.2064 -0.0632 -1.8466
# 2 -37.5088 63.1064 35.5662 -5.5021 21.0580 27.8552
# 3 41.9958 35.5662 122.6141 30.2700 4.5258 -3.4979
# 4 -11.2064 -5.5021 30.2700 26.2768 8.3519 12.9326
# 5 -0.0632 21.0580 4.5258 8.3519 27.5163 8.0811
# 6 -1.8466 27.8552 -3.4979 12.9326 8.0811 24.5388
#
#
#
# Elastic Compliance Matrix: (Units=1/GPa)
#
#
# Indices 1 2 3 4 5 6 
#
# 1 0.006075 -0.008529 0.003917 -0.013214 0.005226 0.015940
# 2 -0.008529 -0.000743 0.008044 -0.018913 0.001819 0.010717
# 3 0.003917 0.008044 0.002579 0.007353 -0.005732 -0.010457
# 4 -0.013214 -0.018913 0.007353 0.011478 0.005763 0.013575
# 5 0.005226 0.001819 -0.005732 0.005763 0.039609 -0.018570
# 6 0.015940 0.010717 -0.010457 0.013575 -0.018570 0.027256
#
#
# Mechanical properties :
#
#
# Convention : Reuss Voigt Hill
#
# Bulk Modulus (GPa) = 67.67826 36.80240 52.24033
# Shear Modulus (GPa) = 59.30252 29.73718 44.51985
#
# Velocity S-wave (km/s) = 4.84703 3.43233 4.19967
# Velocity P-wave (km/s) = 7.62474 5.50343 6.64923
#
# Compressibility (1/GPa) = 0.01477579
#
# Stress axis : x y z
#
# Youngs Moduli (GPa) = 164.60943 -1345.42035 387.79034
#
# Poissons Ratio (x) = -11.47492 -1.51905
# Poissons Ratio (y) = 1.40393 -3.11952
# Poissons Ratio (z) = -0.64481 10.82303
#
# Static dielectric constant tensor:
#      x y z
#    x 2.151050 -0.001290 -0.052870 
#    y -0.001290 2.149390 -0.102550 
#    z -0.052870 -0.102550 2.135640 
# 
# From -- ./inp_files/369124.got.cif
#   From: 2010.05.17/outbox.cif.g08.bks.cpg/sg2_185_cif.got.tgz:369124.got - 2010.06.03 11:33:40.
