data_PCOD9037581
_publ_section_title
;
Structure prediction by ZEFSAII (Michael W. Deem and Ramdas Pophale) SiO2 
 PCOD9037581
Probable space group: P -1
;
_chemical_formula_sum "Si O2"
_cell_formula_units_Z 14
_cell_length_a 9.781242
_cell_length_b 16.540883
_cell_length_c 11.631253
_cell_angle_alpha 127.115777
_cell_angle_beta 25.879559
_cell_angle_gamma 114.860952
_cell_volume 613.079922
_symmetry_space_group_name_H-M "P -1"
_symmetry_group_IT_number 2
_symmetry_cell_setting 'triclinic'
loop_
_space_group_symop_operation_xyz
x,y,z
-x,-y,-z
loop_
_atom_site_type_symbol
_atom_site_label
_atom_site_fract_x
_atom_site_fract_y
_atom_site_fract_z
Si Si1 0.693096 0.292310 0.257694
Si Si2 0.376272 0.403563 0.970332
Si Si3 0.890441 0.724938 0.758928
Si Si4 0.273640 0.487842 0.880405
Si Si5 0.326018 0.033853 0.782730
Si Si6 0.260150 0.162517 0.567308
Si Si7 0.399131 0.702104 0.924462
O O1 0.591713 0.391085 0.506112
O O2 0.545430 0.205609 0.345771
O O3 0.510408 0.329813 0.304761
O O4 0.230460 0.159815 0.988558
O O5 0.183972 0.449023 0.036474
O O6 0.722225 0.308040 0.594956
O O7 0.500000 0.500000 0.000000
O O8 0.183160 0.363086 0.178655
O O9 0.673530 0.729952 0.812498
O O10 0.337681 0.599577 0.938881
O O11 0.000000 0.500000 0.000000
O O12 0.075369 0.232402 0.879101
O O13 0.500000 0.000000 0.500000
O O14 0.579817 0.961230 0.624668
O O15 0.000000 0.000000 0.000000
O O16 0.955192 0.198536 0.737342
#
# Coordination Sequence:
#
# PCOD9037581 Si02
#       7
#     2   2   2   2   2   2   2
#     4  10  23  40  69 106 143 183 234 304 345 431
#     4  12  29  48  73 110 156 190 244 297 369 455
#     4  12  29  49  75 105 147 200 238 308 373 436
#     4  12  24  43  75 108 150 194 246 293 369 431
#     4  12  28  50  75 104 142 191 254 308 373 431
#     4  10  24  44  69 101 141 179 248 297 356 423
#     4  10  25  43  72 104 148 184 248 286 374 437
#
# _framework density 22.835522999999998
#
# number of rings (size 3 to 8) (size 9 to 14) (size 15 to 20)
#    0.857    0.000    2.857    2.571   10.000    1.714 
#    0.000    0.714    0.000    0.000    0.000    0.000 
#    0.000    0.000    0.000    0.000    0.000    0.000 
#
# Total GULP energy -78377.878675 kJ/mol
# GULP energy per Si atom -5598.419905 kJ/mol
# Density = 2.278355 g / cm^3
# Si number density = 22.835523 Si / 1000 Ang^3
#
#
#
# Elastic Constant Matrix: (Units=GPa)
#
#
# Indices 1 2 3 4 5 6 
#
# 1 90.4580 8.6966 2.7713 3.7978 -19.0843 -6.3323
# 2 8.6966 72.0603 2.7384 -2.1894 -4.9561 -11.9782
# 3 2.7713 2.7384 42.6689 -9.8955 3.9421 -3.5116
# 4 3.7978 -2.1894 -9.8955 45.4728 -3.8686 5.0867
# 5 -19.0843 -4.9561 3.9421 -3.8686 34.1910 0.0764
# 6 -6.3323 -11.9782 -3.5116 5.0867 0.0764 35.8411
#
#
#
# Elastic Compliance Matrix: (Units=1/GPa)
#
#
# Indices 1 2 3 4 5 6 
#
# 1 0.012859 -0.000699 -0.001528 -0.001060 0.007128 0.002024
# 2 -0.000699 0.014913 -0.000631 0.000266 0.001863 0.004757
# 3 -0.001528 -0.000631 0.025178 0.005157 -0.003267 0.001261
# 4 -0.001060 0.000266 0.005157 0.023676 0.001538 -0.002957
# 5 0.007128 0.001863 -0.003267 0.001538 0.034044 0.001271
# 6 0.002024 0.004757 0.001261 -0.002957 0.001271 0.030389
#
#
# Mechanical properties :
#
#
# Convention : Reuss Voigt Hill
#
# Bulk Modulus (GPa) = 21.17184 25.95556 23.56370
# Shear Modulus (GPa) = 30.76571 35.83303 33.29937
#
# Velocity S-wave (km/s) = 3.67451 3.96558 3.82282
# Velocity P-wave (km/s) = 5.22439 5.68848 5.46137
#
# Compressibility (1/GPa) = 0.04723254
#
# Stress axis : x y z
#
# Youngs Moduli (GPa) = 77.76747 67.05755 39.71781
#
# Poissons Ratio (x) = 0.04690 0.06069
# Poissons Ratio (y) = 0.05439 0.02505
# Poissons Ratio (z) = 0.11884 0.04229
#
# Static dielectric constant tensor:
#      x y z
#    x 1.887030 -0.023940 -0.024220 
#    y -0.023940 1.811520 0.029520 
#    z -0.024220 0.029520 1.880930 
# 
# From -- ./inp_files/399228.got.cif
#   From: 2010.05.17/outbox.cif.g08.bks.cpg/sg2_200_cif.got.tgz:399228.got - 2010.06.03 11:33:40.
