data_PCOD9037666
_publ_section_title
;
Structure prediction by ZEFSAII (Michael W. Deem and Ramdas Pophale) SiO2 
 PCOD9037666
Probable space group: P -1
;
_chemical_formula_sum "Si O2"
_cell_formula_units_Z 14
_cell_length_a 12.836632
_cell_length_b 23.268002
_cell_length_c 6.128638
_cell_angle_alpha 71.980617
_cell_angle_beta 56.715349
_cell_angle_gamma 26.472360
_cell_volume 595.316486
_symmetry_space_group_name_H-M "P -1"
_symmetry_group_IT_number 2
_symmetry_cell_setting 'triclinic'
loop_
_space_group_symop_operation_xyz
x,y,z
-x,-y,-z
loop_
_atom_site_type_symbol
_atom_site_label
_atom_site_fract_x
_atom_site_fract_y
_atom_site_fract_z
Si Si1 0.714544 0.099760 0.844025
Si Si2 0.845751 0.187415 0.149335
Si Si3 0.747080 0.889960 0.156736
Si Si4 0.672553 0.623520 0.812027
Si Si5 0.651421 0.845053 0.953697
Si Si6 0.510065 0.391647 0.653981
Si Si7 0.262656 0.598420 0.355022
O O1 0.504412 0.243178 0.025793
O O2 0.492033 0.157621 0.881081
O O3 0.000000 0.000000 0.500000
O O4 0.876341 0.983023 0.971942
O O5 0.566720 0.292765 0.194686
O O6 0.717048 0.249804 0.468390
O O7 0.967991 0.201602 0.956437
O O8 0.500000 0.000000 0.500000
O O9 0.629251 0.988104 0.989822
O O10 0.782327 0.812094 0.072985
O O11 0.000000 0.500000 0.500000
O O12 0.716108 0.546115 0.009477
O O13 0.903522 0.742297 0.592764
O O14 0.706111 0.352151 0.612255
O O15 0.366038 0.497082 0.509793
O O16 0.500000 0.500000 0.000000
#
# Coordination Sequence:
#
# PCOD9037666 Si02
#       7
#     2   2   2   2   2   2   2
#     4  11  25  48  72 104 151 199 241 304 367 448
#     4  11  24  47  73 103 141 193 246 305 369 434
#     4  10  23  40  72 103 135 185 234 312 365 429
#     4  12  29  48  76 107 149 201 253 301 369 452
#     4  10  24  43  67 106 142 179 254 299 369 445
#     4  11  25  45  72 104 144 188 251 303 375 430
#     4  11  25  44  74 105 149 195 237 316 384 434
#
# _framework density 23.516902999999999
#
# number of rings (size 3 to 8) (size 9 to 14) (size 15 to 20)
#    0.000    1.143    2.857    1.286   10.000    1.714 
#    2.571    0.000    0.000    0.000    0.000    0.000 
#    0.000    0.000    0.000    0.000    0.000    0.000 
#
# Total GULP energy -78207.774673 kJ/mol
# GULP energy per Si atom -5586.269620 kJ/mol
# Density = 2.346338 g / cm^3
# Si number density = 23.516903 Si / 1000 Ang^3
#
#
#
# Elastic Constant Matrix: (Units=GPa)
#
#
# Indices 1 2 3 4 5 6 
#
# 1 205.1074 49.5304 93.7113 14.4168 -18.0201 -0.1845
# 2 49.5304 98.7483 42.0679 7.9928 -3.1333 2.4236
# 3 93.7113 42.0679 169.1869 16.0822 -31.0470 1.7520
# 4 14.4168 7.9928 16.0822 33.7661 1.2477 -3.6122
# 5 -18.0201 -3.1333 -31.0470 1.2477 48.0160 8.1467
# 6 -0.1845 2.4236 1.7520 -3.6122 8.1467 28.3791
#
#
#
# Elastic Compliance Matrix: (Units=1/GPa)
#
#
# Indices 1 2 3 4 5 6 
#
# 1 0.006914 -0.002036 -0.003157 -0.000963 0.000416 0.000172
# 2 -0.002036 0.012054 -0.001958 -0.001092 -0.001088 -0.000748
# 3 -0.003157 -0.001958 0.009434 -0.003128 0.005267 -0.002346
# 4 -0.000963 -0.001092 -0.003128 0.032536 -0.004258 0.005644
# 5 0.000416 -0.001088 0.005267 -0.004258 0.025816 -0.008182
# 6 0.000172 -0.000748 -0.002346 0.005644 -0.008182 0.038514
#
#
# Mechanical properties :
#
#
# Convention : Reuss Voigt Hill
#
# Bulk Modulus (GPa) = 70.91814 93.74019 82.32917
# Shear Modulus (GPa) = 34.65707 41.21443 37.93575
#
# Velocity S-wave (km/s) = 3.84306 4.19088 4.02073
# Velocity P-wave (km/s) = 7.06497 7.96023 7.52593
#
# Compressibility (1/GPa) = 0.01410076
#
# Stress axis : x y z
#
# Youngs Moduli (GPa) = 144.63178 82.95891 105.99739
#
# Poissons Ratio (x) = 0.16891 0.33465
# Poissons Ratio (y) = 0.29447 0.20751
# Poissons Ratio (z) = 0.45663 0.16240
#
# Static dielectric constant tensor:
#      x y z
#    x 1.922140 -0.019600 0.008510 
#    y -0.019600 1.994550 -0.019380 
#    z 0.008510 -0.019380 1.933420 
# 
# From -- ./inp_files/84357.got.cif
#   From: 2010.05.17/outbox.cif.g08.bks.cpg/sg2_43_cif.got.tgz:84357.got - 2010.06.03 11:33:40.
