data_PCOD9037362
_publ_section_title
;
Structure prediction by ZEFSAII (Michael W. Deem and Ramdas Pophale) SiO2 
 PCOD9037362
Probable space group: P -1
;
_chemical_formula_sum "Si O2"
_cell_formula_units_Z 16
_cell_length_a 7.352397
_cell_length_b 14.512648
_cell_length_c 12.649969
_cell_angle_alpha 149.410880
_cell_angle_beta 76.099729
_cell_angle_gamma 92.521211
_cell_volume 629.504421
_symmetry_space_group_name_H-M "P -1"
_symmetry_group_IT_number 2
_symmetry_cell_setting 'triclinic'
loop_
_space_group_symop_operation_xyz
x,y,z
-x,-y,-z
loop_
_atom_site_type_symbol
_atom_site_label
_atom_site_fract_x
_atom_site_fract_y
_atom_site_fract_z
Si Si1 0.675844 0.081951 0.958821
Si Si2 0.817173 0.348711 0.346249
Si Si3 0.669192 0.250541 0.472152
Si Si4 0.246331 0.172869 0.020942
Si Si5 0.805681 0.280542 0.714459
Si Si6 0.119727 0.374416 0.030479
Si Si7 0.870275 0.116615 0.752175
Si Si8 0.747977 0.654607 0.485864
O O1 0.756185 0.158366 0.919251
O O2 0.770945 0.853199 0.716028
O O3 0.737297 0.181531 0.148085
O O4 0.442426 0.129717 0.020629
O O5 0.763558 0.369035 0.496790
O O6 0.951066 0.711890 0.774169
O O7 0.716882 0.531918 0.468303
O O8 0.690727 0.281541 0.622875
O O9 0.443424 0.296676 0.513987
O O10 0.779022 0.026957 0.210192
O O11 0.264279 0.273976 0.007209
O O12 0.735396 0.210313 0.763167
O O13 0.811398 0.495600 0.932677
O O14 0.018952 0.110851 0.500898
O O15 0.934746 0.525352 0.266434
O O16 0.039228 0.217607 0.833875
#
# Coordination Sequence:
#
# PCOD9037362 Si02
#       8
#     2   2   2   2   2   2   2   2
#     4  11  22  44  69  97 136 178 217 278 338 383
#     4  11  23  46  69  95 142 177 217 280 330 394
#     4  11  23  45  65  99 136 175 226 275 327 401
#     4  10  23  40  68 102 129 172 229 268 327 405
#     4  11  24  41  70 100 132 177 222 277 335 392
#     4  11  21  43  66  98 133 173 222 276 326 397
#     4  11  22  44  70  96 135 179 217 278 344 387
#     4  10  23  40  66 100 132 174 224 271 330 402
#
# _framework density 25.416820000000001
#
# number of rings (size 3 to 8) (size 9 to 14) (size 15 to 20)
#    0.000    1.250    5.000    1.125    1.750    2.000 
#    4.500    7.500    0.000    0.000    0.000    0.000 
#    0.000    0.000    0.000    0.000    0.000    0.000 
#
# Total GULP energy -89777.791984 kJ/mol
# GULP energy per Si atom -5611.111999 kJ/mol
# Density = 2.535897 g / cm^3
# Si number density = 25.416820 Si / 1000 Ang^3
#
#
#
# Elastic Constant Matrix: (Units=GPa)
#
#
# Indices 1 2 3 4 5 6 
#
# 1 58.4382 15.2706 7.8973 -7.3954 15.5032 -10.9408
# 2 15.2706 165.8537 23.3709 1.9721 17.6646 -17.3399
# 3 7.8973 23.3709 73.7085 3.1043 22.5446 -3.3466
# 4 -7.3954 1.9721 3.1043 41.1062 1.7398 9.1122
# 5 15.5032 17.6646 22.5446 1.7398 36.3233 1.3962
# 6 -10.9408 -17.3399 -3.3466 9.1122 1.3962 32.5464
#
#
#
# Elastic Compliance Matrix: (Units=1/GPa)
#
#
# Indices 1 2 3 4 5 6 
#
# 1 0.021315 -0.000379 0.001079 0.002698 -0.009971 0.006747
# 2 -0.000379 0.006916 -0.001141 -0.001057 -0.002591 0.003847
# 3 0.001079 -0.001141 0.017213 -0.001109 -0.010625 0.002291
# 4 0.002698 -0.001057 -0.001109 0.026577 -0.000946 -0.007170
# 5 -0.009971 -0.002591 -0.010625 -0.000946 0.039966 -0.007274
# 6 0.006747 0.003847 0.002291 -0.007170 -0.007274 0.037598
#
#
# Mechanical properties :
#
#
# Convention : Reuss Voigt Hill
#
# Bulk Modulus (GPa) = 22.44029 43.45311 32.94670
# Shear Modulus (GPa) = 30.24430 38.75930 34.50180
#
# Velocity S-wave (km/s) = 3.45328 3.90929 3.68834
# Velocity P-wave (km/s) = 4.97477 6.12455 5.57935
#
# Compressibility (1/GPa) = 0.04456270
#
# Stress axis : x y z
#
# Youngs Moduli (GPa) = 46.91479 144.59794 58.09430
#
# Poissons Ratio (x) = 0.05485 -0.06269
# Poissons Ratio (y) = 0.01780 0.06626
# Poissons Ratio (z) = -0.05062 0.16493
#
# Static dielectric constant tensor:
#      x y z
#    x 1.993700 0.013600 0.024030 
#    y 0.013600 2.010570 0.018620 
#    z 0.024030 0.018620 1.977660 
# 
# From -- ./inp_files/400038.got.cif
#   From: 2010.05.17/outbox.cif.g08.bks.cpg/sg2_201_cif.got.tgz:400038.got - 2010.06.03 11:33:40.
