data_PCOD9037991
_publ_section_title
;
Structure prediction by ZEFSAII (Michael W. Deem and Ramdas Pophale) SiO2 
 PCOD9037991
Probable space group: P -1
;
_chemical_formula_sum "Si O2"
_cell_formula_units_Z 16
_cell_length_a 8.078748
_cell_length_b 17.728099
_cell_length_c 19.598820
_cell_angle_alpha 150.619422
_cell_angle_beta 34.671405
_cell_angle_gamma 142.901655
_cell_volume 749.719959
_symmetry_space_group_name_H-M "P -1"
_symmetry_group_IT_number 2
_symmetry_cell_setting 'triclinic'
loop_
_space_group_symop_operation_xyz
x,y,z
-x,-y,-z
loop_
_atom_site_type_symbol
_atom_site_label
_atom_site_fract_x
_atom_site_fract_y
_atom_site_fract_z
Si Si1 0.756440 0.566450 0.059223
Si Si2 0.296647 0.112637 0.068862
Si Si3 0.296210 0.041394 0.387960
Si Si4 0.315244 0.782263 0.848359
Si Si5 0.107530 0.548094 0.222948
Si Si6 0.173654 0.683330 0.599409
Si Si7 0.310696 0.238737 0.415459
Si Si8 0.649505 0.247584 0.922123
O O1 0.464880 0.616317 0.171881
O O2 0.011937 0.700341 0.118290
O O3 0.904453 0.499671 0.891119
O O4 0.625428 0.415773 0.035023
O O5 0.567926 0.171886 0.078391
O O6 0.047431 0.205296 0.237801
O O7 0.420783 0.164435 0.992941
O O8 0.199170 0.921527 0.962807
O O9 0.542089 0.209330 0.457655
O O10 0.227287 0.075166 0.358673
O O11 0.400728 0.881960 0.223457
O O12 0.000000 0.000000 0.500000
O O13 0.620020 0.776113 0.698770
O O14 0.054564 0.616144 0.811459
O O15 0.916728 0.666222 0.405741
O O16 0.348044 0.677486 0.606489
O O17 0.000000 0.500000 0.500000
#
# Coordination Sequence:
#
# PCOD9037991 Si02
#       8
#     2   2   2   2   2   2   2   2
#     4  10  25  39  70  95 130 178 220 267 335 396
#     4  11  23  42  68  96 131 167 225 276 320 394
#     4  10  23  42  67  93 136 168 216 274 335 390
#     4  11  23  41  65  94 137 173 212 280 331 385
#     4  11  22  43  62  99 136 173 216 271 333 399
#     4  10  24  41  70  99 129 175 223 274 330 392
#     4  10  23  41  65  95 135 173 215 275 333 390
#     4  11  22  45  67  96 127 174 224 275 321 397
#
# _framework density 21.341303
#
# number of rings (size 3 to 8) (size 9 to 14) (size 15 to 20)
#    0.750    0.750    2.500    1.875    3.500    2.000 
#    2.250    0.625    0.000    0.000    0.000    0.000 
#    0.000    0.000    0.000    0.000    0.000    0.000 
#
# Total GULP energy -89209.836202 kJ/mol
# GULP energy per Si atom -5575.614763 kJ/mol
# Density = 2.129273 g / cm^3
# Si number density = 21.341303 Si / 1000 Ang^3
#
#
#
# Elastic Constant Matrix: (Units=GPa)
#
#
# Indices 1 2 3 4 5 6 
#
# 1 45.4290 3.2047 11.7939 -0.1070 -4.3876 2.8473
# 2 3.2047 87.6015 33.6844 0.3288 -2.3571 -0.2152
# 3 11.7939 33.6844 107.2092 3.7049 -14.0314 -0.2032
# 4 -0.1070 0.3288 3.7049 33.8666 -5.5553 10.4050
# 5 -4.3876 -2.3571 -14.0314 -5.5553 24.9912 -3.5230
# 6 2.8473 -0.2152 -0.2032 10.4050 -3.5230 27.6443
#
#
#
# Elastic Compliance Matrix: (Units=1/GPa)
#
#
# Indices 1 2 3 4 5 6 
#
# 1 0.023028 0.000088 -0.002259 0.001581 0.002764 -0.002630
# 2 0.000088 0.013016 -0.004254 0.000204 -0.001122 -0.000159
# 3 -0.002259 -0.004254 0.011698 -0.000689 0.005798 0.001284
# 4 0.001581 0.000204 -0.000689 0.034355 0.005805 -0.012357
# 5 0.002764 -0.001122 0.005798 0.005805 0.045411 0.003352
# 6 -0.002630 -0.000159 0.001284 -0.012357 0.003352 0.041531
#
#
# Mechanical properties :
#
#
# Convention : Reuss Voigt Hill
#
# Bulk Modulus (GPa) = 28.65880 37.51175 33.08527
# Shear Modulus (GPa) = 25.83726 30.07088 27.95407
#
# Velocity S-wave (km/s) = 3.48324 3.75780 3.62312
# Velocity P-wave (km/s) = 5.44383 6.03683 5.74798
#
# Compressibility (1/GPa) = 0.03489330
#
# Stress axis : x y z
#
# Youngs Moduli (GPa) = 43.42525 76.82666 85.48818
#
# Poissons Ratio (x) = -0.00677 0.19311
# Poissons Ratio (y) = -0.00383 0.36363
# Poissons Ratio (z) = 0.09809 0.32678
#
# Static dielectric constant tensor:
#      x y z
#    x 1.848570 -0.006310 0.024390 
#    y -0.006310 1.761260 0.001270 
#    z 0.024390 0.001270 1.805490 
# 
# From -- ./inp_files/590984.got.cif
#   From: 2010.05.17/outbox.cif.g08.bks.cpg/sg2_296_cif.got.tgz:590984.got - 2010.06.03 11:33:40.
