data_PCOD9037949
_publ_section_title
;
Structure prediction by ZEFSAII (Michael W. Deem and Ramdas Pophale) SiO2 
 PCOD9037949
Probable space group: P -1
;
_chemical_formula_sum "Si O2"
_cell_formula_units_Z 16
_cell_length_a 20.120214
_cell_length_b 9.526031
_cell_length_c 10.358407
_cell_angle_alpha 64.368713
_cell_angle_beta 153.751838
_cell_angle_gamma 131.555776
_cell_volume 572.532663
_symmetry_space_group_name_H-M "P -1"
_symmetry_group_IT_number 2
_symmetry_cell_setting 'triclinic'
loop_
_space_group_symop_operation_xyz
x,y,z
-x,-y,-z
loop_
_atom_site_type_symbol
_atom_site_label
_atom_site_fract_x
_atom_site_fract_y
_atom_site_fract_z
Si Si1 0.734952 0.697012 0.381195
Si Si2 0.450470 0.338761 0.329507
Si Si3 0.516077 0.312930 0.852637
Si Si4 0.123438 0.882827 0.617977
Si Si5 0.764122 0.035784 0.697764
Si Si6 0.921452 0.656784 0.080569
Si Si7 0.467053 0.875394 0.622972
Si Si8 0.100042 0.456459 0.410207
O O1 0.682396 0.751678 0.397922
O O2 0.856495 0.621547 0.607236
O O3 0.856887 0.916834 0.428034
O O4 0.500000 0.500000 0.000000
O O5 0.379882 0.458495 0.117941
O O6 0.283324 0.123507 0.208523
O O7 0.512237 0.282936 0.333013
O O8 0.676686 0.515205 0.720966
O O9 0.429617 0.136507 0.666087
O O10 0.672814 0.345142 0.212165
O O11 0.034696 0.759073 0.375395
O O12 0.999668 0.730156 0.584599
O O13 0.353772 0.985495 0.013132
O O14 0.963139 0.163658 0.902476
O O15 0.734365 0.188716 0.640489
O O16 0.041870 0.493374 0.846581
O O17 0.500000 0.000000 0.500000
#
# Coordination Sequence:
#
# PCOD9037949 Si02
#       8
#     2   2   2   2   2   2   2   2
#     4  10  23  41  65 103 141 188 238 293 357 433
#     4  11  26  50  70 105 154 189 239 305 364 436
#     4  11  23  46  68 102 147 189 245 298 363 431
#     4  12  23  46  74 106 146 188 247 303 357 436
#     4  11  24  44  73 101 143 201 234 293 371 427
#     4  12  27  46  75 113 145 187 253 300 356 442
#     4  10  23  43  70 103 143 188 236 293 366 430
#     4  11  24  42  72 108 141 191 241 306 361 431
#
# _framework density 27.946005
#
# number of rings (size 3 to 8) (size 9 to 14) (size 15 to 20)
#    0.000    1.000    1.250    5.625    5.250    2.000 
#    6.750    0.000    0.000    0.000    0.000    0.000 
#    0.000    0.000    0.000    0.000    0.000    0.000 
#
# Total GULP energy -89677.041867 kJ/mol
# GULP energy per Si atom -5604.815117 kJ/mol
# Density = 2.788240 g / cm^3
# Si number density = 27.946005 Si / 1000 Ang^3
#
#
#
# Elastic Constant Matrix: (Units=GPa)
#
#
# Indices 1 2 3 4 5 6 
#
# 1 116.6228 29.6949 2.2274 7.0694 1.1079 1.1629
# 2 29.6949 119.1373 15.2194 8.0487 10.5158 2.1405
# 3 2.2274 15.2194 131.6842 -15.2797 -7.2875 4.8751
# 4 7.0694 8.0487 -15.2797 37.5954 -0.8235 13.6043
# 5 1.1079 10.5158 -7.2875 -0.8235 41.8990 8.3421
# 6 1.1629 2.1405 4.8751 13.6043 8.3421 64.4895
#
#
#
# Elastic Compliance Matrix: (Units=1/GPa)
#
#
# Indices 1 2 3 4 5 6 
#
# 1 0.009219 -0.002227 -0.000044 -0.001327 0.000250 0.000159
# 2 -0.002227 0.009556 -0.001551 -0.002590 -0.002810 0.000750
# 3 -0.000044 -0.001551 0.008494 0.004510 0.002323 -0.001842
# 4 -0.001327 -0.002590 0.004510 0.032009 0.003581 -0.007447
# 5 0.000250 -0.002810 0.002323 0.003581 0.025874 -0.004189
# 6 0.000159 0.000750 -0.001842 -0.007447 -0.004189 0.017731
#
#
# Mechanical properties :
#
#
# Convention : Reuss Voigt Hill
#
# Bulk Modulus (GPa) = 50.95698 51.30307 51.13002
# Shear Modulus (GPa) = 42.70961 50.15029 46.42995
#
# Velocity S-wave (km/s) = 3.91358 4.24080 4.08047
# Velocity P-wave (km/s) = 6.22054 6.50976 6.36679
#
# Compressibility (1/GPa) = 0.01962440
#
# Stress axis : x y z
#
# Youngs Moduli (GPa) = 108.47004 104.64129 117.73143
#
# Poissons Ratio (x) = 0.23308 0.00524
# Poissons Ratio (y) = 0.24161 0.18256
# Poissons Ratio (z) = 0.00483 0.16226
#
# Static dielectric constant tensor:
#      x y z
#    x 2.175610 0.055980 -0.049920 
#    y 0.055980 2.226090 0.050210 
#    z -0.049920 0.050210 2.176490 
# 
# From -- ./inp_files/471007.got.cif
#   From: 2010.05.17/outbox.cif.g08.bks.cpg/sg2_236_cif.got.tgz:471007.got - 2010.06.03 11:33:40.
