data_PCOD9038772
_publ_section_title
;
Structure prediction by ZEFSAII (Michael W. Deem and Ramdas Pophale) SiO2 
 PCOD9038772
Probable space group: P -1
;
_chemical_formula_sum "Si O2"
_cell_formula_units_Z 16
_cell_length_a 12.686219
_cell_length_b 12.138129
_cell_length_c 7.880285
_cell_angle_alpha 78.312237
_cell_angle_beta 115.798549
_cell_angle_gamma 141.495001
_cell_volume 659.246753
_symmetry_space_group_name_H-M "P -1"
_symmetry_group_IT_number 2
_symmetry_cell_setting 'triclinic'
loop_
_space_group_symop_operation_xyz
x,y,z
-x,-y,-z
loop_
_atom_site_type_symbol
_atom_site_label
_atom_site_fract_x
_atom_site_fract_y
_atom_site_fract_z
Si Si1 0.753524 0.766448 0.342465
Si Si2 0.170006 0.609815 0.216322
Si Si3 0.234896 0.425356 0.269433
Si Si4 0.536152 0.910528 0.144168
Si Si5 0.955840 0.251934 0.852004
Si Si6 0.301542 0.110797 0.016952
Si Si7 0.106267 0.907542 0.496110
Si Si8 0.580468 0.642169 0.683530
O O1 0.554582 0.552138 0.255318
O O2 0.906011 0.784079 0.483102
O O3 0.785372 0.892209 0.457819
O O4 0.795882 0.862022 0.165329
O O5 0.147648 0.464315 0.306708
O O6 0.374205 0.770040 0.215667
O O7 0.137966 0.698349 0.275953
O O8 0.000000 0.500000 0.000000
O O9 0.443726 0.579325 0.455264
O O10 0.236980 0.292795 0.264992
O O11 0.161815 0.414442 0.035412
O O12 0.745176 0.065504 0.326087
O O13 0.546525 0.823753 0.030830
O O14 0.500000 0.000000 0.000000
O O15 0.944418 0.166992 0.704684
O O16 0.832929 0.094730 0.960568
O O17 0.378543 0.224432 0.205691
#
# Coordination Sequence:
#
# PCOD9038772 Si02
#       8
#     2   2   2   2   2   2   2   2
#     4  10  23  42  61  95 140 171 209 278 339 392
#     4  10  23  44  67  91 133 174 218 270 333 381
#     4  10  24  41  64  96 134 172 215 281 329 388
#     4  11  23  43  66  97 134 172 215 277 330 386
#     4  11  24  42  68  96 129 174 232 267 321 398
#     4  11  24  40  69  97 130 176 221 273 330 391
#     4  10  24  38  67  96 129 170 221 268 330 391
#     4  11  24  39  65  96 133 170 220 273 336 394
#
# _framework density 24.270123999999999
#
# number of rings (size 3 to 8) (size 9 to 14) (size 15 to 20)
#    0.000    1.500    1.250    2.625   10.500    4.500 
#    0.000    0.000    0.000    6.000    0.000    0.000 
#    0.000    0.000    0.000    0.000    0.000    0.000 
#
# Total GULP energy -89116.073235 kJ/mol
# GULP energy per Si atom -5569.754577 kJ/mol
# Density = 2.421488 g / cm^3
# Si number density = 24.270124 Si / 1000 Ang^3
#
#
#
# Elastic Constant Matrix: (Units=GPa)
#
#
# Indices 1 2 3 4 5 6 
#
# 1 132.5252 11.5893 44.9041 0.7590 9.1196 -20.9913
# 2 11.5893 77.6951 4.8168 -3.0047 7.3680 -13.9613
# 3 44.9041 4.8168 110.9132 -0.7359 2.9534 -21.1561
# 4 0.7590 -3.0047 -0.7359 27.0977 -20.9943 10.5144
# 5 9.1196 7.3680 2.9534 -20.9943 55.7992 -4.8090
# 6 -20.9913 -13.9613 -21.1561 10.5144 -4.8090 41.0549
#
#
#
# Elastic Compliance Matrix: (Units=1/GPa)
#
#
# Indices 1 2 3 4 5 6 
#
# 1 0.009391 -0.000455 -0.003027 -0.003699 -0.002382 0.003755
# 2 -0.000455 0.013939 0.000593 -0.002051 -0.002130 0.005088
# 3 -0.003027 0.000593 0.011127 -0.001717 -0.000406 0.004780
# 4 -0.003699 -0.002051 -0.001717 0.060298 0.022247 -0.016310
# 5 -0.002382 -0.002130 -0.000406 0.022247 0.026576 -0.004737
# 6 0.003755 0.005088 0.004780 -0.016310 -0.004737 0.034093
#
#
# Mechanical properties :
#
#
# Convention : Reuss Voigt Hill
#
# Bulk Modulus (GPa) = 34.87052 49.30597 42.08824
# Shear Modulus (GPa) = 29.28026 42.11193 35.69609
#
# Velocity S-wave (km/s) = 3.47714 4.17001 3.83924
# Velocity P-wave (km/s) = 5.52445 6.59886 6.08541
#
# Compressibility (1/GPa) = 0.02867752
#
# Stress axis : x y z
#
# Youngs Moduli (GPa) = 106.48283 71.74060 89.87118
#
# Poissons Ratio (x) = 0.03268 0.27205
# Poissons Ratio (y) = 0.04850 -0.05327
# Poissons Ratio (z) = 0.32234 -0.04252
#
# Static dielectric constant tensor:
#      x y z
#    x 2.012830 0.025780 -0.021580 
#    y 0.025780 2.163410 -0.073690 
#    z -0.021580 -0.073690 1.934220 
# 
# From -- ./inp_files/262586.got.cif
#   From: 2010.05.17/outbox.cif.g08.bks.cpg/sg2_132_cif.got.tgz:262586.got - 2010.06.03 11:33:40.
