data_PCOD9038868
_publ_section_title
;
Structure prediction by ZEFSAII (Michael W. Deem and Ramdas Pophale) SiO2 
 PCOD9038868
Probable space group: P -1
;
_chemical_formula_sum "Si O2"
_cell_formula_units_Z 16
_cell_length_a 27.396696
_cell_length_b 5.282269
_cell_length_c 5.269881
_cell_angle_alpha 93.325456
_cell_angle_beta 120.724430
_cell_angle_gamma 106.791417
_cell_volume 607.736786
_symmetry_space_group_name_H-M "P -1"
_symmetry_group_IT_number 2
_symmetry_cell_setting 'triclinic'
loop_
_space_group_symop_operation_xyz
x,y,z
-x,-y,-z
loop_
_atom_site_type_symbol
_atom_site_label
_atom_site_fract_x
_atom_site_fract_y
_atom_site_fract_z
Si Si1 0.576647 0.848285 0.107761
Si Si2 0.876383 0.668605 0.043886
Si Si3 0.251782 0.353633 0.443518
Si Si4 0.296741 0.921690 0.816655
Si Si5 0.652252 0.634312 0.655581
Si Si6 0.911683 0.429093 0.607168
Si Si7 0.037979 0.860117 0.937276
Si Si8 0.459205 0.772488 0.569748
O O1 0.633222 0.001290 0.082360
O O2 0.603565 0.667571 0.334876
O O3 0.562821 0.068002 0.261290
O O4 0.512287 0.671234 0.800237
O O5 0.878104 0.471808 0.267943
O O6 0.930703 0.966906 0.215009
O O7 0.813340 0.713262 0.859735
O O8 0.889953 0.562409 0.799423
O O9 0.264538 0.095732 0.578465
O O10 0.303496 0.482763 0.374909
O O11 0.261958 0.599230 0.684419
O O12 0.305299 0.068740 0.117703
O O13 0.604660 0.442253 0.721125
O O14 0.983774 0.570730 0.727257
O O15 0.910361 0.157974 0.732534
O O16 0.000000 0.000000 0.000000
O O17 0.500000 0.000000 0.500000
#
# Coordination Sequence:
#
# PCOD9038868 Si02
#       8
#     2   2   2   2   2   2   2   2
#     4  10  23  42  64 103 139 177 239 299 373 458
#     4  11  25  45  71 109 150 203 262 319 390 460
#     4  11  28  49  71 108 144 200 256 316 369 469
#     4  11  26  47  76 100 143 193 252 304 384 445
#     4  11  25  46  74  96 147 188 240 308 386 450
#     4  10  23  43  73 108 154 195 256 316 396 459
#     4   9  21  43  72 111 150 199 248 321 389 467
#     4  11  23  39  71 103 139 180 236 305 383 454
#
# _framework density 26.327185
#
# number of rings (size 3 to 8) (size 9 to 14) (size 15 to 20)
#    0.000    1.500    1.250    1.500    7.000    9.500 
#    0.000    0.000    0.000    0.000    0.000    0.000 
#    0.000    0.000    0.000    0.000    0.000    0.000 
#
# Total GULP energy -89472.867260 kJ/mol
# GULP energy per Si atom -5592.054204 kJ/mol
# Density = 2.626726 g / cm^3
# Si number density = 26.327185 Si / 1000 Ang^3
#
#
#
# Elastic Constant Matrix: (Units=GPa)
#
#
# Indices 1 2 3 4 5 6 
#
# 1 83.8428 16.3180 61.2883 -20.8715 19.3723 -18.0478
# 2 16.3180 74.8889 21.1559 -21.5965 3.7027 -21.0874
# 3 61.2883 21.1559 110.2835 -28.2565 13.9314 -9.3614
# 4 -20.8715 -21.5965 -28.2565 47.7618 -7.7349 -2.0870
# 5 19.3723 3.7027 13.9314 -7.7349 49.8075 1.5100
# 6 -18.0478 -21.0874 -9.3614 -2.0870 1.5100 22.7916
#
#
#
# Elastic Compliance Matrix: (Units=1/GPa)
#
#
# Indices 1 2 3 4 5 6 
#
# 1 0.028859 0.007318 -0.012021 0.008673 -0.007848 0.026000
# 2 0.007318 0.024765 -0.002472 0.013763 -0.002742 0.029135
# 3 -0.012021 -0.002472 0.016569 0.003369 0.000892 -0.004751
# 4 0.008673 0.013763 0.003369 0.033867 -0.000811 0.024140
# 5 -0.007848 -0.002742 0.000892 -0.000811 0.023261 -0.010000
# 6 0.026000 0.029135 -0.004751 0.024140 -0.010000 0.092342
#
#
# Mechanical properties :
#
#
# Convention : Reuss Voigt Hill
#
# Bulk Modulus (GPa) = 17.90716 51.83771 34.87244
# Shear Modulus (GPa) = 19.79189 35.42238 27.60713
#
# Velocity S-wave (km/s) = 2.74481 3.67204 3.24175
# Velocity P-wave (km/s) = 4.10632 6.14093 5.22364
#
# Compressibility (1/GPa) = 0.05584357
#
# Stress axis : x y z
#
# Youngs Moduli (GPa) = 34.65088 40.37939 60.35189
#
# Poissons Ratio (x) = -0.29550 0.72551
# Poissons Ratio (y) = -0.25358 0.14919
# Poissons Ratio (z) = 0.41655 0.09982
#
# Static dielectric constant tensor:
#      x y z
#    x 2.017920 0.059410 -0.058700 
#    y 0.059410 2.281310 0.023690 
#    z -0.058700 0.023690 2.157770 
# 
# From -- ./inp_files/125841.got.cif
#   From: 2010.05.17/outbox.cif.g08.bks.cpg/sg2_63_cif.got.tgz:125841.got - 2010.06.03 11:33:40.
