data_PCOD9038851
_publ_section_title
;
Structure prediction by ZEFSAII (Michael W. Deem and Ramdas Pophale) SiO2 
 PCOD9038851
Probable space group: P -1
;
_chemical_formula_sum "Si O2"
_cell_formula_units_Z 11
_cell_length_a 4.881640
_cell_length_b 6.281732
_cell_length_c 17.722787
_cell_angle_alpha 127.493305
_cell_angle_beta 78.069309
_cell_angle_gamma 101.105048
_cell_volume 420.325353
_symmetry_space_group_name_H-M "P -1"
_symmetry_group_IT_number 2
_symmetry_cell_setting 'triclinic'
loop_
_space_group_symop_operation_xyz
x,y,z
-x,-y,-z
loop_
_atom_site_type_symbol
_atom_site_label
_atom_site_fract_x
_atom_site_fract_y
_atom_site_fract_z
Si Si1 0.543604 0.193158 0.915807
Si Si2 0.000000 0.500000 0.500000
Si Si3 0.235007 0.721121 0.234997
Si Si4 0.407071 0.079123 0.439970
Si Si5 0.029248 0.850875 0.855356
Si Si6 0.897914 0.187838 0.325770
O O1 0.550553 0.175960 0.820501
O O2 0.297094 0.978445 0.912435
O O3 0.834769 0.093529 0.905448
O O4 0.500000 0.500000 0.000000
O O5 0.846210 0.623354 0.612552
O O6 0.855773 0.743592 0.508509
O O7 0.342865 0.826891 0.332521
O O8 0.153232 0.408213 0.160208
O O9 0.964938 0.882411 0.267355
O O10 0.500000 0.000000 0.500000
O O11 0.687207 0.245179 0.420427
O O12 0.132444 0.750590 0.745809
#
# Coordination Sequence:
#
# PCOD9038851 Si02
#       6
#     2   1   2   2   2   2
#     4  11  25  47  72 105 141 182 239 301 369 448
#     4  10  24  40  62 100 138 192 248 300 350 426
#     4  10  25  44  67 105 143 183 247 295 361 440
#     4  11  24  42  69  98 146 196 243 301 360 427
#     4  11  25  43  74 100 143 189 230 303 372 429
#     4  10  23  42  63  98 145 186 241 298 355 427
#
# _framework density 26.170204999999999
#
# number of rings (size 3 to 8) (size 9 to 14) (size 15 to 20)
#    0.000    1.455    1.818    1.091    7.636    2.909 
#    0.000    0.000    0.000    0.000    0.000    0.000 
#    0.000    0.000    0.000    0.000    0.000    0.000 
#
# Total GULP energy -61359.601750 kJ/mol
# GULP energy per Si atom -5578.145614 kJ/mol
# Density = 2.611064 g / cm^3
# Si number density = 26.170205 Si / 1000 Ang^3
#
#
#
# Elastic Constant Matrix: (Units=GPa)
#
#
# Indices 1 2 3 4 5 6 
#
# 1 108.6201 16.4873 16.9024 -3.3294 -2.4582 -11.5547
# 2 16.4873 80.8970 15.1549 9.4096 -9.6816 7.8548
# 3 16.9024 15.1549 64.3466 9.1605 -11.9853 -13.4632
# 4 -3.3294 9.4096 9.1605 46.2782 -9.2628 0.7728
# 5 -2.4582 -9.6816 -11.9853 -9.2628 30.2253 9.3833
# 6 -11.5547 7.8548 -13.4632 0.7728 9.3833 41.6656
#
#
#
# Elastic Compliance Matrix: (Units=1/GPa)
#
#
# Indices 1 2 3 4 5 6 
#
# 1 0.010172 -0.002278 -0.001938 0.001298 -0.001161 0.002861
# 2 -0.002278 0.014604 -0.002887 -0.001570 0.004514 -0.005305
# 3 -0.001938 -0.002887 0.018947 -0.002591 0.003999 0.005277
# 4 0.001298 -0.001570 -0.002591 0.023879 0.006545 -0.002098
# 5 -0.001161 0.004514 0.003999 0.006545 0.040887 -0.009210
# 6 0.002861 -0.005305 0.005277 -0.002098 -0.009210 0.029612
#
#
# Mechanical properties :
#
#
# Convention : Reuss Voigt Hill
#
# Bulk Modulus (GPa) = 33.87750 38.99476 36.43613
# Shear Modulus (GPa) = 30.83632 37.32176 34.07904
#
# Velocity S-wave (km/s) = 3.43636 3.78049 3.61253
# Velocity P-wave (km/s) = 5.35891 5.83000 5.59941
#
# Compressibility (1/GPa) = 0.02951812
#
# Stress axis : x y z
#
# Youngs Moduli (GPa) = 98.31292 68.47248 52.77741
#
# Poissons Ratio (x) = 0.15597 0.10227
# Poissons Ratio (y) = 0.22394 0.15237
# Poissons Ratio (z) = 0.19051 0.19768
#
# Static dielectric constant tensor:
#      x y z
#    x 3.802760 0.977790 1.239740 
#    y 0.977790 2.568500 0.656090 
#    z 1.239740 0.656090 2.955830 
# 
# From -- ./inp_files/3407.got.cif
#   From: 2010.05.17/outbox.cif.g08.bks.cpg/sg2_2_cif.got.tgz:3407.got - 2010.06.03 11:33:40.
