data_PCOD9038276
_publ_section_title
;
Structure prediction by ZEFSAII (Michael W. Deem and Ramdas Pophale) SiO2 
 PCOD9038276
Probable space group: P -1
;
_chemical_formula_sum "Si O2"
_cell_formula_units_Z 16
_cell_length_a 10.848431
_cell_length_b 5.273682
_cell_length_c 24.468115
_cell_angle_alpha 119.080438
_cell_angle_beta 148.925332
_cell_angle_gamma 69.624711
_cell_volume 624.212612
_symmetry_space_group_name_H-M "P -1"
_symmetry_group_IT_number 2
_symmetry_cell_setting 'triclinic'
loop_
_space_group_symop_operation_xyz
x,y,z
-x,-y,-z
loop_
_atom_site_type_symbol
_atom_site_label
_atom_site_fract_x
_atom_site_fract_y
_atom_site_fract_z
Si Si1 0.858619 0.759828 0.535093
Si Si2 0.081797 0.640362 0.723109
Si Si3 0.023757 0.956268 0.840705
Si Si4 0.711812 0.971829 0.947394
Si Si5 0.351389 0.136628 0.741231
Si Si6 0.365727 0.775594 0.468816
Si Si7 0.456809 0.243467 0.303598
Si Si8 0.860810 0.546776 0.884515
O O1 0.704360 0.442839 0.434989
O O2 0.943930 0.741058 0.628721
O O3 0.103839 0.906238 0.614729
O O4 0.672963 0.989713 0.474553
O O5 0.104993 0.892432 0.803937
O O6 0.907883 0.375741 0.660338
O O7 0.292095 0.465093 0.762872
O O8 0.766810 0.755108 0.739070
O O9 0.943620 0.262290 0.859564
O O10 0.249986 0.945996 0.966167
O O11 0.474475 0.036685 0.832824
O O12 0.790073 0.653064 0.929402
O O13 0.919312 0.203273 0.022797
O O14 0.506144 0.074831 0.739981
O O15 0.500000 0.500000 0.500000
O O16 0.500000 0.000000 0.500000
O O17 0.366916 0.390516 0.230828
#
# Coordination Sequence:
#
# PCOD9038276 Si02
#       8
#     2   2   2   2   2   2   2   2
#     4  11  24  41  65  97 143 182 230 275 346 416
#     4  11  26  40  61 104 138 186 222 280 348 427
#     4  11  23  38  68 100 126 169 231 290 350 407
#     4   9  20  42  63  91 127 172 228 288 339 411
#     4  10  24  44  64  91 138 183 229 278 352 411
#     4  11  22  40  66  94 139 187 229 282 345 406
#     4  10  23  41  67  99 129 174 231 288 339 417
#     4   9  20  38  66  95 124 164 227 291 348 398
#
# _framework density 25.632290000000001
#
# number of rings (size 3 to 8) (size 9 to 14) (size 15 to 20)
#    0.000    1.750    1.250    2.250    1.750    9.000 
#    0.000    1.250    0.000    0.000    0.000    0.000 
#    0.000    0.000    0.000    0.000    0.000    0.000 
#
# Total GULP energy -89228.795837 kJ/mol
# GULP energy per Si atom -5576.799740 kJ/mol
# Density = 2.557395 g / cm^3
# Si number density = 25.632290 Si / 1000 Ang^3
#
#
#
# Elastic Constant Matrix: (Units=GPa)
#
#
# Indices 1 2 3 4 5 6 
#
# 1 84.8853 51.1229 20.9281 9.4404 2.3975 -31.5116
# 2 51.1229 153.5527 32.9635 -2.0794 -29.8477 -23.1055
# 3 20.9281 32.9635 90.8605 11.0670 11.8895 -23.1479
# 4 9.4404 -2.0794 11.0670 30.4688 -23.2248 6.0158
# 5 2.3975 -29.8477 11.8895 -23.2248 -29.4868 23.0428
# 6 -31.5116 -23.1055 -23.1479 6.0158 23.0428 40.5863
#
#
#
# Elastic Compliance Matrix: (Units=1/GPa)
#
#
# Indices 1 2 3 4 5 6 
#
# 1 0.015657 -0.002543 -0.002248 0.000114 0.007068 0.005397
# 2 -0.002543 0.007415 -0.000412 -0.001827 -0.003225 0.004114
# 3 -0.002248 -0.000412 0.011237 0.000458 0.005412 0.001289
# 4 0.000114 -0.001827 0.000458 0.022097 -0.012787 0.003294
# 5 0.007068 -0.003225 0.005412 -0.012787 -0.007670 0.012989
# 6 0.005397 0.004114 0.001289 0.003294 0.012989 0.024043
#
#
# Mechanical properties :
#
#
# Convention : Reuss Voigt Hill
#
# Bulk Modulus (GPa) = 41.83227 59.92527 50.87877
# Shear Modulus (GPa) = 54.85298 23.26594 39.05946
#
# Velocity S-wave (km/s) = 4.63103 3.01604 3.90787
# Velocity P-wave (km/s) = 6.70453 5.96307 6.34465
#
# Compressibility (1/GPa) = 0.02390499
#
# Stress axis : x y z
#
# Youngs Moduli (GPa) = 63.86781 134.86485 88.98796
#
# Poissons Ratio (x) = 0.34292 0.20002
# Poissons Ratio (y) = 0.16240 0.03665
# Poissons Ratio (z) = 0.14356 0.05555
#
# Static dielectric constant tensor:
#      x y z
#    x 2.080980 -0.022120 0.004100 
#    y -0.022120 2.097940 0.017160 
#    z 0.004100 0.017160 2.085430 
# 
# From -- ./inp_files/617947.got.cif
#   From: 2010.05.17/outbox.cif.g08.bks.cpg/sg2_309_cif.got.tgz:617947.got - 2010.06.03 11:33:40.
