data_PCOD9038996
_publ_section_title
;
Structure prediction by ZEFSAII (Michael W. Deem and Ramdas Pophale) SiO2 
 PCOD9038996
Probable space group: P -1
;
_chemical_formula_sum "Si O2"
_cell_formula_units_Z 16
_cell_length_a 14.950054
_cell_length_b 18.232428
_cell_length_c 13.973414
_cell_angle_alpha 41.311623
_cell_angle_beta 127.166663
_cell_angle_gamma 159.146792
_cell_volume 813.882869
_symmetry_space_group_name_H-M "P -1"
_symmetry_group_IT_number 2
_symmetry_cell_setting 'triclinic'
loop_
_space_group_symop_operation_xyz
x,y,z
-x,-y,-z
loop_
_atom_site_type_symbol
_atom_site_label
_atom_site_fract_x
_atom_site_fract_y
_atom_site_fract_z
Si Si1 0.155080 0.418087 0.534306
Si Si2 0.339626 0.083313 0.747026
Si Si3 0.239063 0.450197 0.868565
Si Si4 0.260616 0.317500 0.847100
Si Si5 0.421304 0.035894 0.476262
Si Si6 0.715749 0.557125 0.873860
Si Si7 0.596320 0.901189 0.005597
Si Si8 0.500711 0.064100 0.716364
O O1 0.404699 0.618244 0.425490
O O2 0.170691 0.340918 0.702000
O O3 0.232030 0.612619 0.428264
O O4 0.858313 0.158786 0.549501
O O5 0.316014 0.956266 0.784486
O O6 0.424417 0.122680 0.869459
O O7 0.042691 0.873459 0.762918
O O8 0.349264 0.448850 0.877404
O O9 0.344038 0.659770 0.686026
O O10 0.320920 0.517187 0.967092
O O11 0.908321 0.145353 0.946038
O O12 0.517872 0.483881 0.806111
O O13 0.000000 0.000000 0.000000
O O14 0.383375 0.966304 0.629913
O O15 0.500000 0.000000 0.500000
O O16 0.612113 0.369046 0.918470
O O17 0.559922 0.992956 0.854507
#
# Coordination Sequence:
#
# PCOD9038996 Si02
#       8
#     2   2   2   2   2   2   2   2
#     4  10  25  44  62  95 130 172 215 266 324 380
#     4   9  24  44  63  97 130 174 223 261 328 387
#     4  11  23  41  64 101 130 167 220 268 332 390
#     4  12  23  45  70  92 134 174 216 276 328 384
#     4  12  24  39  68  99 135 171 213 268 334 393
#     4  11  24  40  69  95 127 176 222 271 320 385
#     4  11  22  41  68  96 132 170 221 269 321 392
#     4  10  23  42  65  94 135 174 209 275 323 390
#
# _framework density 19.658847999999999
#
# number of rings (size 3 to 8) (size 9 to 14) (size 15 to 20)
#    0.750    0.500    2.500    3.000    3.500    3.000 
#    0.000    0.625    0.000    0.000    0.000    0.000 
#    0.000    0.000    0.000    0.000    0.000    0.000 
#
# Total GULP energy -89309.586272 kJ/mol
# GULP energy per Si atom -5581.849142 kJ/mol
# Density = 1.961410 g / cm^3
# Si number density = 19.658848 Si / 1000 Ang^3
#
#
#
# Elastic Constant Matrix: (Units=GPa)
#
#
# Indices 1 2 3 4 5 6 
#
# 1 76.4082 11.4453 32.9268 9.3125 -11.1737 -25.5807
# 2 11.4453 80.6694 32.4310 14.3414 -23.2044 -12.0977
# 3 32.9268 32.4310 76.6486 3.2498 -13.4717 -9.5291
# 4 9.3125 14.3414 3.2498 29.4765 -6.5759 -4.5263
# 5 -11.1737 -23.2044 -13.4717 -6.5759 21.8284 1.4554
# 6 -25.5807 -12.0977 -9.5291 -4.5263 1.4554 27.0372
#
#
#
# Elastic Compliance Matrix: (Units=1/GPa)
#
#
# Indices 1 2 3 4 5 6 
#
# 1 0.026428 0.008336 -0.009308 -0.004659 0.013645 0.023939
# 2 0.008336 0.023854 -0.007863 -0.006399 0.021941 0.013536
# 3 -0.009308 -0.007863 0.019712 0.003990 0.000560 -0.004740
# 4 -0.004659 -0.006399 0.003990 0.039270 0.005077 0.000436
# 5 0.013645 0.021941 0.000560 0.005077 0.076686 0.019647
# 6 0.023939 0.013536 -0.004740 0.000436 0.019647 0.063037
#
#
# Mechanical properties :
#
#
# Convention : Reuss Voigt Hill
#
# Bulk Modulus (GPa) = 19.11200 43.03694 31.07447
# Shear Modulus (GPa) = 17.59948 26.12996 21.86472
#
# Velocity S-wave (km/s) = 2.99531 3.64973 3.33860
# Velocity P-wave (km/s) = 4.65891 6.30081 5.54101
#
# Compressibility (1/GPa) = 0.05232314
#
# Stress axis : x y z
#
# Youngs Moduli (GPa) = 37.83889 41.92215 50.73029
#
# Poissons Ratio (x) = -0.34945 0.47219
# Poissons Ratio (y) = -0.31542 0.39890
# Poissons Ratio (z) = 0.35220 0.32964
#
# Static dielectric constant tensor:
#      x y z
#    x 1.704470 -0.009820 -0.021550 
#    y -0.009820 1.681150 -0.004740 
#    z -0.021550 -0.004740 1.656950 
# 
# From -- ./inp_files/433153.got.cif
#   From: 2010.05.17/outbox.cif.g08.bks.cpg/sg2_217_cif.got.tgz:433153.got - 2010.06.03 11:33:40.
