data_PCOD9038905
_publ_section_title
;
Structure prediction by ZEFSAII (Michael W. Deem and Ramdas Pophale) SiO2 
 PCOD9038905
Probable space group: P -1
;
_chemical_formula_sum "Si O2"
_cell_formula_units_Z 16
_cell_length_a 14.851550
_cell_length_b 16.571310
_cell_length_c 9.946204
_cell_angle_alpha 132.383628
_cell_angle_beta 148.607589
_cell_angle_gamma 33.487065
_cell_volume 697.400642
_symmetry_space_group_name_H-M "P -1"
_symmetry_group_IT_number 2
_symmetry_cell_setting 'triclinic'
loop_
_space_group_symop_operation_xyz
x,y,z
-x,-y,-z
loop_
_atom_site_type_symbol
_atom_site_label
_atom_site_fract_x
_atom_site_fract_y
_atom_site_fract_z
Si Si1 0.109822 0.615675 0.386307
Si Si2 0.698926 0.965308 0.315246
Si Si3 0.090556 0.655608 0.097135
Si Si4 0.208338 0.860698 0.520648
Si Si5 0.611122 0.940357 0.719284
Si Si6 0.484481 0.796242 0.046628
Si Si7 0.991822 0.408891 0.499009
Si Si8 0.408660 0.475595 0.053224
O O1 0.083076 0.608581 0.184780
O O2 0.058743 0.547098 0.358928
O O3 0.377085 0.535717 0.663787
O O4 0.928694 0.792087 0.390129
O O5 0.577122 0.014494 0.359453
O O6 0.757274 0.066299 0.470936
O O7 0.310133 0.968395 0.047359
O O8 0.500000 0.000000 0.000000
O O9 0.172209 0.748171 0.322280
O O10 0.265147 0.530384 0.071191
O O11 0.835534 0.769301 0.831942
O O12 0.433456 0.779488 0.812429
O O13 0.000000 0.000000 0.500000
O O14 0.500000 0.000000 0.500000
O O15 0.479361 0.691914 0.015453
O O16 0.739703 0.740190 0.324938
O O17 0.000000 0.500000 0.500000
O O18 0.784725 0.419570 0.190317
#
# Coordination Sequence:
#
# PCOD9038905 Si02
#       8
#     2   2   2   2   2   2   2   2
#     4  12  21  40  70  96 131 180 224 274 332 403
#     4  12  21  41  72 104 129 175 232 272 340 409
#     4  12  25  42  68 105 139 172 230 283 333 397
#     4  12  20  39  67 105 130 172 223 282 335 397
#     4  12  25  44  71 101 138 177 223 289 337 397
#     4  11  20  41  70  91 132 178 224 263 343 396
#     4  10  23  42  64  95 129 181 227 268 334 405
#     4  11  25  43  66  99 138 180 221 279 341 401
#
# _framework density 22.942336999999998
#
# number of rings (size 3 to 8) (size 9 to 14) (size 15 to 20)
#    0.000    0.500    7.500    1.500    0.000    0.000 
#    0.000    9.375    0.000    0.000    0.000    0.000 
#    0.000    0.000    0.000    0.000    0.000    0.000 
#
# Total GULP energy -89322.045979 kJ/mol
# GULP energy per Si atom -5582.627874 kJ/mol
# Density = 2.289012 g / cm^3
# Si number density = 22.942337 Si / 1000 Ang^3
#
#
#
# Elastic Constant Matrix: (Units=GPa)
#
#
# Indices 1 2 3 4 5 6 
#
# 1 167.6852 27.3653 41.3429 -10.7551 -23.6967 7.7358
# 2 27.3653 62.7567 14.3343 -12.7857 -0.8520 1.5749
# 3 41.3429 14.3343 116.0390 -28.1580 -17.5791 -2.5202
# 4 -10.7551 -12.7857 -28.1580 37.7966 -2.1562 4.8053
# 5 -23.6967 -0.8520 -17.5791 -2.1562 31.4374 -3.9647
# 6 7.7358 1.5749 -2.5202 4.8053 -3.9647 33.7958
#
#
#
# Elastic Compliance Matrix: (Units=1/GPa)
#
#
# Indices 1 2 3 4 5 6 
#
# 1 0.007534 -0.002738 -0.001559 0.000477 0.004609 -0.001240
# 2 -0.002738 0.018270 -0.000253 0.005276 -0.001496 -0.001169
# 3 -0.001559 -0.000253 0.012372 0.008957 0.006448 0.000774
# 4 0.000477 0.005276 0.008957 0.035976 0.007483 -0.003925
# 5 0.004609 -0.001496 0.006448 0.007483 0.039752 0.003095
# 6 -0.001240 -0.001169 0.000774 -0.003925 0.003095 0.030907
#
#
# Mechanical properties :
#
#
# Convention : Reuss Voigt Hill
#
# Bulk Modulus (GPa) = 34.39356 56.95177 45.67266
# Shear Modulus (GPa) = 30.56170 38.16852 34.36511
#
# Velocity S-wave (km/s) = 3.65377 4.08324 3.87446
# Velocity P-wave (km/s) = 5.72921 6.86354 6.32187
#
# Compressibility (1/GPa) = 0.02907521
#
# Stress axis : x y z
#
# Youngs Moduli (GPa) = 132.73263 54.73350 80.83042
#
# Poissons Ratio (x) = 0.14988 0.12601
# Poissons Ratio (y) = 0.36346 0.02046
# Poissons Ratio (z) = 0.20692 0.01385
#
# Static dielectric constant tensor:
#      x y z
#    x 1.875940 0.036550 0.009090 
#    y 0.036550 1.906640 0.002690 
#    z 0.009090 0.002690 1.908270 
# 
# From -- ./inp_files/273930.got.cif
#   From: 2010.05.17/outbox.cif.g08.bks.cpg/sg2_137_cif.got.tgz:273930.got - 2010.06.03 11:33:40.
