data_PCOD9038232
_publ_section_title
;
Structure prediction by ZEFSAII (Michael W. Deem and Ramdas Pophale) SiO2 
 PCOD9038232
Probable space group: P -1
;
_chemical_formula_sum "Si O2"
_cell_formula_units_Z 13
_cell_length_a 11.238054
_cell_length_b 11.952146
_cell_length_c 7.561814
_cell_angle_alpha 132.127158
_cell_angle_beta 137.535090
_cell_angle_gamma 67.313096
_cell_volume 496.354146
_symmetry_space_group_name_H-M "P -1"
_symmetry_group_IT_number 2
_symmetry_cell_setting 'triclinic'
loop_
_space_group_symop_operation_xyz
x,y,z
-x,-y,-z
loop_
_atom_site_type_symbol
_atom_site_label
_atom_site_fract_x
_atom_site_fract_y
_atom_site_fract_z
Si Si1 0.547652 0.849929 0.470712
Si Si2 0.000000 0.000000 0.500000
Si Si3 0.434113 0.368166 0.032711
Si Si4 0.981444 0.647227 0.521300
Si Si5 0.551181 0.310148 0.463719
Si Si6 0.112142 0.745497 0.387687
Si Si7 0.038786 0.129140 0.980121
O O1 0.476366 0.703244 0.106911
O O2 0.471205 0.815560 0.544597
O O3 0.762739 0.867130 0.735167
O O4 0.500000 0.000000 0.500000
O O5 0.184983 0.929174 0.680613
O O6 0.063655 0.029812 0.386217
O O7 0.230321 0.366872 0.757090
O O8 0.452315 0.274720 0.131724
O O9 0.514279 0.545166 0.365991
O O10 0.053013 0.790319 0.885765
O O11 0.000000 0.500000 0.500000
O O12 0.067426 0.665226 0.440120
O O13 0.762949 0.343336 0.677143
O O14 0.951647 0.788779 0.125551
#
# Coordination Sequence:
#
# PCOD9038232 Si02
#       7
#     2   1   2   2   2   2   2
#     4  11  25  43  68  98 132 170 217 268 328 384
#     4   8  22  44  62  96 126 168 216 262 326 376
#     4  10  25  43  65  96 132 175 216 266 321 386
#     4  11  23  41  67  98 127 167 217 265 321 378
#     4  11  24  44  68  95 133 173 216 269 320 389
#     4  10  23  41  67  95 127 170 212 265 321 380
#     4   9  22  44  63  94 129 168 209 269 313 387
#
# _framework density 26.190977
#
# number of rings (size 3 to 8) (size 9 to 14) (size 15 to 20)
#    0.923    0.923    0.000    2.308    2.154   13.538 
#    0.000    0.000    0.000    0.000    0.000    0.000 
#    0.000    0.000    0.000    0.000    0.000    0.000 
#
# Total GULP energy -72389.205135 kJ/mol
# GULP energy per Si atom -5568.400395 kJ/mol
# Density = 2.613137 g / cm^3
# Si number density = 26.190977 Si / 1000 Ang^3
#
#
#
# Elastic Constant Matrix: (Units=GPa)
#
#
# Indices 1 2 3 4 5 6 
#
# 1 88.3988 72.8463 29.0743 -17.7699 -28.0936 5.7506
# 2 72.8463 157.4678 53.0922 -57.8544 -22.0073 10.9030
# 3 29.0743 53.0922 101.0488 -28.0510 -17.1159 2.8449
# 4 -17.7699 -57.8544 -28.0510 49.1407 -0.1786 -10.1637
# 5 -28.0936 -22.0073 -17.1159 -0.1786 39.6051 -8.7678
# 6 5.7506 10.9030 2.8449 -10.1637 -8.7678 38.7841
#
#
#
# Elastic Compliance Matrix: (Units=1/GPa)
#
#
# Indices 1 2 3 4 5 6 
#
# 1 0.022277 -0.010342 -0.000463 -0.004181 0.010015 0.000807
# 2 -0.010342 0.018182 -0.001406 0.017208 0.002596 0.001622
# 3 -0.000463 -0.001406 0.013325 0.006279 0.005187 0.002305
# 4 -0.004181 0.017208 0.006279 0.044725 0.011654 0.009677
# 5 0.010015 0.002596 0.005187 0.011654 0.038098 0.009071
# 6 0.000807 0.001622 0.002305 0.009677 0.009071 0.029626
#
#
# Mechanical properties :
#
#
# Convention : Reuss Voigt Hill
#
# Bulk Modulus (GPa) = 34.05799 72.99344 53.52572
# Shear Modulus (GPa) = 24.94491 38.29949 31.62220
#
# Velocity S-wave (km/s) = 3.08948 3.82817 3.47849
# Velocity P-wave (km/s) = 5.07528 6.88985 6.05097
#
# Compressibility (1/GPa) = 0.02936168
#
# Stress axis : x y z
#
# Youngs Moduli (GPa) = 44.89006 55.00050 75.04682
#
# Poissons Ratio (x) = 0.56879 0.03474
# Poissons Ratio (y) = 0.46423 0.10554
# Poissons Ratio (z) = 0.02078 0.07735
#
# Static dielectric constant tensor:
#      x y z
#    x 2.134930 -0.111850 -0.117890 
#    y -0.111850 2.363190 0.354930 
#    z -0.117890 0.354930 2.578100 
# 
# From -- ./inp_files/65229.got.cif
#   From: 2010.05.17/outbox.cif.g08.bks.cpg/sg2_33_cif.got.tgz:65229.got - 2010.06.03 11:33:40.
