data_PCOD9038157
_publ_section_title
;
Structure prediction by ZEFSAII (Michael W. Deem and Ramdas Pophale) SiO2 
 PCOD9038157
Probable space group: P -1
;
_chemical_formula_sum "Si O2"
_cell_formula_units_Z 16
_cell_length_a 12.187597
_cell_length_b 9.732597
_cell_length_c 9.152485
_cell_angle_alpha 69.843304
_cell_angle_beta 53.380159
_cell_angle_gamma 55.550977
_cell_volume 718.496284
_symmetry_space_group_name_H-M "P -1"
_symmetry_group_IT_number 2
_symmetry_cell_setting 'triclinic'
loop_
_space_group_symop_operation_xyz
x,y,z
-x,-y,-z
loop_
_atom_site_type_symbol
_atom_site_label
_atom_site_fract_x
_atom_site_fract_y
_atom_site_fract_z
Si Si1 0.694362 0.208946 0.295536
Si Si2 0.592940 0.828750 0.399370
Si Si3 0.116238 0.636972 0.751336
Si Si4 0.153537 0.623730 0.377746
Si Si5 0.178942 0.165071 0.579707
Si Si6 0.667251 0.731607 0.799168
Si Si7 0.214480 0.288600 0.964623
Si Si8 0.620383 0.302765 0.986350
O O1 0.515720 0.257924 0.464376
O O2 0.773593 0.293862 0.296729
O O3 0.688275 0.255377 0.113047
O O4 0.794314 0.010751 0.316264
O O5 0.759682 0.755062 0.374854
O O6 0.636545 0.842638 0.194951
O O7 0.500000 0.000000 0.500000
O O8 0.129127 0.625769 0.569627
O O9 0.169172 0.460208 0.852157
O O10 0.933758 0.742987 0.900734
O O11 0.247473 0.438286 0.303077
O O12 0.991875 0.714850 0.385646
O O13 0.248533 0.721853 0.224617
O O14 0.290760 0.139575 0.362031
O O15 0.486648 0.782192 0.928025
O O16 0.739431 0.694582 0.914749
O O17 0.500000 0.500000 0.000000
#
# Coordination Sequence:
#
# PCOD9038157 Si02
#       8
#     2   2   2   2   2   2   2   2
#     4  11  25  46  65 102 141 182 229 282 354 405
#     4  10  24  46  69  98 133 185 225 275 347 410
#     4  11  25  42  68 108 138 175 231 289 349 402
#     4  11  24  42  71 101 139 184 231 288 339 408
#     4  11  23  44  71  92 141 190 227 277 346 416
#     4  11  22  44  70 103 136 181 238 282 342 406
#     4  11  25  43  73 102 135 177 233 292 340 411
#     4  10  23  41  66  99 133 177 229 286 337 403
#
# _framework density 22.268730000000001
#
# number of rings (size 3 to 8) (size 9 to 14) (size 15 to 20)
#    0.000    1.250    2.500    2.625    8.750    1.500 
#    2.250    2.500    0.000    0.000    0.000    0.000 
#    0.000    0.000    0.000    0.000    0.000    0.000 
#
# Total GULP energy -89426.301453 kJ/mol
# GULP energy per Si atom -5589.143841 kJ/mol
# Density = 2.221805 g / cm^3
# Si number density = 22.268730 Si / 1000 Ang^3
#
#
#
# Elastic Constant Matrix: (Units=GPa)
#
#
# Indices 1 2 3 4 5 6 
#
# 1 136.4878 30.8220 42.0111 -8.5269 -5.5712 7.5052
# 2 30.8220 63.5580 35.9876 -19.6743 3.3048 -0.8556
# 3 42.0111 35.9876 149.5786 -9.2243 5.5942 8.7610
# 4 -8.5269 -19.6743 -9.2243 27.0426 -9.9105 3.2292
# 5 -5.5712 3.3048 5.5942 -9.9105 49.7339 -11.1093
# 6 7.5052 -0.8556 8.7610 3.2292 -11.1093 19.0903
#
#
#
# Elastic Compliance Matrix: (Units=1/GPa)
#
#
# Indices 1 2 3 4 5 6 
#
# 1 0.008744 -0.003320 -0.001521 0.000449 0.000918 -0.002430
# 2 -0.003320 0.024597 -0.004270 0.015878 0.002314 0.003028
# 3 -0.001521 -0.004270 0.008421 -0.000918 -0.002017 -0.004476
# 4 0.000449 0.015878 -0.000918 0.051921 0.008847 -0.002678
# 5 0.000918 0.002314 -0.002017 0.008847 0.025127 0.013794
# 6 -0.002430 0.003028 -0.004476 -0.002678 0.013794 0.064008
#
#
# Mechanical properties :
#
#
# Convention : Reuss Voigt Hill
#
# Bulk Modulus (GPa) = 42.48337 63.02952 52.75645
# Shear Modulus (GPa) = 23.93631 35.22694 29.58163
#
# Velocity S-wave (km/s) = 3.28210 3.98163 3.64867
# Velocity P-wave (km/s) = 5.78636 7.03586 6.44148
#
# Compressibility (1/GPa) = 0.02353862
#
# Stress axis : x y z
#
# Youngs Moduli (GPa) = 114.36585 40.65518 118.75027
#
# Poissons Ratio (x) = 0.13499 0.18065
# Poissons Ratio (y) = 0.37973 0.50707
# Poissons Ratio (z) = 0.17398 0.17360
#
# Static dielectric constant tensor:
#      x y z
#    x 1.822830 -0.029260 -0.034960 
#    y -0.029260 1.900150 0.007390 
#    z -0.034960 0.007390 1.855370 
# 
# From -- ./inp_files/262283.got.cif
#   From: 2010.05.17/outbox.cif.g08.bks.cpg/sg2_132_cif.got.tgz:262283.got - 2010.06.03 11:33:40.
