data_PCOD9038865
_publ_section_title
;
Structure prediction by ZEFSAII (Michael W. Deem and Ramdas Pophale) SiO2 
 PCOD9038865
Probable space group: P -1
;
_chemical_formula_sum "Si O2"
_cell_formula_units_Z 16
_cell_length_a 5.408725
_cell_length_b 16.615181
_cell_length_c 8.339693
_cell_angle_alpha 69.946472
_cell_angle_beta 59.259944
_cell_angle_gamma 81.215734
_cell_volume 604.869728
_symmetry_space_group_name_H-M "P -1"
_symmetry_group_IT_number 2
_symmetry_cell_setting 'triclinic'
loop_
_space_group_symop_operation_xyz
x,y,z
-x,-y,-z
loop_
_atom_site_type_symbol
_atom_site_label
_atom_site_fract_x
_atom_site_fract_y
_atom_site_fract_z
Si Si1 0.331988 0.379293 0.272870
Si Si2 0.903452 0.457640 0.891492
Si Si3 0.449526 0.399068 0.590702
Si Si4 0.557849 0.788575 0.572337
Si Si5 0.400223 0.773072 0.266635
Si Si6 0.761837 0.926843 0.640897
Si Si7 0.192650 0.916509 0.018431
Si Si8 0.981614 0.793970 0.887231
O O1 0.121302 0.458359 0.268642
O O2 0.428349 0.378912 0.424821
O O3 0.227607 0.279522 0.368539
O O4 0.591857 0.410771 0.046770
O O5 0.140479 0.393746 0.789130
O O6 0.000000 0.500000 0.000000
O O7 0.500000 0.500000 0.500000
O O8 0.670084 0.330038 0.634550
O O9 0.531365 0.793793 0.385749
O O10 0.616822 0.883447 0.561272
O O11 0.260527 0.745452 0.771636
O O12 0.215076 0.853755 0.211122
O O13 0.658995 0.767664 0.055655
O O14 0.512597 0.947532 0.836995
O O15 0.944059 0.853848 0.708191
O O16 0.000000 0.000000 0.500000
O O17 0.086107 0.848550 0.967880
O O18 0.000000 0.000000 0.000000
#
# Coordination Sequence:
#
# PCOD9038865 Si02
#       8
#     2   2   2   2   2   2   2   2
#     4  10  23  42  64 101 134 189 233 286 349 410
#     4  11  22  39  67  96 140 185 234 288 347 414
#     4  11  22  44  67  98 143 184 232 285 343 413
#     4  10  23  44  69  99 142 184 241 291 350 427
#     4  10  24  45  70 103 139 190 236 290 355 423
#     4  10  24  46  72 102 139 186 235 297 367 427
#     4  10  24  47  74 104 142 181 235 298 364 432
#     4  10  23  43  68 101 137 183 230 291 355 423
#
# _framework density 26.451975999999998
#
# number of rings (size 3 to 8) (size 9 to 14) (size 15 to 20)
#    0.000    1.750    1.250    1.125    0.000   12.000 
#    6.750    6.250    0.000    0.000    0.000    0.000 
#    0.000    0.000    0.000    0.000    0.000    0.000 
#
# Total GULP energy -89279.322121 kJ/mol
# GULP energy per Si atom -5579.957633 kJ/mol
# Density = 2.639177 g / cm^3
# Si number density = 26.451976 Si / 1000 Ang^3
#
#
#
# Elastic Constant Matrix: (Units=GPa)
#
#
# Indices 1 2 3 4 5 6 
#
# 1 61.7139 39.7442 27.7211 -17.3204 10.0688 -20.0692
# 2 39.7442 152.2443 72.6228 -28.2832 15.7050 -37.8487
# 3 27.7211 72.6228 108.3447 -13.8966 8.7671 -5.4529
# 4 -17.3204 -28.2832 -13.8966 45.3477 -16.4664 -1.1897
# 5 10.0688 15.7050 8.7671 -16.4664 46.1235 9.5890
# 6 -20.0692 -37.8487 -5.4529 -1.1897 9.5890 57.0650
#
#
#
# Elastic Compliance Matrix: (Units=1/GPa)
#
#
# Indices 1 2 3 4 5 6 
#
# 1 0.023425 -0.000602 -0.004088 0.006222 -0.003612 0.008185
# 2 -0.000602 0.013980 -0.007848 0.005175 -0.003150 0.008948
# 3 -0.004088 -0.007848 0.014957 -0.001541 0.001307 -0.005465
# 4 0.006222 0.005175 -0.001541 0.029773 0.006771 0.004957
# 5 -0.003612 -0.003150 0.001307 0.006771 0.027308 -0.007682
# 6 0.008185 0.008948 -0.005465 0.004957 -0.007682 0.027209
#
#
# Mechanical properties :
#
#
# Convention : Reuss Voigt Hill
#
# Bulk Modulus (GPa) = 36.64647 66.94212 51.79430
# Shear Modulus (GPa) = 29.27025 41.85489 35.56257
#
# Velocity S-wave (km/s) = 3.33008 3.98213 3.67061
# Velocity P-wave (km/s) = 5.35444 6.81946 6.13087
#
# Compressibility (1/GPa) = 0.02728776
#
# Stress axis : x y z
#
# Youngs Moduli (GPa) = 42.68941 71.53221 66.85674
#
# Poissons Ratio (x) = 0.04305 0.27329
# Poissons Ratio (y) = 0.02569 0.52466
# Poissons Ratio (z) = 0.17450 0.56135
#
# Static dielectric constant tensor:
#      x y z
#    x 3.043790 -0.563500 -0.699420 
#    y -0.563500 1.929510 0.149740 
#    z -0.699420 0.149740 2.454000 
# 
# From -- ./inp_files/138676.got.cif
#   From: 2010.05.17/outbox.cif.g08.bks.cpg/sg2_70_cif.got.tgz:138676.got - 2010.06.03 11:33:40.
