data_PCOD9038816
_publ_section_title
;
Structure prediction by ZEFSAII (Michael W. Deem and Ramdas Pophale) SiO2 
 PCOD9038816
Probable space group: P -1
;
_chemical_formula_sum "Si O2"
_cell_formula_units_Z 14
_cell_length_a 6.491195
_cell_length_b 29.357343
_cell_length_c 15.979820
_cell_angle_alpha 163.205430
_cell_angle_beta 137.122705
_cell_angle_gamma 43.915190
_cell_volume 595.949173
_symmetry_space_group_name_H-M "P -1"
_symmetry_group_IT_number 2
_symmetry_cell_setting 'triclinic'
loop_
_space_group_symop_operation_xyz
x,y,z
-x,-y,-z
loop_
_atom_site_type_symbol
_atom_site_label
_atom_site_fract_x
_atom_site_fract_y
_atom_site_fract_z
Si Si1 0.246176 0.472134 0.810231
Si Si2 0.297160 0.692730 0.086524
Si Si3 0.178154 0.784267 0.733725
Si Si4 0.192910 0.916995 0.786221
Si Si5 0.047047 0.990116 0.597506
Si Si6 0.840643 0.770327 0.274364
Si Si7 0.825442 0.666190 0.769944
O O1 0.114065 0.309310 0.501177
O O2 0.500000 0.500000 0.000000
O O3 0.382675 0.519972 0.846435
O O4 0.978332 0.610916 0.990391
O O5 0.308524 0.839847 0.413379
O O6 0.521305 0.734053 0.153378
O O7 0.959713 0.683675 0.933339
O O8 0.234431 0.821212 0.717781
O O9 0.465450 0.680325 0.676508
O O10 0.087972 0.949776 0.044552
O O11 0.072343 0.813698 0.493193
O O12 0.500000 0.000000 0.000000
O O13 0.810452 0.915538 0.456025
O O14 0.000000 0.000000 0.500000
O O15 0.103244 0.164391 0.951798
O O16 0.000000 0.500000 0.500000
#
# Coordination Sequence:
#
# PCOD9038816 Si02
#       7
#     2   2   2   2   2   2   2
#     4  11  24  41  63  93 128 166 218 275 323 379
#     4  10  23  42  63  92 128 170 217 264 320 390
#     4  11  25  44  65  97 137 172 213 276 331 377
#     4  11  24  43  70  98 128 172 224 271 326 388
#     4   9  21  41  62  89 126 165 212 261 311 382
#     4  11  22  40  68  93 122 171 219 265 324 384
#     4  11  23  40  64  95 133 171 212 260 325 396
#
# _framework density 23.491934000000001
#
# number of rings (size 3 to 8) (size 9 to 14) (size 15 to 20)
#    0.000    1.429    0.000    4.286    0.000   14.286 
#    0.000   10.000    0.000    0.000    0.000    0.000 
#    0.000    0.000    0.000    0.000    0.000    0.000 
#
# Total GULP energy -78097.333776 kJ/mol
# GULP energy per Si atom -5578.380984 kJ/mol
# Density = 2.343847 g / cm^3
# Si number density = 23.491934 Si / 1000 Ang^3
#
#
#
# Elastic Constant Matrix: (Units=GPa)
#
#
# Indices 1 2 3 4 5 6 
#
# 1 104.2832 34.6671 33.8646 5.1435 20.6512 15.6977
# 2 34.6671 96.0008 16.6219 -8.4299 11.3451 -0.5902
# 3 33.8646 16.6219 122.8006 9.6355 0.6947 3.0777
# 4 5.1435 -8.4299 9.6355 34.7606 -5.4550 0.9942
# 5 20.6512 11.3451 0.6947 -5.4550 52.7486 14.8942
# 6 15.6977 -0.5902 3.0777 0.9942 14.8942 44.8827
#
#
#
# Elastic Compliance Matrix: (Units=1/GPa)
#
#
# Indices 1 2 3 4 5 6 
#
# 1 0.013184 -0.004108 -0.002771 -0.002653 -0.003607 -0.003220
# 2 -0.004108 0.012536 -0.000893 0.003640 -0.001265 0.002002
# 3 -0.002771 -0.000893 0.009195 -0.002215 0.000905 0.000075
# 4 -0.002653 0.003640 -0.002215 0.031269 0.003747 -0.000808
# 5 -0.003607 -0.001265 0.000905 0.003747 0.022848 -0.006482
# 6 -0.003220 0.002002 0.000075 -0.000808 -0.006482 0.025596
#
#
# Mechanical properties :
#
#
# Convention : Reuss Voigt Hill
#
# Bulk Modulus (GPa) = 51.61754 54.82132 53.21943
# Shear Modulus (GPa) = 36.59571 42.34046 39.46809
#
# Velocity S-wave (km/s) = 3.95118 4.25000 4.10331
# Velocity P-wave (km/s) = 6.54491 6.88987 6.71960
#
# Compressibility (1/GPa) = 0.01937326
#
# Stress axis : x y z
#
# Youngs Moduli (GPa) = 75.84765 79.77072 108.75530
#
# Poissons Ratio (x) = 0.32768 0.30131
# Poissons Ratio (y) = 0.31157 0.09708
# Poissons Ratio (z) = 0.21014 0.07120
#
# Static dielectric constant tensor:
#      x y z
#    x 1.969890 0.008480 -0.001120 
#    y 0.008480 1.943460 0.067480 
#    z -0.001120 0.067480 1.966860 
# 
# From -- ./inp_files/486227.got.cif
#   From: 2010.05.17/outbox.cif.g08.bks.cpg/sg2_244_cif.got.tgz:486227.got - 2010.06.03 11:33:40.
