data_PCOD9038601
_publ_section_title
;
Structure prediction by ZEFSAII (Michael W. Deem and Ramdas Pophale) SiO2 
 PCOD9038601
Probable space group: P -1
;
_chemical_formula_sum "Si O2"
_cell_formula_units_Z 14
_cell_length_a 8.059894
_cell_length_b 12.444760
_cell_length_c 18.059409
_cell_angle_alpha 150.203932
_cell_angle_beta 48.323710
_cell_angle_gamma 139.035912
_cell_volume 589.848941
_symmetry_space_group_name_H-M "P -1"
_symmetry_group_IT_number 2
_symmetry_cell_setting 'triclinic'
loop_
_space_group_symop_operation_xyz
x,y,z
-x,-y,-z
loop_
_atom_site_type_symbol
_atom_site_label
_atom_site_fract_x
_atom_site_fract_y
_atom_site_fract_z
Si Si1 0.368274 0.985020 0.740718
Si Si2 0.469348 0.260919 0.324779
Si Si3 0.231030 0.513852 0.035920
Si Si4 0.867645 0.220252 0.101540
Si Si5 0.828772 0.721519 0.802194
Si Si6 0.449403 0.155292 0.545160
Si Si7 0.965613 0.822725 0.236221
O O1 0.440576 0.874321 0.723523
O O2 0.492819 0.932352 0.601536
O O3 0.065562 0.844342 0.748588
O O4 0.498864 0.277031 0.890042
O O5 0.500000 0.500000 0.500000
O O6 0.658913 0.308528 0.229315
O O7 0.178164 0.070024 0.282522
O O8 0.039931 0.347955 0.056614
O O9 0.098747 0.669951 0.135887
O O10 0.236058 0.346461 0.866930
O O11 0.052115 0.286414 0.157898
O O12 0.731511 0.922403 0.957675
O O13 0.632620 0.447882 0.673476
O O14 0.168697 0.111399 0.618604
O O15 0.500000 0.000000 0.500000
#
# Coordination Sequence:
#
# PCOD9038601 Si02
#       7
#     2   2   2   2   2   2   2
#     4  10  24  43  66  93 131 173 217 268 320 380
#     4  10  24  42  68  95 133 167 217 270 327 379
#     4  10  23  44  68  93 130 169 222 266 321 380
#     4  10  23  41  71  94 127 175 215 266 325 376
#     4  10  24  43  65  97 132 166 225 263 317 394
#     4  12  27  42  67  95 135 172 213 269 330 382
#     4  10  26  42  64  98 131 166 219 270 318 391
#
# _framework density 23.734888999999999
#
# number of rings (size 3 to 8) (size 9 to 14) (size 15 to 20)
#    0.000    1.714    0.000    1.286   20.000    3.429 
#    0.000    0.000    0.000    0.000    0.000    0.000 
#    0.000    0.000    0.000    0.000    0.000    0.000 
#
# Total GULP energy -78404.993277 kJ/mol
# GULP energy per Si atom -5600.356663 kJ/mol
# Density = 2.368087 g / cm^3
# Si number density = 23.734889 Si / 1000 Ang^3
#
#
#
# Elastic Constant Matrix: (Units=GPa)
#
#
# Indices 1 2 3 4 5 6 
#
# 1 31.4441 15.3658 11.6464 2.8189 5.1570 6.1409
# 2 15.3658 114.0585 41.4914 -7.1813 2.1501 9.6222
# 3 11.6464 41.4914 120.4915 0.4688 -4.6623 19.5017
# 4 2.8189 -7.1813 0.4688 58.7015 0.8656 0.2929
# 5 5.1570 2.1501 -4.6623 0.8656 27.6846 -5.8623
# 6 6.1409 9.6222 19.5017 0.2929 -5.8623 32.4415
#
#
#
# Elastic Compliance Matrix: (Units=1/GPa)
#
#
# Indices 1 2 3 4 5 6 
#
# 1 0.037030 -0.003875 -0.001516 -0.002088 -0.008142 -0.006402
# 2 -0.003875 0.010627 -0.003218 0.001527 -0.000830 -0.000648
# 3 -0.001516 -0.003218 0.010376 -0.000399 0.001284 -0.004760
# 4 -0.002088 0.001527 -0.000399 0.017331 -0.000347 -0.000037
# 5 -0.008142 -0.000830 0.001284 -0.000347 0.039663 0.008186
# 6 -0.006402 -0.000648 -0.004760 -0.000037 0.008186 0.036570
#
#
# Mechanical properties :
#
#
# Convention : Reuss Voigt Hill
#
# Bulk Modulus (GPa) = 24.50089 44.77793 34.63941
# Shear Modulus (GPa) = 27.40949 36.93155 32.17052
#
# Velocity S-wave (km/s) = 3.40195 3.94890 3.68558
# Velocity P-wave (km/s) = 5.07702 6.30068 5.72166
#
# Compressibility (1/GPa) = 0.04081485
#
# Stress axis : x y z
#
# Youngs Moduli (GPa) = 27.00487 94.10396 96.37982
#
# Poissons Ratio (x) = 0.36468 0.14608
# Poissons Ratio (y) = 0.10465 0.31014
# Poissons Ratio (z) = 0.04093 0.30282
#
# Static dielectric constant tensor:
#      x y z
#    x 1.961520 0.030200 -0.033340 
#    y 0.030200 1.911980 -0.043610 
#    z -0.033340 -0.043610 1.920420 
# 
# From -- ./inp_files/153743.got.cif
#   From: 2010.05.17/outbox.cif.g08.bks.cpg/sg2_77_cif.got.tgz:153743.got - 2010.06.03 11:33:40.
