data_PCOD9038179
_publ_section_title
;
Structure prediction by ZEFSAII (Michael W. Deem and Ramdas Pophale) SiO2 
 PCOD9038179
Probable space group: P -1
;
_chemical_formula_sum "Si O2"
_cell_formula_units_Z 12
_cell_length_a 19.408290
_cell_length_b 4.958147
_cell_length_c 11.155009
_cell_angle_alpha 69.797048
_cell_angle_beta 151.535235
_cell_angle_gamma 110.404093
_cell_volume 477.701896
_symmetry_space_group_name_H-M "P -1"
_symmetry_group_IT_number 2
_symmetry_cell_setting 'triclinic'
loop_
_space_group_symop_operation_xyz
x,y,z
-x,-y,-z
loop_
_atom_site_type_symbol
_atom_site_label
_atom_site_fract_x
_atom_site_fract_y
_atom_site_fract_z
Si Si1 0.471035 0.093038 0.577959
Si Si2 0.782492 0.692182 0.451308
Si Si3 0.979244 0.817824 0.324094
Si Si4 0.694710 0.513043 0.578744
Si Si5 0.234314 0.951148 0.847597
Si Si6 0.989167 0.697397 0.102629
O O1 0.383267 0.793893 0.530486
O O2 0.500000 0.000000 0.500000
O O3 0.377360 0.347346 0.437974
O O4 0.624973 0.166241 0.867132
O O5 0.687944 0.717628 0.420464
O O6 0.715968 0.793104 0.210853
O O7 0.932724 0.901154 0.646894
O O8 0.848634 0.387644 0.609372
O O9 0.113880 0.731476 0.626726
O O10 0.856298 0.914937 0.206733
O O11 0.924546 0.657803 0.145996
O O12 0.865534 0.503747 0.868543
O O13 0.000000 0.000000 0.000000
#
# Coordination Sequence:
#
# PCOD9038179 Si02
#       6
#     2   2   2   2   2   2
#     4  12  28  48  69 100 142 189 228 279 347 429
#     4  10  23  41  67 102 128 177 229 289 342 390
#     4   9  21  42  67  98 130 177 227 293 333 395
#     4  12  27  42  73 101 142 184 226 285 349 412
#     4   9  22  45  66  98 135 180 235 277 347 405
#     4  12  22  39  69 103 138 171 234 289 344 402
#
# _framework density 25.120270999999999
#
# number of rings (size 3 to 8) (size 9 to 14) (size 15 to 20)
#    1.000    0.333    1.667    3.000    4.667    3.333 
#    0.000    0.000    0.000    0.000    0.000    0.000 
#    0.000    0.000    0.000    0.000    0.000    0.000 
#
# Total GULP energy -66946.465177 kJ/mol
# GULP energy per Si atom -5578.872098 kJ/mol
# Density = 2.506310 g / cm^3
# Si number density = 25.120271 Si / 1000 Ang^3
#
#
#
# Elastic Constant Matrix: (Units=GPa)
#
#
# Indices 1 2 3 4 5 6 
#
# 1 116.5231 -3.4123 9.5997 -0.4279 -19.8736 2.1693
# 2 -3.4123 62.5381 16.8429 5.3156 5.5159 -13.1923
# 3 9.5997 16.8429 125.6227 -1.2575 -0.8834 1.9324
# 4 -0.4279 5.3156 -1.2575 34.3762 -0.2835 4.4050
# 5 -19.8736 5.5159 -0.8834 -0.2835 37.6712 0.2501
# 6 2.1693 -13.1923 1.9324 4.4050 0.2501 24.3991
#
#
#
# Elastic Compliance Matrix: (Units=1/GPa)
#
#
# Indices 1 2 3 4 5 6 
#
# 1 0.009510 0.000063 -0.000685 0.000234 0.004999 -0.000851
# 2 0.000063 0.019972 -0.002935 -0.004747 -0.003075 0.011914
# 3 -0.000685 -0.002935 0.008456 0.001063 0.000291 -0.002391
# 4 0.000234 -0.004747 0.001063 0.030935 0.001131 -0.008268
# 5 0.004999 -0.003075 0.000291 0.001131 0.029666 -0.002638
# 6 -0.000851 0.011914 -0.002391 -0.008268 -0.002638 0.049212
#
#
# Mechanical properties :
#
#
# Convention : Reuss Voigt Hill
#
# Bulk Modulus (GPa) = 32.44210 38.97161 35.70686
# Shear Modulus (GPa) = 30.27792 38.06621 34.17207
#
# Velocity S-wave (km/s) = 3.47554 3.89698 3.69228
# Velocity P-wave (km/s) = 5.38967 5.98300 5.69407
#
# Compressibility (1/GPa) = 0.03082414
#
# Stress axis : x y z
#
# Youngs Moduli (GPa) = 105.15790 50.06994 118.26440
#
# Poissons Ratio (x) = -0.00315 0.08096
# Poissons Ratio (y) = -0.00663 0.34710
# Poissons Ratio (z) = 0.07199 0.14695
#
# Static dielectric constant tensor:
#      x y z
#    x 2.199400 -0.049940 0.011820 
#    y -0.049940 2.170960 -0.040430 
#    z 0.011820 -0.040430 1.908440 
# 
# From -- ./inp_files/366414.got.cif
#   From: 2010.05.17/outbox.cif.g08.bks.cpg/sg2_184_cif.got.tgz:366414.got - 2010.06.03 11:33:40.
