data_PCOD9038158
_publ_section_title
;
Structure prediction by ZEFSAII (Michael W. Deem and Ramdas Pophale) SiO2 
 PCOD9038158
Probable space group: P -1
;
_chemical_formula_sum "Si O2"
_cell_formula_units_Z 15
_cell_length_a 7.764900
_cell_length_b 11.798430
_cell_length_c 9.223089
_cell_angle_alpha 85.632533
_cell_angle_beta 105.603891
_cell_angle_gamma 131.376510
_cell_volume 604.605248
_symmetry_space_group_name_H-M "P -1"
_symmetry_group_IT_number 2
_symmetry_cell_setting 'triclinic'
loop_
_space_group_symop_operation_xyz
x,y,z
-x,-y,-z
loop_
_atom_site_type_symbol
_atom_site_label
_atom_site_fract_x
_atom_site_fract_y
_atom_site_fract_z
Si Si1 0.500000 0.000000 0.500000
Si Si2 0.551772 0.986179 0.848558
Si Si3 0.075600 0.150244 0.928549
Si Si4 0.636861 0.782621 0.525828
Si Si5 0.233488 0.642694 0.877034
Si Si6 0.053126 0.878241 0.410620
Si Si7 0.310398 0.578760 0.212533
Si Si8 0.493145 0.412635 0.200265
O O1 0.534293 0.998703 0.323339
O O2 0.796250 0.171816 0.556417
O O3 0.434930 0.810008 0.839458
O O4 0.836931 0.120807 0.895147
O O5 0.500000 0.000000 0.000000
O O6 0.097564 0.148043 0.760953
O O7 0.295881 0.297650 0.046157
O O8 0.000000 0.000000 0.000000
O O9 0.438556 0.688829 0.367424
O O10 0.565455 0.680183 0.657758
O O11 0.888373 0.839674 0.512422
O O12 0.693786 0.938562 0.565321
O O13 0.262423 0.532374 0.816615
O O14 0.964811 0.573389 0.803623
O O15 0.291984 0.649128 0.059200
O O16 0.464102 0.531468 0.217041
#
# Coordination Sequence:
#
# PCOD9038158 Si02
#       8
#     1   2   2   2   2   2   2   2
#     4  10  24  42  62 110 136 168 240 280 370 424
#     4  11  24  40  71 103 137 183 226 305 358 419
#     4  11  20  40  66  98 129 171 227 281 359 405
#     4  11  24  42  67  97 138 177 228 286 362 404
#     4  11  25  47  67  97 142 183 240 285 345 417
#     4  10  23  41  66  99 134 174 218 303 345 419
#     4  11  27  45  67 101 135 194 235 278 345 434
#     4  12  23  45  71  98 138 184 233 288 346 426
#
# _framework density 24.809574999999999
#
# number of rings (size 3 to 8) (size 9 to 14) (size 15 to 20)
#    0.000    1.067    2.667    3.200    5.600    0.533 
#    4.800    0.000    0.000    0.000    0.000    0.000 
#    0.000    0.000    0.000    0.000    0.000    0.000 
#
# Total GULP energy -83713.468690 kJ/mol
# GULP energy per Si atom -5580.897913 kJ/mol
# Density = 2.475311 g / cm^3
# Si number density = 24.809575 Si / 1000 Ang^3
#
#
#
# Elastic Constant Matrix: (Units=GPa)
#
#
# Indices 1 2 3 4 5 6 
#
# 1 75.5011 13.6113 32.0124 -2.9784 -9.0268 3.7091
# 2 13.6113 76.1443 41.2133 5.3288 2.0483 -1.7675
# 3 32.0124 41.2133 183.9948 -1.8885 -10.9872 1.2416
# 4 -2.9784 5.3288 -1.8885 39.5926 3.1361 -9.5929
# 5 -9.0268 2.0483 -10.9872 3.1361 33.5117 -1.6369
# 6 3.7091 -1.7675 1.2416 -9.5929 -1.6369 37.6453
#
#
#
# Elastic Compliance Matrix: (Units=1/GPa)
#
#
# Indices 1 2 3 4 5 6 
#
# 1 0.014886 -0.001755 -0.001982 0.000717 0.003344 -0.001156
# 2 -0.001755 0.015460 -0.003318 -0.002099 -0.002291 0.000374
# 3 -0.001982 -0.003318 0.006635 0.000476 0.001801 0.000020
# 4 0.000717 -0.002099 0.000476 0.027383 -0.001757 0.006717
# 5 0.003344 -0.002291 0.001801 -0.001757 0.031657 0.000432
# 6 -0.001156 0.000374 0.000020 0.006717 0.000432 0.028425
#
#
# Mechanical properties :
#
#
# Convention : Reuss Voigt Hill
#
# Bulk Modulus (GPa) = 43.72437 56.59046 50.15741
# Shear Modulus (GPa) = 34.20406 38.73680 36.47043
#
# Velocity S-wave (km/s) = 3.71706 3.95570 3.83824
# Velocity P-wave (km/s) = 6.00702 6.61232 6.31693
#
# Compressibility (1/GPa) = 0.02287054
#
# Stress axis : x y z
#
# Youngs Moduli (GPa) = 67.17506 64.68299 150.70757
#
# Poissons Ratio (x) = 0.11353 0.29871
# Poissons Ratio (y) = 0.11791 0.50011
# Poissons Ratio (z) = 0.13314 0.21464
#
# Static dielectric constant tensor:
#      x y z
#    x 2.748670 -0.116890 0.309050 
#    y -0.116890 2.017580 -0.060810 
#    z 0.309050 -0.060810 2.188610 
# 
# From -- ./inp_files/201563.got.cif
#   From: 2010.05.17/outbox.cif.g08.bks.cpg/sg2_101_cif.got.tgz:201563.got - 2010.06.03 11:33:40.
