data_PCOD9038732
_publ_section_title
;
Structure prediction by ZEFSAII (Michael W. Deem and Ramdas Pophale) SiO2 
 PCOD9038732
Probable space group: P -1
;
_chemical_formula_sum "Si O2"
_cell_formula_units_Z 16
_cell_length_a 16.748286
_cell_length_b 11.484469
_cell_length_c 8.187078
_cell_angle_alpha 138.413712
_cell_angle_beta 136.100373
_cell_angle_gamma 45.116552
_cell_volume 675.536063
_symmetry_space_group_name_H-M "P -1"
_symmetry_group_IT_number 2
_symmetry_cell_setting 'triclinic'
loop_
_space_group_symop_operation_xyz
x,y,z
-x,-y,-z
loop_
_atom_site_type_symbol
_atom_site_label
_atom_site_fract_x
_atom_site_fract_y
_atom_site_fract_z
Si Si1 0.162052 0.148059 0.062048
Si Si2 0.023163 0.027645 0.253940
Si Si3 0.918876 0.452861 0.474056
Si Si4 0.511594 0.188925 0.279177
Si Si5 0.386940 0.508225 0.622023
Si Si6 0.258733 0.867890 0.644024
Si Si7 0.645138 0.559051 0.120915
Si Si8 0.391059 0.035556 0.506430
O O1 0.115105 0.370365 0.264578
O O2 0.266795 0.055867 0.254144
O O3 0.227898 0.064833 0.901127
O O4 0.058806 0.058743 0.848354
O O5 0.988843 0.252454 0.452087
O O6 0.159389 0.914143 0.403008
O O7 0.000000 0.000000 0.000000
O O8 0.791638 0.442956 0.197764
O O9 0.000000 0.500000 0.500000
O O10 0.391853 0.366926 0.332910
O O11 0.608327 0.221637 0.336484
O O12 0.574605 0.126211 0.482241
O O13 0.500000 0.000000 0.000000
O O14 0.275564 0.706321 0.634747
O O15 0.368450 0.431876 0.691789
O O16 0.525240 0.517801 0.842640
O O17 0.627962 0.761945 0.234021
O O18 0.500000 0.000000 0.500000
#
# Coordination Sequence:
#
# PCOD9038732 Si02
#       8
#     2   2   2   2   2   2   2   2
#     4  11  25  47  73 106 146 188 250 300 368 437
#     4  12  26  50  75 103 145 196 252 302 362 442
#     4  11  25  45  76 110 137 197 249 301 363 434
#     4  12  26  42  67 108 151 187 236 296 369 440
#     4  11  24  46  71 111 142 196 235 301 372 434
#     4  12  28  46  71 107 148 188 241 306 368 438
#     4  10  23  41  78 102 143 183 250 295 362 441
#     4  11  21  42  73 103 142 188 235 297 362 436
#
# _framework density 23.684892000000001
#
# number of rings (size 3 to 8) (size 9 to 14) (size 15 to 20)
#    0.000    0.750    2.500    4.500    8.750    0.500 
#    4.500    0.000    0.000    0.000    0.000    0.000 
#    0.000    0.000    0.000    0.000    0.000    0.000 
#
# Total GULP energy -89420.657858 kJ/mol
# GULP energy per Si atom -5588.791116 kJ/mol
# Density = 2.363098 g / cm^3
# Si number density = 23.684892 Si / 1000 Ang^3
#
#
#
# Elastic Constant Matrix: (Units=GPa)
#
#
# Indices 1 2 3 4 5 6 
#
# 1 71.5856 17.4362 17.5789 2.6638 -1.7668 -5.9977
# 2 17.4362 142.2129 47.3704 10.5709 -4.3322 -0.1639
# 3 17.5789 47.3704 85.3947 9.3609 -10.8196 -8.3959
# 4 2.6638 10.5709 9.3609 33.5107 -11.8892 -1.3879
# 5 -1.7668 -4.3322 -10.8196 -11.8892 41.7596 3.3340
# 6 -5.9977 -0.1639 -8.3959 -1.3879 3.3340 33.8557
#
#
#
# Elastic Compliance Matrix: (Units=1/GPa)
#
#
# Indices 1 2 3 4 5 6 
#
# 1 0.014969 -0.001058 -0.002301 -0.000235 -0.000307 0.002097
# 2 -0.001058 0.008836 -0.004719 -0.001698 -0.000729 -0.001313
# 3 -0.002301 -0.004719 0.015631 -0.001586 0.002763 0.003109
# 4 -0.000235 -0.001698 -0.001586 0.034069 0.009098 0.000058
# 5 -0.000307 -0.000729 0.002763 0.009098 0.027299 -0.001688
# 6 0.002097 -0.001313 0.003109 0.000058 -0.001688 0.030842
#
#
# Mechanical properties :
#
#
# Convention : Reuss Voigt Hill
#
# Bulk Modulus (GPa) = 42.95690 51.55159 47.25425
# Shear Modulus (GPa) = 32.14144 36.27903 34.21024
#
# Velocity S-wave (km/s) = 3.68780 3.91799 3.80464
# Velocity P-wave (km/s) = 6.02573 6.50233 6.26856
#
# Compressibility (1/GPa) = 0.02327915
#
# Stress axis : x y z
#
# Youngs Moduli (GPa) = 66.80470 113.17611 63.97380
#
# Poissons Ratio (x) = 0.11976 0.14723
# Poissons Ratio (y) = 0.07069 0.30189
# Poissons Ratio (z) = 0.15375 0.53407
#
# Static dielectric constant tensor:
#      x y z
#    x 1.924840 0.011300 -0.037290 
#    y 0.011300 1.887560 0.005770 
#    z -0.037290 0.005770 1.976250 
# 
# From -- ./inp_files/333965.got.cif
#   From: 2010.05.17/outbox.cif.g08.bks.cpg/sg2_167_cif.got.tgz:333965.got - 2010.06.03 11:33:40.
