data_PCOD9038476
_publ_section_title
;
Structure prediction by ZEFSAII (Michael W. Deem and Ramdas Pophale) SiO2 
 PCOD9038476
Probable space group: P -1
;
_chemical_formula_sum "Si O2"
_cell_formula_units_Z 12
_cell_length_a 19.184132
_cell_length_b 10.905167
_cell_length_c 17.513120
_cell_angle_alpha 23.922761
_cell_angle_beta 158.461190
_cell_angle_gamma 146.464767
_cell_volume 542.001839
_symmetry_space_group_name_H-M "P -1"
_symmetry_group_IT_number 2
_symmetry_cell_setting 'triclinic'
loop_
_space_group_symop_operation_xyz
x,y,z
-x,-y,-z
loop_
_atom_site_type_symbol
_atom_site_label
_atom_site_fract_x
_atom_site_fract_y
_atom_site_fract_z
Si Si1 0.281472 0.038681 0.733157
Si Si2 0.938786 0.830679 0.786408
Si Si3 0.440145 0.860196 0.709021
Si Si4 0.803290 0.181775 0.666189
Si Si5 0.029278 0.205563 0.527068
Si Si6 0.742407 0.270977 0.722736
O O1 0.161493 0.045435 0.685859
O O2 0.259658 0.362170 0.482360
O O3 0.187425 0.792083 0.726696
O O4 0.500000 0.000000 0.000000
O O5 0.718456 0.964865 0.495552
O O6 0.034179 0.042300 0.704731
O O7 0.000000 0.500000 0.000000
O O8 0.041529 0.839734 0.967929
O O9 0.336214 0.886333 0.505225
O O10 0.610614 0.074736 0.750883
O O11 0.500000 0.500000 0.000000
O O12 0.885815 0.485457 0.550843
O O13 0.692996 0.227894 0.608291
O O14 0.000000 0.000000 0.000000
#
# Coordination Sequence:
#
# PCOD9038476 Si02
#       6
#     2   2   2   2   2   2
#     4  10  23  41  69  99 135 185 240 301 346 417
#     4  12  26  47  72 105 147 191 234 300 365 421
#     4  12  29  47  74 109 147 191 240 294 363 433
#     4  11  24  46  75 100 142 197 237 296 357 432
#     4  10  24  42  67  99 140 183 239 289 364 416
#     4  11  25  45  72 106 138 190 247 295 355 429
#
# _framework density 22.140146000000001
#
# number of rings (size 3 to 8) (size 9 to 14) (size 15 to 20)
#    0.000    1.000    3.333    1.500    7.000    6.000 
#    0.000    0.000    0.000    0.000    0.000    0.000 
#    0.000    0.000    0.000    0.000    0.000    0.000 
#
# Total GULP energy -66856.246407 kJ/mol
# GULP energy per Si atom -5571.353867 kJ/mol
# Density = 2.208975 g / cm^3
# Si number density = 22.140146 Si / 1000 Ang^3
#
#
#
# Elastic Constant Matrix: (Units=GPa)
#
#
# Indices 1 2 3 4 5 6 
#
# 1 53.8262 64.4151 54.9524 -23.8595 -3.4130 22.1300
# 2 64.4151 20.8909 -22.5427 28.6276 2.5282 18.8353
# 3 54.9524 -22.5427 72.2827 21.0742 -0.9277 15.5983
# 4 -23.8595 28.6276 21.0742 41.4817 3.8643 -12.1797
# 5 -3.4130 2.5282 -0.9277 3.8643 34.5908 2.0596
# 6 22.1300 18.8353 15.5983 -12.1797 2.0596 44.6514
#
#
#
# Elastic Compliance Matrix: (Units=1/GPa)
#
#
# Indices 1 2 3 4 5 6 
#
# 1 0.004773 0.008836 0.003598 -0.008140 0.001405 -0.009635
# 2 0.008836 0.002368 -0.008021 0.007392 -0.000310 -0.000546
# 3 0.003598 -0.008021 0.007549 0.003681 0.000736 -0.000067
# 4 -0.008140 0.007392 0.003681 0.013767 -0.002992 0.003524
# 5 0.001405 -0.000310 0.000736 -0.002992 0.029604 -0.003005
# 6 -0.009635 -0.000546 -0.000067 0.003524 -0.003005 0.028524
#
#
# Mechanical properties :
#
#
# Convention : Reuss Voigt Hill
#
# Bulk Modulus (GPa) = 42.52452 37.84994 40.18723
# Shear Modulus (GPa) = 58.41362 27.48978 42.95170
#
# Velocity S-wave (km/s) = 5.14207 3.52749 4.40931
# Velocity P-wave (km/s) = 7.38262 5.80721 6.64179
#
# Compressibility (1/GPa) = 0.02351585
#
# Stress axis : x y z
#
# Youngs Moduli (GPa) = 209.50748 422.35601 132.47191
#
# Poissons Ratio (x) = -3.73203 -0.47657
# Poissons Ratio (y) = -1.85125 1.06250
# Poissons Ratio (z) = -0.75370 3.38753
#
# Static dielectric constant tensor:
#      x y z
#    x 1.856270 -0.052300 0.019970 
#    y -0.052300 1.704640 0.075460 
#    z 0.019970 0.075460 1.833120 
# 
# From -- ./inp_files/65170.got.cif
#   From: 2010.05.17/outbox.cif.g08.bks.cpg/sg2_33_cif.got.tgz:65170.got - 2010.06.03 11:33:40.
