data_PCOD9038412
_publ_section_title
;
Structure prediction by ZEFSAII (Michael W. Deem and Ramdas Pophale) SiO2 
 PCOD9038412
Probable space group: P -1
;
_chemical_formula_sum "Si O2"
_cell_formula_units_Z 12
_cell_length_a 9.504091
_cell_length_b 9.317472
_cell_length_c 11.195190
_cell_angle_alpha 95.687132
_cell_angle_beta 123.336823
_cell_angle_gamma 45.578936
_cell_volume 519.413619
_symmetry_space_group_name_H-M "P -1"
_symmetry_group_IT_number 2
_symmetry_cell_setting 'triclinic'
loop_
_space_group_symop_operation_xyz
x,y,z
-x,-y,-z
loop_
_atom_site_type_symbol
_atom_site_label
_atom_site_fract_x
_atom_site_fract_y
_atom_site_fract_z
Si Si1 0.120245 0.353678 0.921812
Si Si2 0.405278 0.436693 0.362818
Si Si3 0.787221 0.280205 0.182157
Si Si4 0.618253 0.124982 0.000476
Si Si5 0.502233 0.377078 0.740348
Si Si6 0.630810 0.067556 0.580651
O O1 0.870911 0.462314 0.738288
O O2 0.292304 0.095426 0.004280
O O3 0.320348 0.318432 0.934013
O O4 0.000000 0.500000 0.000000
O O5 0.500000 0.500000 0.500000
O O6 0.365504 0.560342 0.235679
O O7 0.619711 0.165960 0.458976
O O8 0.792890 0.101856 0.174030
O O9 0.763982 0.383746 0.302719
O O10 0.500000 0.500000 0.000000
O O11 0.067384 0.141690 0.247033
O O12 0.649297 0.192779 0.898291
O O13 0.475701 0.276806 0.616457
O O14 0.500000 0.000000 0.500000
#
# Coordination Sequence:
#
# PCOD9038412 Si02
#       6
#     2   2   2   2   2   2
#     4  11  24  42  70 102 143 178 231 294 344 410
#     4  10  23  44  65  96 139 185 228 282 348 412
#     4  10  23  43  70  98 134 180 232 280 343 418
#     4  10  23  41  69 104 132 177 238 280 342 409
#     4  10  23  44  70  98 137 188 226 285 339 417
#     4  11  26  43  67 102 142 183 231 286 350 411
#
# _framework density 23.102976000000002
#
# number of rings (size 3 to 8) (size 9 to 14) (size 15 to 20)
#    0.000    1.667    0.000    3.000    7.000    7.333 
#    3.000    0.000    0.000    0.000    0.000    0.000 
#    0.000    0.000    0.000    0.000    0.000    0.000 
#
# Total GULP energy -66812.867467 kJ/mol
# GULP energy per Si atom -5567.738956 kJ/mol
# Density = 2.305039 g / cm^3
# Si number density = 23.102976 Si / 1000 Ang^3
#
#
#
# Elastic Constant Matrix: (Units=GPa)
#
#
# Indices 1 2 3 4 5 6 
#
# 1 108.6470 65.9666 61.5080 2.8051 16.2915 17.9099
# 2 65.9666 158.9848 36.3705 22.5223 7.3779 7.4313
# 3 61.5080 36.3705 84.7811 -2.7020 22.4061 0.9965
# 4 2.8051 22.5223 -2.7020 35.7170 14.0199 -4.4796
# 5 16.2915 7.3779 22.4061 14.0199 37.3762 -3.4520
# 6 17.9099 7.4313 0.9965 -4.4796 -3.4520 43.2299
#
#
#
# Elastic Compliance Matrix: (Units=1/GPa)
#
#
# Indices 1 2 3 4 5 6 
#
# 1 0.021039 -0.005563 -0.012349 0.000601 -0.001591 -0.007540
# 2 -0.005563 0.009804 -0.001532 -0.007499 0.004241 0.000216
# 3 -0.012349 -0.001532 0.024888 0.009229 -0.012255 0.004783
# 4 0.000601 -0.007499 0.009229 0.041499 -0.019551 0.003567
# 5 -0.001591 0.004241 -0.012255 -0.019551 0.041430 0.001495
# 6 -0.007540 0.000216 0.004783 0.003567 0.001495 0.026597
#
#
# Mechanical properties :
#
#
# Convention : Reuss Voigt Hill
#
# Bulk Modulus (GPa) = 59.37288 75.56701 67.46994
# Shear Modulus (GPa) = 23.83683 35.83580 29.83631
#
# Velocity S-wave (km/s) = 3.21559 3.94272 3.59757
# Velocity P-wave (km/s) = 6.28822 7.31481 6.82086
#
# Compressibility (1/GPa) = 0.01684271
#
# Stress axis : x y z
#
# Youngs Moduli (GPa) = 47.53083 101.99762 40.18031
#
# Poissons Ratio (x) = 0.56745 0.49617
# Poissons Ratio (y) = 0.26443 0.06156
# Poissons Ratio (z) = 0.58694 0.15627
#
# Static dielectric constant tensor:
#      x y z
#    x 1.931110 -0.023670 -0.118180 
#    y -0.023670 1.967290 -0.002670 
#    z -0.118180 -0.002670 2.062150 
# 
# From -- ./inp_files/230293.got.cif
#   From: 2010.05.17/outbox.cif.g08.bks.cpg/sg2_116_cif.got.tgz:230293.got - 2010.06.03 11:33:40.
