data_PCOD9038522
_publ_section_title
;
Structure prediction by ZEFSAII (Michael W. Deem and Ramdas Pophale) SiO2 
 PCOD9038522
Probable space group: P -1
;
_chemical_formula_sum "Si O2"
_cell_formula_units_Z 16
_cell_length_a 17.263164
_cell_length_b 11.737554
_cell_length_c 14.749589
_cell_angle_alpha 128.872857
_cell_angle_beta 31.865314
_cell_angle_gamma 149.329947
_cell_volume 743.750190
_symmetry_space_group_name_H-M "P -1"
_symmetry_group_IT_number 2
_symmetry_cell_setting 'triclinic'
loop_
_space_group_symop_operation_xyz
x,y,z
-x,-y,-z
loop_
_atom_site_type_symbol
_atom_site_label
_atom_site_fract_x
_atom_site_fract_y
_atom_site_fract_z
Si Si1 0.538237 0.437562 0.224833
Si Si2 0.437043 0.880313 0.908788
Si Si3 0.019638 0.950124 0.088807
Si Si4 0.739721 0.652652 0.393874
Si Si5 0.063863 0.486142 0.833739
Si Si6 0.713351 0.266505 0.682223
Si Si7 0.373718 0.978934 0.699753
Si Si8 0.625992 0.519247 0.970700
O O1 0.598847 0.320851 0.139842
O O2 0.298170 0.290922 0.446908
O O3 0.771085 0.721410 0.166394
O O4 0.502827 0.423994 0.145335
O O5 0.628833 0.069156 0.734239
O O6 0.191154 0.771158 0.075237
O O7 0.500000 0.000000 0.000000
O O8 0.958164 0.851168 0.204591
O O9 0.118715 0.193562 0.121680
O O10 0.236444 0.026855 0.865600
O O11 0.500000 0.500000 0.500000
O O12 0.742428 0.485974 0.335514
O O13 0.156078 0.693970 0.789565
O O14 0.000000 0.500000 0.000000
O O15 0.563999 0.131878 0.670143
O O16 0.648879 0.369242 0.844675
O O17 0.000000 0.500000 0.500000
O O18 0.500000 0.000000 0.500000
O O19 0.500000 0.500000 0.000000
#
# Coordination Sequence:
#
# PCOD9038522 Si02
#       8
#     2   2   2   2   2   2   2   2
#     4  11  25  46  74 110 138 191 252 302 361 435
#     4  12  25  48  76 103 147 194 247 306 367 431
#     4  11  23  47  72 103 145 190 241 304 362 428
#     4  10  23  41  70 109 138 176 238 306 362 416
#     4  12  22  45  75 100 141 193 248 306 357 422
#     4  12  29  47  72 108 152 194 238 303 377 434
#     4  12  27  44  75 108 144 192 253 298 361 442
#     4  12  27  48  68  98 154 193 229 295 376 441
#
# _framework density 21.512599000000002
#
# number of rings (size 3 to 8) (size 9 to 14) (size 15 to 20)
#    0.000    0.500    6.250    1.125    7.000    1.000 
#    0.000    1.250    0.000    0.000    0.000    0.000 
#    0.000    0.000    0.000    0.000    0.000    0.000 
#
# Total GULP energy -89294.099491 kJ/mol
# GULP energy per Si atom -5580.881218 kJ/mol
# Density = 2.146364 g / cm^3
# Si number density = 21.512599 Si / 1000 Ang^3
#
#
#
# Elastic Constant Matrix: (Units=GPa)
#
#
# Indices 1 2 3 4 5 6 
#
# 1 105.0542 28.7687 44.6950 6.4019 19.8822 12.9143
# 2 28.7687 89.0194 26.3967 1.4190 10.5062 -0.5174
# 3 44.6950 26.3967 112.2178 12.8295 24.0375 16.2746
# 4 6.4019 1.4190 12.8295 38.6744 2.9417 1.1110
# 5 19.8822 10.5062 24.0375 2.9417 45.2960 6.9599
# 6 12.9143 -0.5174 16.2746 1.1110 6.9599 39.5421
#
#
#
# Elastic Compliance Matrix: (Units=1/GPa)
#
#
# Indices 1 2 3 4 5 6 
#
# 1 0.012525 -0.002733 -0.003377 -0.000584 -0.002688 -0.002247
# 2 -0.002733 0.012862 -0.002097 0.000695 -0.001037 0.002087
# 3 -0.003377 -0.002097 0.012415 -0.003091 -0.003918 -0.003258
# 4 -0.000584 0.000695 -0.003091 0.026942 -0.000128 0.000737
# 5 -0.002688 -0.001037 -0.003918 -0.000128 0.025905 -0.002079
# 6 -0.002247 0.002087 -0.003258 0.000737 -0.002079 0.027737
#
#
# Mechanical properties :
#
#
# Convention : Reuss Voigt Hill
#
# Bulk Modulus (GPa) = 46.75678 56.22356 51.49017
# Shear Modulus (GPa) = 35.22938 38.46457 36.84698
#
# Velocity S-wave (km/s) = 4.05114 4.23306 4.14310
# Velocity P-wave (km/s) = 6.60788 7.07698 6.84645
#
# Compressibility (1/GPa) = 0.02138727
#
# Stress axis : x y z
#
# Youngs Moduli (GPa) = 79.84299 77.74917 80.54964
#
# Poissons Ratio (x) = 0.21246 0.27203
# Poissons Ratio (y) = 0.21818 0.16892
# Poissons Ratio (z) = 0.26964 0.16305
#
# Static dielectric constant tensor:
#      x y z
#    x 1.825430 -0.035230 -0.067000 
#    y -0.035230 1.787770 0.034000 
#    z -0.067000 0.034000 1.927150 
# 
# From -- ./inp_files/218875.got.cif
#   From: 2010.05.17/outbox.cif.g08.bks.cpg/sg2_110_cif.got.tgz:218875.got - 2010.06.03 11:33:40.
