data_PCOD9038669
_publ_section_title
;
Structure prediction by ZEFSAII (Michael W. Deem and Ramdas Pophale) SiO2 
 PCOD9038669
Probable space group: P -1
;
_chemical_formula_sum "Si O2"
_cell_formula_units_Z 16
_cell_length_a 12.940099
_cell_length_b 13.711459
_cell_length_c 4.924537
_cell_angle_alpha 124.140293
_cell_angle_beta 87.526964
_cell_angle_gamma 70.332848
_cell_volume 650.106295
_symmetry_space_group_name_H-M "P -1"
_symmetry_group_IT_number 2
_symmetry_cell_setting 'triclinic'
loop_
_space_group_symop_operation_xyz
x,y,z
-x,-y,-z
loop_
_atom_site_type_symbol
_atom_site_label
_atom_site_fract_x
_atom_site_fract_y
_atom_site_fract_z
Si Si1 0.215458 0.238238 0.113460
Si Si2 0.144230 0.654582 0.867932
Si Si3 0.270278 0.955836 0.825666
Si Si4 0.134038 0.925144 0.286832
Si Si5 0.488068 0.703801 0.311681
Si Si6 0.705294 0.579476 0.778748
Si Si7 0.060426 0.344226 0.787070
Si Si8 0.617698 0.445219 0.210361
O O1 0.286375 0.321632 0.295482
O O2 0.106430 0.284367 0.396329
O O3 0.169425 0.288822 0.893938
O O4 0.279024 0.084740 0.915095
O O5 0.166008 0.541256 0.464486
O O6 0.252844 0.591968 0.968088
O O7 0.151274 0.783084 0.957182
O O8 0.030416 0.693709 0.113450
O O9 0.202742 0.917140 0.541594
O O10 0.397871 0.838899 0.660956
O O11 0.190589 0.982481 0.144235
O O12 0.000000 0.000000 0.500000
O O13 0.526791 0.581883 0.318928
O O14 0.611410 0.683549 0.152109
O O15 0.416699 0.669362 0.031211
O O16 0.641628 0.486532 0.570113
O O17 0.000000 0.500000 0.000000
#
# Coordination Sequence:
#
# PCOD9038669 Si02
#       8
#     2   2   2   2   2   2   2   2
#     4  12  27  47  70 103 145 185 233 284 342 428
#     4  10  23  41  73 102 139 179 234 295 351 406
#     4  12  27  47  70 100 145 188 224 284 350 413
#     4  12  26  47  70 104 138 185 234 283 347 422
#     4  11  23  40  72  98 139 182 231 291 348 408
#     4  10  24  40  68  99 137 178 239 280 355 395
#     4  12  25  47  72 106 141 183 232 287 350 407
#     4   9  22  41  64 104 134 176 232 298 342 404
#
# _framework density 24.611363000000001
#
# number of rings (size 3 to 8) (size 9 to 14) (size 15 to 20)
#    0.750    0.250    2.500    3.375    8.750    1.500 
#    0.000    0.625    0.000    0.000    0.000    0.000 
#    0.000    0.000    0.000    0.000    0.000    0.000 
#
# Total GULP energy -89170.404716 kJ/mol
# GULP energy per Si atom -5573.150295 kJ/mol
# Density = 2.455535 g / cm^3
# Si number density = 24.611363 Si / 1000 Ang^3
#
#
#
# Elastic Constant Matrix: (Units=GPa)
#
#
# Indices 1 2 3 4 5 6 
#
# 1 90.4524 20.6117 27.4944 -1.1151 -22.7151 9.0630
# 2 20.6117 92.4587 30.4493 20.0689 -5.3123 4.0396
# 3 27.4944 30.4493 92.7206 19.8187 -28.6196 -5.9288
# 4 -1.1151 20.0689 19.8187 57.8862 2.8377 2.9863
# 5 -22.7151 -5.3123 -28.6196 2.8377 41.4254 0.2317
# 6 9.0630 4.0396 -5.9288 2.9863 0.2317 43.0897
#
#
#
# Elastic Compliance Matrix: (Units=1/GPa)
#
#
# Indices 1 2 3 4 5 6 
#
# 1 0.014041 -0.002307 -0.002183 0.001698 0.005796 -0.003186
# 2 -0.002307 0.013147 -0.003565 -0.003241 -0.001814 -0.001003
# 3 -0.002183 -0.003565 0.017263 -0.005417 0.010624 0.003487
# 4 0.001698 -0.003241 -0.005417 0.020627 -0.004628 -0.002203
# 5 0.005796 -0.001814 0.010624 -0.004628 0.034739 0.000547
# 6 -0.003186 -0.001003 0.003487 -0.002203 0.000547 0.024601
#
#
# Mechanical properties :
#
#
# Convention : Reuss Voigt Hill
#
# Bulk Modulus (GPa) = 35.28532 48.08250 41.68391
# Shear Modulus (GPa) = 33.33862 41.61868 37.47865
#
# Velocity S-wave (km/s) = 3.68449 4.11668 3.90656
# Velocity P-wave (km/s) = 5.69813 6.49424 6.10917
#
# Compressibility (1/GPa) = 0.02834040
#
# Stress axis : x y z
#
# Youngs Moduli (GPa) = 71.22110 76.06230 57.92631
#
# Poissons Ratio (x) = 0.17551 0.12647
# Poissons Ratio (y) = 0.16434 0.20649
# Poissons Ratio (z) = 0.15550 0.27113
#
# Static dielectric constant tensor:
#      x y z
#    x 2.151240 -0.069790 0.009490 
#    y -0.069790 1.977130 -0.056190 
#    z 0.009490 -0.056190 2.094850 
# 
# From -- ./inp_files/97426.got.cif
#   From: 2010.05.17/outbox.cif.g08.bks.cpg/sg2_49_cif.got.tgz:97426.got - 2010.06.03 11:33:40.
