data_PCOD9038572
_publ_section_title
;
Structure prediction by ZEFSAII (Michael W. Deem and Ramdas Pophale) SiO2 
 PCOD9038572
Probable space group: P -1
;
_chemical_formula_sum "Si O2"
_cell_formula_units_Z 14
_cell_length_a 14.006786
_cell_length_b 10.596072
_cell_length_c 8.962738
_cell_angle_alpha 112.972824
_cell_angle_beta 50.865631
_cell_angle_gamma 147.721987
_cell_volume 516.986083
_symmetry_space_group_name_H-M "P -1"
_symmetry_group_IT_number 2
_symmetry_cell_setting 'triclinic'
loop_
_space_group_symop_operation_xyz
x,y,z
-x,-y,-z
loop_
_atom_site_type_symbol
_atom_site_label
_atom_site_fract_x
_atom_site_fract_y
_atom_site_fract_z
Si Si1 0.321718 0.134683 0.220788
Si Si2 0.189937 0.599764 0.458072
Si Si3 0.701734 0.457724 0.196220
Si Si4 0.137507 0.051853 0.070246
Si Si5 0.846871 0.303107 0.923961
Si Si6 0.037248 0.824937 0.662772
Si Si7 0.569697 0.851582 0.376224
O O1 0.553403 0.397794 0.191700
O O2 0.220456 0.141295 0.201278
O O3 0.308510 0.976439 0.070798
O O4 0.171542 0.975667 0.445806
O O5 0.444166 0.841717 0.385423
O O6 0.000000 0.500000 0.500000
O O7 0.042300 0.451638 0.683391
O O8 0.190145 0.462005 0.294504
O O9 0.585372 0.340499 0.420084
O O10 0.944771 0.753315 0.113929
O O11 0.700117 0.303571 0.054493
O O12 0.018727 0.083790 0.165804
O O13 0.342775 0.190875 0.831224
O O14 0.000000 0.500000 0.000000
O O15 0.201251 0.889827 0.641412
#
# Coordination Sequence:
#
# PCOD9038572 Si02
#       7
#     2   2   2   2   2   2   2
#     4  10  23  41  71 103 136 194 232 287 357 415
#     4  11  26  45  71 104 142 183 235 298 351 415
#     4  11  24  46  69 103 148 185 231 290 357 416
#     4  12  25  44  74 106 140 188 238 287 348 423
#     4  11  20  44  70  98 144 184 231 295 349 418
#     4  10  25  47  68 104 147 181 238 293 344 428
#     4  11  26  46  70 106 139 188 232 289 352 417
#
# _framework density 27.080033
#
# number of rings (size 3 to 8) (size 9 to 14) (size 15 to 20)
#    0.000    1.143    2.857    2.143    4.000    4.571 
#    0.000    0.000    0.000    0.000    0.000    0.000 
#    0.000    0.000    0.000    0.000    0.000    0.000 
#
# Total GULP energy -78175.678413 kJ/mol
# GULP energy per Si atom -5583.977029 kJ/mol
# Density = 2.701840 g / cm^3
# Si number density = 27.080033 Si / 1000 Ang^3
#
#
#
# Elastic Constant Matrix: (Units=GPa)
#
#
# Indices 1 2 3 4 5 6 
#
# 1 152.0745 63.3770 19.9516 12.2264 -7.0691 62.8708
# 2 63.3770 105.2491 50.5331 15.7716 -5.5802 26.9413
# 3 19.9516 50.5331 143.4074 13.9780 8.8821 9.9982
# 4 12.2264 15.7716 13.9780 32.1043 -0.6356 3.8372
# 5 -7.0691 -5.5802 8.8821 -0.6356 40.1762 8.4087
# 6 62.8708 26.9413 9.9982 3.8372 8.4087 53.3519
#
#
#
# Elastic Compliance Matrix: (Units=1/GPa)
#
#
# Indices 1 2 3 4 5 6 
#
# 1 0.016193 -0.004985 0.000540 -0.001758 0.005658 -0.017432
# 2 -0.004985 0.015711 -0.004552 -0.003627 0.002536 -0.001345
# 3 0.000540 -0.004552 0.008814 -0.001926 -0.002635 0.000565
# 4 -0.001758 -0.003627 -0.001926 0.034214 -0.000231 0.001839
# 5 0.005658 0.002536 -0.002635 -0.000231 0.029341 -0.012062
# 6 -0.017432 -0.001345 0.000565 0.001839 -0.012062 0.041628
#
#
# Mechanical properties :
#
#
# Convention : Reuss Voigt Hill
#
# Bulk Modulus (GPa) = 44.00754 74.27272 59.14013
# Shear Modulus (GPa) = 29.15967 42.91776 36.03872
#
# Velocity S-wave (km/s) = 3.28502 3.98534 3.65200
# Velocity P-wave (km/s) = 5.53847 6.97595 6.29835
#
# Compressibility (1/GPa) = 0.02272338
#
# Stress axis : x y z
#
# Youngs Moduli (GPa) = 61.75406 63.65051 113.45929
#
# Poissons Ratio (x) = 0.31727 -0.06124
# Poissons Ratio (y) = 0.30782 0.51651
# Poissons Ratio (z) = -0.03333 0.28976
#
# Static dielectric constant tensor:
#      x y z
#    x 2.325360 -0.030110 -0.092770 
#    y -0.030110 2.068140 -0.009680 
#    z -0.092770 -0.009680 2.094210 
# 
# From -- ./inp_files/308274.got.cif
#   From: 2010.05.17/outbox.cif.g08.bks.cpg/sg2_155_cif.got.tgz:308274.got - 2010.06.03 11:33:40.
