data_PCOD9038526
_publ_section_title
;
Structure prediction by ZEFSAII (Michael W. Deem and Ramdas Pophale) SiO2 
 PCOD9038526
Probable space group: P -1
;
_chemical_formula_sum "Si O2"
_cell_formula_units_Z 12
_cell_length_a 8.529176
_cell_length_b 10.421691
_cell_length_c 8.644850
_cell_angle_alpha 128.690309
_cell_angle_beta 71.401040
_cell_angle_gamma 118.965526
_cell_volume 524.610944
_symmetry_space_group_name_H-M "P -1"
_symmetry_group_IT_number 2
_symmetry_cell_setting 'triclinic'
loop_
_space_group_symop_operation_xyz
x,y,z
-x,-y,-z
loop_
_atom_site_type_symbol
_atom_site_label
_atom_site_fract_x
_atom_site_fract_y
_atom_site_fract_z
Si Si1 0.928094 0.343667 0.779226
Si Si2 0.695058 0.000234 0.465397
Si Si3 0.169597 0.945787 0.882963
Si Si4 0.606440 0.703287 0.782715
Si Si5 0.918091 0.584272 0.717427
Si Si6 0.309496 0.339779 0.621302
O O1 0.836817 0.433380 0.755458
O O2 0.108527 0.325096 0.646719
O O3 0.792336 0.138735 0.677597
O O4 0.000000 0.500000 0.000000
O O5 0.798836 0.064925 0.318246
O O6 0.689995 0.805634 0.363232
O O7 0.500000 0.000000 0.500000
O O8 0.093309 0.753864 0.844610
O O9 0.342085 0.099952 0.017420
O O10 0.000000 0.000000 0.000000
O O11 0.427586 0.545374 0.778272
O O12 0.609645 0.702895 0.595332
O O13 0.766750 0.644365 0.743570
O O14 0.000000 0.500000 0.500000
#
# Coordination Sequence:
#
# PCOD9038526 Si02
#       6
#     2   2   2   2   2   2
#     4  12  27  41  66 102 136 175 217 278 338 393
#     4  12  27  46  69 101 137 178 226 280 335 400
#     4  10  23  41  70  94 128 182 223 265 334 400
#     4  10  23  43  68  98 129 182 219 275 335 399
#     4  11  20  43  66  92 134 173 222 267 332 404
#     4  11  25  44  67  97 141 169 226 282 334 394
#
# _framework density 22.874096000000002
#
# number of rings (size 3 to 8) (size 9 to 14) (size 15 to 20)
#    0.000    1.000    3.333    2.500    9.333    0.667 
#    0.000    1.667    0.000    0.000    0.000    0.000 
#    0.000    0.000    0.000    0.000    0.000    0.000 
#
# Total GULP energy -67000.678828 kJ/mol
# GULP energy per Si atom -5583.389902 kJ/mol
# Density = 2.282203 g / cm^3
# Si number density = 22.874096 Si / 1000 Ang^3
#
#
#
# Elastic Constant Matrix: (Units=GPa)
#
#
# Indices 1 2 3 4 5 6 
#
# 1 53.1342 19.2886 -7.9718 1.9795 -4.2914 17.8972
# 2 19.2886 105.2087 1.3157 30.9638 -0.0606 17.8366
# 3 -7.9718 1.3157 62.0436 19.3107 4.3979 18.4347
# 4 1.9795 30.9638 19.3107 48.5631 10.5239 13.9622
# 5 -4.2914 -0.0606 4.3979 10.5239 24.8297 7.4204
# 6 17.8972 17.8366 18.4347 13.9622 7.4204 39.6423
#
#
#
# Elastic Compliance Matrix: (Units=1/GPa)
#
#
# Indices 1 2 3 4 5 6 
#
# 1 0.026957 -0.002355 0.007697 0.000285 0.008039 -0.016295
# 2 -0.002355 0.013356 0.003229 -0.009504 0.004246 -0.003895
# 3 0.007697 0.003229 0.023508 -0.008877 0.005023 -0.013673
# 4 0.000285 -0.009504 -0.008877 0.033115 -0.012102 -0.001122
# 5 0.008039 0.004246 0.005023 -0.012102 0.049778 -0.012931
# 6 -0.016295 -0.003895 -0.013673 -0.001122 -0.012931 0.043509
#
#
# Mechanical properties :
#
#
# Convention : Reuss Voigt Hill
#
# Bulk Modulus (GPa) = 12.35158 27.29460 19.82309
# Shear Modulus (GPa) = 24.99124 36.45728 30.72426
#
# Velocity S-wave (km/s) = 3.30897 3.99660 3.66893
# Velocity P-wave (km/s) = 4.47332 5.76676 5.16072
#
# Compressibility (1/GPa) = 0.08096133
#
# Stress axis : x y z
#
# Youngs Moduli (GPa) = 37.09565 74.87144 42.53931
#
# Poissons Ratio (x) = 0.17634 -0.32741
# Poissons Ratio (y) = 0.08737 -0.13734
# Poissons Ratio (z) = -0.28551 -0.24173
#
# Static dielectric constant tensor:
#      x y z
#    x 1.798640 0.057690 0.054280 
#    y 0.057690 1.833550 0.058110 
#    z 0.054280 0.058110 1.886130 
# 
# From -- ./inp_files/145638.got.cif
#   From: 2010.05.17/outbox.cif.g08.bks.cpg/sg2_73_cif.got.tgz:145638.got - 2010.06.03 11:33:40.
