data_PCOD9038020
_publ_section_title
;
Structure prediction by ZEFSAII (Michael W. Deem and Ramdas Pophale) SiO2 
 PCOD9038020
Probable space group: P -1
;
_chemical_formula_sum "Si O2"
_cell_formula_units_Z 14
_cell_length_a 21.059821
_cell_length_b 10.428775
_cell_length_c 7.424572
_cell_angle_alpha 134.997278
_cell_angle_beta 38.875138
_cell_angle_gamma 144.269520
_cell_volume 584.978734
_symmetry_space_group_name_H-M "P -1"
_symmetry_group_IT_number 2
_symmetry_cell_setting 'triclinic'
loop_
_space_group_symop_operation_xyz
x,y,z
-x,-y,-z
loop_
_atom_site_type_symbol
_atom_site_label
_atom_site_fract_x
_atom_site_fract_y
_atom_site_fract_z
Si Si1 0.545206 0.300408 0.272363
Si Si2 0.846560 0.577829 0.115532
Si Si3 0.386571 0.914743 0.803591
Si Si4 0.774676 0.448962 0.731991
Si Si5 0.853069 0.824206 0.651563
Si Si6 0.326690 0.199372 0.424605
Si Si7 0.853876 0.120925 0.220113
O O1 0.563266 0.138767 0.184650
O O2 0.408698 0.206778 0.420024
O O3 0.608504 0.535951 0.471882
O O4 0.630937 0.359906 0.967089
O O5 0.748597 0.327630 0.166001
O O6 0.814091 0.732138 0.443927
O O7 0.826834 0.554266 0.920644
O O8 0.994383 0.699937 0.941769
O O9 0.500000 0.000000 0.500000
O O10 0.355261 0.090031 0.092086
O O11 0.832182 0.626975 0.625035
O O12 0.798229 0.262613 0.474263
O O13 0.000000 0.000000 0.500000
O O14 0.806367 0.949295 0.987035
O O15 0.189489 0.024755 0.643032
#
# Coordination Sequence:
#
# PCOD9038020 Si02
#       7
#     2   2   2   2   2   2   2
#     4  10  23  41  65  98 122 175 224 267 325 397
#     4  10  24  43  66 100 136 168 223 274 321 404
#     4  11  25  42  65  96 136 171 218 277 334 385
#     4  11  22  42  69  92 135 174 220 273 326 399
#     4  10  24  42  62  97 135 173 217 269 332 386
#     4  11  22  41  71  93 127 175 226 266 332 399
#     4  11  22  41  69  98 128 176 219 267 338 390
#
# _framework density 23.932494999999999
#
# number of rings (size 3 to 8) (size 9 to 14) (size 15 to 20)
#    0.000    1.429    4.286    0.857    2.000    5.143 
#    0.000    5.714    0.000    0.000    0.000    0.000 
#    0.000    0.000    0.000    0.000    0.000    0.000 
#
# Total GULP energy -78214.898130 kJ/mol
# GULP energy per Si atom -5586.778438 kJ/mol
# Density = 2.387802 g / cm^3
# Si number density = 23.932495 Si / 1000 Ang^3
#
#
#
# Elastic Constant Matrix: (Units=GPa)
#
#
# Indices 1 2 3 4 5 6 
#
# 1 34.8209 12.3581 1.5386 9.1789 13.7655 11.6087
# 2 12.3581 121.4807 39.3407 -3.4940 13.0009 8.3082
# 3 1.5386 39.3407 137.9116 20.5974 18.6064 9.7791
# 4 9.1789 -3.4940 20.5974 68.8810 1.5267 2.4830
# 5 13.7655 13.0009 18.6064 1.5267 34.4070 -1.8408
# 6 11.6087 8.3082 9.7791 2.4830 -1.8408 40.5522
#
#
#
# Elastic Compliance Matrix: (Units=1/GPa)
#
#
# Indices 1 2 3 4 5 6 
#
# 1 0.043483 -0.003236 0.004971 -0.006532 -0.019292 -0.013459
# 2 -0.003236 0.009665 -0.002827 0.001807 -0.000937 -0.000525
# 3 0.004971 -0.002827 0.009565 -0.003414 -0.006114 -0.003219
# 4 -0.006532 0.001807 -0.003414 0.016379 0.003129 0.001462
# 5 -0.019292 -0.000937 -0.006114 0.003129 0.040777 0.008848
# 6 -0.013459 -0.000525 -0.003219 0.001462 0.008848 0.029708
#
#
# Mechanical properties :
#
#
# Convention : Reuss Voigt Hill
#
# Bulk Modulus (GPa) = 16.52134 44.52089 30.52112
# Shear Modulus (GPa) = 29.08048 44.83309 36.95678
#
# Velocity S-wave (km/s) = 3.48962 4.33288 3.93391
# Velocity P-wave (km/s) = 4.81195 6.60869 5.78056
#
# Compressibility (1/GPa) = 0.06052778
#
# Stress axis : x y z
#
# Youngs Moduli (GPa) = 22.99768 103.47074 104.54752
#
# Poissons Ratio (x) = 0.33482 -0.51968
# Poissons Ratio (y) = 0.07442 0.29556
# Poissons Ratio (z) = -0.11432 0.29251
#
# Static dielectric constant tensor:
#      x y z
#    x 1.875620 -0.079170 0.104070 
#    y -0.079170 1.765090 0.145830 
#    z 0.104070 0.145830 1.853870 
# 
# From -- ./inp_files/273826.got.cif
#   From: 2010.05.17/outbox.cif.g08.bks.cpg/sg2_137_cif.got.tgz:273826.got - 2010.06.03 11:33:40.
