data_PCOD9038362
_publ_section_title
;
Structure prediction by ZEFSAII (Michael W. Deem and Ramdas Pophale) SiO2 
 PCOD9038362
Probable space group: P -1
;
_chemical_formula_sum "Si O2"
_cell_formula_units_Z 16
_cell_length_a 12.417567
_cell_length_b 9.831408
_cell_length_c 8.023324
_cell_angle_alpha 104.316243
_cell_angle_beta 100.408646
_cell_angle_gamma 47.591211
_cell_volume 700.627806
_symmetry_space_group_name_H-M "P -1"
_symmetry_group_IT_number 2
_symmetry_cell_setting 'triclinic'
loop_
_space_group_symop_operation_xyz
x,y,z
-x,-y,-z
loop_
_atom_site_type_symbol
_atom_site_label
_atom_site_fract_x
_atom_site_fract_y
_atom_site_fract_z
Si Si1 0.266888 0.424740 0.925022
Si Si2 0.507937 0.362797 0.769129
Si Si3 0.048773 0.812943 0.876320
Si Si4 0.276486 0.773762 0.726425
Si Si5 0.739995 0.029575 0.902469
Si Si6 0.632871 0.083511 0.439059
Si Si7 0.361162 0.193752 0.217293
Si Si8 0.826225 0.657773 0.466106
O O1 0.407832 0.393775 0.900817
O O2 0.213781 0.390669 0.731201
O O3 0.301920 0.305094 0.060705
O O4 0.138937 0.645418 0.982096
O O5 0.430824 0.565346 0.738096
O O6 0.669587 0.222234 0.845861
O O7 0.521875 0.230676 0.594336
O O8 0.897206 0.863566 0.818660
O O9 0.152520 0.764547 0.734598
O O10 0.000000 0.000000 0.000000
O O11 0.286733 0.843233 0.576256
O O12 0.250465 0.923375 0.893067
O O13 0.645259 0.969602 0.846757
O O14 0.524513 0.107209 0.279166
O O15 0.750025 0.872879 0.471739
O O16 0.256358 0.323309 0.382870
O O17 0.000000 0.500000 0.500000
#
# Coordination Sequence:
#
# PCOD9038362 Si02
#       8
#     2   2   2   2   2   2   2   2
#     4  11  24  43  70 101 136 184 230 278 348 405
#     4  11  22  42  67  98 140 178 229 289 334 406
#     4   9  22  43  67  94 139 179 231 282 332 413
#     4  10  23  41  68  97 134 184 232 277 340 413
#     4  11  21  40  67  97 136 180 226 282 348 398
#     4  12  24  45  67 103 141 178 230 288 346 401
#     4  12  25  44  73 105 139 181 228 287 343 413
#     4  12  26  44  67 101 144 178 226 287 340 414
#
# _framework density 22.836662
#
# number of rings (size 3 to 8) (size 9 to 14) (size 15 to 20)
#    0.000    1.000    2.500    4.125    0.000    7.500 
#    0.000    0.625    0.000    0.000    0.000    0.000 
#    0.000    0.000    0.000    0.000    0.000    0.000 
#
# Total GULP energy -89371.811273 kJ/mol
# GULP energy per Si atom -5585.738205 kJ/mol
# Density = 2.278468 g / cm^3
# Si number density = 22.836662 Si / 1000 Ang^3
#
#
#
# Elastic Constant Matrix: (Units=GPa)
#
#
# Indices 1 2 3 4 5 6 
#
# 1 73.4228 43.5689 15.7397 -20.0927 -10.0919 -9.5096
# 2 43.5689 152.6180 46.6012 -11.1749 -14.0383 -7.0218
# 3 15.7397 46.6012 98.2987 -15.9302 -5.6686 2.3104
# 4 -20.0927 -11.1749 -15.9302 34.8623 6.9663 -1.3021
# 5 -10.0919 -14.0383 -5.6686 6.9663 29.6255 -2.9193
# 6 -9.5096 -7.0218 2.3104 -1.3021 -2.9193 41.0164
#
#
#
# Elastic Compliance Matrix: (Units=1/GPa)
#
#
# Indices 1 2 3 4 5 6 
#
# 1 0.019915 -0.004727 0.000715 0.009895 0.002776 0.004279
# 2 -0.004727 0.009187 -0.003793 -0.001995 0.002566 0.000810
# 3 0.000715 -0.003793 0.012673 0.005031 -0.000417 -0.001067
# 4 0.009895 -0.001995 0.005031 0.037159 -0.005105 0.002485
# 5 0.002776 0.002566 -0.000417 -0.005105 0.037392 0.003606
# 6 0.004279 0.000810 -0.001067 0.002485 0.003606 0.025907
#
#
# Mechanical properties :
#
#
# Convention : Reuss Voigt Hill
#
# Bulk Modulus (GPa) = 38.21796 59.57324 48.89560
# Shear Modulus (GPa) = 30.01835 35.66281 32.84058
#
# Velocity S-wave (km/s) = 3.62951 3.95606 3.79630
# Velocity P-wave (km/s) = 5.85971 6.85642 6.37756
#
# Compressibility (1/GPa) = 0.02616571
#
# Stress axis : x y z
#
# Youngs Moduli (GPa) = 50.21363 108.84835 78.90791
#
# Poissons Ratio (x) = 0.51451 -0.05643
# Poissons Ratio (y) = 0.23735 0.29929
# Poissons Ratio (z) = -0.03591 0.41285
#
# Static dielectric constant tensor:
#      x y z
#    x 1.909410 -0.031950 0.026960 
#    y -0.031950 1.847420 0.034870 
#    z 0.026960 0.034870 1.932890 
# 
# From -- ./inp_files/244636.got.cif
#   From: 2010.05.17/outbox.cif.g08.bks.cpg/sg2_123_cif.got.tgz:244636.got - 2010.06.03 11:33:40.
