data_PCOD9038092
_publ_section_title
;
Structure prediction by ZEFSAII (Michael W. Deem and Ramdas Pophale) SiO2 
 PCOD9038092
Probable space group: P -1
;
_chemical_formula_sum "Si O2"
_cell_formula_units_Z 14
_cell_length_a 6.529624
_cell_length_b 21.976899
_cell_length_c 7.288257
_cell_angle_alpha 130.782059
_cell_angle_beta 60.899732
_cell_angle_gamma 135.158120
_cell_volume 557.906733
_symmetry_space_group_name_H-M "P -1"
_symmetry_group_IT_number 2
_symmetry_cell_setting 'triclinic'
loop_
_space_group_symop_operation_xyz
x,y,z
-x,-y,-z
loop_
_atom_site_type_symbol
_atom_site_label
_atom_site_fract_x
_atom_site_fract_y
_atom_site_fract_z
Si Si1 0.252640 0.998114 0.297133
Si Si2 0.487129 0.811670 0.626067
Si Si3 0.275414 0.829387 0.116129
Si Si4 0.168142 0.144522 0.093300
Si Si5 0.757656 0.488149 0.213440
Si Si6 0.638649 0.671035 0.196866
Si Si7 0.589078 0.629433 0.549128
O O1 0.312719 0.931198 0.257582
O O2 0.124046 0.939865 0.044424
O O3 0.503366 0.111673 0.362249
O O4 0.000000 0.000000 0.500000
O O5 0.491071 0.728904 0.355270
O O6 0.261268 0.780952 0.828343
O O7 0.783397 0.867438 0.736292
O O8 0.569952 0.851932 0.111287
O O9 0.984214 0.752760 0.201288
O O10 0.247429 0.253977 0.253624
O O11 0.774468 0.586915 0.422612
O O12 0.701273 0.435691 0.330393
O O13 0.461412 0.407705 0.074141
O O14 0.000000 0.500000 0.000000
O O15 0.532733 0.618626 0.335700
#
# Coordination Sequence:
#
# PCOD9038092 Si02
#       7
#     2   2   2   2   2   2   2
#     4  12  21  39  65  97 134 171 224 276 314 389
#     4   9  22  41  63  97 129 178 220 264 329 378
#     4  10  23  41  66  93 132 179 218 261 340 377
#     4   9  23  42  64  91 134 172 218 268 326 387
#     4  11  26  43  70 103 127 168 220 269 341 397
#     4  11  22  45  68  95 134 171 221 269 324 405
#     4  10  24  46  64  99 132 168 216 276 324 394
#
# _framework density 25.093800000000002
#
# number of rings (size 3 to 8) (size 9 to 14) (size 15 to 20)
#    0.857    0.857    1.429    2.143    2.000    4.571 
#    0.000    2.857    0.000    0.000    0.000    0.000 
#    0.000    0.000    0.000    0.000    0.000    0.000 
#
# Total GULP energy -78305.937223 kJ/mol
# GULP energy per Si atom -5593.281230 kJ/mol
# Density = 2.503669 g / cm^3
# Si number density = 25.093800 Si / 1000 Ang^3
#
#
#
# Elastic Constant Matrix: (Units=GPa)
#
#
# Indices 1 2 3 4 5 6 
#
# 1 43.9549 19.6979 22.4845 8.2804 2.3536 -3.0982
# 2 19.6979 123.2672 38.0364 -12.0135 -12.2144 -21.6806
# 3 22.4845 38.0364 117.5554 3.3130 -23.0938 -10.6502
# 4 8.2804 -12.0135 3.3130 53.5481 0.3790 -13.3191
# 5 2.3536 -12.2144 -23.0938 0.3790 40.9377 -3.8042
# 6 -3.0982 -21.6806 -10.6502 -13.3191 -3.8042 24.4940
#
#
#
# Elastic Compliance Matrix: (Units=1/GPa)
#
#
# Indices 1 2 3 4 5 6 
#
# 1 0.029776 -0.006235 -0.005863 -0.008042 -0.007722 -0.009874
# 2 -0.006235 0.013487 -0.000921 0.007964 0.005266 0.015897
# 3 -0.005863 -0.000921 0.011792 0.001256 0.007202 0.005372
# 4 -0.008042 0.007964 0.001256 0.027097 0.005354 0.022144
# 5 -0.007722 0.005266 0.007202 0.005354 0.031819 0.014669
# 6 -0.009874 0.015897 0.005372 0.022144 0.014669 0.070304
#
#
# Mechanical properties :
#
#
# Convention : Reuss Voigt Hill
#
# Bulk Modulus (GPa) = 34.46114 49.46833 41.96473
# Shear Modulus (GPa) = 22.72889 37.43323 30.08106
#
# Velocity S-wave (km/s) = 3.01284 3.86648 3.46605
# Velocity P-wave (km/s) = 5.08584 6.29993 5.72516
#
# Compressibility (1/GPa) = 0.02901820
#
# Stress axis : x y z
#
# Youngs Moduli (GPa) = 33.58405 74.14606 84.80236
#
# Poissons Ratio (x) = 0.46227 0.49719
# Poissons Ratio (y) = 0.20938 0.07810
# Poissons Ratio (z) = 0.19690 0.06829
#
# Static dielectric constant tensor:
#      x y z
#    x 2.009860 0.015820 -0.005700 
#    y 0.015820 1.973900 -0.019330 
#    z -0.005700 -0.019330 1.973580 
# 
# From -- ./inp_files/225051.got.cif
#   From: 2010.05.17/outbox.cif.g08.bks.cpg/sg2_113_cif.got.tgz:225051.got - 2010.06.03 11:33:40.
