data_PCOD9038088
_publ_section_title
;
Structure prediction by ZEFSAII (Michael W. Deem and Ramdas Pophale) SiO2 
 PCOD9038088
Probable space group: P -1
;
_chemical_formula_sum "Si O2"
_cell_formula_units_Z 14
_cell_length_a 13.134341
_cell_length_b 18.435124
_cell_length_c 8.906658
_cell_angle_alpha 138.038986
_cell_angle_beta 74.332623
_cell_angle_gamma 139.464976
_cell_volume 687.929325
_symmetry_space_group_name_H-M "P -1"
_symmetry_group_IT_number 2
_symmetry_cell_setting 'triclinic'
loop_
_space_group_symop_operation_xyz
x,y,z
-x,-y,-z
loop_
_atom_site_type_symbol
_atom_site_label
_atom_site_fract_x
_atom_site_fract_y
_atom_site_fract_z
Si Si1 0.943603 0.608267 0.800219
Si Si2 0.770929 0.027571 0.198155
Si Si3 0.896769 0.073236 0.546461
Si Si4 0.437264 0.580243 0.462160
Si Si5 0.233191 0.191196 0.555713
Si Si6 0.071116 0.162674 0.118029
Si Si7 0.265879 0.806653 0.725283
O O1 0.747088 0.503268 0.651476
O O2 0.843547 0.406577 0.588312
O O3 0.115843 0.732505 0.794342
O O4 0.055728 0.779144 0.146291
O O5 0.789477 0.012178 0.339842
O O6 0.718278 0.102805 0.287657
O O7 0.999792 0.203219 0.302683
O O8 0.605707 0.801581 0.829429
O O9 0.119802 0.206577 0.637086
O O10 0.756915 0.862350 0.373020
O O11 0.554931 0.627641 0.348792
O O12 0.313764 0.385532 0.316507
O O13 0.062636 0.969358 0.184413
O O14 0.000000 0.000000 0.000000
O O15 0.500000 0.000000 0.000000
#
# Coordination Sequence:
#
# PCOD9038088 Si02
#       7
#     2   2   2   2   2   2   2
#     4  11  23  42  71  93 129 171 228 266 338 387
#     4  11  23  41  67  97 136 166 224 276 326 380
#     4  11  23  45  60 101 143 173 206 285 323 390
#     4  11  22  42  71  98 124 188 218 258 321 409
#     4  10  23  41  66  92 144 177 216 254 334 395
#     4  11  21  43  64  97 131 173 216 265 310 407
#     4  11  23  44  72  93 121 177 227 279 321 394
#
# _framework density 20.350926000000001
#
# number of rings (size 3 to 8) (size 9 to 14) (size 15 to 20)
#    0.000    1.143    5.714    0.857    0.000    3.429 
#    2.571    0.714    0.000    0.000    0.000    0.000 
#    0.000    0.000    0.000    0.000    0.000    0.000 
#
# Total GULP energy -78247.753058 kJ/mol
# GULP energy per Si atom -5589.125218 kJ/mol
# Density = 2.030461 g / cm^3
# Si number density = 20.350926 Si / 1000 Ang^3
#
#
#
# Elastic Constant Matrix: (Units=GPa)
#
#
# Indices 1 2 3 4 5 6 
#
# 1 130.6392 63.6894 33.7898 2.4492 0.7533 -22.5746
# 2 63.6894 131.6028 40.2382 17.9311 4.6800 -10.3905
# 3 33.7898 40.2382 63.1151 -2.4951 -5.8139 -5.9030
# 4 2.4492 17.9311 -2.4951 36.7797 -1.2254 3.9207
# 5 0.7533 4.6800 -5.8139 -1.2254 32.7648 -1.1000
# 6 -22.5746 -10.3905 -5.9030 3.9207 -1.1000 46.7021
#
#
#
# Elastic Compliance Matrix: (Units=1/GPa)
#
#
# Indices 1 2 3 4 5 6 
#
# 1 0.011175 -0.004335 -0.002811 0.000751 0.000026 0.004020
# 2 -0.004335 0.012611 -0.006216 -0.006424 -0.003032 0.000393
# 3 -0.002811 -0.006216 0.021944 0.004901 0.005021 -0.000261
# 4 0.000751 -0.006424 0.004901 0.031016 0.002830 -0.002984
# 5 0.000026 -0.003032 0.005021 0.002830 0.031966 0.000488
# 6 0.004020 0.000393 -0.000261 -0.002984 0.000488 0.023672
#
#
# Mechanical properties :
#
#
# Convention : Reuss Voigt Hill
#
# Bulk Modulus (GPa) = 52.61355 66.75464 59.68409
# Shear Modulus (GPa) = 30.22181 35.75862 32.99022
#
# Velocity S-wave (km/s) = 3.85779 4.19633 4.03062
# Velocity P-wave (km/s) = 6.76407 7.50679 7.14509
#
# Compressibility (1/GPa) = 0.01900651
#
# Stress axis : x y z
#
# Youngs Moduli (GPa) = 89.48179 79.29571 45.57075
#
# Poissons Ratio (x) = 0.34372 0.12812
# Poissons Ratio (y) = 0.38787 0.28326
# Poissons Ratio (z) = 0.25157 0.49289
#
# Static dielectric constant tensor:
#      x y z
#    x 1.762210 -0.010330 -0.010230 
#    y -0.010330 1.755170 0.021040 
#    z -0.010230 0.021040 1.716050 
# 
# From -- ./inp_files/37888.got.cif
#   From: 2010.05.17/outbox.cif.g08.bks.cpg/sg2_19_cif.got.tgz:37888.got - 2010.06.03 11:33:40.
