data_PCOD9038677
_publ_section_title
;
Structure prediction by ZEFSAII (Michael W. Deem and Ramdas Pophale) SiO2 
 PCOD9038677
Probable space group: P -1
;
_chemical_formula_sum "Si O2"
_cell_formula_units_Z 16
_cell_length_a 9.450957
_cell_length_b 22.623262
_cell_length_c 25.234693
_cell_angle_alpha 162.313829
_cell_angle_beta 34.251291
_cell_angle_gamma 153.171573
_cell_volume 728.738455
_symmetry_space_group_name_H-M "P -1"
_symmetry_group_IT_number 2
_symmetry_cell_setting 'triclinic'
loop_
_space_group_symop_operation_xyz
x,y,z
-x,-y,-z
loop_
_atom_site_type_symbol
_atom_site_label
_atom_site_fract_x
_atom_site_fract_y
_atom_site_fract_z
Si Si1 0.835509 0.148469 0.993599
Si Si2 0.880375 0.473814 0.859913
Si Si3 0.731670 0.660656 0.614940
Si Si4 0.707464 0.307010 0.889056
Si Si5 0.625802 0.263138 0.495538
Si Si6 0.312590 0.115506 0.659395
Si Si7 0.308011 0.339221 0.565091
Si Si8 0.390310 0.507318 0.198805
O O1 0.892696 0.945068 0.797449
O O2 0.897327 0.265147 0.015900
O O3 0.062087 0.384008 0.163474
O O4 0.500000 0.000000 0.000000
O O5 0.805463 0.441491 0.917065
O O6 0.530756 0.321336 0.811154
O O7 0.072684 0.364476 0.694101
O O8 0.500000 0.500000 0.500000
O O9 0.518085 0.562899 0.650633
O O10 0.016067 0.644565 0.526045
O O11 0.602951 0.034360 0.681592
O O12 0.437461 0.301944 0.998599
O O13 0.000000 0.500000 0.000000
O O14 0.530435 0.315990 0.514495
O O15 0.583785 0.405370 0.675551
O O16 0.353613 0.250095 0.706929
O O17 0.500000 0.000000 0.500000
O O18 0.940387 0.904037 0.601103
#
# Coordination Sequence:
#
# PCOD9038677 Si02
#       8
#     2   2   2   2   2   2   2   2
#     4  11  22  46  72 103 140 181 244 302 351 425
#     4  10  23  41  73 105 141 185 243 298 363 414
#     4  12  27  44  75 104 141 194 244 298 360 429
#     4  12  26  44  69 108 146 191 236 289 365 433
#     4  12  26  47  71 105 149 191 237 297 365 428
#     4   9  20  37  69 101 134 176 235 292 348 419
#     4  11  23  44  70 104 146 185 240 297 363 426
#     4  11  24  44  68  99 144 185 232 292 354 422
#
# _framework density 21.955750999999999
#
# number of rings (size 3 to 8) (size 9 to 14) (size 15 to 20)
#    0.000    1.000    2.500    4.125    5.250    5.500 
#    0.000    1.875    0.000    0.000    0.000    0.000 
#    0.000    0.000    0.000    0.000    0.000    0.000 
#
# Total GULP energy -89324.009969 kJ/mol
# GULP energy per Si atom -5582.750623 kJ/mol
# Density = 2.190578 g / cm^3
# Si number density = 21.955751 Si / 1000 Ang^3
#
#
#
# Elastic Constant Matrix: (Units=GPa)
#
#
# Indices 1 2 3 4 5 6 
#
# 1 140.6972 37.2988 42.6819 -1.3190 7.1771 -2.2566
# 2 37.2988 59.1846 34.5422 1.8425 11.7443 -4.0406
# 3 42.6819 34.5422 109.7363 0.3210 3.4697 -9.4484
# 4 -1.3190 1.8425 0.3210 38.7988 -2.5131 0.8284
# 5 7.1771 11.7443 3.4697 -2.5131 35.6615 1.6307
# 6 -2.2566 -4.0406 -9.4484 0.8284 1.6307 37.8617
#
#
#
# Elastic Compliance Matrix: (Units=1/GPa)
#
#
# Indices 1 2 3 4 5 6 
#
# 1 0.008924 -0.004421 -0.002119 0.000536 -0.000074 -0.000477
# 2 -0.004421 0.024473 -0.005654 -0.001733 -0.006800 0.001268
# 3 -0.002119 -0.005654 0.011872 0.000119 0.001042 0.002185
# 4 0.000536 -0.001733 0.000119 0.026041 0.002323 -0.000793
# 5 -0.000074 -0.006800 0.001042 0.002323 0.030442 -0.001832
# 6 -0.000477 0.001268 0.002185 -0.000793 -0.001832 0.027160
#
#
# Mechanical properties :
#
#
# Convention : Reuss Voigt Hill
#
# Bulk Modulus (GPa) = 47.89822 59.85152 53.87487
# Shear Modulus (GPa) = 31.19911 35.47075 33.33493
#
# Velocity S-wave (km/s) = 3.77370 4.02376 3.90074
# Velocity P-wave (km/s) = 6.39147 6.99334 6.69917
#
# Compressibility (1/GPa) = 0.02087760
#
# Stress axis : x y z
#
# Youngs Moduli (GPa) = 112.06132 40.86194 84.23289
#
# Poissons Ratio (x) = 0.18067 0.17853
# Poissons Ratio (y) = 0.49547 0.47629
# Poissons Ratio (z) = 0.23751 0.23105
#
# Static dielectric constant tensor:
#      x y z
#    x 1.785240 0.010680 -0.018140 
#    y 0.010680 1.772710 -0.036300 
#    z -0.018140 -0.036300 1.876280 
# 
# From -- ./inp_files/608670.got.cif
#   From: 2010.05.17/outbox.cif.g08.bks.cpg/sg2_305_cif.got.tgz:608670.got - 2010.06.03 11:33:40.
