data_PCOD9038707
_publ_section_title
;
Structure prediction by ZEFSAII (Michael W. Deem and Ramdas Pophale) SiO2 
 PCOD9038707
Probable space group: P -1
;
_chemical_formula_sum "Si O2"
_cell_formula_units_Z 14
_cell_length_a 15.950093
_cell_length_b 9.311598
_cell_length_c 6.871880
_cell_angle_alpha 92.469586
_cell_angle_beta 88.931549
_cell_angle_gamma 33.385562
_cell_volume 558.317223
_symmetry_space_group_name_H-M "P -1"
_symmetry_group_IT_number 2
_symmetry_cell_setting 'triclinic'
loop_
_space_group_symop_operation_xyz
x,y,z
-x,-y,-z
loop_
_atom_site_type_symbol
_atom_site_label
_atom_site_fract_x
_atom_site_fract_y
_atom_site_fract_z
Si Si1 0.122421 0.698818 0.986536
Si Si2 0.548838 0.221364 0.351889
Si Si3 0.669709 0.367675 0.900304
Si Si4 0.170047 0.096316 0.401776
Si Si5 0.458243 0.045565 0.230682
Si Si6 0.338086 0.502236 0.700202
Si Si7 0.892760 0.496870 0.709715
O O1 0.247930 0.593883 0.117246
O O2 0.076602 0.616110 0.083638
O O3 0.198807 0.594023 0.762857
O O4 0.000000 0.000000 0.000000
O O5 0.501286 0.358278 0.154887
O O6 0.547395 0.051064 0.321059
O O7 0.390971 0.485216 0.492403
O O8 0.696995 0.057921 0.454191
O O9 0.320276 0.653233 0.866971
O O10 0.761336 0.113590 0.769545
O O11 0.114687 0.320028 0.304568
O O12 0.024032 0.253312 0.543560
O O13 0.281446 0.299838 0.312478
O O14 0.518567 0.801938 0.266955
O O15 0.500000 0.000000 0.000000
#
# Coordination Sequence:
#
# PCOD9038707 Si02
#       7
#     2   2   2   2   2   2   2
#     4  10  23  46  72 104 137 188 248 297 350 419
#     4  12  23  43  77 107 140 193 243 292 355 440
#     4  10  24  47  69 108 146 185 240 305 347 430
#     4  11  27  43  70 112 151 192 227 290 390 422
#     4  12  20  46  76 100 135 187 248 297 339 415
#     4  10  23  41  74 109 131 188 253 289 356 410
#     4  11  24  48  67 104 149 188 237 298 353 432
#
# _framework density 25.07535
#
# number of rings (size 3 to 8) (size 9 to 14) (size 15 to 20)
#    0.857    0.286    5.714    0.857    2.000    2.286 
#    2.571    2.857    0.000    0.000    0.000    0.000 
#    0.000    0.000    0.000    0.000    0.000    0.000 
#
# Total GULP energy -78100.924743 kJ/mol
# GULP energy per Si atom -5578.637482 kJ/mol
# Density = 2.501828 g / cm^3
# Si number density = 25.075350 Si / 1000 Ang^3
#
#
#
# Elastic Constant Matrix: (Units=GPa)
#
#
# Indices 1 2 3 4 5 6 
#
# 1 88.5565 10.6300 30.4127 14.8337 -3.6180 -2.9164
# 2 10.6300 75.4834 10.8360 19.6116 0.7700 -0.3270
# 3 30.4127 10.8360 90.8755 21.1406 21.9696 -10.6927
# 4 14.8337 19.6116 21.1406 42.1934 10.6344 -8.8189
# 5 -3.6180 0.7700 21.9696 10.6344 37.1390 2.0214
# 6 -2.9164 -0.3270 -10.6927 -8.8189 2.0214 33.3525
#
#
#
# Elastic Compliance Matrix: (Units=1/GPa)
#
#
# Indices 1 2 3 4 5 6 
#
# 1 0.013999 -0.000235 -0.005350 -0.003984 0.005777 -0.001897
# 2 -0.000235 0.015384 -0.000827 -0.007773 0.002501 -0.002342
# 3 -0.005350 -0.000827 0.016383 -0.002507 -0.009733 0.004703
# 4 -0.003984 -0.007773 -0.002507 0.033950 -0.008916 0.008289
# 5 0.005777 0.002501 -0.009733 -0.008916 0.036136 -0.007139
# 6 -0.001897 -0.002342 0.004703 0.008289 -0.007139 0.033926
#
#
# Mechanical properties :
#
#
# Convention : Reuss Voigt Hill
#
# Bulk Modulus (GPa) = 30.35847 39.85253 35.10550
# Shear Modulus (GPa) = 28.80471 36.07277 32.43874
#
# Velocity S-wave (km/s) = 3.39296 3.79697 3.60064
# Velocity P-wave (km/s) = 5.24240 5.92876 5.59612
#
# Compressibility (1/GPa) = 0.03293974
#
# Stress axis : x y z
#
# Youngs Moduli (GPa) = 71.43525 65.00388 61.03956
#
# Poissons Ratio (x) = 0.01530 0.32655
# Poissons Ratio (y) = 0.01682 0.05051
# Poissons Ratio (z) = 0.38217 0.05379
#
# Static dielectric constant tensor:
#      x y z
#    x 2.096880 -0.066940 -0.069840 
#    y -0.066940 2.019820 -0.005290 
#    z -0.069840 -0.005290 2.099830 
# 
# From -- ./inp_files/298820.got.cif
#   From: 2010.05.17/outbox.cif.g08.bks.cpg/sg2_150_cif.got.tgz:298820.got - 2010.06.03 11:33:40.
