data_PCOD9038854
_publ_section_title
;
Structure prediction by ZEFSAII (Michael W. Deem and Ramdas Pophale) SiO2 
 PCOD9038854
Probable space group: P -1
;
_chemical_formula_sum "Si O2"
_cell_formula_units_Z 16
_cell_length_a 23.223875
_cell_length_b 8.954003
_cell_length_c 12.431954
_cell_angle_alpha 107.026336
_cell_angle_beta 31.068796
_cell_angle_gamma 130.623384
_cell_volume 745.990109
_symmetry_space_group_name_H-M "P -1"
_symmetry_group_IT_number 2
_symmetry_cell_setting 'triclinic'
loop_
_space_group_symop_operation_xyz
x,y,z
-x,-y,-z
loop_
_atom_site_type_symbol
_atom_site_label
_atom_site_fract_x
_atom_site_fract_y
_atom_site_fract_z
Si Si1 0.463337 0.371324 0.920185
Si Si2 0.052764 0.728350 0.413252
Si Si3 0.818885 0.713288 0.910423
Si Si4 0.421231 0.300032 0.399653
Si Si5 0.395700 0.721940 0.463701
Si Si6 0.205235 0.811530 0.739022
Si Si7 0.852471 0.750814 0.103414
Si Si8 0.790908 0.049949 0.003125
O O1 0.260559 0.046453 0.175036
O O2 0.500000 0.500000 0.000000
O O3 0.495590 0.539557 0.811246
O O4 0.613495 0.408808 0.649586
O O5 0.000000 0.500000 0.500000
O O6 0.055603 0.709130 0.275709
O O7 0.908293 0.695666 0.679566
O O8 0.594115 0.423989 0.216486
O O9 0.915584 0.805896 0.891798
O O10 0.818984 0.895123 0.915318
O O11 0.331367 0.343643 0.616085
O O12 0.256838 0.983645 0.594009
O O13 0.366798 0.862615 0.499836
O O14 0.224352 0.494098 0.772498
O O15 0.592068 0.899208 0.246479
O O16 0.200539 0.904308 0.876015
O O17 0.000000 0.500000 0.000000
O O18 0.000000 0.000000 0.000000
#
# Coordination Sequence:
#
# PCOD9038854 Si02
#       8
#     2   2   2   2   2   2   2   2
#     4  10  24  46  71  96 140 184 235 281 340 423
#     4  11  27  43  67 104 135 181 235 283 345 405
#     4  12  23  43  73  94 136 182 236 279 332 427
#     4  11  23  44  67 100 133 178 234 268 348 411
#     4  10  23  42  63  99 135 174 228 278 350 398
#     4  12  26  41  68 104 143 170 224 300 353 397
#     4  11  22  38  67 101 130 174 227 284 342 409
#     4  11  23  46  66  97 134 182 230 274 340 426
#
# _framework density 21.448004999999998
#
# number of rings (size 3 to 8) (size 9 to 14) (size 15 to 20)
#    0.000    1.000    5.000    2.625    8.750    1.000 
#    0.000    0.625    0.000    0.000    0.000    0.000 
#    0.000    0.000    0.000    0.000    0.000    0.000 
#
# Total GULP energy -89253.753900 kJ/mol
# GULP energy per Si atom -5578.359619 kJ/mol
# Density = 2.139919 g / cm^3
# Si number density = 21.448005 Si / 1000 Ang^3
#
#
#
# Elastic Constant Matrix: (Units=GPa)
#
#
# Indices 1 2 3 4 5 6 
#
# 1 72.9464 50.2636 36.3449 3.1803 21.7469 -13.0005
# 2 50.2636 101.0336 37.7092 -6.8700 11.0693 -24.8291
# 3 36.3449 37.7092 83.4336 1.0218 6.8385 -5.2569
# 4 3.1803 -6.8700 1.0218 38.8751 -5.9448 6.3250
# 5 21.7469 11.0693 6.8385 -5.9448 35.9573 3.3223
# 6 -13.0005 -24.8291 -5.2569 6.3250 3.3223 42.9666
#
#
#
# Elastic Compliance Matrix: (Units=1/GPa)
#
#
# Indices 1 2 3 4 5 6 
#
# 1 0.029502 -0.009829 -0.006793 -0.007035 -0.015115 0.004620
# 2 -0.009829 0.017721 -0.003460 0.003169 0.001089 0.006293
# 3 -0.006793 -0.003460 0.016168 0.000253 0.002353 -0.002296
# 4 -0.007035 0.003169 0.000253 0.028998 0.008505 -0.005192
# 5 -0.015115 0.001089 0.002353 0.008505 0.038303 -0.007870
# 6 0.004620 0.006293 -0.002296 -0.005192 -0.007870 0.029400
#
#
# Mechanical properties :
#
#
# Convention : Reuss Voigt Hill
#
# Bulk Modulus (GPa) = 43.05083 56.22767 49.63925
# Shear Modulus (GPa) = 24.03887 32.43288 28.23587
#
# Velocity S-wave (km/s) = 3.35146 3.89287 3.63227
# Velocity P-wave (km/s) = 5.92386 6.81753 6.38635
#
# Compressibility (1/GPa) = 0.02322836
#
# Stress axis : x y z
#
# Youngs Moduli (GPa) = 33.89616 56.42985 61.85134
#
# Poissons Ratio (x) = 0.55462 0.42016
# Poissons Ratio (y) = 0.33315 0.21398
# Poissons Ratio (z) = 0.23026 0.19522
#
# Static dielectric constant tensor:
#      x y z
#    x 1.811890 0.003360 -0.016990 
#    y 0.003360 1.817550 -0.057190 
#    z -0.016990 -0.057190 1.806110 
# 
# From -- ./inp_files/474240.got.cif
#   From: 2010.05.17/outbox.cif.g08.bks.cpg/sg2_238_cif.got.tgz:474240.got - 2010.06.03 11:33:40.
