data_PCOD9038880
_publ_section_title
;
Structure prediction by ZEFSAII (Michael W. Deem and Ramdas Pophale) SiO2 
 PCOD9038880
Probable space group: P -1
;
_chemical_formula_sum "Si O2"
_cell_formula_units_Z 14
_cell_length_a 20.048927
_cell_length_b 7.455689
_cell_length_c 17.232292
_cell_angle_alpha 138.519628
_cell_angle_beta 19.469999
_cell_angle_gamma 136.919432
_cell_volume 565.298836
_symmetry_space_group_name_H-M "P -1"
_symmetry_group_IT_number 2
_symmetry_cell_setting 'triclinic'
loop_
_space_group_symop_operation_xyz
x,y,z
-x,-y,-z
loop_
_atom_site_type_symbol
_atom_site_label
_atom_site_fract_x
_atom_site_fract_y
_atom_site_fract_z
Si Si1 0.080837 0.731027 0.360932
Si Si2 0.364084 0.056328 0.273815
Si Si3 0.277909 0.916140 0.782134
Si Si4 0.078830 0.395985 0.105826
Si Si5 0.366449 0.668304 0.453161
Si Si6 0.688184 0.728258 0.877002
Si Si7 0.051089 0.880942 0.172150
O O1 0.139262 0.537394 0.166744
O O2 0.876652 0.614668 0.590776
O O3 0.261339 0.837910 0.254240
O O4 0.000000 0.000000 0.500000
O O5 0.397421 0.358938 0.299276
O O6 0.180733 0.069775 0.541280
O O7 0.576259 0.975894 0.044284
O O8 0.466596 0.088424 0.671936
O O9 0.342136 0.686626 0.580046
O O10 0.200144 0.139465 0.881482
O O11 0.112027 0.833121 0.001651
O O12 0.090207 0.619941 0.098009
O O13 0.845963 0.290100 0.336333
O O14 0.800590 0.862054 0.873446
O O15 0.500000 0.500000 0.000000
#
# Coordination Sequence:
#
# PCOD9038880 Si02
#       7
#     2   2   2   2   2   2   2
#     4  11  22  41  62  95 127 171 211 256 319 390
#     4  10  23  42  64  91 133 172 208 263 323 374
#     4  11  25  42  70  94 127 168 215 271 314 371
#     4  11  23  44  66  93 134 167 213 261 320 379
#     4  10  23  44  65  97 123 166 221 258 322 386
#     4  11  25  38  60  96 133 167 215 260 317 381
#     4  10  24  43  61  97 129 165 219 259 312 389
#
# _framework density 24.765663
#
# number of rings (size 3 to 8) (size 9 to 14) (size 15 to 20)
#    0.000    1.429    4.286    1.286    6.000    4.000 
#    0.000    6.429    0.000    0.000    0.000    0.000 
#    0.000    0.000    0.000    0.000    0.000    0.000 
#
# Total GULP energy -78292.794230 kJ/mol
# GULP energy per Si atom -5592.342445 kJ/mol
# Density = 2.470929 g / cm^3
# Si number density = 24.765663 Si / 1000 Ang^3
#
#
#
# Elastic Constant Matrix: (Units=GPa)
#
#
# Indices 1 2 3 4 5 6 
#
# 1 56.1919 12.3470 40.6697 -5.5551 6.3935 2.8206
# 2 12.3470 100.2478 23.8582 -8.4443 -5.9355 18.5738
# 3 40.6697 23.8582 100.7043 -16.4505 -2.2502 7.7177
# 4 -5.5551 -8.4443 -16.4505 31.7163 3.5773 -14.7746
# 5 6.3935 -5.9355 -2.2502 3.5773 50.5083 -8.0448
# 6 2.8206 18.5738 7.7177 -14.7746 -8.0448 30.0699
#
#
#
# Elastic Compliance Matrix: (Units=1/GPa)
#
#
# Indices 1 2 3 4 5 6 
#
# 1 0.025945 -0.000883 -0.010467 -0.001030 -0.003901 -0.000752
# 2 -0.000883 0.011845 -0.002135 -0.001581 0.000347 -0.007369
# 3 -0.010467 -0.002135 0.015597 0.006373 0.001614 0.001861
# 4 -0.001030 -0.001581 0.006373 0.044063 0.000487 0.021218
# 5 -0.003901 0.000347 0.001614 0.000487 0.021274 0.005668
# 6 -0.000752 -0.007369 0.001861 0.021218 0.005668 0.049342
#
#
# Mechanical properties :
#
#
# Convention : Reuss Voigt Hill
#
# Bulk Modulus (GPa) = 37.85321 45.65485 41.75403
# Shear Modulus (GPa) = 24.52872 34.47684 29.50278
#
# Velocity S-wave (km/s) = 3.15053 3.73516 3.45523
# Velocity P-wave (km/s) = 5.34342 6.08906 5.72839
#
# Compressibility (1/GPa) = 0.02641784
#
# Stress axis : x y z
#
# Youngs Moduli (GPa) = 38.54251 84.42363 64.11293
#
# Poissons Ratio (x) = 0.07455 0.67105
# Poissons Ratio (y) = 0.03403 0.13690
# Poissons Ratio (z) = 0.40341 0.18027
#
# Static dielectric constant tensor:
#      x y z
#    x 2.010390 -0.035030 0.074790 
#    y -0.035030 2.027000 -0.018030 
#    z 0.074790 -0.018030 1.988210 
# 
# From -- ./inp_files/313211.got.cif
#   From: 2010.05.17/outbox.cif.g08.bks.cpg/sg2_157_cif.got.tgz:313211.got - 2010.06.03 11:33:40.
