data_PCOD9038944
_publ_section_title
;
Structure prediction by ZEFSAII (Michael W. Deem and Ramdas Pophale) SiO2 
 PCOD9038944
Probable space group: P -1
;
_chemical_formula_sum "Si O2"
_cell_formula_units_Z 16
_cell_length_a 8.832342
_cell_length_b 8.494082
_cell_length_c 19.164358
_cell_angle_alpha 117.206819
_cell_angle_beta 128.124291
_cell_angle_gamma 105.166292
_cell_volume 632.747836
_symmetry_space_group_name_H-M "P -1"
_symmetry_group_IT_number 2
_symmetry_cell_setting 'triclinic'
loop_
_space_group_symop_operation_xyz
x,y,z
-x,-y,-z
loop_
_atom_site_type_symbol
_atom_site_label
_atom_site_fract_x
_atom_site_fract_y
_atom_site_fract_z
Si Si1 0.762876 0.800673 0.687338
Si Si2 0.191269 0.413105 0.938349
Si Si3 0.264315 0.552692 0.608383
Si Si4 0.325856 0.410784 0.818027
Si Si5 0.802268 0.427053 0.778622
Si Si6 0.729836 0.934518 0.935858
Si Si7 0.321162 0.651781 0.431924
Si Si8 0.849827 0.094653 0.503927
O O1 0.476805 0.619856 0.622163
O O2 0.645429 0.811365 0.585330
O O3 0.856272 0.663620 0.676794
O O4 0.036171 0.116768 0.854757
O O5 0.275783 0.462321 0.890426
O O6 0.933523 0.376243 0.858686
O O7 0.483382 0.629013 0.115035
O O8 0.000000 0.500000 0.500000
O O9 0.086113 0.274740 0.544464
O O10 0.505436 0.816506 0.783563
O O11 0.024367 0.161485 0.636886
O O12 0.516150 0.683316 0.879609
O O13 0.720983 0.316618 0.653221
O O14 0.462799 0.231206 0.668215
O O15 0.074711 0.761899 0.919169
O O16 0.000000 0.000000 0.000000
O O17 0.234064 0.757264 0.475070
#
# Coordination Sequence:
#
# PCOD9038944 Si02
#       8
#     2   2   2   2   2   2   2   2
#     4  11  23  41  70 102 138 185 225 281 354 411
#     4  11  21  41  65 100 139 173 226 288 341 401
#     4  11  22  45  69  99 137 178 229 282 334 414
#     4  10  23  42  65 100 141 170 223 290 339 400
#     4  12  23  43  74 100 134 185 229 281 345 411
#     4  11  26  48  69  96 142 189 224 273 354 420
#     4  11  21  39  69 101 135 178 230 278 345 407
#     4  11  22  43  71 104 135 181 236 285 336 410
#
# _framework density 25.286536000000002
#
# number of rings (size 3 to 8) (size 9 to 14) (size 15 to 20)
#    0.000    1.000    3.750    3.375    0.000    0.500 
#    9.000   16.250    0.000    0.000    0.000    0.000 
#    0.000    0.000    0.000    0.000    0.000    0.000 
#
# Total GULP energy -89479.934219 kJ/mol
# GULP energy per Si atom -5592.495889 kJ/mol
# Density = 2.522898 g / cm^3
# Si number density = 25.286536 Si / 1000 Ang^3
#
#
#
# Elastic Constant Matrix: (Units=GPa)
#
#
# Indices 1 2 3 4 5 6 
#
# 1 79.1432 45.3576 22.8548 8.1638 9.1075 5.1853
# 2 45.3576 93.0809 49.4855 -19.6807 10.7798 3.7348
# 3 22.8548 49.4855 165.5391 -34.3107 17.9301 1.2147
# 4 8.1638 -19.6807 -34.3107 55.5247 -1.1835 16.3569
# 5 9.1075 10.7798 17.9301 -1.1835 33.5009 -1.5998
# 6 5.1853 3.7348 1.2147 16.3569 -1.5998 54.7571
#
#
#
# Elastic Compliance Matrix: (Units=1/GPa)
#
#
# Indices 1 2 3 4 5 6 
#
# 1 0.019950 -0.010674 -0.000983 -0.007686 -0.001682 0.001107
# 2 -0.010674 0.019168 -0.002480 0.007543 -0.001794 -0.002547
# 3 -0.000983 -0.002480 0.008259 0.004720 -0.003257 -0.001426
# 4 -0.007686 0.007543 0.004720 0.027049 -0.002292 -0.008038
# 5 -0.001682 -0.001794 -0.003257 -0.002292 0.032642 0.001992
# 6 0.001107 -0.002547 -0.001426 -0.008038 0.001992 0.020822
#
#
# Mechanical properties :
#
#
# Convention : Reuss Voigt Hill
#
# Bulk Modulus (GPa) = 52.34294 63.68433 58.01363
# Shear Modulus (GPa) = 30.76321 43.42758 37.09539
#
# Velocity S-wave (km/s) = 3.49174 4.14867 3.83430
# Velocity P-wave (km/s) = 6.08286 6.94179 6.52647
#
# Compressibility (1/GPa) = 0.01910477
#
# Stress axis : x y z
#
# Youngs Moduli (GPa) = 50.12491 52.17052 121.07510
#
# Poissons Ratio (x) = 0.55686 0.11896
# Poissons Ratio (y) = 0.53503 0.30025
# Poissons Ratio (z) = 0.04925 0.12938
#
# Static dielectric constant tensor:
#      x y z
#    x 2.067490 -0.027800 0.005380 
#    y -0.027800 2.067260 0.047000 
#    z 0.005380 0.047000 2.050050 
# 
# From -- ./inp_files/588072.got.cif
#   From: 2010.05.17/outbox.cif.g08.bks.cpg/sg2_295_cif.got.tgz:588072.got - 2010.06.03 11:33:40.
