data_PCOD9038417
_publ_section_title
;
Structure prediction by ZEFSAII (Michael W. Deem and Ramdas Pophale) SiO2 
 PCOD9038417
Probable space group: P -1
;
_chemical_formula_sum "Si O2"
_cell_formula_units_Z 14
_cell_length_a 5.198550
_cell_length_b 24.707967
_cell_length_c 15.156424
_cell_angle_alpha 19.662017
_cell_angle_beta 88.262577
_cell_angle_gamma 100.403061
_cell_volume 512.768642
_symmetry_space_group_name_H-M "P -1"
_symmetry_group_IT_number 2
_symmetry_cell_setting 'triclinic'
loop_
_space_group_symop_operation_xyz
x,y,z
-x,-y,-z
loop_
_atom_site_type_symbol
_atom_site_label
_atom_site_fract_x
_atom_site_fract_y
_atom_site_fract_z
Si Si1 0.786939 0.710469 0.504475
Si Si2 0.112301 0.866962 0.729560
Si Si3 0.809730 0.693858 0.328546
Si Si4 0.168253 0.268590 0.341479
Si Si5 0.709375 0.042376 0.224240
Si Si6 0.953828 0.541201 0.094170
Si Si7 0.384096 0.662852 0.217569
O O1 0.849590 0.772648 0.306054
O O2 0.984211 0.828153 0.411920
O O3 0.429794 0.650512 0.616973
O O4 0.826711 0.530077 0.784313
O O5 0.049646 0.828119 0.894031
O O6 0.500000 0.000000 0.500000
O O7 0.000000 0.000000 0.500000
O O8 0.953625 0.662295 0.990367
O O9 0.576956 0.677235 0.280021
O O10 0.658199 0.453960 0.693848
O O11 0.159716 0.855256 0.030037
O O12 0.287590 0.148648 0.481962
O O13 0.500000 0.500000 0.000000
O O14 0.963158 0.314086 0.213586
O O15 0.472942 0.102124 0.156219
O O16 0.000000 0.500000 0.500000
#
# Coordination Sequence:
#
# PCOD9038417 Si02
#       7
#     2   2   2   2   2   2   2
#     4  11  25  44  73 101 138 194 236 284 347 423
#     4  12  26  42  67 103 140 174 228 294 355 416
#     4  10  23  41  69 105 140 181 231 289 360 420
#     4  10  24  48  69  98 143 190 241 290 344 413
#     4  11  24  43  69 104 141 178 233 288 356 417
#     4  11  24  45  72 100 141 185 240 290 355 416
#     4   9  21  40  67  97 143 177 223 283 359 415
#
# _framework density 27.302761
#
# number of rings (size 3 to 8) (size 9 to 14) (size 15 to 20)
#    0.000    1.429    1.429    2.143   14.000    0.571 
#    5.143    0.714    0.000    0.000    0.000    0.000 
#    0.000    0.000    0.000    0.000    0.000    0.000 
#
# Total GULP energy -78100.025010 kJ/mol
# GULP energy per Si atom -5578.573215 kJ/mol
# Density = 2.724062 g / cm^3
# Si number density = 27.302761 Si / 1000 Ang^3
#
#
#
# Elastic Constant Matrix: (Units=GPa)
#
#
# Indices 1 2 3 4 5 6 
#
# 1 105.5726 2.7563 12.4720 0.7829 22.5679 -2.9394
# 2 2.7563 187.9888 0.8970 27.9945 13.9796 1.9840
# 3 12.4720 0.8970 59.9434 1.5975 24.1644 0.9407
# 4 0.7829 27.9945 1.5975 60.3563 -6.7292 8.2869
# 5 22.5679 13.9796 24.1644 -6.7292 45.9834 2.4845
# 6 -2.9394 1.9840 0.9407 8.2869 2.4845 28.3504
#
#
#
# Elastic Compliance Matrix: (Units=1/GPa)
#
#
# Indices 1 2 3 4 5 6 
#
# 1 0.010740 0.000433 0.000071 -0.001248 -0.005728 0.001948
# 2 0.000433 0.006028 0.001183 -0.003303 -0.003195 0.000829
# 3 0.000071 0.001183 0.021620 -0.002625 -0.012196 0.001043
# 4 -0.001248 -0.003303 -0.002625 0.019719 0.006212 -0.006119
# 5 -0.005728 -0.003195 -0.012196 0.006212 0.033101 -0.004682
# 6 0.001948 0.000829 0.001043 -0.006119 -0.004682 0.037581
#
#
# Mechanical properties :
#
#
# Convention : Reuss Voigt Hill
#
# Bulk Modulus (GPa) = 23.94519 42.86171 33.40345
# Shear Modulus (GPa) = 35.88431 49.42998 42.65714
#
# Velocity S-wave (km/s) = 3.62928 4.25954 3.95698
# Velocity P-wave (km/s) = 5.13337 6.31857 5.75655
#
# Compressibility (1/GPa) = 0.04176204
#
# Stress axis : x y z
#
# Youngs Moduli (GPa) = 93.10603 165.88762 46.25335
#
# Poissons Ratio (x) = -0.07191 -0.00327
# Poissons Ratio (y) = -0.04036 -0.05470
# Poissons Ratio (z) = -0.00657 -0.19618
#
# Static dielectric constant tensor:
#      x y z
#    x 2.416250 0.044490 -0.019520 
#    y 0.044490 2.207320 -0.003080 
#    z -0.019520 -0.003080 2.400750 
# 
# From -- ./inp_files/482640.got.cif
#   From: 2010.05.17/outbox.cif.g08.bks.cpg/sg2_242_cif.got.tgz:482640.got - 2010.06.03 11:33:40.
