data_PCOD9038598
_publ_section_title
;
Structure prediction by ZEFSAII (Michael W. Deem and Ramdas Pophale) SiO2 
 PCOD9038598
Probable space group: P -1
;
_chemical_formula_sum "Si O2"
_cell_formula_units_Z 16
_cell_length_a 11.990325
_cell_length_b 8.090263
_cell_length_c 10.456012
_cell_angle_alpha 87.383746
_cell_angle_beta 79.591407
_cell_angle_gamma 140.248109
_cell_volume 609.845560
_symmetry_space_group_name_H-M "P -1"
_symmetry_group_IT_number 2
_symmetry_cell_setting 'triclinic'
loop_
_space_group_symop_operation_xyz
x,y,z
-x,-y,-z
loop_
_atom_site_type_symbol
_atom_site_label
_atom_site_fract_x
_atom_site_fract_y
_atom_site_fract_z
Si Si1 0.315043 0.690200 0.223269
Si Si2 0.285789 0.757614 0.506978
Si Si3 0.120948 0.016755 0.056366
Si Si4 0.803361 0.817711 0.693816
Si Si5 0.453071 0.599336 0.869035
Si Si6 0.745913 0.926187 0.447256
Si Si7 0.316611 0.470895 0.641874
Si Si8 0.692245 0.086244 0.000151
O O1 0.280000 0.760644 0.353899
O O2 0.217366 0.402944 0.283026
O O3 0.246644 0.681761 0.100259
O O4 0.539526 0.929086 0.148835
O O5 0.221771 0.504419 0.576891
O O6 0.500000 0.000000 0.500000
O O7 0.189596 0.809485 0.584505
O O8 0.320173 0.334465 0.989552
O O9 0.083192 0.981375 0.216125
O O10 0.146262 0.858608 0.008480
O O11 0.000000 0.000000 0.000000
O O12 0.594986 0.644698 0.765683
O O13 0.844020 0.945258 0.544215
O O14 0.336786 0.550475 0.781426
O O15 0.569029 0.857298 0.921477
O O16 0.525787 0.694628 0.531418
O O17 0.758973 0.804764 0.338201
#
# Coordination Sequence:
#
# PCOD9038598 Si02
#       8
#     2   2   2   2   2   2   2   2
#     4  11  18  30  54  80 109 137 177 218 265 322
#     4  10  18  27  43  79 113 137 166 217 271 311
#     4  11  21  35  53  75 104 141 180 220 269 317
#     4  10  17  33  54  76 103 141 172 215 264 313
#     4  10  18  34  51  77 106 138 175 216 264 317
#     4   9  17  28  47  76 110 135 169 216 263 314
#     4   9  17  27  46  74 108 137 167 215 266 308
#     4  10  20  33  53  80 104 140 175 219 269 317
#
# _framework density 26.236149999999999
#
# number of rings (size 3 to 8) (size 9 to 14) (size 15 to 20)
#    0.000    2.000    3.750    3.750    1.750    0.000 
#    0.000    0.625    0.000    0.750    0.000    1.750 
#    0.000    0.000    0.000    0.000    0.000    0.000 
#
# Total GULP energy -89456.163240 kJ/mol
# GULP energy per Si atom -5591.010203 kJ/mol
# Density = 2.617644 g / cm^3
# Si number density = 26.236150 Si / 1000 Ang^3
#
#
#
# Elastic Constant Matrix: (Units=GPa)
#
#
# Indices 1 2 3 4 5 6 
#
# 1 143.1915 34.8301 18.8974 -8.5088 26.9779 -26.4262
# 2 34.8301 56.3512 20.8390 -6.3202 -2.4450 -11.5056
# 3 18.8974 20.8390 72.1341 -2.9158 13.1991 0.6445
# 4 -8.5088 -6.3202 -2.9158 34.3588 -2.4848 1.9645
# 5 26.9779 -2.4450 13.1991 -2.4848 41.2828 -2.6746
# 6 -26.4262 -11.5056 0.6445 1.9645 -2.6746 41.9807
#
#
#
# Elastic Compliance Matrix: (Units=1/GPa)
#
#
# Indices 1 2 3 4 5 6 
#
# 1 0.010604 -0.005911 0.000202 0.000788 -0.007001 0.004569
# 2 -0.005911 0.025525 -0.007222 0.002990 0.008107 0.003762
# 3 0.000202 -0.007222 0.017044 -0.000136 -0.006179 -0.002501
# 4 0.000788 0.002990 -0.000136 0.029947 0.001509 0.000012
# 5 -0.007001 0.008107 -0.006179 0.001509 0.031334 -0.000164
# 6 0.004569 0.003762 -0.002501 0.000012 -0.000164 0.027755
#
#
# Mechanical properties :
#
#
# Convention : Reuss Voigt Hill
#
# Bulk Modulus (GPa) = 36.61541 46.75665 41.68603
# Shear Modulus (GPa) = 28.22069 36.66516 32.44292
#
# Velocity S-wave (km/s) = 3.28326 3.74238 3.52031
# Velocity P-wave (km/s) = 5.32536 6.04434 5.69620
#
# Compressibility (1/GPa) = 0.02731091
#
# Stress axis : x y z
#
# Youngs Moduli (GPa) = 94.30504 39.17664 58.67156
#
# Poissons Ratio (x) = 0.23158 -0.01184
# Poissons Ratio (y) = 0.55746 0.42371
# Poissons Ratio (z) = -0.01903 0.28292
#
# Static dielectric constant tensor:
#      x y z
#    x 2.169150 0.036600 0.012810 
#    y 0.036600 2.142460 0.005220 
#    z 0.012810 0.005220 2.069930 
# 
# From -- ./inp_files/299191.got.cif
#   From: 2010.05.17/outbox.cif.g08.bks.cpg/sg2_150_cif.got.tgz:299191.got - 2010.06.03 11:33:40.
