data_PCOD9038357
_publ_section_title
;
Structure prediction by ZEFSAII (Michael W. Deem and Ramdas Pophale) SiO2 
 PCOD9038357
Probable space group: P -1
;
_chemical_formula_sum "Si O2"
_cell_formula_units_Z 14
_cell_length_a 21.020822
_cell_length_b 9.764098
_cell_length_c 6.607384
_cell_angle_alpha 47.707729
_cell_angle_beta 130.506225
_cell_angle_gamma 143.983621
_cell_volume 572.359615
_symmetry_space_group_name_H-M "P -1"
_symmetry_group_IT_number 2
_symmetry_cell_setting 'triclinic'
loop_
_space_group_symop_operation_xyz
x,y,z
-x,-y,-z
loop_
_atom_site_type_symbol
_atom_site_label
_atom_site_fract_x
_atom_site_fract_y
_atom_site_fract_z
Si Si1 0.198209 0.244156 0.221755
Si Si2 0.289614 0.928642 0.385172
Si Si3 0.977243 0.732859 0.269084
Si Si4 0.057139 0.668830 0.141726
Si Si5 0.314980 0.626615 0.448249
Si Si6 0.419855 0.020729 0.935324
Si Si7 0.604350 0.558815 0.881731
O O1 0.239000 0.417484 0.328798
O O2 0.115167 0.247148 0.908583
O O3 0.305326 0.339712 0.216209
O O4 0.105226 0.955546 0.381941
O O5 0.184724 0.907256 0.139778
O O6 0.271418 0.719640 0.421695
O O7 0.312645 0.899492 0.692827
O O8 0.391634 0.219978 0.265282
O O9 0.934424 0.486300 0.528098
O O10 0.986884 0.719583 0.060281
O O11 0.000000 0.500000 0.000000
O O12 0.362633 0.531963 0.778541
O O13 0.395750 0.874410 0.234601
O O14 0.484202 0.306611 0.817700
O O15 0.500000 0.000000 0.000000
#
# Coordination Sequence:
#
# PCOD9038357 Si02
#       7
#     2   2   2   2   2   2   2
#     4  11  23  44  69  99 139 187 231 282 349 413
#     4  12  27  46  72 107 142 182 237 291 347 419
#     4  10  23  41  68  96 138 186 228 281 348 410
#     4  11  23  42  67 104 140 175 230 287 342 411
#     4  12  25  44  73 101 141 181 235 287 353 412
#     4  12  25  49  73  99 145 186 230 293 354 413
#     4  12  26  46  72 105 141 185 237 288 345 422
#
# _framework density 24.460145000000001
#
# number of rings (size 3 to 8) (size 9 to 14) (size 15 to 20)
#    0.000    0.571    4.286    3.429    2.000    2.857 
#    0.000    3.571    0.000    0.000    0.000    0.000 
#    0.000    0.000    0.000    0.000    0.000    0.000 
#
# Total GULP energy -78227.714579 kJ/mol
# GULP energy per Si atom -5587.693899 kJ/mol
# Density = 2.440447 g / cm^3
# Si number density = 24.460145 Si / 1000 Ang^3
#
#
#
# Elastic Constant Matrix: (Units=GPa)
#
#
# Indices 1 2 3 4 5 6 
#
# 1 58.8923 19.8392 29.3019 18.7263 -4.9639 -5.8400
# 2 19.8392 162.6861 22.1531 20.9057 -16.6065 -14.7637
# 3 29.3019 22.1531 76.5066 12.9438 0.4620 -1.6945
# 4 18.7263 20.9057 12.9438 43.7112 -5.1858 3.2313
# 5 -4.9639 -16.6065 0.4620 -5.1858 25.0099 1.5527
# 6 -5.8400 -14.7637 -1.6945 3.2313 1.5527 40.5005
#
#
#
# Elastic Compliance Matrix: (Units=1/GPa)
#
#
# Indices 1 2 3 4 5 6 
#
# 1 0.023986 -0.000253 -0.007735 -0.007782 0.002901 0.003552
# 2 -0.000253 0.007400 -0.001561 -0.002669 0.004174 0.002649
# 3 -0.007735 -0.001561 0.016688 -0.001189 -0.003078 -0.000773
# 4 -0.007782 -0.002669 -0.001189 0.028519 0.002900 -0.004531
# 5 0.002901 0.004174 -0.003078 0.002900 0.043996 -0.000107
# 6 0.003552 0.002649 -0.000773 -0.004531 -0.000107 0.026502
#
#
# Mechanical properties :
#
#
# Convention : Reuss Voigt Hill
#
# Bulk Modulus (GPa) = 34.51250 48.96373 41.73811
# Shear Modulus (GPa) = 28.43377 36.96371 32.69874
#
# Velocity S-wave (km/s) = 3.41318 3.89161 3.66022
# Velocity P-wave (km/s) = 5.44732 6.34461 5.91301
#
# Compressibility (1/GPa) = 0.02897501
#
# Stress axis : x y z
#
# Youngs Moduli (GPa) = 41.69180 135.14253 59.92336
#
# Poissons Ratio (x) = 0.03420 0.46353
# Poissons Ratio (y) = 0.01055 0.09352
# Poissons Ratio (z) = 0.32250 0.21091
#
# Static dielectric constant tensor:
#      x y z
#    x 2.127110 0.012450 0.015560 
#    y 0.012450 1.984400 -0.011780 
#    z 0.015560 -0.011780 1.943140 
# 
# From -- ./inp_files/107517.got.cif
#   From: 2010.05.17/outbox.cif.g08.bks.cpg/sg2_54_cif.got.tgz:107517.got - 2010.06.03 11:33:40.
