data_PCOD9038413
_publ_section_title
;
Structure prediction by ZEFSAII (Michael W. Deem and Ramdas Pophale) SiO2 
 PCOD9038413
Probable space group: P -1
;
_chemical_formula_sum "Si O2"
_cell_formula_units_Z 14
_cell_length_a 7.485013
_cell_length_b 15.154184
_cell_length_c 13.404677
_cell_angle_alpha 32.017472
_cell_angle_beta 122.799037
_cell_angle_gamma 111.350649
_cell_volume 661.962196
_symmetry_space_group_name_H-M "P -1"
_symmetry_group_IT_number 2
_symmetry_cell_setting 'triclinic'
loop_
_space_group_symop_operation_xyz
x,y,z
-x,-y,-z
loop_
_atom_site_type_symbol
_atom_site_label
_atom_site_fract_x
_atom_site_fract_y
_atom_site_fract_z
Si Si1 0.612025 0.439836 0.323392
Si Si2 0.930748 0.196085 0.510296
Si Si3 0.168348 0.302651 0.946156
Si Si4 0.849543 0.642915 0.749806
Si Si5 0.743074 0.898881 0.645029
Si Si6 0.940246 0.035622 0.061099
Si Si7 0.720793 0.389414 0.631734
O O1 0.722243 0.305780 0.400228
O O2 0.641885 0.621383 0.117061
O O3 0.729235 0.407177 0.497746
O O4 0.366309 0.423653 0.278319
O O5 0.028714 0.314621 0.352461
O O6 0.884351 0.037691 0.583135
O O7 0.080409 0.113037 0.727990
O O8 0.940934 0.417988 0.725287
O O9 0.196771 0.267244 0.105363
O O10 0.143877 0.116137 0.081541
O O11 0.779057 0.818473 0.623642
O O12 0.000000 0.500000 0.000000
O O13 0.500000 0.000000 0.500000
O O14 0.734589 0.191675 0.852472
O O15 0.000000 0.000000 0.000000
O O16 0.500000 0.500000 0.500000
#
# Coordination Sequence:
#
# PCOD9038413 Si02
#       7
#     2   2   2   2   2   2   2
#     4  12  24  44  71 100 139 184 227 284 356 408
#     4  11  23  45  72  96 140 180 232 288 341 408
#     4   9  23  41  72  94 139 181 223 281 348 408
#     4  12  29  43  70 103 140 185 237 283 341 423
#     4  11  23  46  70 100 138 183 234 284 349 400
#     4   9  19  43  71  98 135 177 225 282 348 406
#     4  10  23  41  69 104 135 171 227 285 344 414
#
# _framework density 21.149243999999999
#
# number of rings (size 3 to 8) (size 9 to 14) (size 15 to 20)
#    0.857    0.571    2.857    1.714    6.000    1.143 
#    2.571    0.714    0.000    0.000    0.000    0.000 
#    0.000    0.000    0.000    0.000    0.000    0.000 
#
# Total GULP energy -78071.920644 kJ/mol
# GULP energy per Si atom -5576.565760 kJ/mol
# Density = 2.110111 g / cm^3
# Si number density = 21.149244 Si / 1000 Ang^3
#
#
#
# Elastic Constant Matrix: (Units=GPa)
#
#
# Indices 1 2 3 4 5 6 
#
# 1 102.9417 23.2652 61.8902 11.2490 -8.5792 -5.4497
# 2 23.2652 80.5932 24.2620 9.7091 -1.7527 -9.3568
# 3 61.8902 24.2620 133.1609 17.2278 -18.9486 -7.4558
# 4 11.2490 9.7091 17.2278 29.4326 -7.3769 2.7919
# 5 -8.5792 -1.7527 -18.9486 -7.3769 36.3630 -2.3824
# 6 -5.4497 -9.3568 -7.4558 2.7919 -2.3824 24.8462
#
#
#
# Elastic Compliance Matrix: (Units=1/GPa)
#
#
# Indices 1 2 3 4 5 6 
#
# 1 0.013879 -0.002003 -0.005900 -0.001281 -0.000113 0.000653
# 2 -0.002003 0.014341 -0.000986 -0.004065 -0.000789 0.005047
# 3 -0.005900 -0.000986 0.011601 -0.003434 0.004079 0.002593
# 4 -0.001281 -0.004065 -0.003434 0.039800 0.005341 -0.006802
# 5 -0.000113 -0.000789 0.004079 0.005341 0.030858 0.003261
# 6 0.000653 0.005047 0.002593 -0.006802 0.003261 0.044146
#
#
# Mechanical properties :
#
#
# Convention : Reuss Voigt Hill
#
# Bulk Modulus (GPa) = 45.36205 59.50342 52.43273
# Shear Modulus (GPa) = 27.81611 31.94691 29.88151
#
# Velocity S-wave (km/s) = 3.63054 3.89079 3.76292
# Velocity P-wave (km/s) = 6.25057 6.95560 6.61249
#
# Compressibility (1/GPa) = 0.02204486
#
# Stress axis : x y z
#
# Youngs Moduli (GPa) = 72.05202 69.72811 86.19737
#
# Poissons Ratio (x) = 0.13966 0.50853
# Poissons Ratio (y) = 0.14431 0.08499
# Poissons Ratio (z) = 0.42507 0.06875
#
# Static dielectric constant tensor:
#      x y z
#    x 1.740720 0.023400 0.007440 
#    y 0.023400 1.845230 0.001040 
#    z 0.007440 0.001040 1.824210 
# 
# From -- ./inp_files/215167.got.cif
#   From: 2010.05.17/outbox.cif.g08.bks.cpg/sg2_108_cif.got.tgz:215167.got - 2010.06.03 11:33:40.
