data_PCOD9038339
_publ_section_title
;
Structure prediction by ZEFSAII (Michael W. Deem and Ramdas Pophale) SiO2 
 PCOD9038339
Probable space group: P -1
;
_chemical_formula_sum "Si O2"
_cell_formula_units_Z 14
_cell_length_a 26.607528
_cell_length_b 12.024495
_cell_length_c 6.320264
_cell_angle_alpha 64.853822
_cell_angle_beta 65.399907
_cell_angle_gamma 18.646252
_cell_volume 584.595505
_symmetry_space_group_name_H-M "P -1"
_symmetry_group_IT_number 2
_symmetry_cell_setting 'triclinic'
loop_
_space_group_symop_operation_xyz
x,y,z
-x,-y,-z
loop_
_atom_site_type_symbol
_atom_site_label
_atom_site_fract_x
_atom_site_fract_y
_atom_site_fract_z
Si Si1 0.297678 0.689533 0.056893
Si Si2 0.102218 0.722367 0.724531
Si Si3 0.197542 0.341674 0.512758
Si Si4 0.468881 0.915977 0.155137
Si Si5 0.176035 0.183828 0.994336
Si Si6 0.000301 0.276188 0.825200
Si Si7 0.646348 0.616566 0.462074
O O1 0.263863 0.642966 0.302288
O O2 0.462180 0.307303 0.975693
O O3 0.167223 0.972519 0.871091
O O4 0.286229 0.835613 0.098799
O O5 0.188483 0.443190 0.654245
O O6 0.014059 0.831553 0.970394
O O7 0.230847 0.547589 0.728144
O O8 0.000000 0.000000 0.500000
O O9 0.239514 0.125463 0.724243
O O10 0.302806 0.203119 0.279700
O O11 0.035260 0.654531 0.416714
O O12 0.574568 0.673332 0.374224
O O13 0.500000 0.000000 0.000000
O O14 0.136928 0.352791 0.127044
O O15 0.000000 0.500000 0.000000
O O16 0.500000 0.000000 0.500000
#
# Coordination Sequence:
#
# PCOD9038339 Si02
#       7
#     2   2   2   2   2   2   2
#     4  11  24  41  64  96 123 173 214 259 326 383
#     4  11  22  39  63  97 128 167 218 262 324 382
#     4  11  24  42  65  95 131 169 214 273 317 377
#     4  12  25  41  64  95 133 172 211 255 323 394
#     4   9  23  45  66  93 129 164 222 271 321 375
#     4  10  23  41  68  95 127 163 218 273 319 378
#     4  12  23  42  63  88 138 172 207 262 322 382
#
# _framework density 23.948183
#
# number of rings (size 3 to 8) (size 9 to 14) (size 15 to 20)
#    0.000    1.143    4.286    0.857    2.000    4.571 
#    0.000    1.429    0.000    0.000    0.000    0.000 
#    0.000    0.000    0.000    0.000    0.000    0.000 
#
# Total GULP energy -78127.040007 kJ/mol
# GULP energy per Si atom -5580.502858 kJ/mol
# Density = 2.389368 g / cm^3
# Si number density = 23.948183 Si / 1000 Ang^3
#
#
#
# Elastic Constant Matrix: (Units=GPa)
#
#
# Indices 1 2 3 4 5 6 
#
# 1 65.7384 21.6567 11.1585 -8.5402 -8.8169 2.4106
# 2 21.6567 62.0029 16.1373 2.3232 -9.3516 26.1931
# 3 11.1585 16.1373 53.5359 0.9006 -9.1872 10.8641
# 4 -8.5402 2.3232 0.9006 35.0409 -4.4339 5.5261
# 5 -8.8169 -9.3516 -9.1872 -4.4339 40.9018 -11.8999
# 6 2.4106 26.1931 10.8641 5.5261 -11.8999 37.8175
#
#
#
# Elastic Compliance Matrix: (Units=1/GPa)
#
#
# Indices 1 2 3 4 5 6 
#
# 1 0.019189 -0.008066 -0.002086 0.004899 0.003952 0.005491
# 2 -0.008066 0.027014 -0.003128 -0.001090 -0.001507 -0.017613
# 3 -0.002086 -0.003128 0.021115 -0.000041 0.002729 -0.002902
# 4 0.004899 -0.001090 -0.000041 0.030691 0.003250 -0.003008
# 5 0.003952 -0.001507 0.002729 0.003250 0.028384 0.008465
# 6 0.005491 -0.017613 -0.002902 -0.003008 0.008465 0.042228
#
#
# Mechanical properties :
#
#
# Convention : Reuss Voigt Hill
#
# Bulk Modulus (GPa) = 24.53637 31.02023 27.77830
# Shear Modulus (GPa) = 23.95022 31.57368 27.76195
#
# Velocity S-wave (km/s) = 3.16584 3.63494 3.40847
# Velocity P-wave (km/s) = 4.86120 5.53157 5.20718
#
# Compressibility (1/GPa) = 0.04075583
#
# Stress axis : x y z
#
# Youngs Moduli (GPa) = 52.11454 37.01829 47.36055
#
# Poissons Ratio (x) = 0.29860 0.09882
# Poissons Ratio (y) = 0.42037 0.14813
# Poissons Ratio (z) = 0.10874 0.11578
#
# Static dielectric constant tensor:
#      x y z
#    x 2.025840 0.072500 -0.047720 
#    y 0.072500 2.016950 -0.009250 
#    z -0.047720 -0.009250 1.985530 
# 
# From -- ./inp_files/52755.got.cif
#   From: 2010.05.17/outbox.cif.g08.bks.cpg/sg2_27_cif.got.tgz:52755.got - 2010.06.03 11:33:40.
