data_PCOD9038008
_publ_section_title
;
Structure prediction by ZEFSAII (Michael W. Deem and Ramdas Pophale) SiO2 
 PCOD9038008
Probable space group: P -1
;
_chemical_formula_sum "Si O2"
_cell_formula_units_Z 16
_cell_length_a 18.724519
_cell_length_b 6.229041
_cell_length_c 15.363565
_cell_angle_alpha 134.997950
_cell_angle_beta 35.666571
_cell_angle_gamma 133.608007
_cell_volume 709.365691
_symmetry_space_group_name_H-M "P -1"
_symmetry_group_IT_number 2
_symmetry_cell_setting 'triclinic'
loop_
_space_group_symop_operation_xyz
x,y,z
-x,-y,-z
loop_
_atom_site_type_symbol
_atom_site_label
_atom_site_fract_x
_atom_site_fract_y
_atom_site_fract_z
Si Si1 0.754034 0.610685 0.739358
Si Si2 0.114133 0.682453 0.001271
Si Si3 0.448234 0.411558 0.383075
Si Si4 0.306271 0.271035 0.667209
Si Si5 0.022444 0.763677 0.305449
Si Si6 0.421372 0.934028 0.969440
Si Si7 0.749215 0.416357 0.497666
Si Si8 0.191436 0.434612 0.135277
O O1 0.729235 0.408452 0.618739
O O2 0.764807 0.465189 0.780680
O O3 0.888943 0.880683 0.669838
O O4 0.644681 0.791449 0.905827
O O5 0.226940 0.519111 0.833150
O O6 0.060848 0.651621 0.142643
O O7 0.000000 0.500000 0.000000
O O8 0.162641 0.059257 0.045022
O O9 0.362734 0.316498 0.526536
O O10 0.575933 0.661492 0.363364
O O11 0.494065 0.132785 0.212028
O O12 0.371496 0.541349 0.422883
O O13 0.224641 0.908315 0.651888
O O14 0.067181 0.547759 0.269773
O O15 0.872169 0.707870 0.440177
O O16 0.303770 0.623223 0.014800
O O17 0.500000 0.000000 0.000000
#
# Coordination Sequence:
#
# PCOD9038008 Si02
#       8
#     2   2   2   2   2   2   2   2
#     4  10  23  42  65  98 128 166 214 265 325 381
#     4  11  23  44  68  96 128 169 218 264 322 385
#     4  11  25  44  61  92 135 165 216 269 315 376
#     4  11  26  42  64  95 133 169 214 264 318 385
#     4  10  23  41  65  97 129 163 215 270 318 383
#     4  11  23  43  68  94 124 167 219 267 312 386
#     4  12  24  40  66  94 128 176 210 258 327 381
#     4  10  23  41  67  92 128 169 212 272 323 370
#
# _framework density 22.555361999999999
#
# number of rings (size 3 to 8) (size 9 to 14) (size 15 to 20)
#    0.000    1.250    1.250    4.500    1.750   10.000 
#    0.000    0.000    0.000    0.000    0.000    0.000 
#    0.000    0.000    0.000    0.000    0.000    0.000 
#
# Total GULP energy -89585.224929 kJ/mol
# GULP energy per Si atom -5599.076558 kJ/mol
# Density = 2.250402 g / cm^3
# Si number density = 22.555362 Si / 1000 Ang^3
#
#
#
# Elastic Constant Matrix: (Units=GPa)
#
#
# Indices 1 2 3 4 5 6 
#
# 1 157.4525 21.5201 31.5160 -0.5971 11.9692 10.8884
# 2 21.5201 37.2186 20.7893 0.3622 -2.0170 6.0299
# 3 31.5160 20.7893 102.6415 0.6999 15.5879 3.4348
# 4 -0.5971 0.3622 0.6999 24.1483 3.5437 -1.9747
# 5 11.9692 -2.0170 15.5879 3.5437 36.8383 5.5832
# 6 10.8884 6.0299 3.4348 -1.9747 5.5832 22.5247
#
#
#
# Elastic Compliance Matrix: (Units=1/GPa)
#
#
# Indices 1 2 3 4 5 6 
#
# 1 0.007327 -0.003318 -0.001245 0.000363 -0.001768 -0.001994
# 2 -0.003318 0.034365 -0.006753 -0.002178 0.007326 -0.008573
# 3 -0.001245 -0.006753 0.012260 0.000686 -0.005517 0.001968
# 4 0.000363 -0.002178 0.000686 0.042673 -0.005450 0.005395
# 5 -0.001768 0.007326 -0.005517 -0.005450 0.032306 -0.008751
# 6 -0.001994 -0.008573 0.001968 0.005395 -0.008751 0.049996
#
#
# Mechanical properties :
#
#
# Convention : Reuss Voigt Hill
#
# Bulk Modulus (GPa) = 31.92621 49.44038 40.68329
# Shear Modulus (GPa) = 23.58483 31.60141 27.59312
#
# Velocity S-wave (km/s) = 3.23715 3.74713 3.50144
# Velocity P-wave (km/s) = 5.30636 6.37875 5.86711
#
# Compressibility (1/GPa) = 0.03132223
#
# Stress axis : x y z
#
# Youngs Moduli (GPa) = 136.47242 29.09896 81.56611
#
# Poissons Ratio (x) = 0.09654 0.10156
# Poissons Ratio (y) = 0.45277 0.55078
# Poissons Ratio (z) = 0.16993 0.19649
#
# Static dielectric constant tensor:
#      x y z
#    x 1.823750 0.029230 0.006530 
#    y 0.029230 1.840770 -0.007920 
#    z 0.006530 -0.007920 1.814620 
# 
# From -- ./inp_files/66257.got.cif
#   From: 2010.05.17/outbox.cif.g08.bks.cpg/sg2_34_cif.got.tgz:66257.got - 2010.06.03 11:33:40.
