data_PCOD9038143
_publ_section_title
;
Structure prediction by ZEFSAII (Michael W. Deem and Ramdas Pophale) SiO2 
 PCOD9038143
Probable space group: P -1
;
_chemical_formula_sum "Si O2"
_cell_formula_units_Z 16
_cell_length_a 9.602236
_cell_length_b 14.633838
_cell_length_c 8.484875
_cell_angle_alpha 124.808237
_cell_angle_beta 105.800501
_cell_angle_gamma 108.449901
_cell_volume 755.447776
_symmetry_space_group_name_H-M "P -1"
_symmetry_group_IT_number 2
_symmetry_cell_setting 'triclinic'
loop_
_space_group_symop_operation_xyz
x,y,z
-x,-y,-z
loop_
_atom_site_type_symbol
_atom_site_label
_atom_site_fract_x
_atom_site_fract_y
_atom_site_fract_z
Si Si1 0.624310 0.878915 0.145756
Si Si2 0.710773 0.712773 0.205833
Si Si3 0.716326 0.804755 0.793435
Si Si4 0.338994 0.851332 0.238668
Si Si5 0.821111 0.364742 0.739798
Si Si6 0.455387 0.567489 0.282433
Si Si7 0.089630 0.812704 0.575136
Si Si8 0.113339 0.916272 0.039420
O O1 0.719692 0.838144 0.255797
O O2 0.431472 0.822981 0.100741
O O3 0.752030 0.043485 0.317753
O O4 0.607479 0.810752 0.906113
O O5 0.554826 0.640234 0.219096
O O6 0.897792 0.758638 0.386247
O O7 0.646181 0.594961 0.936901
O O8 0.614982 0.652108 0.541758
O O9 0.916616 0.869431 0.979754
O O10 0.754205 0.916845 0.781890
O O11 0.267718 0.743632 0.250822
O O12 0.500000 0.000000 0.500000
O O13 0.189803 0.864390 0.134841
O O14 0.685728 0.400794 0.687024
O O15 0.870475 0.298155 0.555058
O O16 0.000000 0.500000 0.000000
O O17 0.092958 0.849865 0.795597
#
# Coordination Sequence:
#
# PCOD9038143 Si02
#       8
#     2   2   2   2   2   2   2   2
#     4  11  25  39  67 101 127 172 224 275 331 387
#     4  11  23  42  66  95 130 178 222 272 321 392
#     4  10  23  41  66  98 132 176 218 275 330 391
#     4  12  25  44  67 100 133 172 221 278 326 400
#     4  12  25  43  68  99 134 177 221 270 337 392
#     4  11  23  42  68  89 134 179 222 264 330 396
#     4  11  23  42  67  99 134 172 218 276 330 393
#     4  10  24  42  65  98 136 169 219 277 332 383
#
# _framework density 21.179492
#
# number of rings (size 3 to 8) (size 9 to 14) (size 15 to 20)
#    0.000    1.000    5.000    1.125    3.500    1.500 
#    0.000    0.625    0.000    0.000    0.000    0.000 
#    0.000    0.000    0.000    0.000    0.000    0.000 
#
# Total GULP energy -89523.860131 kJ/mol
# GULP energy per Si atom -5595.241258 kJ/mol
# Density = 2.113129 g / cm^3
# Si number density = 21.179492 Si / 1000 Ang^3
#
#
#
# Elastic Constant Matrix: (Units=GPa)
#
#
# Indices 1 2 3 4 5 6 
#
# 1 59.7134 -8.8734 -10.5276 1.5855 -13.7336 -8.6769
# 2 -8.8734 15.5224 -5.7632 9.2472 0.7021 2.2198
# 3 -10.5276 -5.7632 87.4676 13.9262 -11.3569 4.5176
# 4 1.5855 9.2472 13.9262 19.7350 -1.5310 2.5396
# 5 -13.7336 0.7021 -11.3569 -1.5310 32.7993 -0.8427
# 6 -8.6769 2.2198 4.5176 2.5396 -0.8427 30.6959
#
#
#
# Elastic Compliance Matrix: (Units=1/GPa)
#
#
# Indices 1 2 3 4 5 6 
#
# 1 0.028970 0.035198 0.011580 -0.026724 0.014307 0.006543
# 2 0.035198 0.151783 0.031599 -0.095192 0.018056 0.002694
# 3 0.011580 0.031599 0.020925 -0.029807 0.010043 0.000651
# 4 -0.026724 -0.095192 -0.029807 0.118190 -0.014121 -0.006450
# 5 0.014307 0.018056 0.010043 -0.014121 0.039001 0.003499
# 6 0.006543 0.002694 0.000651 -0.006450 0.003499 0.034766
#
#
# Mechanical properties :
#
#
# Convention : Reuss Voigt Hill
#
# Bulk Modulus (GPa) = 2.78994 12.48609 7.63801
# Shear Modulus (GPa) = 14.03083 29.17055 21.60069
#
# Velocity S-wave (km/s) = 2.57665 3.71523 3.19703
# Velocity P-wave (km/s) = 3.18940 4.93073 4.15237
#
# Compressibility (1/GPa) = 0.35843067
#
# Stress axis : x y z
#
# Youngs Moduli (GPa) = 34.51900 6.58835 47.79018
#
# Poissons Ratio (x) = -0.23189 -0.55343
# Poissons Ratio (y) = -1.21499 -1.51010
# Poissons Ratio (z) = -0.39975 -0.20818
#
# Static dielectric constant tensor:
#      x y z
#    x 1.768610 0.012190 -0.031730 
#    y 0.012190 1.748970 -0.014410 
#    z -0.031730 -0.014410 1.775440 
# 
# From -- ./inp_files/184344.got.cif
#   From: 2010.05.17/outbox.cif.g08.bks.cpg/sg2_93_cif.got.tgz:184344.got - 2010.06.03 11:33:40.
