data_PCOD9038801
_publ_section_title
;
Structure prediction by ZEFSAII (Michael W. Deem and Ramdas Pophale) SiO2 
 PCOD9038801
Probable space group: P -1
;
_chemical_formula_sum "Si O2"
_cell_formula_units_Z 14
_cell_length_a 12.123586
_cell_length_b 8.222877
_cell_length_c 10.030692
_cell_angle_alpha 135.414656
_cell_angle_beta 66.742366
_cell_angle_gamma 117.005601
_cell_volume 621.312217
_symmetry_space_group_name_H-M "P -1"
_symmetry_group_IT_number 2
_symmetry_cell_setting 'triclinic'
loop_
_space_group_symop_operation_xyz
x,y,z
-x,-y,-z
loop_
_atom_site_type_symbol
_atom_site_label
_atom_site_fract_x
_atom_site_fract_y
_atom_site_fract_z
Si Si1 0.949689 0.249298 0.456815
Si Si2 0.643001 0.293506 0.368352
Si Si3 0.260165 0.135343 0.827624
Si Si4 0.212247 0.200635 0.361092
Si Si5 0.737312 0.357548 0.792378
Si Si6 0.354146 0.852420 0.997393
Si Si7 0.369123 0.140548 0.507766
O O1 0.866937 0.312763 0.653662
O O2 0.000000 0.500000 0.500000
O O3 0.065404 0.158135 0.400056
O O4 0.865522 0.041081 0.279825
O O5 0.728957 0.518668 0.535091
O O6 0.501156 0.267240 0.456852
O O7 0.674325 0.044623 0.237035
O O8 0.668099 0.329502 0.220413
O O9 0.342651 0.237432 0.718202
O O10 0.250311 0.359433 0.052710
O O11 0.266679 0.154916 0.453310
O O12 0.268659 0.037970 0.140903
O O13 0.689028 0.278630 0.918913
O O14 0.640894 0.145642 0.631759
O O15 0.500000 0.000000 0.000000
#
# Coordination Sequence:
#
# PCOD9038801 Si02
#       7
#     2   2   2   2   2   2   2
#     4  11  25  48  67  98 137 179 233 273 333 394
#     4  12  23  40  69 102 135 180 218 272 350 395
#     4  11  25  41  70  99 137 179 222 280 336 394
#     4  11  24  43  72  92 135 180 224 280 326 398
#     4  10  24  44  67  98 137 175 225 279 328 400
#     4  11  24  44  67 105 135 172 225 275 336 406
#     4  10  23  42  63 102 133 173 225 272 341 401
#
# _framework density 22.532954
#
# number of rings (size 3 to 8) (size 9 to 14) (size 15 to 20)
#    0.000    1.143    4.286    1.714    4.000    7.429 
#    0.000    4.286    0.000    0.000    0.000    0.000 
#    0.000    0.000    0.000    0.000    0.000    0.000 
#
# Total GULP energy -78201.052547 kJ/mol
# GULP energy per Si atom -5585.789468 kJ/mol
# Density = 2.248167 g / cm^3
# Si number density = 22.532954 Si / 1000 Ang^3
#
#
#
# Elastic Constant Matrix: (Units=GPa)
#
#
# Indices 1 2 3 4 5 6 
#
# 1 66.7729 20.5660 12.1947 -3.0735 -20.4804 8.0265
# 2 20.5660 101.9117 35.9457 -3.9848 -18.2926 8.7764
# 3 12.1947 35.9457 137.4545 17.9651 -11.5658 18.7103
# 4 -3.0735 -3.9848 17.9651 43.6298 -3.4745 -5.3601
# 5 -20.4804 -18.2926 -11.5658 -3.4745 27.2008 -4.0869
# 6 8.0265 8.7764 18.7103 -5.3601 -4.0869 27.7739
#
#
#
# Elastic Compliance Matrix: (Units=1/GPa)
#
#
# Indices 1 2 3 4 5 6 
#
# 1 0.020149 -0.001120 -0.000202 0.002183 0.014186 -0.002824
# 2 -0.001120 0.012368 -0.002929 0.002766 0.006565 -0.000112
# 3 -0.000202 -0.002929 0.009615 -0.004998 0.000366 -0.006404
# 4 0.002183 0.002766 -0.004998 0.026836 0.005997 0.007924
# 5 0.014186 0.006565 0.000366 0.005997 0.053166 0.002560
# 6 -0.002824 -0.000112 -0.006404 0.007924 0.002560 0.043077
#
#
# Mechanical properties :
#
#
# Convention : Reuss Voigt Hill
#
# Bulk Modulus (GPa) = 29.73516 49.28355 39.50936
# Shear Modulus (GPa) = 27.03851 35.54974 31.29413
#
# Velocity S-wave (km/s) = 3.46779 3.97631 3.73073
# Velocity P-wave (km/s) = 5.40916 6.55749 6.01081
#
# Compressibility (1/GPa) = 0.03363022
#
# Stress axis : x y z
#
# Youngs Moduli (GPa) = 49.62991 80.85646 104.00717
#
# Poissons Ratio (x) = 0.09056 0.02100
# Poissons Ratio (y) = 0.05558 0.30461
# Poissons Ratio (z) = 0.01002 0.23681
#
# Static dielectric constant tensor:
#      x y z
#    x 1.834960 -0.054430 -0.008370 
#    y -0.054430 1.913390 0.022560 
#    z -0.008370 0.022560 1.870350 
# 
# From -- ./inp_files/260940.got.cif
#   From: 2010.05.17/outbox.cif.g08.bks.cpg/sg2_131_cif.got.tgz:260940.got - 2010.06.03 11:33:40.
