data_PCOD9038848
_publ_section_title
;
Structure prediction by ZEFSAII (Michael W. Deem and Ramdas Pophale) SiO2 
 PCOD9038848
Probable space group: P -1
;
_chemical_formula_sum "Si O2"
_cell_formula_units_Z 14
_cell_length_a 7.702680
_cell_length_b 7.016073
_cell_length_c 17.965320
_cell_angle_alpha 65.938108
_cell_angle_beta 48.261156
_cell_angle_gamma 53.605052
_cell_volume 583.026312
_symmetry_space_group_name_H-M "P -1"
_symmetry_group_IT_number 2
_symmetry_cell_setting 'triclinic'
loop_
_space_group_symop_operation_xyz
x,y,z
-x,-y,-z
loop_
_atom_site_type_symbol
_atom_site_label
_atom_site_fract_x
_atom_site_fract_y
_atom_site_fract_z
Si Si1 0.333897 0.158008 0.823225
Si Si2 0.451181 0.545207 0.235556
Si Si3 0.497626 0.749414 0.474695
Si Si4 0.030170 0.271452 0.753010
Si Si5 0.800811 0.408044 0.017909
Si Si6 0.729907 0.729781 0.565737
Si Si7 0.366368 0.284546 0.107983
O O1 0.443054 0.345048 0.747964
O O2 0.213732 0.099751 0.793689
O O3 0.576785 0.946893 0.827675
O O4 0.102858 0.254379 0.935657
O O5 0.693095 0.431614 0.127107
O O6 0.362224 0.360490 0.321855
O O7 0.199905 0.737173 0.228808
O O8 0.500000 0.500000 0.500000
O O9 0.765771 0.716625 0.364639
O O10 0.521251 0.771506 0.552909
O O11 0.278059 0.013114 0.466782
O O12 0.862692 0.503534 0.814224
O O13 0.637199 0.300542 0.037567
O O14 0.711612 0.663688 0.963857
O O15 0.000000 0.500000 0.500000
#
# Coordination Sequence:
#
# PCOD9038848 Si02
#       7
#     2   2   2   2   2   2   2
#     4  11  22  39  66  97 128 182 225 267 341 409
#     4  11  23  43  64  95 136 174 219 285 342 393
#     4  11  25  46  73 100 134 184 229 285 356 415
#     4  10  23  42  63  98 133 168 223 277 334 407
#     4   9  20  39  58  93 136 168 227 276 325 406
#     4  11  25  47  68 104 139 171 235 292 341 419
#     4   9  20  39  62  94 133 171 227 277 325 408
#
# _framework density 24.012637999999999
#
# number of rings (size 3 to 8) (size 9 to 14) (size 15 to 20)
#    0.000    1.714    1.429    2.571    4.000    2.286 
#    5.143    0.000    0.000    0.000    0.000    0.000 
#    0.000    0.000    0.000    0.000    0.000    0.000 
#
# Total GULP energy -78062.398741 kJ/mol
# GULP energy per Si atom -5575.885624 kJ/mol
# Density = 2.395798 g / cm^3
# Si number density = 24.012638 Si / 1000 Ang^3
#
#
#
# Elastic Constant Matrix: (Units=GPa)
#
#
# Indices 1 2 3 4 5 6 
#
# 1 83.1953 27.0588 12.5179 -8.5616 3.9696 2.4335
# 2 27.0588 140.5751 32.6508 -11.3403 -9.7055 -0.7247
# 3 12.5179 32.6508 89.3453 7.0106 14.6465 -1.0201
# 4 -8.5616 -11.3403 7.0106 35.5307 -12.1944 -1.3004
# 5 3.9696 -9.7055 14.6465 -12.1944 27.2316 -9.9908
# 6 2.4335 -0.7247 -1.0201 -1.3004 -9.9908 16.3396
#
#
#
# Elastic Compliance Matrix: (Units=1/GPa)
#
#
# Indices 1 2 3 4 5 6 
#
# 1 0.013370 -0.002719 -0.000348 0.000892 -0.003981 -0.004497
# 2 -0.002719 0.011650 -0.007624 0.011314 0.018318 0.012547
# 3 -0.000348 -0.007624 0.019398 -0.015960 -0.026265 -0.016405
# 4 0.000892 0.011314 -0.015960 0.052926 0.048347 0.033147
# 5 -0.003981 0.018318 -0.026265 0.048347 0.104340 0.067411
# 6 -0.004497 0.012547 -0.016405 0.033147 0.067411 0.105259
#
#
# Mechanical properties :
#
#
# Convention : Reuss Voigt Hill
#
# Bulk Modulus (GPa) = 43.41072 50.84121 47.12597
# Shear Modulus (GPa) = 14.88080 31.87959 23.38019
#
# Velocity S-wave (km/s) = 2.49209 3.64760 3.12374
# Velocity P-wave (km/s) = 5.13792 6.24169 5.71651
#
# Compressibility (1/GPa) = 0.02303578
#
# Stress axis : x y z
#
# Youngs Moduli (GPa) = 74.79534 85.83851 51.55139
#
# Poissons Ratio (x) = 0.23337 0.01796
# Poissons Ratio (y) = 0.20334 0.39302
# Poissons Ratio (z) = 0.02606 0.65442
#
# Static dielectric constant tensor:
#      x y z
#    x 1.969560 0.003410 0.034610 
#    y 0.003410 2.055320 -0.060590 
#    z 0.034610 -0.060590 1.881510 
# 
# From -- ./inp_files/587197.got.cif
#   From: 2010.05.17/outbox.cif.g08.bks.cpg/sg2_294_cif.got.tgz:587197.got - 2010.06.03 11:33:40.
