data_PCOD9038392
_publ_section_title
;
Structure prediction by ZEFSAII (Michael W. Deem and Ramdas Pophale) SiO2 
 PCOD9038392
Probable space group: P -1
;
_chemical_formula_sum "Si O2"
_cell_formula_units_Z 14
_cell_length_a 20.360689
_cell_length_b 9.405655
_cell_length_c 13.076134
_cell_angle_alpha 45.471111
_cell_angle_beta 154.655351
_cell_angle_gamma 144.433110
_cell_volume 617.696018
_symmetry_space_group_name_H-M "P -1"
_symmetry_group_IT_number 2
_symmetry_cell_setting 'triclinic'
loop_
_space_group_symop_operation_xyz
x,y,z
-x,-y,-z
loop_
_atom_site_type_symbol
_atom_site_label
_atom_site_fract_x
_atom_site_fract_y
_atom_site_fract_z
Si Si1 0.671798 0.916967 0.886811
Si Si2 0.594627 0.469817 0.550183
Si Si3 0.945421 0.726653 0.048513
Si Si4 0.475115 0.595885 0.114197
Si Si5 0.816628 0.995392 0.266204
Si Si6 0.679806 0.110677 0.591169
Si Si7 0.173930 0.626719 0.758439
O O1 0.682173 0.689648 0.994712
O O2 0.746042 0.099691 0.803316
O O3 0.445811 0.789087 0.636478
O O4 0.764773 0.048230 0.057010
O O5 0.500000 0.500000 0.500000
O O6 0.573827 0.591260 0.359578
O O7 0.471148 0.177428 0.504957
O O8 0.808753 0.597152 0.823955
O O9 0.844819 0.567415 0.088152
O O10 0.139982 0.754463 0.294951
O O11 0.000000 0.000000 0.000000
O O12 0.632492 0.734731 0.178076
O O13 0.365312 0.718053 0.920271
O O14 0.835104 0.179768 0.284938
O O15 0.000000 0.000000 0.500000
O O16 0.000000 0.500000 0.500000
#
# Coordination Sequence:
#
# PCOD9038392 Si02
#       7
#     2   2   2   2   2   2   2
#     4  10  23  46  67  97 139 177 233 282 358 410
#     4  11  21  42  66 104 138 175 239 283 351 411
#     4  12  24  40  74 102 138 184 232 292 348 414
#     4  11  25  46  71  97 140 188 223 297 346 417
#     4  12  28  44  70 101 141 186 231 286 353 421
#     4  10  23  41  69 100 137 180 224 299 344 414
#     4  12  28  46  70 106 140 183 241 280 355 424
#
# _framework density 22.664870000000001
#
# number of rings (size 3 to 8) (size 9 to 14) (size 15 to 20)
#    0.000    0.857    2.857    3.429    8.000    0.000 
#    0.000    2.857    0.000    0.000    0.000    0.000 
#    0.000    0.000    0.000    0.000    0.000    0.000 
#
# Total GULP energy -78327.662991 kJ/mol
# GULP energy per Si atom -5594.833071 kJ/mol
# Density = 2.261328 g / cm^3
# Si number density = 22.664870 Si / 1000 Ang^3
#
#
#
# Elastic Constant Matrix: (Units=GPa)
#
#
# Indices 1 2 3 4 5 6 
#
# 1 93.1022 3.1844 31.1426 6.0956 15.7372 -16.3837
# 2 3.1844 37.7033 15.6088 -0.7263 2.6525 -16.3221
# 3 31.1426 15.6088 99.8124 10.6458 -1.2814 -5.4260
# 4 6.0956 -0.7263 10.6458 26.0233 -5.2121 4.1111
# 5 15.7372 2.6525 -1.2814 -5.2121 60.5210 8.6672
# 6 -16.3837 -16.3221 -5.4260 4.1111 8.6672 38.0069
#
#
#
# Elastic Compliance Matrix: (Units=1/GPa)
#
#
# Indices 1 2 3 4 5 6 
#
# 1 0.015188 0.005326 -0.004645 -0.004312 -0.006088 0.010026
# 2 0.005326 0.037308 -0.006348 -0.001816 -0.006029 0.018983
# 3 -0.004645 -0.006348 0.012689 -0.003433 0.001885 -0.002975
# 4 -0.004312 -0.001816 -0.003433 0.043493 0.006198 -0.009247
# 5 -0.006088 -0.006029 0.001885 0.006198 0.020415 -0.010271
# 6 0.010026 0.018983 -0.002975 -0.009247 -0.010271 0.041703
#
#
# Mechanical properties :
#
#
# Convention : Reuss Voigt Hill
#
# Bulk Modulus (GPa) = 18.56947 36.72106 27.64527
# Shear Modulus (GPa) = 24.98986 36.95570 30.97278
#
# Velocity S-wave (km/s) = 3.32412 4.04236 3.70070
# Velocity P-wave (km/s) = 4.78997 6.16640 5.52125
#
# Compressibility (1/GPa) = 0.05385182
#
# Stress axis : x y z
#
# Youngs Moduli (GPa) = 65.84026 26.80382 78.80637
#
# Poissons Ratio (x) = -0.14275 0.36605
# Poissons Ratio (y) = -0.35066 0.50025
# Poissons Ratio (z) = 0.30583 0.17015
#
# Static dielectric constant tensor:
#      x y z
#    x 1.847730 -0.046550 0.025020 
#    y -0.046550 1.872560 -0.019930 
#    z 0.025020 -0.019930 1.843490 
# 
# From -- ./inp_files/308583.got.cif
#   From: 2010.05.17/outbox.cif.g08.bks.cpg/sg2_155_cif.got.tgz:308583.got - 2010.06.03 11:33:40.
