data_PCOD9038449
_publ_section_title
;
Structure prediction by ZEFSAII (Michael W. Deem and Ramdas Pophale) SiO2 
 PCOD9038449
Probable space group: P -1
;
_chemical_formula_sum "Si O2"
_cell_formula_units_Z 14
_cell_length_a 5.318024
_cell_length_b 13.244522
_cell_length_c 11.398841
_cell_angle_alpha 128.829690
_cell_angle_beta 81.674715
_cell_angle_gamma 88.937211
_cell_volume 612.600944
_symmetry_space_group_name_H-M "P -1"
_symmetry_group_IT_number 2
_symmetry_cell_setting 'triclinic'
loop_
_space_group_symop_operation_xyz
x,y,z
-x,-y,-z
loop_
_atom_site_type_symbol
_atom_site_label
_atom_site_fract_x
_atom_site_fract_y
_atom_site_fract_z
Si Si1 0.771184 0.649697 0.314214
Si Si2 0.321349 0.623241 0.153122
Si Si3 0.782979 0.460094 0.397795
Si Si4 0.181715 0.004676 0.814467
Si Si5 0.728651 0.170041 0.113371
Si Si6 0.548995 0.166619 0.878103
Si Si7 0.083772 0.070754 0.428384
O O1 0.493883 0.658959 0.277277
O O2 0.787363 0.546366 0.343170
O O3 0.813550 0.795247 0.454433
O O4 0.030206 0.605668 0.188066
O O5 0.330697 0.730574 0.130772
O O6 0.500000 0.500000 0.000000
O O7 0.500000 0.500000 0.500000
O O8 0.815081 0.304426 0.252425
O O9 0.000000 0.500000 0.500000
O O10 0.351479 0.915350 0.834629
O O11 0.135850 0.910516 0.642151
O O12 0.269905 0.133001 0.841786
O O13 0.945080 0.073977 0.958254
O O14 0.531423 0.202568 0.043053
O O15 0.708596 0.029350 0.727755
O O16 0.000000 0.000000 0.500000
#
# Coordination Sequence:
#
# PCOD9038449 Si02
#       7
#     2   2   2   2   2   2   2
#     4  12  27  46  71 101 142 180 229 295 337 418
#     4  12  27  45  71 102 138 184 234 280 353 408
#     4  12  28  47  73 101 138 187 234 286 346 410
#     4  10  23  41  69  96 136 181 226 292 340 414
#     4  10  24  44  65 100 134 178 238 279 350 407
#     4  11  24  40  72  95 137 182 224 289 344 415
#     4  11  23  42  64 103 137 175 230 278 353 407
#
# _framework density 22.853377999999999
#
# number of rings (size 3 to 8) (size 9 to 14) (size 15 to 20)
#    0.000    0.857    1.429    4.286   10.000    1.143 
#    0.000    0.000    0.000    0.000    0.000    0.000 
#    0.000    0.000    0.000    0.000    0.000    0.000 
#
# Total GULP energy -78126.085448 kJ/mol
# GULP energy per Si atom -5580.434675 kJ/mol
# Density = 2.280136 g / cm^3
# Si number density = 22.853378 Si / 1000 Ang^3
#
#
#
# Elastic Constant Matrix: (Units=GPa)
#
#
# Indices 1 2 3 4 5 6 
#
# 1 63.3479 8.9735 12.1928 -16.3315 5.5116 4.4523
# 2 8.9735 124.2390 23.5727 -13.7826 -4.5061 19.0807
# 3 12.1928 23.5727 120.7662 6.0363 13.3264 0.3498
# 4 -16.3315 -13.7826 6.0363 39.0365 3.1553 0.2498
# 5 5.5116 -4.5061 13.3264 3.1553 37.4202 -7.7152
# 6 4.4523 19.0807 0.3498 0.2498 -7.7152 35.7767
#
#
#
# Elastic Compliance Matrix: (Units=1/GPa)
#
#
# Indices 1 2 3 4 5 6 
#
# 1 0.018883 0.000364 -0.002021 0.008640 -0.003432 -0.003325
# 2 0.000364 0.009665 -0.002158 0.003891 0.000500 -0.005098
# 3 -0.002021 -0.002158 0.009367 -0.002825 -0.002915 0.000702
# 4 0.008640 0.003891 -0.002825 0.031333 -0.003275 -0.004047
# 5 -0.003432 0.000500 -0.002915 -0.003275 0.029980 0.006677
# 6 -0.003325 -0.005098 0.000702 -0.004047 0.006677 0.032545
#
#
# Mechanical properties :
#
#
# Convention : Reuss Voigt Hill
#
# Bulk Modulus (GPa) = 33.02031 44.20345 38.61188
# Shear Modulus (GPa) = 33.44547 40.02094 36.73321
#
# Velocity S-wave (km/s) = 3.82970 4.18928 4.01352
# Velocity P-wave (km/s) = 5.83400 6.54097 6.19757
#
# Compressibility (1/GPa) = 0.03028439
#
# Stress axis : x y z
#
# Youngs Moduli (GPa) = 52.95801 103.46729 106.76249
#
# Poissons Ratio (x) = -0.03769 0.21578
# Poissons Ratio (y) = -0.01929 0.23041
# Poissons Ratio (z) = 0.10703 0.22329
#
# Static dielectric constant tensor:
#      x y z
#    x 2.155540 0.027610 0.047110 
#    y 0.027610 1.750440 -0.025090 
#    z 0.047110 -0.025090 1.848240 
# 
# From -- ./inp_files/63689.got.cif
#   From: 2010.05.17/outbox.cif.g08.bks.cpg/sg2_32_cif.got.tgz:63689.got - 2010.06.03 11:33:40.
