data_PCOD9038290
_publ_section_title
;
Structure prediction by ZEFSAII (Michael W. Deem and Ramdas Pophale) SiO2 
 PCOD9038290
Probable space group: P -1
;
_chemical_formula_sum "Si O2"
_cell_formula_units_Z 16
_cell_length_a 22.611850
_cell_length_b 9.586925
_cell_length_c 25.274150
_cell_angle_alpha 151.905606
_cell_angle_beta 16.779470
_cell_angle_gamma 150.992798
_cell_volume 726.564339
_symmetry_space_group_name_H-M "P -1"
_symmetry_group_IT_number 2
_symmetry_cell_setting 'triclinic'
loop_
_space_group_symop_operation_xyz
x,y,z
-x,-y,-z
loop_
_atom_site_type_symbol
_atom_site_label
_atom_site_fract_x
_atom_site_fract_y
_atom_site_fract_z
Si Si1 0.288738 0.312792 0.705986
Si Si2 0.848694 0.304490 0.135321
Si Si3 0.459822 0.284421 0.849001
Si Si4 0.249603 0.456886 0.591566
Si Si5 0.699345 0.355630 0.509242
Si Si6 0.619279 0.772443 0.792119
Si Si7 0.157539 0.784692 0.434136
Si Si8 0.132216 0.678698 0.295942
O O1 0.213024 0.408449 0.745921
O O2 0.504489 0.547730 0.612930
O O3 0.361774 0.996676 0.542663
O O4 0.086547 0.299636 0.912417
O O5 0.822071 0.350560 0.235616
O O6 0.685317 0.006744 0.153349
O O7 0.610962 0.505101 0.752050
O O8 0.612126 0.215030 0.740617
O O9 0.302738 0.478967 0.071559
O O10 0.244667 0.591878 0.582464
O O11 0.114437 0.113381 0.595358
O O12 0.546932 0.568635 0.732826
O O13 0.910955 0.474872 0.400834
O O14 0.813246 0.025273 0.689061
O O15 0.500000 0.000000 0.000000
O O16 0.147407 0.760793 0.371771
O O17 0.000000 0.500000 0.500000
#
# Coordination Sequence:
#
# PCOD9038290 Si02
#       8
#     2   2   2   2   2   2   2   2
#     4  11  25  47  75 102 142 195 237 302 359 420
#     4  11  25  48  74 107 144 182 250 300 358 421
#     4  11  23  46  73 102 137 186 239 301 358 422
#     4  12  27  45  69 107 146 188 239 298 354 434
#     4  12  24  45  71  98 145 189 236 290 363 424
#     4  10  23  41  68 100 137 186 232 286 357 425
#     4  12  27  43  70 106 141 184 237 295 365 431
#     4  11  24  47  69 100 142 187 234 292 359 434
#
# _framework density 22.021449
#
# number of rings (size 3 to 8) (size 9 to 14) (size 15 to 20)
#    0.000    0.750    3.750    3.000    5.250    0.500 
#    6.750    0.000    0.000    0.000    0.000    0.000 
#    0.000    0.000    0.000    0.000    0.000    0.000 
#
# Total GULP energy -89330.733243 kJ/mol
# GULP energy per Si atom -5583.170828 kJ/mol
# Density = 2.197133 g / cm^3
# Si number density = 22.021449 Si / 1000 Ang^3
#
#
#
# Elastic Constant Matrix: (Units=GPa)
#
#
# Indices 1 2 3 4 5 6 
#
# 1 113.9322 23.5212 38.1484 -0.4537 34.8395 10.1476
# 2 23.5212 132.4327 32.7061 4.4951 16.6458 -0.5504
# 3 38.1484 32.7061 91.5590 -2.9636 25.5285 6.1625
# 4 -0.4537 4.4951 -2.9636 35.1354 -2.2522 0.6028
# 5 34.8395 16.6458 25.5285 -2.2522 25.8344 0.0734
# 6 10.1476 -0.5504 6.1625 0.6028 0.0734 31.4568
#
#
#
# Elastic Compliance Matrix: (Units=1/GPa)
#
#
# Indices 1 2 3 4 5 6 
#
# 1 0.015742 -0.000053 -0.000430 -0.001078 -0.020851 -0.004926
# 2 -0.000053 0.008585 -0.002176 -0.001514 -0.003444 0.000631
# 3 -0.000430 -0.002176 0.015917 0.000791 -0.013669 -0.003001
# 4 -0.001078 -0.001514 0.000791 0.028982 0.004176 -0.000399
# 5 -0.020851 -0.003444 -0.013669 0.004176 0.082892 0.009071
# 6 -0.004926 0.000631 -0.003001 -0.000399 0.009071 0.033964
#
#
# Mechanical properties :
#
#
# Convention : Reuss Voigt Hill
#
# Bulk Modulus (GPa) = 28.63120 58.51947 43.57533
# Shear Modulus (GPa) = 24.62546 34.72186 29.67366
#
# Velocity S-wave (km/s) = 3.34765 3.97511 3.67480
# Velocity P-wave (km/s) = 5.28886 6.90654 6.15111
#
# Compressibility (1/GPa) = 0.03492693
#
# Stress axis : x y z
#
# Youngs Moduli (GPa) = 63.52237 116.48770 62.82520
#
# Poissons Ratio (x) = 0.00616 0.02702
# Poissons Ratio (y) = 0.00336 0.13669
# Poissons Ratio (z) = 0.02732 0.25345
#
# Static dielectric constant tensor:
#      x y z
#    x 1.790040 0.004070 0.014600 
#    y 0.004070 1.819990 0.040620 
#    z 0.014600 0.040620 1.899970 
# 
# From -- ./inp_files/608619.got.cif
#   From: 2010.05.17/outbox.cif.g08.bks.cpg/sg2_305_cif.got.tgz:608619.got - 2010.06.03 11:33:40.
