data_PCOD9038427
_publ_section_title
;
Structure prediction by ZEFSAII (Michael W. Deem and Ramdas Pophale) SiO2 
 PCOD9038427
Probable space group: P -1
;
_chemical_formula_sum "Si O2"
_cell_formula_units_Z 15
_cell_length_a 11.544976
_cell_length_b 7.579086
_cell_length_c 12.739488
_cell_angle_alpha 75.053304
_cell_angle_beta 80.462488
_cell_angle_gamma 138.635031
_cell_volume 588.374820
_symmetry_space_group_name_H-M "P -1"
_symmetry_group_IT_number 2
_symmetry_cell_setting 'triclinic'
loop_
_space_group_symop_operation_xyz
x,y,z
-x,-y,-z
loop_
_atom_site_type_symbol
_atom_site_label
_atom_site_fract_x
_atom_site_fract_y
_atom_site_fract_z
Si Si1 0.712382 0.379543 0.030277
Si Si2 0.125757 0.335522 0.384312
Si Si3 0.548475 0.281925 0.453247
Si Si4 0.000000 0.500000 0.000000
Si Si5 0.956495 0.658463 0.386149
Si Si6 0.455020 0.286191 0.234926
Si Si7 0.491962 0.251878 0.876467
Si Si8 0.852073 0.213333 0.300320
O O1 0.551439 0.241417 0.163483
O O2 0.703521 0.143154 0.045100
O O3 0.952177 0.675539 0.982325
O O4 0.623416 0.358991 0.942627
O O5 0.117808 0.468601 0.462103
O O6 0.358105 0.585604 0.271233
O O7 0.005577 0.255215 0.313222
O O8 0.000000 0.000000 0.500000
O O9 0.798349 0.617678 0.383890
O O10 0.484742 0.287672 0.352418
O O11 0.500000 0.000000 0.500000
O O12 0.392649 0.154150 0.585931
O O13 0.101155 0.653857 0.840821
O O14 0.908612 0.442985 0.341502
O O15 0.207781 0.008528 0.293727
O O16 0.569058 0.617935 0.128041
#
# Coordination Sequence:
#
# PCOD9038427 Si02
#       8
#     2   2   2   1   2   2   2   2
#     4  11  26  47  74 101 149 200 251 307 375 445
#     4  12  22  43  70 105 146 185 246 311 370 441
#     4  10  23  41  69 113 142 191 252 301 377 447
#     4  12  26  48  72 106 152 190 254 318 358 460
#     4  11  24  41  75 105 144 194 239 308 377 438
#     4  12  24  49  74 108 153 192 250 318 371 451
#     4  11  25  46  71 108 143 201 255 299 377 450
#     4  11  23  43  69 103 144 196 246 304 375 439
#
# _framework density 25.493950999999999
#
# number of rings (size 3 to 8) (size 9 to 14) (size 15 to 20)
#    0.000    0.800    4.000    3.200    9.333    0.000 
#    4.800    2.000    0.000    0.000    0.000    0.000 
#    0.000    0.000    0.000    0.000    0.000    0.000 
#
# Total GULP energy -83767.730722 kJ/mol
# GULP energy per Si atom -5584.515381 kJ/mol
# Density = 2.543593 g / cm^3
# Si number density = 25.493951 Si / 1000 Ang^3
#
#
#
# Elastic Constant Matrix: (Units=GPa)
#
#
# Indices 1 2 3 4 5 6 
#
# 1 103.9438 58.2201 39.1750 4.7617 4.1368 28.6336
# 2 58.2201 87.0028 45.8339 2.1768 4.5495 26.4410
# 3 39.1750 45.8339 150.2050 31.7351 -2.2727 13.2174
# 4 4.7617 2.1768 31.7351 39.5227 14.9937 5.2030
# 5 4.1368 4.5495 -2.2727 14.9937 69.4446 -0.7083
# 6 28.6336 26.4410 13.2174 5.2030 -0.7083 48.4138
#
#
#
# Elastic Compliance Matrix: (Units=1/GPa)
#
#
# Indices 1 2 3 4 5 6 
#
# 1 0.016299 -0.008877 -0.001218 0.000300 -0.000540 -0.004499
# 2 -0.008877 0.021894 -0.005059 0.005599 -0.002341 -0.005962
# 3 -0.001218 -0.005059 0.010343 -0.009138 0.002732 0.001682
# 4 0.000300 0.005599 -0.009138 0.036160 -0.008539 -0.004752
# 5 -0.000540 -0.002341 0.002732 -0.008539 0.016539 0.002011
# 6 -0.004499 -0.005962 0.001682 -0.004752 0.002011 0.026653
#
#
# Mechanical properties :
#
#
# Convention : Reuss Voigt Hill
#
# Bulk Modulus (GPa) = 54.86331 69.73440 62.29885
# Shear Modulus (GPa) = 30.43750 44.67106 37.55428
#
# Velocity S-wave (km/s) = 3.45905 4.19050 3.84222
# Velocity P-wave (km/s) = 6.12537 7.12926 6.64630
#
# Compressibility (1/GPa) = 0.01822712
#
# Stress axis : x y z
#
# Youngs Moduli (GPa) = 61.35381 45.67554 96.68494
#
# Poissons Ratio (x) = 0.40547 0.11774
# Poissons Ratio (y) = 0.54465 0.48914
# Poissons Ratio (z) = 0.07472 0.23108
#
# Static dielectric constant tensor:
#      x y z
#    x 2.236670 0.153500 -0.018540 
#    y 0.153500 2.446170 -0.178480 
#    z -0.018540 -0.178480 2.023980 
# 
# From -- ./inp_files/416887.got.cif
#   From: 2010.05.17/outbox.cif.g08.bks.cpg/sg2_209_cif.got.tgz:416887.got - 2010.06.03 11:33:40.
