data_PCOD9038127
_publ_section_title
;
Structure prediction by ZEFSAII (Michael W. Deem and Ramdas Pophale) SiO2 
 PCOD9038127
Probable space group: P -1
;
_chemical_formula_sum "Si O2"
_cell_formula_units_Z 14
_cell_length_a 21.783330
_cell_length_b 9.892654
_cell_length_c 6.663638
_cell_angle_alpha 129.158986
_cell_angle_beta 51.404915
_cell_angle_gamma 149.098893
_cell_volume 559.576502
_symmetry_space_group_name_H-M "P -1"
_symmetry_group_IT_number 2
_symmetry_cell_setting 'triclinic'
loop_
_space_group_symop_operation_xyz
x,y,z
-x,-y,-z
loop_
_atom_site_type_symbol
_atom_site_label
_atom_site_fract_x
_atom_site_fract_y
_atom_site_fract_z
Si Si1 0.581763 0.512747 0.073978
Si Si2 0.830451 0.881103 0.665419
Si Si3 0.614137 0.305040 0.139072
Si Si4 0.131833 0.739070 0.348142
Si Si5 0.464887 0.173298 0.644836
Si Si6 0.915999 0.638205 0.231717
Si Si7 0.238425 0.696188 0.401947
O O1 0.703351 0.692792 0.861928
O O2 0.478599 0.221502 0.898075
O O3 0.605998 0.476767 0.207045
O O4 0.541753 0.642564 0.256818
O O5 0.860270 0.734749 0.398760
O O6 0.839791 0.031216 0.602318
O O7 0.937465 0.105749 0.819427
O O8 0.582575 0.278057 0.409453
O O9 0.732237 0.408893 0.910921
O O10 0.500000 0.000000 0.000000
O O11 0.227173 0.847403 0.429211
O O12 0.000000 0.500000 0.500000
O O13 0.130719 0.589391 0.035986
O O14 0.345187 0.882712 0.524896
O O15 0.879877 0.531057 0.434593
#
# Coordination Sequence:
#
# PCOD9038127 Si02
#       7
#     2   2   2   2   2   2   2
#     4  11  23  44  68 101 138 184 228 283 355 407
#     4  11  25  47  75 104 144 187 229 291 353 414
#     4  10  23  41  66  97 134 179 232 280 334 412
#     4  12  27  45  72 107 140 187 233 285 354 417
#     4  10  25  42  70  99 137 182 232 288 342 412
#     4  11  25  49  72 105 144 184 234 288 354 420
#     4  11  24  46  71 102 140 183 231 288 350 415
#
# _framework density 25.018919
#
# number of rings (size 3 to 8) (size 9 to 14) (size 15 to 20)
#    0.000    1.143    2.857    1.714    4.000   10.857 
#    0.000    0.000    0.000    0.000    0.000    0.000 
#    0.000    0.000    0.000    0.000    0.000    0.000 
#
# Total GULP energy -78408.743747 kJ/mol
# GULP energy per Si atom -5600.624553 kJ/mol
# Density = 2.496197 g / cm^3
# Si number density = 25.018919 Si / 1000 Ang^3
#
#
#
# Elastic Constant Matrix: (Units=GPa)
#
#
# Indices 1 2 3 4 5 6 
#
# 1 118.9161 30.5492 12.7247 4.1572 -6.6939 -24.2405
# 2 30.5492 55.9437 14.6029 -0.5434 -3.2446 -11.5489
# 3 12.7247 14.6029 82.4234 -2.9442 -18.2533 4.2994
# 4 4.1572 -0.5434 -2.9442 27.0532 2.9017 -7.4038
# 5 -6.6939 -3.2446 -18.2533 2.9017 25.8690 8.3844
# 6 -24.2405 -11.5489 4.2994 -7.4038 8.3844 56.4217
#
#
#
# Elastic Compliance Matrix: (Units=1/GPa)
#
#
# Indices 1 2 3 4 5 6 
#
# 1 0.010482 -0.004775 -0.000871 -0.000926 0.000502 0.003396
# 2 -0.004775 0.022054 -0.003827 0.001952 -0.002484 0.003379
# 3 -0.000871 -0.003827 0.015767 -0.000650 0.011856 -0.004206
# 4 -0.000926 0.001952 -0.000650 0.039532 -0.006919 0.006267
# 5 0.000502 -0.002484 0.011856 -0.006919 0.050742 -0.009645
# 6 0.003396 0.003379 -0.004206 0.006267 -0.009645 0.022451
#
#
# Mechanical properties :
#
#
# Convention : Reuss Voigt Hill
#
# Bulk Modulus (GPa) = 34.06428 41.44852 37.75640
# Shear Modulus (GPa) = 26.34899 35.16253 30.75576
#
# Velocity S-wave (km/s) = 3.24877 3.75298 3.50994
# Velocity P-wave (km/s) = 5.26475 5.94833 5.61695
#
# Compressibility (1/GPa) = 0.02935626
#
# Stress axis : x y z
#
# Youngs Moduli (GPa) = 95.39931 45.34277 63.42461
#
# Poissons Ratio (x) = 0.21653 0.05527
# Poissons Ratio (y) = 0.45556 0.24271
# Poissons Ratio (z) = 0.08313 0.17352
#
# Static dielectric constant tensor:
#      x y z
#    x 1.971200 0.024180 -0.009000 
#    y 0.024180 1.968200 0.015900 
#    z -0.009000 0.015900 1.953740 
# 
# From -- ./inp_files/116750.got.cif
#   From: 2010.05.17/outbox.cif.g08.bks.cpg/sg2_59_cif.got.tgz:116750.got - 2010.06.03 11:33:40.
