data_PCOD9038268
_publ_section_title
;
Structure prediction by ZEFSAII (Michael W. Deem and Ramdas Pophale) SiO2 
 PCOD9038268
Probable space group: P -1
;
_chemical_formula_sum "Si O2"
_cell_formula_units_Z 13
_cell_length_a 11.013491
_cell_length_b 7.902808
_cell_length_c 12.700521
_cell_angle_alpha 96.617952
_cell_angle_beta 48.676471
_cell_angle_gamma 59.289107
_cell_volume 509.164168
_symmetry_space_group_name_H-M "P -1"
_symmetry_group_IT_number 2
_symmetry_cell_setting 'triclinic'
loop_
_space_group_symop_operation_xyz
x,y,z
-x,-y,-z
loop_
_atom_site_type_symbol
_atom_site_label
_atom_site_fract_x
_atom_site_fract_y
_atom_site_fract_z
Si Si1 0.666720 0.815942 0.165978
Si Si2 0.453486 0.750719 0.623982
Si Si3 0.986692 0.503873 0.248028
Si Si4 0.279527 0.920759 0.515705
Si Si5 0.500000 0.500000 0.000000
Si Si6 0.259820 0.083741 0.241242
Si Si7 0.726075 0.376708 0.633941
O O1 0.553859 0.764787 0.303617
O O2 0.431639 0.028004 0.230014
O O3 0.698307 0.961546 0.222727
O O4 0.910169 0.579161 0.935596
O O5 0.308586 0.809223 0.605626
O O6 0.510030 0.588895 0.680597
O O7 0.730623 0.599645 0.416338
O O8 0.203745 0.246127 0.182942
O O9 0.906944 0.762204 0.340438
O O10 0.167805 0.892767 0.488326
O O11 0.387981 0.794061 0.116231
O O12 0.413304 0.508920 0.167092
O O13 0.968181 0.300986 0.472643
#
# Coordination Sequence:
#
# PCOD9038268 Si02
#       7
#     2   2   2   2   1   2   2
#     4  11  22  41  64 100 128 174 216 264 323 385
#     4  10  24  44  68  94 135 172 218 265 320 387
#     4  10  23  41  67  98 133 171 216 268 324 382
#     4  11  24  42  67 100 130 175 214 269 321 386
#     4  12  24  42  66  94 132 166 216 264 326 384
#     4  11  25  42  67  97 134 170 215 270 328 388
#     4  11  25  45  67  98 132 172 215 270 330 382
#
# _framework density 25.532041
#
# number of rings (size 3 to 8) (size 9 to 14) (size 15 to 20)
#    0.000    1.231    1.538    4.154    2.154    9.231 
#    0.000    0.000    0.000    7.385    0.000    0.000 
#    0.000    0.000    0.000    0.000    0.000    0.000 
#
# Total GULP energy -72589.264620 kJ/mol
# GULP energy per Si atom -5583.789586 kJ/mol
# Density = 2.547393 g / cm^3
# Si number density = 25.532041 Si / 1000 Ang^3
#
#
#
# Elastic Constant Matrix: (Units=GPa)
#
#
# Indices 1 2 3 4 5 6 
#
# 1 78.2735 12.4281 48.1299 0.2432 33.7019 -20.8468
# 2 12.4281 128.4005 52.9730 -20.8440 0.5288 -24.4636
# 3 48.1299 52.9730 163.7378 -35.9030 37.5425 -14.9821
# 4 0.2432 -20.8440 -35.9030 43.4467 -23.1210 8.2457
# 5 33.7019 0.5288 37.5425 -23.1210 19.1103 -3.7767
# 6 -20.8468 -24.4636 -14.9821 8.2457 -3.7767 37.6727
#
#
#
# Elastic Compliance Matrix: (Units=1/GPa)
#
#
# Indices 1 2 3 4 5 6 
#
# 1 -0.003375 0.006124 -0.006503 0.021108 0.043961 -0.000691
# 2 0.006124 0.009463 -0.003112 -0.003948 -0.008074 0.008350
# 3 -0.006503 -0.003112 0.010554 0.007428 -0.000809 -0.003129
# 4 0.021108 -0.003948 0.007428 -0.002788 -0.053638 0.007304
# 5 0.043961 -0.008074 -0.000809 -0.053638 -0.083916 0.022089
# 6 -0.000691 0.008350 -0.003129 0.007304 0.022089 0.030956
#
#
# Mechanical properties :
#
#
# Convention : Reuss Voigt Hill
#
# Bulk Modulus (GPa) = 103.53485 66.38599 84.96042
# Shear Modulus (GPa) = -172.97992 37.17132 -67.90430
#
# Velocity S-wave (km/s) = -8.23998 3.81973 -5.16270
# Velocity P-wave (km/s) = 7.06333 6.74620 1.47976
#
# Compressibility (1/GPa) = 0.00965858
#
# Stress axis : x y z
#
# Youngs Moduli (GPa) = -296.27329 105.68019 94.75451
#
# Poissons Ratio (x) = -0.64715 0.61621
# Poissons Ratio (y) = 1.81429 0.29484
# Poissons Ratio (z) = -1.92674 0.32883
#
# Static dielectric constant tensor:
#      x y z
#    x 2.049590 0.009120 -0.053030 
#    y 0.009120 2.125420 0.078700 
#    z -0.053030 0.078700 2.003530 
# 
# From -- ./inp_files/417543.got.cif
#   From: 2010.05.17/outbox.cif.g08.bks.cpg/sg2_209_cif.got.tgz:417543.got - 2010.06.03 11:33:40.
