data_PCOD9038444
_publ_section_title
;
Structure prediction by ZEFSAII (Michael W. Deem and Ramdas Pophale) SiO2 
 PCOD9038444
Probable space group: P -1
;
_chemical_formula_sum "Si O2"
_cell_formula_units_Z 12
_cell_length_a 17.182211
_cell_length_b 8.664253
_cell_length_c 9.483602
_cell_angle_alpha 87.901454
_cell_angle_beta 141.813974
_cell_angle_gamma 121.241412
_cell_volume 531.483326
_symmetry_space_group_name_H-M "P -1"
_symmetry_group_IT_number 2
_symmetry_cell_setting 'triclinic'
loop_
_space_group_symop_operation_xyz
x,y,z
-x,-y,-z
loop_
_atom_site_type_symbol
_atom_site_label
_atom_site_fract_x
_atom_site_fract_y
_atom_site_fract_z
Si Si1 0.194658 0.136366 0.575172
Si Si2 0.019560 0.666163 0.122251
Si Si3 0.887530 0.060571 0.017967
Si Si4 0.243874 0.383970 0.072556
Si Si5 0.577649 0.387812 0.957242
Si Si6 0.925550 0.497747 0.541962
O O1 0.106092 0.180112 0.339812
O O2 0.981923 0.845401 0.322373
O O3 0.307738 0.337681 0.852863
O O4 0.360846 0.193821 0.732133
O O5 0.106967 0.670222 0.386511
O O6 0.813331 0.556565 0.883730
O O7 0.000000 0.500000 0.000000
O O8 0.129715 0.892139 0.165175
O O9 0.912765 0.223018 0.163203
O O10 0.729329 0.768717 0.839588
O O11 0.406865 0.609510 0.188759
O O12 0.715869 0.387410 0.219530
O O13 0.000000 0.500000 0.500000
#
# Coordination Sequence:
#
# PCOD9038444 Si02
#       6
#     2   2   2   2   2   2
#     4   8  19  31  53  84 110 128 179 223 262 305
#     4  10  19  33  53  78 109 143 174 216 271 317
#     4   8  19  33  53  79 104 140 177 218 262 306
#     4  10  18  32  59  77 101 140 186 215 256 314
#     4  10  17  33  53  85 107 138 169 225 266 304
#     4  10  18  30  53  80 107 141 176 209 266 324
#
# _framework density 22.578317999999999
#
# number of rings (size 3 to 8) (size 9 to 14) (size 15 to 20)
#    1.000    1.667    1.667    1.000    0.000    0.000 
#    0.000    1.667    0.000    3.000    0.000    0.000 
#    0.000    0.000    0.000    0.000    0.000    0.000 
#
# Total GULP energy -66838.592992 kJ/mol
# GULP energy per Si atom -5569.882749 kJ/mol
# Density = 2.252693 g / cm^3
# Si number density = 22.578318 Si / 1000 Ang^3
#
#
#
# Elastic Constant Matrix: (Units=GPa)
#
#
# Indices 1 2 3 4 5 6 
#
# 1 169.3625 58.8656 42.7352 -5.0339 -7.1500 4.1817
# 2 58.8656 108.4858 25.3559 -30.2190 1.0213 3.8196
# 3 42.7352 25.3559 51.4065 -10.6776 1.9485 9.1744
# 4 -5.0339 -30.2190 -10.6776 36.0543 6.9816 -7.5049
# 5 -7.1500 1.0213 1.9485 6.9816 30.2516 4.5000
# 6 4.1817 3.8196 9.1744 -7.5049 4.5000 43.5256
#
#
#
# Elastic Compliance Matrix: (Units=1/GPa)
#
#
# Indices 1 2 3 4 5 6 
#
# 1 0.009393 -0.005255 -0.006521 -0.005964 0.004274 -0.000537
# 2 -0.005255 0.016158 -0.000884 0.014042 -0.005305 0.002243
# 3 -0.006521 -0.000884 0.027465 0.006581 -0.004277 -0.003508
# 4 -0.005964 0.014042 0.006581 0.044746 -0.013688 0.007084
# 5 0.004274 -0.005305 -0.004277 -0.013688 0.038480 -0.005382
# 6 -0.000537 0.002243 -0.003508 0.007084 -0.005382 0.025347
#
#
# Mechanical properties :
#
#
# Convention : Reuss Voigt Hill
#
# Bulk Modulus (GPa) = 36.10685 64.79645 50.45165
# Shear Modulus (GPa) = 25.49166 35.45285 30.47225
#
# Velocity S-wave (km/s) = 3.36375 3.96689 3.67771
# Velocity P-wave (km/s) = 5.57790 7.05284 6.35828
#
# Compressibility (1/GPa) = 0.02769557
#
# Stress axis : x y z
#
# Youngs Moduli (GPa) = 106.46262 61.88851 36.40967
#
# Poissons Ratio (x) = 0.32523 0.23744
# Poissons Ratio (y) = 0.55947 0.03218
# Poissons Ratio (z) = 0.69429 0.05470
#
# Static dielectric constant tensor:
#      x y z
#    x 1.839330 -0.039890 -0.032220 
#    y -0.039890 1.841230 0.026440 
#    z -0.032220 0.026440 1.915400 
# 
# From -- ./inp_files/290069.got.cif
#   From: 2010.05.17/outbox.cif.g08.bks.cpg/sg2_146_cif.got.tgz:290069.got - 2010.06.03 11:33:40.
