data_PCOD9038966
_publ_section_title
;
Structure prediction by ZEFSAII (Michael W. Deem and Ramdas Pophale) SiO2 
 PCOD9038966
Probable space group: P -1
;
_chemical_formula_sum "Si O2"
_cell_formula_units_Z 16
_cell_length_a 21.578738
_cell_length_b 21.410384
_cell_length_c 9.418216
_cell_angle_alpha 37.797856
_cell_angle_beta 132.011185
_cell_angle_gamma 163.191733
_cell_volume 671.495615
_symmetry_space_group_name_H-M "P -1"
_symmetry_group_IT_number 2
_symmetry_cell_setting 'triclinic'
loop_
_space_group_symop_operation_xyz
x,y,z
-x,-y,-z
loop_
_atom_site_type_symbol
_atom_site_label
_atom_site_fract_x
_atom_site_fract_y
_atom_site_fract_z
Si Si1 0.073445 0.995541 0.727651
Si Si2 0.590910 0.302010 0.296594
Si Si3 0.015648 0.595573 0.220364
Si Si4 0.911747 0.935991 0.829450
Si Si5 0.569664 0.757479 0.291300
Si Si6 0.579897 0.236356 0.094785
Si Si7 0.349989 0.837686 0.204228
Si Si8 0.592514 0.753445 0.668846
O O1 0.101631 0.094353 0.735701
O O2 0.310942 0.206196 0.659377
O O3 0.000000 0.000000 0.500000
O O4 0.837625 0.650050 0.009148
O O5 0.414953 0.159272 0.393847
O O6 0.685303 0.311387 0.508483
O O7 0.456073 0.121086 0.265390
O O8 0.000000 0.500000 0.500000
O O9 0.109689 0.629555 0.179398
O O10 0.783718 0.393423 0.183833
O O11 0.209985 0.907293 0.993465
O O12 0.845327 0.979360 0.649628
O O13 0.638209 0.575715 0.030507
O O14 0.000000 0.000000 0.000000
O O15 0.360032 0.582489 0.203558
O O16 0.532523 0.706188 0.495897
O O17 0.481255 0.057169 0.132456
O O18 0.500000 0.000000 0.000000
#
# Coordination Sequence:
#
# PCOD9038966 Si02
#       8
#     2   2   2   2   2   2   2   2
#     4  11  22  42  67  94 133 174 219 275 328 385
#     4  11  22  42  65  95 131 172 216 267 332 392
#     4  11  22  42  66  93 134 167 211 273 323 393
#     4  10  23  42  65  89 126 173 222 268 327 382
#     4  11  23  40  65  96 131 170 220 271 327 390
#     4  11  24  40  70  97 129 174 222 260 338 400
#     4  11  24  44  68 100 134 169 216 277 332 393
#     4  10  23  43  61  91 133 167 212 279 324 378
#
# _framework density 23.827407999999998
#
# number of rings (size 3 to 8) (size 9 to 14) (size 15 to 20)
#    0.000    1.250    3.750    1.875    3.500    2.500 
#    0.000    1.250    0.000    0.000    0.000    0.000 
#    0.000    0.000    0.000    0.000    0.000    0.000 
#
# Total GULP energy -89234.414684 kJ/mol
# GULP energy per Si atom -5577.150918 kJ/mol
# Density = 2.377318 g / cm^3
# Si number density = 23.827408 Si / 1000 Ang^3
#
#
#
# Elastic Constant Matrix: (Units=GPa)
#
#
# Indices 1 2 3 4 5 6 
#
# 1 245.7129 55.4108 69.9026 29.5382 -16.3397 28.4788
# 2 55.4108 50.8455 22.4032 23.3913 -0.1053 18.0706
# 3 69.9026 22.4032 118.2195 22.3111 7.5471 13.4080
# 4 29.5382 23.3913 22.3111 48.1919 0.7860 6.5251
# 5 -16.3397 -0.1053 7.5471 0.7860 47.2303 8.6405
# 6 28.4788 18.0706 13.4080 6.5251 8.6405 44.8383
#
#
#
# Elastic Compliance Matrix: (Units=1/GPa)
#
#
# Indices 1 2 3 4 5 6 
#
# 1 0.006433 -0.005167 -0.002829 0.000062 0.002983 -0.001741
# 2 -0.005167 0.033993 -0.000128 -0.012105 0.000090 -0.008635
# 3 -0.002829 -0.000128 0.010975 -0.003179 -0.002594 -0.000471
# 4 0.000062 -0.012105 -0.003179 0.027821 -0.000289 0.001797
# 5 0.002983 0.000090 -0.002594 -0.000289 0.023662 -0.005673
# 6 -0.001741 -0.008635 -0.000471 0.001797 -0.005673 0.027861
#
#
# Mechanical properties :
#
#
# Convention : Reuss Voigt Hill
#
# Bulk Modulus (GPa) = 28.44824 78.91235 53.68029
# Shear Modulus (GPa) = 31.50364 45.85618 38.67991
#
# Velocity S-wave (km/s) = 3.64010 4.39169 4.03344
# Velocity P-wave (km/s) = 5.44355 7.67503 6.65351
#
# Compressibility (1/GPa) = 0.03515156
#
# Stress axis : x y z
#
# Youngs Moduli (GPa) = 155.45715 29.41744 91.11748
#
# Poissons Ratio (x) = 0.15201 0.25778
# Poissons Ratio (y) = 0.80330 0.01169
# Poissons Ratio (z) = 0.43980 0.00377
#
# Static dielectric constant tensor:
#      x y z
#    x 2.046850 0.088240 -0.084680 
#    y 0.088240 2.158960 -0.102550 
#    z -0.084680 -0.102550 2.038890 
# 
# From -- ./inp_files/349435.got.cif
#   From: 2010.05.17/outbox.cif.g08.bks.cpg/sg2_175_cif.got.tgz:349435.got - 2010.06.03 11:33:40.
