data_PCOD9038350
_publ_section_title
;
Structure prediction by ZEFSAII (Michael W. Deem and Ramdas Pophale) SiO2 
 PCOD9038350
Probable space group: P -1
;
_chemical_formula_sum "Si O2"
_cell_formula_units_Z 14
_cell_length_a 9.284043
_cell_length_b 9.410869
_cell_length_c 8.535399
_cell_angle_alpha 124.921409
_cell_angle_beta 101.756657
_cell_angle_gamma 99.293877
_cell_volume 561.554813
_symmetry_space_group_name_H-M "P -1"
_symmetry_group_IT_number 2
_symmetry_cell_setting 'triclinic'
loop_
_space_group_symop_operation_xyz
x,y,z
-x,-y,-z
loop_
_atom_site_type_symbol
_atom_site_label
_atom_site_fract_x
_atom_site_fract_y
_atom_site_fract_z
Si Si1 0.670998 0.246409 0.063955
Si Si2 0.968757 0.299324 0.948001
Si Si3 0.176144 0.768119 0.609249
Si Si4 0.557146 0.565570 0.233159
Si Si5 0.741640 0.575849 0.702535
Si Si6 0.910379 0.903279 0.757868
Si Si7 0.602387 0.938598 0.360851
O O1 0.705068 0.154933 0.170391
O O2 0.653405 0.439397 0.226195
O O3 0.828613 0.291320 0.028815
O O4 0.518965 0.140065 0.860457
O O5 0.911044 0.076137 0.759469
O O6 0.000000 0.500000 0.000000
O O7 0.140881 0.329977 0.071503
O O8 0.181539 0.566888 0.443665
O O9 0.014124 0.793205 0.633696
O O10 0.251429 0.893674 0.558369
O O11 0.420948 0.529502 0.311078
O O12 0.646960 0.778331 0.353314
O O13 0.500000 0.500000 0.000000
O O14 0.754238 0.743528 0.691136
O O15 0.000000 0.000000 0.000000
O O16 0.500000 0.000000 0.500000
#
# Coordination Sequence:
#
# PCOD9038350 Si02
#       7
#     2   2   2   2   2   2   2
#     4  11  25  42  68 100 134 181 227 274 334 412
#     4  11  24  43  69  98 133 176 233 276 334 405
#     4  12  24  44  70 102 138 178 228 282 331 412
#     4  10  23  42  69  97 135 183 218 279 343 395
#     4  11  23  45  68  97 141 176 224 277 343 399
#     4  10  23  41  68  96 131 185 217 275 342 393
#     4  11  24  45  67  99 140 177 226 280 347 390
#
# _framework density 24.930781
#
# number of rings (size 3 to 8) (size 9 to 14) (size 15 to 20)
#    0.000    1.143    4.286    2.571   10.000    1.714 
#    2.571    0.714    0.000    0.000    0.000    0.000 
#    0.000    0.000    0.000    0.000    0.000    0.000 
#
# Total GULP energy -78156.336710 kJ/mol
# GULP energy per Si atom -5582.595479 kJ/mol
# Density = 2.487404 g / cm^3
# Si number density = 24.930781 Si / 1000 Ang^3
#
#
#
# Elastic Constant Matrix: (Units=GPa)
#
#
# Indices 1 2 3 4 5 6 
#
# 1 83.0840 40.4554 8.3069 7.9679 -23.4188 3.5115
# 2 40.4554 225.9530 41.1825 10.2822 -0.7294 8.0034
# 3 8.3069 41.1825 64.7354 14.6410 -7.9851 6.4220
# 4 7.9679 10.2822 14.6410 42.1904 -9.3691 3.1366
# 5 -23.4188 -0.7294 -7.9851 -9.3691 46.5569 4.8577
# 6 3.5115 8.0034 6.4220 3.1366 4.8577 38.6828
#
#
#
# Elastic Compliance Matrix: (Units=1/GPa)
#
#
# Indices 1 2 3 4 5 6 
#
# 1 0.015791 -0.002916 0.001198 -0.000726 0.008165 -0.001996
# 2 -0.002916 0.005564 -0.003387 -0.000061 -0.001965 -0.000073
# 3 0.001198 -0.003387 0.019261 -0.005212 0.003072 -0.002569
# 4 -0.000726 -0.000061 -0.005212 0.026750 0.004308 -0.001766
# 5 0.008165 -0.001965 0.003072 0.004308 0.027433 -0.004639
# 6 -0.001996 -0.000073 -0.002569 -0.001766 -0.004639 0.027200
#
#
# Mechanical properties :
#
#
# Convention : Reuss Voigt Hill
#
# Bulk Modulus (GPa) = 32.88733 61.51799 47.20266
# Shear Modulus (GPa) = 35.12597 44.40786 39.76691
#
# Velocity S-wave (km/s) = 3.75766 4.22506 3.99819
# Velocity P-wave (km/s) = 5.66098 6.96639 6.34734
#
# Compressibility (1/GPa) = 0.03040684
#
# Stress axis : x y z
#
# Youngs Moduli (GPa) = 63.32567 179.72625 51.91862
#
# Poissons Ratio (x) = 0.52400 -0.06219
# Poissons Ratio (y) = 0.18463 0.17584
# Poissons Ratio (z) = -0.07585 0.60872
#
# Static dielectric constant tensor:
#      x y z
#    x 1.898690 -0.001170 0.038070 
#    y -0.001170 2.073810 -0.022900 
#    z 0.038070 -0.022900 1.999470 
# 
# From -- ./inp_files/160189.got.cif
#   From: 2010.05.17/outbox.cif.g08.bks.cpg/sg2_81_cif.got.tgz:160189.got - 2010.06.03 11:33:40.
