data_PCOD9038749
_publ_section_title
;
Structure prediction by ZEFSAII (Michael W. Deem and Ramdas Pophale) SiO2 
 PCOD9038749
Probable space group: P -1
;
_chemical_formula_sum "Si O2"
_cell_formula_units_Z 14
_cell_length_a 15.709577
_cell_length_b 8.578659
_cell_length_c 8.965331
_cell_angle_alpha 49.237947
_cell_angle_beta 108.857423
_cell_angle_gamma 130.261889
_cell_volume 688.079018
_symmetry_space_group_name_H-M "P -1"
_symmetry_group_IT_number 2
_symmetry_cell_setting 'triclinic'
loop_
_space_group_symop_operation_xyz
x,y,z
-x,-y,-z
loop_
_atom_site_type_symbol
_atom_site_label
_atom_site_fract_x
_atom_site_fract_y
_atom_site_fract_z
Si Si1 0.757852 0.932417 0.983701
Si Si2 0.546844 0.793062 0.798938
Si Si3 0.005563 0.457051 0.854297
Si Si4 0.482591 0.158398 0.599384
Si Si5 0.909675 0.011398 0.530237
Si Si6 0.677313 0.750411 0.385799
Si Si7 0.117092 0.211952 0.020064
O O1 0.677608 0.958448 0.819221
O O2 0.779208 0.738150 0.043660
O O3 0.882719 0.199291 0.904613
O O4 0.703305 0.832222 0.177054
O O5 0.533485 0.808588 0.605168
O O6 0.493909 0.925858 0.761993
O O7 0.500000 0.500000 0.000000
O O8 0.033192 0.687629 0.624096
O O9 0.000000 0.500000 0.000000
O O10 0.107817 0.440336 0.897710
O O11 0.594901 0.437544 0.542177
O O12 0.383108 0.134431 0.648230
O O13 0.793802 0.865037 0.464185
O O14 0.887313 0.898125 0.752448
O O15 0.000000 0.000000 0.500000
O O16 0.000000 0.000000 0.000000
#
# Coordination Sequence:
#
# PCOD9038749 Si02
#       7
#     2   2   2   2   2   2   2
#     4  11  23  42  65  95 132 170 213 274 323 388
#     4  11  23  45  66  94 127 168 220 272 332 381
#     4  11  22  42  63  97 133 169 218 261 326 390
#     4  10  25  45  67  95 132 171 221 273 323 391
#     4  12  23  40  70  96 131 172 214 269 323 386
#     4  11  23  45  66  98 132 173 222 268 327 388
#     4  10  23  42  60  93 134 168 214 262 318 391
#
# _framework density 20.346498
#
# number of rings (size 3 to 8) (size 9 to 14) (size 15 to 20)
#    0.000    1.143    4.286    1.714    2.000    4.000 
#    2.571    0.000    0.000    0.000    0.000    0.000 
#    0.000    0.000    0.000    0.000    0.000    0.000 
#
# Total GULP energy -78206.139864 kJ/mol
# GULP energy per Si atom -5586.152847 kJ/mol
# Density = 2.030019 g / cm^3
# Si number density = 20.346498 Si / 1000 Ang^3
#
#
#
# Elastic Constant Matrix: (Units=GPa)
#
#
# Indices 1 2 3 4 5 6 
#
# 1 198.8521 55.3638 51.7687 -3.4861 10.8752 -24.5978
# 2 55.3638 77.6967 10.3347 -1.6615 8.9279 5.0657
# 3 51.7687 10.3347 62.8739 -17.7829 14.3470 -17.0354
# 4 -3.4861 -1.6615 -17.7829 31.1345 -6.5558 6.0438
# 5 10.8752 8.9279 14.3470 -6.5558 33.6516 0.1121
# 6 -24.5978 5.0657 -17.0354 6.0438 0.1121 43.2685
#
#
#
# Elastic Compliance Matrix: (Units=1/GPa)
#
#
# Indices 1 2 3 4 5 6 
#
# 1 0.008595 -0.005671 -0.006343 -0.003495 0.000739 0.003539
# 2 -0.005671 0.017403 0.001657 0.001504 -0.003182 -0.004811
# 3 -0.006343 0.001657 0.027598 0.012473 -0.007744 0.005344
# 4 -0.003495 0.001504 0.012473 0.040173 0.003248 -0.002872
# 5 0.000739 -0.003182 -0.007744 0.003248 0.034265 -0.002799
# 6 0.003539 -0.004811 0.005344 -0.002872 -0.002799 0.028199
#
#
# Mechanical properties :
#
#
# Convention : Reuss Voigt Hill
#
# Bulk Modulus (GPa) = 30.41247 63.81746 47.11496
# Shear Modulus (GPa) = 26.60872 36.40796 31.50834
#
# Velocity S-wave (km/s) = 3.62025 4.23472 3.93948
# Velocity P-wave (km/s) = 5.69690 7.43934 6.62565
#
# Compressibility (1/GPa) = 0.03288125
#
# Stress axis : x y z
#
# Youngs Moduli (GPa) = 116.34255 57.46208 36.23491
#
# Poissons Ratio (x) = 0.32589 0.22983
# Poissons Ratio (y) = 0.65982 -0.06004
# Poissons Ratio (z) = 0.73795 -0.09521
#
# Static dielectric constant tensor:
#      x y z
#    x 1.752340 -0.017160 0.022710 
#    y -0.017160 1.751860 -0.024090 
#    z 0.022710 -0.024090 1.689360 
# 
# From -- ./inp_files/38416.got.cif
#   From: 2010.05.17/outbox.cif.g08.bks.cpg/sg2_20_cif.got.tgz:38416.got - 2010.06.03 11:33:40.
