data_PCOD9038280
_publ_section_title
;
Structure prediction by ZEFSAII (Michael W. Deem and Ramdas Pophale) SiO2 
 PCOD9038280
Probable space group: P -1
;
_chemical_formula_sum "Si O2"
_cell_formula_units_Z 15
_cell_length_a 11.290629
_cell_length_b 11.157163
_cell_length_c 5.001915
_cell_angle_alpha 85.971521
_cell_angle_beta 110.218051
_cell_angle_gamma 100.275783
_cell_volume 581.765184
_symmetry_space_group_name_H-M "P -1"
_symmetry_group_IT_number 2
_symmetry_cell_setting 'triclinic'
loop_
_space_group_symop_operation_xyz
x,y,z
-x,-y,-z
loop_
_atom_site_type_symbol
_atom_site_label
_atom_site_fract_x
_atom_site_fract_y
_atom_site_fract_z
Si Si1 0.000000 0.000000 0.000000
Si Si2 0.532660 0.765251 0.549428
Si Si3 0.155575 0.131030 0.630871
Si Si4 0.015700 0.778488 0.104089
Si Si5 0.648185 0.256363 0.098908
Si Si6 0.372261 0.007485 0.737443
Si Si7 0.862743 0.420737 0.482520
Si Si8 0.774720 0.638799 0.635072
O O1 0.112143 0.068371 0.325891
O O2 0.910731 0.109037 0.021057
O O3 0.463272 0.728485 0.778541
O O4 0.593290 0.907875 0.512860
O O5 0.643740 0.681975 0.614355
O O6 0.421735 0.747413 0.239269
O O7 0.050271 0.119390 0.786357
O O8 0.283353 0.085490 0.815886
O O9 0.185481 0.276144 0.604521
O O10 0.101858 0.695474 0.320430
O O11 0.897490 0.687385 0.906684
O O12 0.769697 0.363795 0.182740
O O13 0.690138 0.133589 0.275954
O O14 0.500000 0.000000 0.000000
O O15 0.782394 0.502619 0.581435
O O16 0.000000 0.500000 0.500000
#
# Coordination Sequence:
#
# PCOD9038280 Si02
#       8
#     1   2   2   2   2   2   2   2
#     4   8  20  38  62  96 140 176 234 292 350 430
#     4  10  25  46  74 103 142 183 236 298 366 422
#     4   9  20  42  61 101 132 185 226 289 359 418
#     4  10  23  41  67  99 138 184 233 291 360 417
#     4  11  26  46  70 107 142 186 238 296 357 425
#     4   9  20  40  71 101 140 178 229 295 364 427
#     4  12  26  47  69 102 143 192 246 290 348 418
#     4  11  24  42  72  96 138 192 238 290 353 427
#
# _framework density 25.783598000000001
#
# number of rings (size 3 to 8) (size 9 to 14) (size 15 to 20)
#    0.800    1.067    1.333    0.800    5.600    9.067 
#    2.400    0.000    0.000    0.000    0.000    0.000 
#    0.000    0.000    0.000    0.000    0.000    0.000 
#
# Total GULP energy -83631.672104 kJ/mol
# GULP energy per Si atom -5575.444807 kJ/mol
# Density = 2.572491 g / cm^3
# Si number density = 25.783598 Si / 1000 Ang^3
#
#
#
# Elastic Constant Matrix: (Units=GPa)
#
#
# Indices 1 2 3 4 5 6 
#
# 1 97.3828 31.1500 22.1840 -13.3603 -2.9847 -4.8604
# 2 31.1500 153.9695 41.7069 -6.6116 27.1302 -18.0967
# 3 22.1840 41.7069 89.8229 -2.2723 14.3576 -10.3926
# 4 -13.3603 -6.6116 -2.2723 39.3782 -1.8320 16.8459
# 5 -2.9847 27.1302 14.3576 -1.8320 34.5560 -5.8990
# 6 -4.8604 -18.0967 -10.3926 16.8459 -5.8990 47.5987
#
#
#
# Elastic Compliance Matrix: (Units=1/GPa)
#
#
# Indices 1 2 3 4 5 6 
#
# 1 0.012307 -0.002475 -0.002582 0.004349 0.004091 -0.001280
# 2 -0.002475 0.008890 -0.002346 -0.000663 -0.005892 0.002119
# 3 -0.002582 -0.002346 0.013649 -0.001459 -0.003810 0.001868
# 4 0.004349 -0.000663 -0.001459 0.031488 0.001275 -0.011113
# 5 0.004091 -0.005892 -0.003810 0.001275 0.035795 0.001331
# 6 -0.001280 0.002119 0.001868 -0.011113 0.001331 0.026190
#
#
# Mechanical properties :
#
#
# Convention : Reuss Voigt Hill
#
# Bulk Modulus (GPa) = 49.90504 59.02853 54.46679
# Shear Modulus (GPa) = 33.37672 40.71554 37.04613
#
# Velocity S-wave (km/s) = 3.60181 3.97813 3.79464
# Velocity P-wave (km/s) = 6.05762 6.63658 6.35370
#
# Compressibility (1/GPa) = 0.02003806
#
# Stress axis : x y z
#
# Youngs Moduli (GPa) = 81.25588 112.48804 73.26789
#
# Poissons Ratio (x) = 0.27840 0.18920
# Poissons Ratio (y) = 0.20110 0.17191
# Poissons Ratio (z) = 0.20983 0.26393
#
# Static dielectric constant tensor:
#      x y z
#    x 2.091310 0.008490 -0.005470 
#    y 0.008490 2.068730 0.013070 
#    z -0.005470 0.013070 2.127180 
# 
# From -- ./inp_files/70866.got.cif
#   From: 2010.05.17/outbox.cif.g08.bks.cpg/sg2_36_cif.got.tgz:70866.got - 2010.06.03 11:33:40.
