data_PCOD9038152
_publ_section_title
;
Structure prediction by ZEFSAII (Michael W. Deem and Ramdas Pophale) SiO2 
 PCOD9038152
Probable space group: P -1
;
_chemical_formula_sum "Si O2"
_cell_formula_units_Z 16
_cell_length_a 5.179353
_cell_length_b 12.376850
_cell_length_c 12.119925
_cell_angle_alpha 114.001158
_cell_angle_beta 112.224574
_cell_angle_gamma 68.703573
_cell_volume 636.581753
_symmetry_space_group_name_H-M "P -1"
_symmetry_group_IT_number 2
_symmetry_cell_setting 'triclinic'
loop_
_space_group_symop_operation_xyz
x,y,z
-x,-y,-z
loop_
_atom_site_type_symbol
_atom_site_label
_atom_site_fract_x
_atom_site_fract_y
_atom_site_fract_z
Si Si1 0.151737 0.416142 0.086937
Si Si2 0.704686 0.432608 0.657006
Si Si3 0.876674 0.188567 0.940744
Si Si4 0.728153 0.258517 0.178980
Si Si5 0.147208 0.610356 0.564406
Si Si6 0.829225 0.919528 0.366352
Si Si7 0.418977 0.763625 0.297389
Si Si8 0.343522 0.973622 0.849860
O O1 0.075285 0.507478 0.216537
O O2 0.498613 0.370771 0.131663
O O3 0.000000 0.500000 0.000000
O O4 0.063375 0.289049 0.011807
O O5 0.481305 0.550876 0.620998
O O6 0.850026 0.348332 0.543906
O O7 0.529005 0.361282 0.677512
O O8 0.605838 0.248759 0.844396
O O9 0.025103 0.057198 0.860534
O O10 0.835515 0.174181 0.057001
O O11 0.952685 0.299991 0.312120
O O12 0.600149 0.171807 0.201912
O O13 0.000000 0.500000 0.500000
O O14 0.629716 0.853433 0.380255
O O15 0.632982 0.985575 0.257500
O O16 0.092905 0.822185 0.310910
O O17 0.000000 0.000000 0.500000
O O18 0.500000 0.000000 0.000000
#
# Coordination Sequence:
#
# PCOD9038152 Si02
#       8
#     2   2   2   2   2   2   2   2
#     4  11  22  42  64 103 141 181 237 292 365 428
#     4  10  23  41  66  98 139 186 238 298 360 434
#     4  11  23  42  69 107 141 185 239 305 366 436
#     4  11  24  41  69 102 134 188 240 291 366 437
#     4  10  23  43  63  98 140 185 242 298 357 430
#     4  11  27  48  70 108 142 190 249 300 371 444
#     4  11  25  44  74 101 145 187 237 305 370 433
#     4  11  23  45  72 102 144 185 242 305 368 436
#
# _framework density 25.134242
#
# number of rings (size 3 to 8) (size 9 to 14) (size 15 to 20)
#    0.000    1.250    2.500    2.250    5.250    1.500 
#    0.000    0.000    0.000    0.000    0.000    0.000 
#    0.000    0.000    0.000    0.000    0.000    0.000 
#
# Total GULP energy -89186.846660 kJ/mol
# GULP energy per Si atom -5574.177916 kJ/mol
# Density = 2.507704 g / cm^3
# Si number density = 25.134242 Si / 1000 Ang^3
#
#
#
# Elastic Constant Matrix: (Units=GPa)
#
#
# Indices 1 2 3 4 5 6 
#
# 1 63.9261 23.0400 11.7355 -0.3246 6.5632 18.2093
# 2 23.0400 117.0558 29.2807 -19.1949 1.3470 14.6221
# 3 11.7355 29.2807 149.4214 -5.8690 7.6249 15.2552
# 4 -0.3246 -19.1949 -5.8690 33.0175 6.0704 9.5532
# 5 6.5632 1.3470 7.6249 6.0704 35.8958 6.7120
# 6 18.2093 14.6221 15.2552 9.5532 6.7120 33.5688
#
#
#
# Elastic Compliance Matrix: (Units=1/GPa)
#
#
# Indices 1 2 3 4 5 6 
#
# 1 0.019451 -0.002261 0.000102 0.002104 -0.002015 -0.009808
# 2 -0.002261 0.011241 -0.001164 0.007875 -0.000090 -0.005365
# 3 0.000102 -0.001164 0.007368 0.001776 -0.001251 -0.003152
# 4 0.002104 0.007875 0.001776 0.040737 -0.004958 -0.015980
# 5 -0.002015 -0.000090 -0.001251 -0.004958 0.029869 -0.002861
# 6 -0.009808 -0.005365 -0.003152 -0.015980 -0.002861 0.043999
#
#
# Mechanical properties :
#
#
# Convention : Reuss Voigt Hill
#
# Bulk Modulus (GPa) = 31.83136 50.94622 41.38879
# Shear Modulus (GPa) = 29.44962 38.25288 33.85125
#
# Velocity S-wave (km/s) = 3.42671 3.90544 3.67388
# Velocity P-wave (km/s) = 5.32433 6.37576 5.87362
#
# Compressibility (1/GPa) = 0.03141556
#
# Stress axis : x y z
#
# Youngs Moduli (GPa) = 51.41246 88.95612 135.72328
#
# Poissons Ratio (x) = 0.20110 -0.01387
# Poissons Ratio (y) = 0.11623 0.15795
# Poissons Ratio (z) = -0.00525 0.10352
#
# Static dielectric constant tensor:
#      x y z
#    x 2.016850 -0.069320 -0.059880 
#    y -0.069320 2.027850 0.015870 
#    z -0.059880 0.015870 2.119040 
# 
# From -- ./inp_files/365086.got.cif
#   From: 2010.05.17/outbox.cif.g08.bks.cpg/sg2_183_cif.got.tgz:365086.got - 2010.06.03 11:33:40.
