data_PCOD9038279
_publ_section_title
;
Structure prediction by ZEFSAII (Michael W. Deem and Ramdas Pophale) SiO2 
 PCOD9038279
Probable space group: P -1
;
_chemical_formula_sum "Si O2"
_cell_formula_units_Z 14
_cell_length_a 5.909218
_cell_length_b 12.230496
_cell_length_c 12.644512
_cell_angle_alpha 84.405813
_cell_angle_beta 86.196096
_cell_angle_gamma 33.446857
_cell_volume 501.095754
_symmetry_space_group_name_H-M "P -1"
_symmetry_group_IT_number 2
_symmetry_cell_setting 'triclinic'
loop_
_space_group_symop_operation_xyz
x,y,z
-x,-y,-z
loop_
_atom_site_type_symbol
_atom_site_label
_atom_site_fract_x
_atom_site_fract_y
_atom_site_fract_z
Si Si1 0.380034 0.778968 0.058862
Si Si2 0.448845 0.996337 0.378973
Si Si3 0.452137 0.276428 0.531217
Si Si4 0.544515 0.357419 0.714301
Si Si5 0.547284 0.783784 0.700266
Si Si6 0.083710 0.236712 0.013025
Si Si7 0.706851 0.334436 0.232456
O O1 0.367494 0.767354 0.186785
O O2 0.782890 0.692736 0.030542
O O3 0.287082 0.690047 0.030514
O O4 0.000000 0.000000 0.000000
O O5 0.620694 0.024663 0.296155
O O6 0.978844 0.204477 0.340394
O O7 0.500000 0.000000 0.500000
O O8 0.561450 0.824523 0.382885
O O9 0.658112 0.286427 0.596100
O O10 0.600353 0.179507 0.420188
O O11 0.000000 0.500000 0.500000
O O12 0.650971 0.437227 0.744702
O O13 0.041188 0.570516 0.705489
O O14 0.409664 0.742934 0.785755
O O15 0.974349 0.276990 0.136050
O O16 0.500000 0.000000 0.000000
#
# Coordination Sequence:
#
# PCOD9038279 Si02
#       7
#     2   2   2   2   2   2   2
#     4  10  24  46  69 101 138 181 243 294 349 419
#     4   9  20  39  65  95 133 175 228 283 346 415
#     4   9  19  40  66  96 138 178 225 284 345 427
#     4  10  23  41  67  99 138 182 229 288 353 415
#     4   9  21  42  65 100 137 177 232 283 349 419
#     4  10  25  46  69  98 137 180 241 292 352 417
#     4  11  24  41  67  98 135 183 230 291 354 419
#
# _framework density 27.938773000000001
#
# number of rings (size 3 to 8) (size 9 to 14) (size 15 to 20)
#    0.000    2.286    0.000    0.857   10.000    4.000 
#    0.000    5.714    0.000    0.000    0.000    0.000 
#    0.000    0.000    0.000    0.000    0.000    0.000 
#
# Total GULP energy -78137.370240 kJ/mol
# GULP energy per Si atom -5581.240731 kJ/mol
# Density = 2.787518 g / cm^3
# Si number density = 27.938773 Si / 1000 Ang^3
#
#
#
# Elastic Constant Matrix: (Units=GPa)
#
#
# Indices 1 2 3 4 5 6 
#
# 1 153.0041 24.2047 50.2799 2.1560 -40.0740 14.4883
# 2 24.2047 93.1547 40.4456 -19.2424 -18.7265 24.5943
# 3 50.2799 40.4456 152.0428 -8.7057 -7.5678 7.9388
# 4 2.1560 -19.2424 -8.7057 57.3170 6.0329 -1.7825
# 5 -40.0740 -18.7265 -7.5678 6.0329 68.0136 -3.9604
# 6 14.4883 24.5943 7.9388 -1.7825 -3.9604 51.5410
#
#
#
# Elastic Compliance Matrix: (Units=1/GPa)
#
#
# Indices 1 2 3 4 5 6 
#
# 1 0.008901 0.000056 -0.002693 -0.001304 0.004972 -0.001777
# 2 0.000056 0.015372 -0.003379 0.004113 0.003149 -0.006446
# 3 -0.002693 -0.003379 0.008260 0.000418 -0.001577 0.000990
# 4 -0.001304 0.004113 0.000418 0.019047 -0.001343 -0.001105
# 5 0.004972 0.003149 -0.001577 -0.001343 0.018368 -0.001293
# 6 -0.001777 -0.006446 0.000990 -0.001105 -0.001293 0.022687
#
#
# Mechanical properties :
#
#
# Convention : Reuss Voigt Hill
#
# Bulk Modulus (GPa) = 48.77688 69.78467 59.28078
# Shear Modulus (GPa) = 44.84277 54.25910 49.55094
#
# Velocity S-wave (km/s) = 4.01064 4.41168 4.21593
# Velocity P-wave (km/s) = 6.24046 7.14020 6.70544
#
# Compressibility (1/GPa) = 0.02050151
#
# Stress axis : x y z
#
# Youngs Moduli (GPa) = 112.35013 65.05363 121.06407
#
# Poissons Ratio (x) = -0.00363 0.32598
# Poissons Ratio (y) = -0.00627 0.40905
# Poissons Ratio (z) = 0.30252 0.21980
#
# Static dielectric constant tensor:
#      x y z
#    x 2.494140 0.016470 0.039230 
#    y 0.016470 2.198690 0.019070 
#    z 0.039230 0.019070 2.080090 
# 
# From -- ./inp_files/482782.got.cif
#   From: 2010.05.17/outbox.cif.g08.bks.cpg/sg2_242_cif.got.tgz:482782.got - 2010.06.03 11:33:40.
