data_PCOD9038639
_publ_section_title
;
Structure prediction by ZEFSAII (Michael W. Deem and Ramdas Pophale) SiO2 
 PCOD9038639
Probable space group: P -1
;
_chemical_formula_sum "Si O2"
_cell_formula_units_Z 15
_cell_length_a 10.876738
_cell_length_b 15.875911
_cell_length_c 11.570474
_cell_angle_alpha 39.081475
_cell_angle_beta 60.425327
_cell_angle_gamma 31.866238
_cell_volume 576.705673
_symmetry_space_group_name_H-M "P -1"
_symmetry_group_IT_number 2
_symmetry_cell_setting 'triclinic'
loop_
_space_group_symop_operation_xyz
x,y,z
-x,-y,-z
loop_
_atom_site_type_symbol
_atom_site_label
_atom_site_fract_x
_atom_site_fract_y
_atom_site_fract_z
Si Si1 0.500000 0.500000 0.500000
Si Si2 0.908115 0.903464 0.319068
Si Si3 0.756064 0.744998 0.272881
Si Si4 0.280775 0.964263 0.348192
Si Si5 0.896323 0.440853 0.895212
Si Si6 0.541433 0.210576 0.944711
Si Si7 0.902000 0.703521 0.714215
Si Si8 0.619998 0.278109 0.246405
O O1 0.593490 0.281275 0.749189
O O2 0.778710 0.344939 0.587805
O O3 0.827496 0.824759 0.493919
O O4 0.863992 0.031236 0.316994
O O5 0.709459 0.108524 0.091985
O O6 0.000000 0.500000 0.500000
O O7 0.875868 0.674704 0.165950
O O8 0.528779 0.816013 0.316401
O O9 0.641826 0.981131 0.111908
O O10 0.247185 0.097146 0.327944
O O11 0.307731 0.796893 0.571998
O O12 0.013796 0.209383 0.138933
O O13 0.632877 0.620365 0.755287
O O14 0.838006 0.599170 0.849316
O O15 0.219884 0.471979 0.828387
O O16 0.500000 0.500000 0.000000
#
# Coordination Sequence:
#
# PCOD9038639 Si02
#       8
#     1   2   2   2   2   2   2   2
#     4  10  24  44  66 100 132 188 226 276 342 402
#     4  10  23  43  71  97 136 176 232 285 334 406
#     4  12  25  42  67 106 142 180 224 283 355 406
#     4  11  24  44  71 101 137 174 234 286 344 413
#     4  12  24  43  70 101 140 181 223 287 353 400
#     4  11  23  44  68 102 142 175 237 283 341 417
#     4  10  23  41  72 106 130 176 231 286 345 403
#     4  11  27  46  65  99 136 182 233 280 342 421
#
# _framework density 26.009803000000002
#
# number of rings (size 3 to 8) (size 9 to 14) (size 15 to 20)
#    0.000    1.067    2.667    2.800    3.733    1.600 
#    2.400    0.000    0.000    0.000    0.000    0.000 
#    0.000    0.000    0.000    0.000    0.000    0.000 
#
# Total GULP energy -83746.620728 kJ/mol
# GULP energy per Si atom -5583.108049 kJ/mol
# Density = 2.595060 g / cm^3
# Si number density = 26.009803 Si / 1000 Ang^3
#
#
#
# Elastic Constant Matrix: (Units=GPa)
#
#
# Indices 1 2 3 4 5 6 
#
# 1 42.2955 23.1137 23.0872 1.2949 1.1454 -11.3734
# 2 23.1137 70.8650 25.9119 -0.9715 -5.7308 -1.9638
# 3 23.0872 25.9119 234.7838 1.5662 -2.4993 -11.9765
# 4 1.2949 -0.9715 1.5662 38.9766 -11.2986 3.1707
# 5 1.1454 -5.7308 -2.4993 -11.2986 57.6609 -10.5111
# 6 -11.3734 -1.9638 -11.9765 3.1707 -10.5111 26.7908
#
#
#
# Elastic Compliance Matrix: (Units=1/GPa)
#
#
# Indices 1 2 3 4 5 6 
#
# 1 0.033569 -0.010048 -0.001501 -0.002315 0.000223 0.013205
# 2 -0.010048 0.017877 -0.001129 0.001557 0.001689 -0.002982
# 3 -0.001501 -0.001129 0.004613 -0.000183 0.000356 0.001504
# 4 -0.002315 0.001557 -0.000183 0.027457 0.005178 -0.002169
# 5 0.000223 0.001689 0.000356 0.005178 0.019918 0.007579
# 6 0.013205 -0.002982 0.001504 -0.002169 0.007579 0.046616
#
#
# Mechanical properties :
#
#
# Convention : Reuss Voigt Hill
#
# Bulk Modulus (GPa) = 32.57019 54.68552 43.62786
# Shear Modulus (GPa) = 26.93378 43.07442 35.00410
#
# Velocity S-wave (km/s) = 3.22145 4.07392 3.67250
# Velocity P-wave (km/s) = 5.13677 6.57265 5.89856
#
# Compressibility (1/GPa) = 0.03070292
#
# Stress axis : x y z
#
# Youngs Moduli (GPa) = 29.78928 55.93790 216.77125
#
# Poissons Ratio (x) = 0.56207 0.32529
# Poissons Ratio (y) = 0.29933 0.24483
# Poissons Ratio (z) = 0.04470 0.06318
#
# Static dielectric constant tensor:
#      x y z
#    x 2.048870 0.045160 -0.055150 
#    y 0.045160 2.053920 0.035310 
#    z -0.055150 0.035310 2.071560 
# 
# From -- ./inp_files/436504.got.cif
#   From: 2010.05.17/outbox.cif.g08.bks.cpg/sg2_219_cif.got.tgz:436504.got - 2010.06.03 11:33:40.
