data_PCOD9038308
_publ_section_title
;
Structure prediction by ZEFSAII (Michael W. Deem and Ramdas Pophale) SiO2 
 PCOD9038308
Probable space group: P -1
;
_chemical_formula_sum "Si O2"
_cell_formula_units_Z 16
_cell_length_a 7.924520
_cell_length_b 14.265126
_cell_length_c 26.082960
_cell_angle_alpha 20.135166
_cell_angle_beta 136.976408
_cell_angle_gamma 126.235725
_cell_volume 632.979806
_symmetry_space_group_name_H-M "P -1"
_symmetry_group_IT_number 2
_symmetry_cell_setting 'triclinic'
loop_
_space_group_symop_operation_xyz
x,y,z
-x,-y,-z
loop_
_atom_site_type_symbol
_atom_site_label
_atom_site_fract_x
_atom_site_fract_y
_atom_site_fract_z
Si Si1 0.692268 0.200069 0.845925
Si Si2 0.945045 0.614199 0.722785
Si Si3 0.923020 0.123504 0.636928
Si Si4 0.224570 0.736160 0.627817
Si Si5 0.187020 0.395723 0.145856
Si Si6 0.249627 0.307469 0.760563
Si Si7 0.139888 0.986799 0.202171
Si Si8 0.528006 0.971490 0.831132
O O1 0.541634 0.088331 0.913838
O O2 0.718516 0.485175 0.730509
O O3 0.545654 0.201340 0.759381
O O4 0.000000 0.000000 0.000000
O O5 0.003642 0.707504 0.631335
O O6 0.222569 0.344386 0.940313
O O7 0.861264 0.914986 0.582145
O O8 0.849412 0.452518 0.431504
O O9 0.845523 0.113426 0.684251
O O10 0.244519 0.954392 0.785839
O O11 0.794085 0.934748 0.673122
O O12 0.509814 0.627510 0.776991
O O13 0.255179 0.518833 0.699209
O O14 0.000000 0.500000 0.000000
O O15 0.033505 0.655428 0.018737
O O16 0.033941 0.161293 0.790431
O O17 0.416375 0.927330 0.264446
#
# Coordination Sequence:
#
# PCOD9038308 Si02
#       8
#     2   2   2   2   2   2   2   2
#     4  10  23  41  68 102 145 185 239 307 359 431
#     4  10  23  46  66 110 146 187 246 305 364 439
#     4  11  25  49  72 106 150 195 245 307 362 436
#     4  11  25  44  75 103 149 191 242 304 371 436
#     4  10  24  45  72 104 139 192 240 296 367 435
#     4  12  26  46  74 108 149 193 246 303 374 434
#     4  11  25  45  73 108 143 195 247 300 369 433
#     4  11  24  46  75 103 146 193 253 299 366 435
#
# _framework density 25.277267999999999
#
# number of rings (size 3 to 8) (size 9 to 14) (size 15 to 20)
#    0.000    1.250    1.250    3.375    7.000    2.500 
#   11.250    0.000    0.000    0.000    0.000    0.000 
#    0.000    0.000    0.000    0.000    0.000    0.000 
#
# Total GULP energy -89558.044985 kJ/mol
# GULP energy per Si atom -5597.377812 kJ/mol
# Density = 2.521974 g / cm^3
# Si number density = 25.277268 Si / 1000 Ang^3
#
#
#
# Elastic Constant Matrix: (Units=GPa)
#
#
# Indices 1 2 3 4 5 6 
#
# 1 143.8890 51.9844 -1.2698 -16.0207 15.4868 -11.6678
# 2 51.9844 120.2123 33.6310 -28.4853 2.4817 -1.9568
# 3 -1.2698 33.6310 109.1575 -33.4437 10.5646 -13.6747
# 4 -16.0207 -28.4853 -33.4437 35.9606 -0.0314 -1.0113
# 5 15.4868 2.4817 10.5646 -0.0314 27.7634 -4.5888
# 6 -11.6678 -1.9568 -13.6747 -1.0113 -4.5888 32.5190
#
#
#
# Elastic Compliance Matrix: (Units=1/GPa)
#
#
# Indices 1 2 3 4 5 6 
#
# 1 0.010037 -0.004062 0.004090 0.005176 -0.006062 0.004382
# 2 -0.004062 0.011968 -0.002443 0.005363 0.001912 -0.001328
# 3 0.004090 -0.002443 0.016254 0.015212 -0.006967 0.007645
# 4 0.005176 0.005363 0.015212 0.048757 -0.007609 0.009019
# 5 -0.006062 0.001912 -0.006967 -0.007609 0.041987 0.000699
# 6 0.004382 -0.001328 0.007645 0.009019 0.000699 0.035838
#
#
# Mechanical properties :
#
#
# Convention : Reuss Voigt Hill
#
# Bulk Modulus (GPa) = 29.91353 60.21665 45.06509
# Shear Modulus (GPa) = 27.65258 38.50948 33.08103
#
# Velocity S-wave (km/s) = 3.31111 3.90742 3.62156
# Velocity P-wave (km/s) = 5.14566 6.65067 5.94597
#
# Compressibility (1/GPa) = 0.03342969
#
# Stress axis : x y z
#
# Youngs Moduli (GPa) = 99.62743 83.55407 61.52295
#
# Poissons Ratio (x) = 0.33938 -0.25160
# Poissons Ratio (y) = 0.40467 0.15029
# Poissons Ratio (z) = -0.40743 0.20411
#
# Static dielectric constant tensor:
#      x y z
#    x 2.004660 -0.024600 -0.035150 
#    y -0.024600 1.943730 0.055220 
#    z -0.035150 0.055220 2.164040 
# 
# From -- ./inp_files/622616.got.cif
#   From: 2010.05.17/outbox.cif.g08.bks.cpg/sg2_312_cif.got.tgz:622616.got - 2010.06.03 11:33:40.
