data_PCOD9038990
_publ_section_title
;
Structure prediction by ZEFSAII (Michael W. Deem and Ramdas Pophale) SiO2 
 PCOD9038990
Probable space group: P -1
;
_chemical_formula_sum "Si O2"
_cell_formula_units_Z 16
_cell_length_a 12.729078
_cell_length_b 20.299815
_cell_length_c 9.473359
_cell_angle_alpha 31.596747
_cell_angle_beta 48.827188
_cell_angle_gamma 40.976298
_cell_volume 840.193283
_symmetry_space_group_name_H-M "P -1"
_symmetry_group_IT_number 2
_symmetry_cell_setting 'triclinic'
loop_
_space_group_symop_operation_xyz
x,y,z
-x,-y,-z
loop_
_atom_site_type_symbol
_atom_site_label
_atom_site_fract_x
_atom_site_fract_y
_atom_site_fract_z
Si Si1 0.327411 0.562766 0.463558
Si Si2 0.152953 0.597750 0.258096
Si Si3 0.663969 0.929778 0.564826
Si Si4 0.802271 0.651835 0.537809
Si Si5 0.845473 0.128024 0.326109
Si Si6 0.453104 0.926290 0.300285
Si Si7 0.818918 0.600463 0.939298
Si Si8 0.845277 0.102154 0.037992
O O1 0.500000 0.500000 0.500000
O O2 0.279547 0.555250 0.354245
O O3 0.238052 0.736293 0.244245
O O4 0.266523 0.469646 0.770963
O O5 0.188889 0.457226 0.392553
O O6 0.965879 0.664138 0.355123
O O7 0.167466 0.715246 0.931856
O O8 0.762485 0.762886 0.742026
O O9 0.500000 0.000000 0.500000
O O10 0.626718 0.960766 0.706763
O O11 0.740842 0.023765 0.270771
O O12 0.627824 0.794170 0.426727
O O13 0.803694 0.592513 0.800149
O O14 0.681921 0.123090 0.517821
O O15 0.875327 0.106944 0.169449
O O16 0.000000 0.000000 0.500000
O O17 0.500000 0.000000 0.000000
O O18 0.000000 0.500000 0.000000
O O19 0.000000 0.000000 0.000000
#
# Coordination Sequence:
#
# PCOD9038990 Si02
#       8
#     2   2   2   2   2   2   2   2
#     4  11  24  43  65  98 137 169 219 277 336 401
#     4  10  24  44  67  96 134 179 218 285 337 399
#     4  11  23  41  67  95 133 168 222 280 324 390
#     4  11  24  44  67  95 136 175 229 276 337 408
#     4  10  23  43  65  93 134 170 222 275 332 405
#     4  11  25  42  67  98 130 178 227 275 337 402
#     4  12  24  41  68 100 130 178 227 272 337 401
#     4  10  23  42  65  94 129 174 216 271 333 393
#
# _framework density 19.043236
#
# number of rings (size 3 to 8) (size 9 to 14) (size 15 to 20)
#    0.000    1.250    2.500    2.250    7.000    4.500 
#    2.250    0.000    0.000    0.000    0.000    0.000 
#    0.000    0.000    0.000    0.000    0.000    0.000 
#
# Total GULP energy -89172.886490 kJ/mol
# GULP energy per Si atom -5573.305406 kJ/mol
# Density = 1.899989 g / cm^3
# Si number density = 19.043236 Si / 1000 Ang^3
#
#
#
# Elastic Constant Matrix: (Units=GPa)
#
#
# Indices 1 2 3 4 5 6 
#
# 1 125.6837 75.2702 89.0108 -0.5082 -0.9541 -34.0664
# 2 75.2702 167.9925 119.8435 11.4571 -3.9694 -39.5805
# 3 89.0108 119.8435 236.4137 28.9894 -3.8412 -49.7920
# 4 -0.5082 11.4571 28.9894 46.3373 -8.4363 -10.3030
# 5 -0.9541 -3.9694 -3.8412 -8.4363 36.0735 -10.5142
# 6 -34.0664 -39.5805 -49.7920 -10.3030 -10.5142 45.1908
#
#
#
# Elastic Compliance Matrix: (Units=1/GPa)
#
#
# Indices 1 2 3 4 5 6 
#
# 1 0.013294 -0.002739 -0.002831 0.004418 0.002562 0.006107
# 2 -0.002739 0.010694 -0.003620 0.000858 0.002083 0.003993
# 3 -0.002831 -0.003620 0.008212 -0.003509 0.000470 0.003052
# 4 0.004418 0.000858 -0.003509 0.027043 0.008606 0.008384
# 5 0.002562 0.002083 0.000470 0.008606 0.034219 0.014198
# 6 0.006107 0.003993 0.003052 0.008384 0.014198 0.038807
#
#
# Mechanical properties :
#
#
# Convention : Reuss Voigt Hill
#
# Bulk Modulus (GPa) = 72.35892 122.03765 97.19829
# Shear Modulus (GPa) = 32.20490 41.91803 37.06146
#
# Velocity S-wave (km/s) = 4.11682 4.69679 4.41633
# Velocity P-wave (km/s) = 7.78956 9.67661 8.78390
#
# Compressibility (1/GPa) = 0.01382000
#
# Stress axis : x y z
#
# Youngs Moduli (GPa) = 75.22015 93.51100 121.77926
#
# Poissons Ratio (x) = 0.25613 0.34473
# Poissons Ratio (y) = 0.20603 0.44085
# Poissons Ratio (z) = 0.21293 0.33851
#
# Static dielectric constant tensor:
#      x y z
#    x 1.649220 0.020570 -0.039170 
#    y 0.020570 1.608870 -0.011640 
#    z -0.039170 -0.011640 1.602180 
# 
# From -- ./inp_files/279684.got.cif
#   From: 2010.05.17/outbox.cif.g08.bks.cpg/sg2_140_cif.got.tgz:279684.got - 2010.06.03 11:33:40.
