data_PCOD9038756
_publ_section_title
;
Structure prediction by ZEFSAII (Michael W. Deem and Ramdas Pophale) SiO2 
 PCOD9038756
Probable space group: P -1
;
_chemical_formula_sum "Si O2"
_cell_formula_units_Z 14
_cell_length_a 8.314753
_cell_length_b 9.099664
_cell_length_c 12.242093
_cell_angle_alpha 50.218167
_cell_angle_beta 95.196787
_cell_angle_gamma 105.098090
_cell_volume 683.619718
_symmetry_space_group_name_H-M "P -1"
_symmetry_group_IT_number 2
_symmetry_cell_setting 'triclinic'
loop_
_space_group_symop_operation_xyz
x,y,z
-x,-y,-z
loop_
_atom_site_type_symbol
_atom_site_label
_atom_site_fract_x
_atom_site_fract_y
_atom_site_fract_z
Si Si1 0.966588 0.840854 0.480108
Si Si2 0.179744 0.802658 0.325052
Si Si3 0.298014 0.109211 0.715142
Si Si4 0.647166 0.516334 0.603020
Si Si5 0.528390 0.817200 0.842226
Si Si6 0.428994 0.468760 0.830372
Si Si7 0.112631 0.194968 0.856218
O O1 0.879497 0.943803 0.331948
O O2 0.825018 0.648974 0.599884
O O3 0.115323 0.776458 0.458548
O O4 0.000000 0.000000 0.500000
O O5 0.299084 0.668831 0.357374
O O6 0.015516 0.746191 0.264532
O O7 0.286604 0.031392 0.215779
O O8 0.380521 0.327995 0.565476
O O9 0.253867 0.123804 0.830910
O O10 0.402815 0.955849 0.771687
O O11 0.519298 0.485842 0.710251
O O12 0.484725 0.676697 0.800136
O O13 0.512002 0.682352 0.013168
O O14 0.227845 0.376799 0.845945
O O15 0.000000 0.000000 0.000000
#
# Coordination Sequence:
#
# PCOD9038756 Si02
#       7
#     2   2   2   2   2   2   2
#     4   9  20  41  63  95 131 165 204 261 319 371
#     4  11  22  40  70  91 131 162 216 259 311 374
#     4   9  24  42  63  94 131 160 219 254 314 379
#     4  10  23  42  61 100 120 175 203 268 304 385
#     4  11  24  44  63  96 124 174 207 267 309 383
#     4  11  25  42  67  90 132 163 220 254 324 372
#     4  11  23  42  64  97 122 170 208 264 312 379
#
# _framework density 20.479223000000001
#
# number of rings (size 3 to 8) (size 9 to 14) (size 15 to 20)
#    0.857    0.857    1.429    2.143    2.000    5.143 
#    0.000    0.714    0.000    0.000    0.000    0.000 
#    0.000    0.000    0.000    0.000    0.000    0.000 
#
# Total GULP energy -78026.576468 kJ/mol
# GULP energy per Si atom -5573.326891 kJ/mol
# Density = 2.043261 g / cm^3
# Si number density = 20.479223 Si / 1000 Ang^3
#
#
#
# Elastic Constant Matrix: (Units=GPa)
#
#
# Indices 1 2 3 4 5 6 
#
# 1 87.1904 62.4700 39.9183 -3.3363 -11.2365 -10.3517
# 2 62.4700 153.9248 55.7331 -5.6829 -5.7932 4.6753
# 3 39.9183 55.7331 89.1101 1.1531 -26.5622 -13.4749
# 4 -3.3363 -5.6829 1.1531 32.0450 3.8901 -0.8869
# 5 -11.2365 -5.7932 -26.5622 3.8901 37.9909 -3.8729
# 6 -10.3517 4.6753 -13.4749 -0.8869 -3.8729 30.3756
#
#
#
# Elastic Compliance Matrix: (Units=1/GPa)
#
#
# Indices 1 2 3 4 5 6 
#
# 1 0.018649 -0.006994 -0.001732 0.000486 0.003920 0.007178
# 2 -0.006994 0.012296 -0.007932 0.002332 -0.006855 -0.008601
# 3 -0.001732 -0.007932 0.024062 -0.004133 0.016884 0.013337
# 4 0.000486 0.002332 -0.004133 0.032485 -0.005903 -0.001831
# 5 0.003920 -0.006855 0.016884 -0.005903 0.040360 0.014855
# 6 0.007178 -0.008601 0.013337 -0.001831 0.014855 0.044448
#
#
# Mechanical properties :
#
#
# Convention : Reuss Voigt Hill
#
# Bulk Modulus (GPa) = 46.10020 71.82977 58.96499
# Shear Modulus (GPa) = 23.49104 31.55589 27.52346
#
# Velocity S-wave (km/s) = 3.39051 3.92965 3.67000
# Velocity P-wave (km/s) = 6.15524 7.46593 6.84205
#
# Compressibility (1/GPa) = 0.02169188
#
# Stress axis : x y z
#
# Youngs Moduli (GPa) = 53.62123 81.32472 41.55945
#
# Poissons Ratio (x) = 0.56879 0.07199
# Poissons Ratio (y) = 0.37503 0.32963
# Poissons Ratio (z) = 0.09289 0.64503
#
# Static dielectric constant tensor:
#      x y z
#    x 1.806530 0.082070 0.011290 
#    y 0.082070 1.784860 0.028280 
#    z 0.011290 0.028280 1.753350 
# 
# From -- ./inp_files/377982.got.cif
#   From: 2010.05.17/outbox.cif.g08.bks.cpg/sg2_189_cif.got.tgz:377982.got - 2010.06.03 11:33:40.
