data_PCOD9038978
_publ_section_title
;
Structure prediction by ZEFSAII (Michael W. Deem and Ramdas Pophale) SiO2 
 PCOD9038978
Probable space group: P -1
;
_chemical_formula_sum "Si O2"
_cell_formula_units_Z 12
_cell_length_a 8.862553
_cell_length_b 15.788349
_cell_length_c 9.618970
_cell_angle_alpha 78.514651
_cell_angle_beta 88.135970
_cell_angle_gamma 26.982965
_cell_volume 565.780722
_symmetry_space_group_name_H-M "P -1"
_symmetry_group_IT_number 2
_symmetry_cell_setting 'triclinic'
loop_
_space_group_symop_operation_xyz
x,y,z
-x,-y,-z
loop_
_atom_site_type_symbol
_atom_site_label
_atom_site_fract_x
_atom_site_fract_y
_atom_site_fract_z
Si Si1 0.827885 0.148557 0.570155
Si Si2 0.029195 0.934413 0.875065
Si Si3 0.886204 0.295230 0.627880
Si Si4 0.912122 0.805270 0.026428
Si Si5 0.838026 0.507987 0.911111
Si Si6 0.045412 0.559782 0.385431
O O1 0.031712 0.129814 0.616463
O O2 0.460440 0.363759 0.443781
O O3 0.000000 0.000000 0.500000
O O4 0.776104 0.115717 0.717781
O O5 0.419100 0.737710 0.860900
O O6 0.946536 0.876825 0.919925
O O7 0.000000 0.000000 0.000000
O O8 0.500000 0.500000 0.500000
O O9 0.101430 0.273316 0.605840
O O10 0.893040 0.284271 0.799814
O O11 0.074194 0.636602 0.003043
O O12 0.500000 0.000000 0.000000
O O13 0.015343 0.423712 0.780564
O O14 0.000000 0.500000 0.000000
O O15 0.000000 0.500000 0.500000
#
# Coordination Sequence:
#
# PCOD9038978 Si02
#       6
#     2   2   2   2   2   2
#     4  11  22  42  66  94 128 165 223 268 326 392
#     4  12  24  42  69  94 132 179 216 273 334 390
#     4   9  21  41  65  89 128 171 213 264 327 390
#     4  11  24  42  68  98 132 172 222 274 334 395
#     4  11  25  43  64  99 134 169 226 270 324 399
#     4  10  23  42  65  92 130 172 213 269 329 391
#
# _framework density 21.209629
#
# number of rings (size 3 to 8) (size 9 to 14) (size 15 to 20)
#    0.000    1.333    3.333    1.500    7.000    0.000 
#    3.000    0.833    0.000    0.000    0.000    0.000 
#    0.000    0.000    0.000    0.000    0.000    0.000 
#
# Total GULP energy -66909.314034 kJ/mol
# GULP energy per Si atom -5575.776170 kJ/mol
# Density = 2.116135 g / cm^3
# Si number density = 21.209629 Si / 1000 Ang^3
#
#
#
# Elastic Constant Matrix: (Units=GPa)
#
#
# Indices 1 2 3 4 5 6 
#
# 1 158.1418 27.7142 45.4429 22.8990 -2.4738 52.5342
# 2 27.7142 67.0475 6.0428 7.7488 14.3232 26.1568
# 3 45.4429 6.0428 109.3730 5.0879 7.7849 22.5575
# 4 22.8990 7.7488 5.0879 31.5790 2.0494 9.8825
# 5 -2.4738 14.3232 7.7849 2.0494 38.4308 -1.2157
# 6 52.5342 26.1568 22.5575 9.8825 -1.2157 55.7662
#
#
#
# Elastic Compliance Matrix: (Units=1/GPa)
#
#
# Indices 1 2 3 4 5 6 
#
# 1 0.010422 -0.000967 -0.002639 -0.004671 0.001580 -0.007435
# 2 -0.000967 0.020829 0.001886 -0.001161 -0.008449 -0.009600
# 3 -0.002639 0.001886 0.010955 0.000850 -0.003234 -0.003052
# 4 -0.004671 -0.001161 0.000850 0.035897 -0.002012 -0.001805
# 5 0.001580 -0.008449 -0.003234 -0.002012 0.030186 0.004797
# 6 -0.007435 -0.009600 -0.003052 -0.001805 0.004797 0.031098
#
#
# Mechanical properties :
#
#
# Convention : Reuss Voigt Hill
#
# Bulk Modulus (GPa) = 25.79498 54.77355 40.28426
# Shear Modulus (GPa) = 32.10332 42.17937 37.14134
#
# Velocity S-wave (km/s) = 3.89475 4.46431 4.18922
# Velocity P-wave (km/s) = 5.69331 7.24254 6.51414
#
# Compressibility (1/GPa) = 0.03876724
#
# Stress axis : x y z
#
# Youngs Moduli (GPa) = 95.95079 48.01011 91.28162
#
# Poissons Ratio (x) = 0.04644 0.24085
# Poissons Ratio (y) = 0.09282 -0.17220
# Poissons Ratio (z) = 0.25317 -0.09057
#
# Static dielectric constant tensor:
#      x y z
#    x 1.972640 0.063010 0.058180 
#    y 0.063010 1.861300 -0.033210 
#    z 0.058180 -0.033210 1.861490 
# 
# From -- ./inp_files/144905.got.cif
#   From: 2010.05.17/outbox.cif.g08.bks.cpg/sg2_73_cif.got.tgz:144905.got - 2010.06.03 11:33:40.
