data_PCOD9038893
_publ_section_title
;
Structure prediction by ZEFSAII (Michael W. Deem and Ramdas Pophale) SiO2 
 PCOD9038893
Probable space group: P -1
;
_chemical_formula_sum "Si O2"
_cell_formula_units_Z 16
_cell_length_a 15.167588
_cell_length_b 13.239135
_cell_length_c 15.840601
_cell_angle_alpha 39.407861
_cell_angle_beta 29.586917
_cell_angle_gamma 27.533898
_cell_volume 726.002385
_symmetry_space_group_name_H-M "P -1"
_symmetry_group_IT_number 2
_symmetry_cell_setting 'triclinic'
loop_
_space_group_symop_operation_xyz
x,y,z
-x,-y,-z
loop_
_atom_site_type_symbol
_atom_site_label
_atom_site_fract_x
_atom_site_fract_y
_atom_site_fract_z
Si Si1 0.880246 0.032960 0.166845
Si Si2 0.772417 0.600758 0.877033
Si Si3 0.396226 0.450056 0.358593
Si Si4 0.982894 0.378031 0.021466
Si Si5 0.355255 0.657092 0.102318
Si Si6 0.469961 0.972303 0.286037
Si Si7 0.729634 0.835083 0.325360
Si Si8 0.591713 0.370881 0.418660
O O1 0.749895 0.943654 0.315411
O O2 0.108058 0.889008 0.130252
O O3 0.681576 0.277202 0.205536
O O4 0.000000 0.000000 0.000000
O O5 0.993723 0.358948 0.812842
O O6 0.736981 0.800191 0.738561
O O7 0.823130 0.553873 0.964473
O O8 0.527672 0.670286 0.001000
O O9 0.268572 0.589232 0.291073
O O10 0.329499 0.308809 0.512852
O O11 0.397090 0.519716 0.407261
O O12 0.839147 0.312302 0.221486
O O13 0.000000 0.500000 0.000000
O O14 0.264044 0.181394 0.882922
O O15 0.500000 0.500000 0.000000
O O16 0.540810 0.000785 0.301390
O O17 0.396342 0.830141 0.451867
O O18 0.500000 0.500000 0.500000
#
# Coordination Sequence:
#
# PCOD9038893 Si02
#       8
#     2   2   2   2   2   2   2   2
#     4  12  23  39  66  96 132 179 230 268 338 413
#     4  11  23  44  68 100 141 176 235 279 341 426
#     4  11  25  42  66  98 131 180 232 277 348 410
#     4  11  23  45  73  97 135 182 229 296 356 401
#     4  12  23  40  65  96 137 182 219 280 335 406
#     4  10  24  42  70 102 136 185 229 283 349 417
#     4  10  23  42  64  93 143 180 217 284 338 406
#     4  11  23  47  71  96 139 179 230 291 351 409
#
# _framework density 22.038495000000001
#
# number of rings (size 3 to 8) (size 9 to 14) (size 15 to 20)
#    0.000    1.000    5.000    1.125    3.500    3.000 
#    0.000    0.625    0.000    0.000    0.000    0.000 
#    0.000    0.000    0.000    0.000    0.000    0.000 
#
# Total GULP energy -89281.818463 kJ/mol
# GULP energy per Si atom -5580.113654 kJ/mol
# Density = 2.198833 g / cm^3
# Si number density = 22.038495 Si / 1000 Ang^3
#
#
#
# Elastic Constant Matrix: (Units=GPa)
#
#
# Indices 1 2 3 4 5 6 
#
# 1 137.1398 33.2685 25.9139 -9.2516 6.1176 -9.3776
# 2 33.2685 69.2224 1.4534 -15.6853 5.9248 -24.6250
# 3 25.9139 1.4534 93.6709 -15.2379 -8.3962 -4.1872
# 4 -9.2516 -15.6853 -15.2379 28.5371 -3.0706 2.4448
# 5 6.1176 5.9248 -8.3962 -3.0706 40.8047 -8.5171
# 6 -9.3776 -24.6250 -4.1872 2.4448 -8.5171 33.7452
#
#
#
# Elastic Compliance Matrix: (Units=1/GPa)
#
#
# Indices 1 2 3 4 5 6 
#
# 1 0.008914 -0.005089 -0.002861 -0.001453 -0.001695 -0.001914
# 2 -0.005089 0.025989 0.004254 0.013666 0.002597 0.017744
# 3 -0.002861 0.004254 0.013369 0.008617 0.004126 0.004385
# 4 -0.001453 0.013666 0.008617 0.046517 0.005304 0.008606
# 5 -0.001695 0.002597 0.004126 0.005304 0.027399 0.008467
# 6 -0.001914 0.017744 0.004385 0.008606 0.008467 0.044108
#
#
# Mechanical properties :
#
#
# Convention : Reuss Voigt Hill
#
# Bulk Modulus (GPa) = 24.46253 46.81165 35.63709
# Shear Modulus (GPa) = 26.69306 36.57725 31.63515
#
# Velocity S-wave (km/s) = 3.48401 4.07836 3.79284
# Velocity P-wave (km/s) = 5.22575 6.59275 5.94864
#
# Compressibility (1/GPa) = 0.04087884
#
# Stress axis : x y z
#
# Youngs Moduli (GPa) = 112.18759 38.47758 74.80118
#
# Poissons Ratio (x) = 0.19581 0.21400
# Poissons Ratio (y) = 0.57093 -0.31817
# Poissons Ratio (z) = 0.32096 -0.16367
#
# Static dielectric constant tensor:
#      x y z
#    x 1.904860 -0.073970 0.013460 
#    y -0.073970 1.832710 -0.008940 
#    z 0.013460 -0.008940 1.996760 
# 
# From -- ./inp_files/533669.got.cif
#   From: 2010.05.17/outbox.cif.g08.bks.cpg/sg2_267_cif.got.tgz:533669.got - 2010.06.03 11:33:40.
