data_PCOD9038939
_publ_section_title
;
Structure prediction by ZEFSAII (Michael W. Deem and Ramdas Pophale) SiO2 
 PCOD9038939
Probable space group: P -1
;
_chemical_formula_sum "Si O2"
_cell_formula_units_Z 14
_cell_length_a 8.223455
_cell_length_b 19.335908
_cell_length_c 11.945754
_cell_angle_alpha 26.775364
_cell_angle_beta 50.697223
_cell_angle_gamma 43.368302
_cell_volume 586.849414
_symmetry_space_group_name_H-M "P -1"
_symmetry_group_IT_number 2
_symmetry_cell_setting 'triclinic'
loop_
_space_group_symop_operation_xyz
x,y,z
-x,-y,-z
loop_
_atom_site_type_symbol
_atom_site_label
_atom_site_fract_x
_atom_site_fract_y
_atom_site_fract_z
Si Si1 0.329807 0.052262 0.309702
Si Si2 0.239044 0.905796 0.967142
Si Si3 0.472434 0.145231 0.714663
Si Si4 0.053181 0.655505 0.286070
Si Si5 0.553798 0.371013 0.533682
Si Si6 0.735925 0.195578 0.138196
Si Si7 0.217576 0.407847 0.955812
O O1 0.358606 0.958826 0.312101
O O2 0.233938 0.955703 0.575399
O O3 0.608538 0.003662 0.275905
O O4 0.209261 0.256510 0.101092
O O5 0.405601 0.760270 0.192744
O O6 0.155778 0.854713 0.962451
O O7 0.000000 0.000000 0.000000
O O8 0.550154 0.273344 0.560980
O O9 0.186615 0.234532 0.693418
O O10 0.500000 0.000000 0.000000
O O11 0.303853 0.542116 0.405078
O O12 0.000000 0.500000 0.500000
O O13 0.113920 0.701682 0.063079
O O14 0.745227 0.442650 0.339231
O O15 0.457687 0.309960 0.068803
O O16 0.000000 0.500000 0.000000
#
# Coordination Sequence:
#
# PCOD9038939 Si02
#       7
#     2   2   2   2   2   2   2
#     4  11  24  43  67 101 138 176 227 280 344 408
#     4  11  22  38  71  99 133 181 228 282 331 407
#     4  11  22  45  71 100 134 180 232 278 336 416
#     4   9  21  44  69  96 137 180 223 286 334 405
#     4  10  23  43  70 100 135 178 236 277 342 398
#     4  10  23  42  65  99 140 173 226 278 343 403
#     4  10  23  42  64  99 139 177 222 286 338 400
#
# _framework density 23.856204000000002
#
# number of rings (size 3 to 8) (size 9 to 14) (size 15 to 20)
#    0.000    1.714    1.429    2.571    4.000    5.143 
#    5.143    9.286    0.000    0.000    0.000    0.000 
#    0.000    0.000    0.000    0.000    0.000    0.000 
#
# Total GULP energy -77937.999384 kJ/mol
# GULP energy per Si atom -5566.999956 kJ/mol
# Density = 2.380191 g / cm^3
# Si number density = 23.856204 Si / 1000 Ang^3
#
#
#
# Elastic Constant Matrix: (Units=GPa)
#
#
# Indices 1 2 3 4 5 6 
#
# 1 52.1123 42.8519 26.5531 -1.0929 -10.1082 12.1011
# 2 42.8519 202.3576 57.6141 13.6632 -1.7566 8.1761
# 3 26.5531 57.6141 157.2659 24.3091 -24.7360 0.2192
# 4 -1.0929 13.6632 24.3091 27.4026 1.1386 -9.5257
# 5 -10.1082 -1.7566 -24.7360 1.1386 31.0360 0.8937
# 6 12.1011 8.1761 0.2192 -9.5257 0.8937 40.6771
#
#
#
# Elastic Compliance Matrix: (Units=1/GPa)
#
#
# Indices 1 2 3 4 5 6 
#
# 1 0.027385 -0.005070 -0.002097 0.002896 0.007045 -0.006593
# 2 -0.005070 0.006608 -0.001649 -0.002008 -0.002511 -0.000226
# 3 -0.002097 -0.001649 0.009840 -0.008755 0.007425 -0.001311
# 4 0.002896 -0.002008 -0.008755 0.049686 -0.008299 0.011407
# 5 0.007045 -0.002511 0.007425 -0.008299 0.040724 -0.004469
# 6 -0.006593 -0.000226 -0.001311 0.011407 -0.004469 0.029367
#
#
# Mechanical properties :
#
#
# Convention : Reuss Voigt Hill
#
# Bulk Modulus (GPa) = 38.16656 73.97489 56.07072
# Shear Modulus (GPa) = 26.31922 38.80425 32.56174
#
# Velocity S-wave (km/s) = 3.32512 4.03748 3.69849
# Velocity P-wave (km/s) = 5.54754 7.26711 6.46475
#
# Compressibility (1/GPa) = 0.02620095
#
# Stress axis : x y z
#
# Youngs Moduli (GPa) = 36.51634 151.33522 101.62938
#
# Poissons Ratio (x) = 0.76729 0.21308
# Poissons Ratio (y) = 0.18514 0.16758
# Poissons Ratio (z) = 0.07656 0.24955
#
# Static dielectric constant tensor:
#      x y z
#    x 0.713000 0.324410 0.778110 
#    y 0.324410 1.986460 -0.290650 
#    z 0.778110 -0.290650 1.566790 
# 
# From -- ./inp_files/405239.got.cif
#   From: 2010.05.17/outbox.cif.g08.bks.cpg/sg2_203_cif.got.tgz:405239.got - 2010.06.03 11:33:40.
