data_PCOD9038744
_publ_section_title
;
Structure prediction by ZEFSAII (Michael W. Deem and Ramdas Pophale) SiO2 
 PCOD9038744
Probable space group: P -1
;
_chemical_formula_sum "Si O2"
_cell_formula_units_Z 12
_cell_length_a 16.096984
_cell_length_b 6.632159
_cell_length_c 7.335139
_cell_angle_alpha 59.091737
_cell_angle_beta 101.039859
_cell_angle_gamma 132.455220
_cell_volume 480.578129
_symmetry_space_group_name_H-M "P -1"
_symmetry_group_IT_number 2
_symmetry_cell_setting 'triclinic'
loop_
_space_group_symop_operation_xyz
x,y,z
-x,-y,-z
loop_
_atom_site_type_symbol
_atom_site_label
_atom_site_fract_x
_atom_site_fract_y
_atom_site_fract_z
Si Si1 0.319992 0.611512 0.049821
Si Si2 0.669969 0.528039 0.277612
Si Si3 0.220575 0.576945 0.374795
Si Si4 0.086683 0.957632 0.801454
Si Si5 0.942776 0.374252 0.730088
Si Si6 0.490957 0.384412 0.754624
O O1 0.220714 0.470750 0.221680
O O2 0.389972 0.511932 0.186087
O O3 0.292078 0.523201 0.868597
O O4 0.400501 0.997039 0.915817
O O5 0.665152 0.311684 0.529003
O O6 0.560500 0.486454 0.223388
O O7 0.780117 0.890713 0.225848
O O8 0.191275 0.794134 0.262700
O O9 0.116230 0.270416 0.594933
O O10 0.004549 0.670535 0.759766
O O11 0.049554 0.847300 0.044778
O O12 0.000000 0.500000 0.500000
O O13 0.500000 0.500000 0.500000
#
# Coordination Sequence:
#
# PCOD9038744 Si02
#       6
#     2   2   2   2   2   2
#     4  11  24  42  68  91 132 171 207 267 321 372
#     4  10  23  42  65  97 127 172 209 260 322 375
#     4  10  23  42  60  92 128 161 215 261 310 381
#     4   9  23  41  59  95 126 157 220 258 304 388
#     4  11  23  40  66  92 125 172 210 265 321 369
#     4  11  22  45  66  97 131 163 217 264 309 391
#
# _framework density 24.969926999999998
#
# number of rings (size 3 to 8) (size 9 to 14) (size 15 to 20)
#    1.000    0.667    1.667    2.000    2.333    5.333 
#    6.000    0.000    0.000    0.000    0.000    0.000 
#    0.000    0.000    0.000    0.000    0.000    0.000 
#
# Total GULP energy -66942.543774 kJ/mol
# GULP energy per Si atom -5578.545314 kJ/mol
# Density = 2.491309 g / cm^3
# Si number density = 24.969927 Si / 1000 Ang^3
#
#
#
# Elastic Constant Matrix: (Units=GPa)
#
#
# Indices 1 2 3 4 5 6 
#
# 1 123.7452 24.4833 40.0102 8.5016 2.1020 -29.8036
# 2 24.4833 56.9816 18.8854 -2.0136 2.6717 0.3173
# 3 40.0102 18.8854 180.6444 10.0040 -12.8362 -25.5712
# 4 8.5016 -2.0136 10.0040 34.7696 -9.6310 -7.2919
# 5 2.1020 2.6717 -12.8362 -9.6310 37.4681 -0.3979
# 6 -29.8036 0.3173 -25.5712 -7.2919 -0.3979 25.2367
#
#
#
# Elastic Compliance Matrix: (Units=1/GPa)
#
#
# Indices 1 2 3 4 5 6 
#
# 1 0.012877 -0.005567 -0.000146 -0.000365 -0.000310 0.015020
# 2 -0.005567 0.020912 -0.002418 0.000842 -0.001887 -0.009074
# 3 -0.000146 -0.002418 0.007000 0.000096 0.002678 0.007020
# 4 -0.000365 0.000842 0.000096 0.033233 0.008635 0.009394
# 5 -0.000310 -0.001887 0.002678 0.008635 0.030035 0.005340
# 6 0.015020 -0.009074 0.007020 0.009394 0.005340 0.067389
#
#
# Mechanical properties :
#
#
# Convention : Reuss Voigt Hill
#
# Bulk Modulus (GPa) = 40.77196 58.68097 49.72647
# Shear Modulus (GPa) = 25.52536 38.02769 31.77652
#
# Velocity S-wave (km/s) = 3.20072 3.90672 3.57121
# Velocity P-wave (km/s) = 5.47936 6.62583 6.07968
#
# Compressibility (1/GPa) = 0.02452666
#
# Stress axis : x y z
#
# Youngs Moduli (GPa) = 77.65506 47.82008 142.86439
#
# Poissons Ratio (x) = 0.26620 0.02084
# Poissons Ratio (y) = 0.43228 0.34551
# Poissons Ratio (z) = 0.01133 0.11565
#
# Static dielectric constant tensor:
#      x y z
#    x 2.024640 0.016700 0.012330 
#    y 0.016700 1.950040 -0.029090 
#    z 0.012330 -0.029090 1.996600 
# 
# From -- ./inp_files/102732.got.cif
#   From: 2010.05.17/outbox.cif.g08.bks.cpg/sg2_52_cif.got.tgz:102732.got - 2010.06.03 11:33:40.
