data_PCOD9038916
_publ_section_title
;
Structure prediction by ZEFSAII (Michael W. Deem and Ramdas Pophale) SiO2 
 PCOD9038916
Probable space group: P -1
;
_chemical_formula_sum "Si O2"
_cell_formula_units_Z 16
_cell_length_a 14.200324
_cell_length_b 14.430851
_cell_length_c 11.692564
_cell_angle_alpha 149.381444
_cell_angle_beta 59.001896
_cell_angle_gamma 141.981174
_cell_volume 642.272918
_symmetry_space_group_name_H-M "P -1"
_symmetry_group_IT_number 2
_symmetry_cell_setting 'triclinic'
loop_
_space_group_symop_operation_xyz
x,y,z
-x,-y,-z
loop_
_atom_site_type_symbol
_atom_site_label
_atom_site_fract_x
_atom_site_fract_y
_atom_site_fract_z
Si Si1 0.953753 0.227635 0.257121
Si Si2 0.311913 0.572038 0.524108
Si Si3 0.968019 0.201730 0.956648
Si Si4 0.633500 0.421837 0.894529
Si Si5 0.596382 0.133954 0.797258
Si Si6 0.822004 0.656383 0.386982
Si Si7 0.402289 0.412295 0.131284
Si Si8 0.922373 0.323205 0.742710
O O1 0.000000 0.500000 0.500000
O O2 0.119649 0.347177 0.343610
O O3 0.926371 0.124633 0.034398
O O4 0.773947 0.946807 0.141777
O O5 0.287861 0.542596 0.642502
O O6 0.401950 0.502563 0.350885
O O7 0.444148 0.892046 0.726825
O O8 0.168685 0.393638 0.018271
O O9 0.977202 0.423695 0.147834
O O10 0.849921 0.909624 0.644421
O O11 0.518093 0.124659 0.722819
O O12 0.620804 0.456544 0.806910
O O13 0.574780 0.528365 0.108456
O O14 0.717510 0.120473 0.666660
O O15 0.725305 0.447065 0.114819
O O16 0.011824 0.797631 0.433896
O O17 0.000000 0.500000 0.000000
#
# Coordination Sequence:
#
# PCOD9038916 Si02
#       8
#     2   2   2   2   2   2   2   2
#     4  12  24  43  68  96 130 169 221 276 332 397
#     4  12  23  42  67  94 135 167 222 270 331 392
#     4  11  22  43  69 100 128 176 221 272 331 393
#     4  10  23  42  64  96 134 167 221 265 335 389
#     4  10  24  44  64  98 131 179 217 269 326 391
#     4  11  23  44  70  94 137 175 222 274 325 394
#     4  11  23  43  65 100 128 173 214 278 334 389
#     4   9  22  42  66  99 130 175 223 269 327 389
#
# _framework density 24.911528000000001
#
# number of rings (size 3 to 8) (size 9 to 14) (size 15 to 20)
#    0.000    1.250    2.500    3.000    1.750    5.000 
#    9.000    0.625    0.000    0.000    0.000    0.000 
#    0.000    0.000    0.000    0.000    0.000    0.000 
#
# Total GULP energy -89498.370352 kJ/mol
# GULP energy per Si atom -5593.648147 kJ/mol
# Density = 2.485483 g / cm^3
# Si number density = 24.911528 Si / 1000 Ang^3
#
#
#
# Elastic Constant Matrix: (Units=GPa)
#
#
# Indices 1 2 3 4 5 6 
#
# 1 48.1973 12.1824 4.5830 -0.0303 1.2339 -11.6957
# 2 12.1824 123.1724 6.5727 -2.2155 12.9123 -15.0873
# 3 4.5830 6.5727 82.2258 1.4913 0.2103 1.6046
# 4 -0.0303 -2.2155 1.4913 49.6727 -1.3844 -4.8535
# 5 1.2339 12.9123 0.2103 -1.3844 22.7995 -4.5649
# 6 -11.6957 -15.0873 1.6046 -4.8535 -4.5649 38.2313
#
#
#
# Elastic Compliance Matrix: (Units=1/GPa)
#
#
# Indices 1 2 3 4 5 6 
#
# 1 0.022834 -0.001463 -0.001300 0.000666 0.000980 0.006664
# 2 -0.001463 0.009115 -0.000699 0.000566 -0.004499 0.002713
# 3 -0.001300 -0.000699 0.012324 -0.000522 0.000071 -0.001249
# 4 0.000666 0.000566 -0.000522 0.020533 0.001544 0.003240
# 5 0.000980 -0.004499 0.000071 0.001544 0.047323 0.004368
# 6 0.006664 0.002713 -0.001249 0.003240 0.004368 0.030251
#
#
# Mechanical properties :
#
#
# Convention : Reuss Voigt Hill
#
# Bulk Modulus (GPa) = 26.77561 33.36352 30.06957
# Shear Modulus (GPa) = 30.91116 37.49119 34.20117
#
# Velocity S-wave (km/s) = 3.52637 3.88361 3.70929
# Velocity P-wave (km/s) = 5.22992 5.79066 5.51742
#
# Compressibility (1/GPa) = 0.03734742
#
# Stress axis : x y z
#
# Youngs Moduli (GPa) = 43.79426 109.71052 81.14504
#
# Poissons Ratio (x) = 0.16056 0.10552
# Poissons Ratio (y) = 0.06409 0.05670
# Poissons Ratio (z) = 0.05695 0.07666
#
# Static dielectric constant tensor:
#      x y z
#    x 1.964440 -0.020220 -0.046810 
#    y -0.020220 1.959390 0.059630 
#    z -0.046810 0.059630 2.047670 
# 
# From -- ./inp_files/456005.got.cif
#   From: 2010.05.17/outbox.cif.g08.bks.cpg/sg2_229_cif.got.tgz:456005.got - 2010.06.03 11:33:40.
