data_PCOD9038334
_publ_section_title
;
Structure prediction by ZEFSAII (Michael W. Deem and Ramdas Pophale) SiO2 
 PCOD9038334
Probable space group: P -1
;
_chemical_formula_sum "Si O2"
_cell_formula_units_Z 14
_cell_length_a 15.774037
_cell_length_b 7.600807
_cell_length_c 8.430901
_cell_angle_alpha 128.295926
_cell_angle_beta 127.580095
_cell_angle_gamma 85.862450
_cell_volume 547.467852
_symmetry_space_group_name_H-M "P -1"
_symmetry_group_IT_number 2
_symmetry_cell_setting 'triclinic'
loop_
_space_group_symop_operation_xyz
x,y,z
-x,-y,-z
loop_
_atom_site_type_symbol
_atom_site_label
_atom_site_fract_x
_atom_site_fract_y
_atom_site_fract_z
Si Si1 0.538915 0.340290 0.572734
Si Si2 0.025862 0.770866 0.604881
Si Si3 0.349903 0.773464 0.622132
Si Si4 0.602577 0.590187 0.303260
Si Si5 0.104381 0.532270 0.014609
Si Si6 0.248340 0.110248 0.831603
Si Si7 0.136210 0.046790 0.330415
O O1 0.500000 0.500000 0.500000
O O2 0.564572 0.145189 0.391786
O O3 0.434698 0.239388 0.530117
O O4 0.668524 0.580725 0.911620
O O5 0.978461 0.905414 0.753400
O O6 0.000000 0.500000 0.500000
O O7 0.944121 0.680781 0.297248
O O8 0.163188 0.972020 0.810520
O O9 0.399165 0.633293 0.715755
O O10 0.217242 0.577371 0.281651
O O11 0.333400 0.982677 0.818305
O O12 0.739608 0.723360 0.467613
O O13 0.500000 0.500000 0.000000
O O14 0.131413 0.797042 0.108013
O O15 0.000000 0.500000 0.000000
O O16 0.164289 0.025642 0.534332
#
# Coordination Sequence:
#
# PCOD9038334 Si02
#       7
#     2   2   2   2   2   2   2
#     4  10  23  41  68  94 131 178 224 273 332 395
#     4  12  26  42  70 104 135 177 224 283 338 407
#     4  10  23  43  69  94 135 176 224 277 334 402
#     4  11  23  44  67 100 132 177 230 281 332 393
#     4  11  24  44  66 100 134 179 226 268 343 413
#     4  11  22  43  67 102 129 181 225 268 351 398
#     4  11  24  42  70  95 141 177 219 283 340 397
#
# _framework density 25.572277
#
# number of rings (size 3 to 8) (size 9 to 14) (size 15 to 20)
#    0.000    1.143    4.286    2.143    2.000    5.143 
#    0.000    4.286    0.000    0.000    0.000    0.000 
#    0.000    0.000    0.000    0.000    0.000    0.000 
#
# Total GULP energy -78203.218886 kJ/mol
# GULP energy per Si atom -5585.944206 kJ/mol
# Density = 2.551407 g / cm^3
# Si number density = 25.572277 Si / 1000 Ang^3
#
#
#
# Elastic Constant Matrix: (Units=GPa)
#
#
# Indices 1 2 3 4 5 6 
#
# 1 224.1036 31.7357 22.3911 17.7238 -14.1913 5.4625
# 2 31.7357 89.1083 6.6888 -2.6765 2.0622 0.3032
# 3 22.3911 6.6888 98.5572 -5.6711 -8.1544 -7.7923
# 4 17.7238 -2.6765 -5.6711 41.2756 -8.1822 0.8853
# 5 -14.1913 2.0622 -8.1544 -8.1822 31.8781 2.7920
# 6 5.4625 0.3032 -7.7923 0.8853 2.7920 39.8261
#
#
#
# Elastic Compliance Matrix: (Units=1/GPa)
#
#
# Indices 1 2 3 4 5 6 
#
# 1 0.005130 -0.001843 -0.001102 -0.002124 0.001661 -0.000975
# 2 -0.001843 0.011980 -0.000428 0.001228 -0.001403 0.000149
# 3 -0.001102 -0.000428 0.010961 0.002461 0.002793 0.002048
# 4 -0.002124 0.001228 0.002461 0.026857 0.006523 -0.000291
# 5 0.001661 -0.001403 0.002793 0.006523 0.034786 -0.002254
# 6 -0.000975 0.000149 0.002048 -0.000291 -0.002254 0.025807
#
#
# Mechanical properties :
#
#
# Convention : Reuss Voigt Hill
#
# Bulk Modulus (GPa) = 46.89611 59.26671 53.08141
# Shear Modulus (GPa) = 38.64732 45.99285 42.32009
#
# Velocity S-wave (km/s) = 3.89176 4.24552 4.07248
# Velocity P-wave (km/s) = 6.21070 6.87453 6.55103
#
# Compressibility (1/GPa) = 0.02132373
#
# Stress axis : x y z
#
# Youngs Moduli (GPa) = 194.91999 83.47409 91.23667
#
# Poissons Ratio (x) = 0.15387 0.10056
# Poissons Ratio (y) = 0.35930 0.03904
# Poissons Ratio (z) = 0.21485 0.03572
#
# Static dielectric constant tensor:
#      x y z
#    x 2.337900 0.156900 0.431270 
#    y 0.156900 2.240640 0.364140 
#    z 0.431270 0.364140 2.788480 
# 
# From -- ./inp_files/296978.got.cif
#   From: 2010.05.17/outbox.cif.g08.bks.cpg/sg2_149_cif.got.tgz:296978.got - 2010.06.03 11:33:40.
