data_PCOD9038485
_publ_section_title
;
Structure prediction by ZEFSAII (Michael W. Deem and Ramdas Pophale) SiO2 
 PCOD9038485
Probable space group: P -1
;
_chemical_formula_sum "Si O2"
_cell_formula_units_Z 16
_cell_length_a 8.880970
_cell_length_b 9.396536
_cell_length_c 14.670677
_cell_angle_alpha 66.756449
_cell_angle_beta 85.427739
_cell_angle_gamma 134.743373
_cell_volume 668.427061
_symmetry_space_group_name_H-M "P -1"
_symmetry_group_IT_number 2
_symmetry_cell_setting 'triclinic'
loop_
_space_group_symop_operation_xyz
x,y,z
-x,-y,-z
loop_
_atom_site_type_symbol
_atom_site_label
_atom_site_fract_x
_atom_site_fract_y
_atom_site_fract_z
Si Si1 0.779766 0.115969 0.853089
Si Si2 0.442253 0.299110 0.152355
Si Si3 0.788609 0.360040 0.401479
Si Si4 0.191818 0.300819 0.309957
Si Si5 0.499323 0.153463 0.794628
Si Si6 0.993125 0.160407 0.007976
Si Si7 0.626025 0.722350 0.509509
Si Si8 0.448755 0.992788 0.349180
O O1 0.535641 0.025168 0.883141
O O2 0.961481 0.343218 0.711520
O O3 0.918118 0.217512 0.916109
O O4 0.712717 0.890111 0.878308
O O5 0.325775 0.344947 0.201952
O O6 0.728832 0.566478 0.042030
O O7 0.435145 0.146162 0.260769
O O8 0.579870 0.315444 0.450977
O O9 0.681085 0.192814 0.357912
O O10 0.790470 0.239909 0.514628
O O11 0.276891 0.547121 0.260662
O O12 0.308567 0.309225 0.390476
O O13 0.894912 0.015719 0.391100
O O14 0.515842 0.112289 0.700116
O O15 0.232277 0.013333 0.864736
O O16 0.000000 0.000000 0.000000
O O17 0.500000 0.500000 0.500000
#
# Coordination Sequence:
#
# PCOD9038485 Si02
#       8
#     2   2   2   2   2   2   2   2
#     4  11  26  45  73 104 137 183 235 283 347 420
#     4  11  23  46  71 100 136 187 231 285 353 411
#     4  11  22  43  68 102 144 183 228 279 347 417
#     4  11  23  41  63 100 138 176 232 282 340 407
#     4  11  26  45  68 106 139 180 237 290 343 409
#     4  12  25  50  74  97 143 180 235 298 347 405
#     4  11  23  38  64  98 141 183 227 279 338 412
#     4  10  23  41  70 100 138 186 222 279 349 411
#
# _framework density 23.936793999999999
#
# number of rings (size 3 to 8) (size 9 to 14) (size 15 to 20)
#    0.000    1.000    3.750    1.875    3.500    5.500 
#    4.500    0.000    0.000    0.000    0.000    0.000 
#    0.000    0.000    0.000    0.000    0.000    0.000 
#
# Total GULP energy -89629.905134 kJ/mol
# GULP energy per Si atom -5601.869071 kJ/mol
# Density = 2.388231 g / cm^3
# Si number density = 23.936794 Si / 1000 Ang^3
#
#
#
# Elastic Constant Matrix: (Units=GPa)
#
#
# Indices 1 2 3 4 5 6 
#
# 1 76.7215 30.6038 23.4607 5.9193 -14.2242 -13.6928
# 2 30.6038 178.7380 48.5790 -10.4335 -29.9709 -19.2203
# 3 23.4607 48.5790 95.0148 -5.6543 -12.2285 5.7929
# 4 5.9193 -10.4335 -5.6543 30.0865 0.1249 -6.8200
# 5 -14.2242 -29.9709 -12.2285 0.1249 43.8908 -3.0874
# 6 -13.6928 -19.2203 5.7929 -6.8200 -3.0874 36.0046
#
#
#
# Elastic Compliance Matrix: (Units=1/GPa)
#
#
# Indices 1 2 3 4 5 6 
#
# 1 0.016603 -0.000518 -0.003823 -0.002705 0.004428 0.006520
# 2 -0.000518 0.008359 -0.003658 0.003645 0.004930 0.005967
# 3 -0.003823 -0.003658 0.013681 0.000814 -0.000313 -0.005481
# 4 -0.002705 0.003645 0.000814 0.036988 0.002296 0.007989
# 5 0.004428 0.004930 -0.000313 0.002296 0.027998 0.007202
# 6 0.006520 0.005967 -0.005481 0.007989 0.007202 0.036452
#
#
# Mechanical properties :
#
#
# Convention : Reuss Voigt Hill
#
# Bulk Modulus (GPa) = 44.16071 61.75124 52.95598
# Shear Modulus (GPa) = 30.55686 38.51846 34.53766
#
# Velocity S-wave (km/s) = 3.57678 4.01580 3.80263
# Velocity P-wave (km/s) = 5.96211 6.88156 6.43827
#
# Compressibility (1/GPa) = 0.02264456
#
# Stress axis : x y z
#
# Youngs Moduli (GPa) = 60.22881 119.63392 73.09213
#
# Poissons Ratio (x) = 0.06196 0.27946
# Poissons Ratio (y) = 0.03119 0.26738
# Poissons Ratio (z) = 0.23028 0.43764
#
# Static dielectric constant tensor:
#      x y z
#    x 1.920040 0.002710 0.025690 
#    y 0.002710 1.883690 -0.007600 
#    z 0.025690 -0.007600 1.929090 
# 
# From -- ./inp_files/494669.got.cif
#   From: 2010.05.17/outbox.cif.g08.bks.cpg/sg2_248_cif.got.tgz:494669.got - 2010.06.03 11:33:40.
