data_PCOD9038001
_publ_section_title
;
Structure prediction by ZEFSAII (Michael W. Deem and Ramdas Pophale) SiO2 
 PCOD9038001
Probable space group: P -1
;
_chemical_formula_sum "Si O2"
_cell_formula_units_Z 12
_cell_length_a 8.813404
_cell_length_b 8.815842
_cell_length_c 11.358181
_cell_angle_alpha 37.649347
_cell_angle_beta 102.200939
_cell_angle_gamma 104.603812
_cell_volume 521.539002
_symmetry_space_group_name_H-M "P -1"
_symmetry_group_IT_number 2
_symmetry_cell_setting 'triclinic'
loop_
_space_group_symop_operation_xyz
x,y,z
-x,-y,-z
loop_
_atom_site_type_symbol
_atom_site_label
_atom_site_fract_x
_atom_site_fract_y
_atom_site_fract_z
Si Si1 0.728876 0.565782 0.928667
Si Si2 0.153648 0.695060 0.372734
Si Si3 0.814340 0.548133 0.700519
Si Si4 0.567789 0.026336 0.627274
Si Si5 0.748701 0.014970 0.299219
Si Si6 0.994415 0.157507 0.071167
O O1 0.704572 0.510768 0.820004
O O2 0.612038 0.752041 0.838002
O O3 0.900262 0.728273 0.871660
O O4 0.741771 0.304059 0.154380
O O5 0.243699 0.575845 0.356206
O O6 0.000000 0.500000 0.500000
O O7 0.273472 0.781001 0.445534
O O8 0.090077 0.950000 0.161961
O O9 0.844254 0.844195 0.499827
O O10 0.958587 0.396230 0.845407
O O11 0.500000 0.000000 0.500000
O O12 0.432018 0.099751 0.643884
O O13 0.830602 0.024633 0.179651
#
# Coordination Sequence:
#
# PCOD9038001 Si02
#       6
#     2   2   2   2   2   2
#     4  10  23  41  65  96 131 171 220 261 318 392
#     4  11  24  44  66  96 132 173 217 265 322 386
#     4  11  21  39  67  93 130 163 217 265 325 370
#     4  11  24  44  66  96 132 173 217 265 322 386
#     4  11  21  39  67  93 130 163 217 265 325 370
#     4  10  23  41  65  96 131 171 220 261 318 392
#
# _framework density 23.008828000000001
#
# number of rings (size 3 to 8) (size 9 to 14) (size 15 to 20)
#    0.000    1.333    3.333    3.000    0.000    6.000 
#    0.000    5.000    0.000    0.000    0.000    0.000 
#    0.000    0.000    0.000    0.000    0.000    0.000 
#
# Total GULP energy -66884.187907 kJ/mol
# GULP energy per Si atom -5573.682326 kJ/mol
# Density = 2.295646 g / cm^3
# Si number density = 23.008828 Si / 1000 Ang^3
#
#
#
# Elastic Constant Matrix: (Units=GPa)
#
#
# Indices 1 2 3 4 5 6 
#
# 1 82.2073 59.9951 27.0106 -12.9136 9.0835 -6.3242
# 2 59.9951 88.4084 33.2142 1.1876 11.9491 12.7540
# 3 27.0106 33.2142 155.7929 -22.8159 25.4912 1.4797
# 4 -12.9136 1.1876 -22.8159 29.4639 -8.5022 5.9335
# 5 9.0835 11.9491 25.4912 -8.5022 31.1952 -10.7178
# 6 -6.3242 12.7540 1.4797 5.9335 -10.7178 38.3490
#
#
#
# Elastic Compliance Matrix: (Units=1/GPa)
#
#
# Indices 1 2 3 4 5 6 
#
# 1 0.034651 -0.027384 0.000532 0.016460 0.009582 0.014932
# 2 -0.027384 0.035550 -0.002747 -0.016000 -0.013812 -0.017618
# 3 0.000532 -0.002747 0.008628 0.005884 -0.005125 -0.001674
# 4 0.016460 -0.016000 0.005884 0.048856 0.010984 0.003319
# 5 0.009582 -0.013812 -0.005125 0.010984 0.047948 0.018072
# 6 0.014932 -0.017618 -0.001674 0.003319 0.018072 0.039000
#
#
# Mechanical properties :
#
#
# Convention : Reuss Voigt Hill
#
# Bulk Modulus (GPa) = 50.94513 62.98317 56.96415
# Shear Modulus (GPa) = 17.83319 33.54754 25.69037
#
# Velocity S-wave (km/s) = 2.78701 3.82256 3.34510
# Velocity P-wave (km/s) = 5.70493 6.84949 6.30324
#
# Compressibility (1/GPa) = 0.01962896
#
# Stress axis : x y z
#
# Youngs Moduli (GPa) = 28.85950 28.12931 115.89637
#
# Poissons Ratio (x) = 0.77031 -0.06161
# Poissons Ratio (y) = 0.79030 0.31839
# Poissons Ratio (z) = -0.01534 0.07728
#
# Static dielectric constant tensor:
#      x y z
#    x 1.890950 0.001070 -0.007650 
#    y 0.001070 1.890480 0.004190 
#    z -0.007650 0.004190 1.912230 
# 
# From -- ./inp_files/188596.got.cif
#   From: 2010.05.17/outbox.cif.g08.bks.cpg/sg2_95_cif.got.tgz:188596.got - 2010.06.03 11:33:40.
