data_PCOD9038249
_publ_section_title
;
Structure prediction by ZEFSAII (Michael W. Deem and Ramdas Pophale) SiO2 
 PCOD9038249
Probable space group: P -1
;
_chemical_formula_sum "Si O2"
_cell_formula_units_Z 13
_cell_length_a 8.256293
_cell_length_b 8.001142
_cell_length_c 13.149942
_cell_angle_alpha 44.315655
_cell_angle_beta 124.075631
_cell_angle_gamma 129.088743
_cell_volume 461.394048
_symmetry_space_group_name_H-M "P -1"
_symmetry_group_IT_number 2
_symmetry_cell_setting 'triclinic'
loop_
_space_group_symop_operation_xyz
x,y,z
-x,-y,-z
loop_
_atom_site_type_symbol
_atom_site_label
_atom_site_fract_x
_atom_site_fract_y
_atom_site_fract_z
Si Si1 0.587316 0.756170 0.583050
Si Si2 0.500000 0.500000 0.500000
Si Si3 0.790161 0.375813 0.832870
Si Si4 0.212731 0.470268 0.712264
Si Si5 0.749160 0.407124 0.037097
Si Si6 0.043804 0.211366 0.552307
Si Si7 0.699298 0.844461 0.934464
O O1 0.436929 0.722127 0.449203
O O2 0.624555 0.487616 0.677782
O O3 0.436114 0.695258 0.653457
O O4 0.823569 0.957265 0.592931
O O5 0.258102 0.245723 0.555980
O O6 0.027249 0.583188 0.849615
O O7 0.707407 0.305147 0.951205
O O8 0.800779 0.142963 0.872268
O O9 0.116073 0.292783 0.657505
O O10 0.255026 0.306215 0.887125
O O11 0.048461 0.600056 0.619869
O O12 0.765170 0.706239 0.924049
O O13 0.554000 0.241094 0.111555
#
# Coordination Sequence:
#
# PCOD9038249 Si02
#       7
#     2   1   2   2   2   2   2
#     4  11  23  43  66  98 135 179 224 281 348 405
#     4  10  24  44  66 100 122 174 234 280 342 398
#     4  11  24  42  68  98 139 182 220 285 338 404
#     4  10  23  41  67  96 135 181 225 280 344 398
#     4  10  24  41  64 101 132 184 230 268 350 390
#     4  10  23  44  67  96 132 175 231 283 341 412
#     4  11  23  44  65 101 138 177 233 277 331 417
#
# _framework density 28.17548
#
# number of rings (size 3 to 8) (size 9 to 14) (size 15 to 20)
#    0.000    1.538    1.538    1.846    6.462    1.231 
#    5.538    0.000    0.000    0.000    0.000    0.000 
#    0.000    0.000    0.000    0.000    0.000    0.000 
#
# Total GULP energy -72645.836709 kJ/mol
# GULP energy per Si atom -5588.141285 kJ/mol
# Density = 2.811135 g / cm^3
# Si number density = 28.175480 Si / 1000 Ang^3
#
#
#
# Elastic Constant Matrix: (Units=GPa)
#
#
# Indices 1 2 3 4 5 6 
#
# 1 130.7111 37.7039 32.2008 -5.1271 3.8750 34.8712
# 2 37.7039 156.7573 36.1223 3.9518 -10.6441 29.4844
# 3 32.2008 36.1223 97.6072 20.0461 0.3195 8.9212
# 4 -5.1271 3.9518 20.0461 36.4663 0.9216 -5.1341
# 5 3.8750 -10.6441 0.3195 0.9216 35.9152 8.2453
# 6 34.8712 29.4844 8.9212 -5.1341 8.2453 66.1446
#
#
#
# Elastic Compliance Matrix: (Units=1/GPa)
#
#
# Indices 1 2 3 4 5 6 
#
# 1 0.009903 -0.001004 -0.003057 0.002616 -0.000465 -0.004100
# 2 -0.001004 0.007961 -0.002284 -0.000271 0.003214 -0.003133
# 3 -0.003057 -0.002284 0.013648 -0.007643 -0.000326 0.000236
# 4 0.002616 -0.000271 -0.007643 0.032416 -0.001700 0.002501
# 5 -0.000465 0.003214 -0.000326 -0.001700 0.030045 -0.005021
# 6 -0.004100 -0.003133 0.000236 0.002501 -0.005021 0.019465
#
#
# Mechanical properties :
#
#
# Convention : Reuss Voigt Hill
#
# Bulk Modulus (GPa) = 53.12270 66.34773 59.73522
# Shear Modulus (GPa) = 37.76371 46.30845 42.03608
#
# Velocity S-wave (km/s) = 3.66499 4.05850 3.86675
# Velocity P-wave (km/s) = 6.06669 6.74989 6.41739
#
# Compressibility (1/GPa) = 0.01882434
#
# Stress axis : x y z
#
# Youngs Moduli (GPa) = 100.97674 125.60560 73.27159
#
# Poissons Ratio (x) = 0.12610 0.22396
# Poissons Ratio (y) = 0.10137 0.16733
# Poissons Ratio (z) = 0.30864 0.28684
#
# Static dielectric constant tensor:
#      x y z
#    x 2.170340 -0.062460 -0.042120 
#    y -0.062460 2.344070 -0.034160 
#    z -0.042120 -0.034160 2.342420 
# 
# From -- ./inp_files/168310.got.cif
#   From: 2010.05.17/outbox.cif.g08.bks.cpg/sg2_85_cif.got.tgz:168310.got - 2010.06.03 11:33:40.
