data_PCOD9038215
_publ_section_title
;
Structure prediction by ZEFSAII (Michael W. Deem and Ramdas Pophale) SiO2 
 PCOD9038215
Probable space group: P -1
;
_chemical_formula_sum "Si O2"
_cell_formula_units_Z 12
_cell_length_a 12.064986
_cell_length_b 9.240665
_cell_length_c 9.146278
_cell_angle_alpha 61.830965
_cell_angle_beta 99.467920
_cell_angle_gamma 142.518530
_cell_volume 503.294202
_symmetry_space_group_name_H-M "P -1"
_symmetry_group_IT_number 2
_symmetry_cell_setting 'triclinic'
loop_
_space_group_symop_operation_xyz
x,y,z
-x,-y,-z
loop_
_atom_site_type_symbol
_atom_site_label
_atom_site_fract_x
_atom_site_fract_y
_atom_site_fract_z
Si Si1 0.376218 0.671672 0.260827
Si Si2 0.327791 0.327832 0.216394
Si Si3 0.108959 0.112713 0.657864
Si Si4 0.347995 0.831291 0.682820
Si Si5 0.697049 0.594176 0.144946
Si Si6 0.008234 0.622216 0.798127
O O1 0.427872 0.616944 0.160439
O O2 0.277495 0.421775 0.469899
O O3 0.208216 0.596978 0.207786
O O4 0.544288 0.964359 0.248876
O O5 0.477163 0.363648 0.273802
O O6 0.299573 0.292986 0.052821
O O7 0.102565 0.063880 0.348563
O O8 0.146937 0.174733 0.808586
O O9 0.101453 0.911340 0.719014
O O10 0.280356 0.564622 0.823962
O O11 0.152554 0.704529 0.676709
O O12 0.500000 0.000000 0.500000
O O13 0.000000 0.500000 0.000000
#
# Coordination Sequence:
#
# PCOD9038215 Si02
#       6
#     2   2   2   2   2   2
#     4  11  25  44  70  94 132 179 221 267 328 396
#     4  10  23  41  67  93 128 173 222 264 327 396
#     4  11  23  43  70  93 130 174 221 267 323 395
#     4  12  26  41  66 100 137 168 220 278 331 385
#     4  11  24  41  64  99 131 170 215 274 329 387
#     4  11  26  45  70  98 133 177 223 270 332 397
#
# _framework density 23.842915000000001
#
# number of rings (size 3 to 8) (size 9 to 14) (size 15 to 20)
#    0.000    1.000    1.667    5.500    4.667    8.667 
#    0.000    0.000    0.000    0.000    0.000    0.000 
#    0.000    0.000    0.000    0.000    0.000    0.000 
#
# Total GULP energy -67172.523548 kJ/mol
# GULP energy per Si atom -5597.710296 kJ/mol
# Density = 2.378865 g / cm^3
# Si number density = 23.842915 Si / 1000 Ang^3
#
#
#
# Elastic Constant Matrix: (Units=GPa)
#
#
# Indices 1 2 3 4 5 6 
#
# 1 151.6490 46.4142 10.0327 -5.9534 -3.5768 -0.5899
# 2 46.4142 108.2828 -6.4291 24.0923 7.1773 -4.5442
# 3 10.0327 -6.4291 76.0166 11.0056 4.3776 1.8229
# 4 -5.9534 24.0923 11.0056 39.3323 -1.0316 2.7801
# 5 -3.5768 7.1773 4.3776 -1.0316 37.5239 2.5814
# 6 -0.5899 -4.5442 1.8229 2.7801 2.5814 24.3216
#
#
#
# Elastic Compliance Matrix: (Units=1/GPa)
#
#
# Indices 1 2 3 4 5 6 
#
# 1 0.008629 -0.005260 -0.002464 0.005382 0.002364 -0.001455
# 2 -0.005260 0.014664 0.003710 -0.011218 -0.004328 0.004076
# 3 -0.002464 0.003710 0.014954 -0.006950 -0.002923 0.000617
# 4 0.005382 -0.011218 -0.006950 0.035609 0.004863 -0.006031
# 5 0.002364 -0.004328 -0.002923 0.004863 0.028460 -0.004109
# 6 -0.001455 0.004076 0.000617 -0.006031 -0.004109 0.042921
#
#
# Mechanical properties :
#
#
# Convention : Reuss Voigt Hill
#
# Bulk Modulus (GPa) = 33.09329 48.44266 40.76798
# Shear Modulus (GPa) = 30.61145 39.29759 34.95452
#
# Velocity S-wave (km/s) = 3.58702 4.06419 3.83304
# Velocity P-wave (km/s) = 5.57364 6.51038 6.06014
#
# Compressibility (1/GPa) = 0.03021761
#
# Stress axis : x y z
#
# Youngs Moduli (GPa) = 115.89453 68.19470 66.87297
#
# Poissons Ratio (x) = 0.35871 0.16479
# Poissons Ratio (y) = 0.60962 -0.24810
# Poissons Ratio (z) = 0.28558 -0.25301
#
# Static dielectric constant tensor:
#      x y z
#    x 1.898320 0.023210 -0.082350 
#    y 0.023210 1.865420 -0.031920 
#    z -0.082350 -0.031920 2.016490 
# 
# From -- ./inp_files/151853.got.cif
#   From: 2010.05.17/outbox.cif.g08.bks.cpg/sg2_76_cif.got.tgz:151853.got - 2010.06.03 11:33:40.
