data_PCOD9038408
_publ_section_title
;
Structure prediction by ZEFSAII (Michael W. Deem and Ramdas Pophale) SiO2 
 PCOD9038408
Probable space group: P -1
;
_chemical_formula_sum "Si O2"
_cell_formula_units_Z 14
_cell_length_a 7.942257
_cell_length_b 14.237374
_cell_length_c 8.764278
_cell_angle_alpha 69.311485
_cell_angle_beta 61.386599
_cell_angle_gamma 43.958927
_cell_volume 603.846397
_symmetry_space_group_name_H-M "P -1"
_symmetry_group_IT_number 2
_symmetry_cell_setting 'triclinic'
loop_
_space_group_symop_operation_xyz
x,y,z
-x,-y,-z
loop_
_atom_site_type_symbol
_atom_site_label
_atom_site_fract_x
_atom_site_fract_y
_atom_site_fract_z
Si Si1 0.036534 0.575445 0.317855
Si Si2 0.778477 0.374694 0.514044
Si Si3 0.776289 0.654430 0.835885
Si Si4 0.215009 0.914557 0.822061
Si Si5 0.937791 0.917515 0.486762
Si Si6 0.821591 0.930215 0.839912
Si Si7 0.345306 0.219171 0.869804
O O1 0.174559 0.612172 0.336980
O O2 0.194712 0.467867 0.174033
O O3 0.000000 0.500000 0.500000
O O4 0.765177 0.706129 0.286623
O O5 0.500000 0.500000 0.500000
O O6 0.989679 0.362852 0.329208
O O7 0.825630 0.239808 0.552951
O O8 0.502104 0.794698 0.820199
O O9 0.765835 0.670510 0.013267
O O10 0.112131 0.856247 0.800749
O O11 0.199322 0.011414 0.653196
O O12 0.000000 0.000000 0.000000
O O13 0.777018 0.918427 0.689358
O O14 0.000000 0.000000 0.500000
O O15 0.648288 0.091726 0.839571
O O16 0.750711 0.861137 0.013260
#
# Coordination Sequence:
#
# PCOD9038408 Si02
#       7
#     2   2   2   2   2   2   2
#     4  10  26  43  69 101 139 189 236 286 350 427
#     4  11  26  48  71 100 138 182 240 293 353 421
#     4  11  24  45  70 101 139 187 229 293 352 421
#     4  11  24  42  67 106 141 173 239 288 357 410
#     4  10  24  42  72 100 137 185 228 293 347 420
#     4  10  23  41  69 103 138 185 227 296 350 420
#     4  11  22  44  70 102 142 179 241 287 353 416
#
# _framework density 23.184702999999999
#
# number of rings (size 3 to 8) (size 9 to 14) (size 15 to 20)
#    0.000    1.429    2.857    0.429   10.000    4.000 
#    2.571    1.429    0.000    0.000    0.000    0.000 
#    0.000    0.000    0.000    0.000    0.000    0.000 
#
# Total GULP energy -78139.225416 kJ/mol
# GULP energy per Si atom -5581.373244 kJ/mol
# Density = 2.313193 g / cm^3
# Si number density = 23.184703 Si / 1000 Ang^3
#
#
#
# Elastic Constant Matrix: (Units=GPa)
#
#
# Indices 1 2 3 4 5 6 
#
# 1 107.8651 53.9075 30.2813 4.7694 19.5562 -17.3011
# 2 53.9075 132.0122 25.8681 2.3684 22.5486 -5.9395
# 3 30.2813 25.8681 86.6874 -7.5500 21.7664 -15.8108
# 4 4.7694 2.3684 -7.5500 43.7604 -2.4360 11.9353
# 5 19.5562 22.5486 21.7664 -2.4360 40.9028 1.7401
# 6 -17.3011 -5.9395 -15.8108 11.9353 1.7401 56.6778
#
#
#
# Elastic Compliance Matrix: (Units=1/GPa)
#
#
# Indices 1 2 3 4 5 6 
#
# 1 0.013288 -0.004245 -0.002140 -0.002774 -0.003197 0.003697
# 2 -0.004245 0.009979 -0.000816 -0.000300 -0.003042 -0.000321
# 3 -0.002140 -0.000816 0.014895 0.001591 -0.006499 0.003281
# 4 -0.002774 -0.000300 0.001591 0.025161 0.002391 -0.005806
# 5 -0.003197 -0.003042 -0.006499 0.002391 0.031449 -0.004576
# 6 0.003697 -0.000321 0.003281 -0.005806 -0.004576 0.021017
#
#
# Mechanical properties :
#
#
# Convention : Reuss Voigt Hill
#
# Bulk Modulus (GPa) = 42.08506 60.74205 51.41356
# Shear Modulus (GPa) = 36.20284 42.70206 39.45245
#
# Velocity S-wave (km/s) = 3.95587 4.29630 4.12959
# Velocity P-wave (km/s) = 6.24953 7.13211 6.70536
#
# Compressibility (1/GPa) = 0.02376140
#
# Stress axis : x y z
#
# Youngs Moduli (GPa) = 75.25482 100.21269 67.13527
#
# Poissons Ratio (x) = 0.42538 0.14365
# Poissons Ratio (y) = 0.31944 0.05478
# Poissons Ratio (z) = 0.16102 0.08177
#
# Static dielectric constant tensor:
#      x y z
#    x 1.900680 0.051140 -0.029990 
#    y 0.051140 1.871490 0.037690 
#    z -0.029990 0.037690 2.081970 
# 
# From -- ./inp_files/196096.got.cif
#   From: 2010.05.17/outbox.cif.g08.bks.cpg/sg2_99_cif.got.tgz:196096.got - 2010.06.03 11:33:40.
