data_PCOD9038014
_publ_section_title
;
Structure prediction by ZEFSAII (Michael W. Deem and Ramdas Pophale) SiO2 
 PCOD9038014
Probable space group: P -1
;
_chemical_formula_sum "Si O2"
_cell_formula_units_Z 14
_cell_length_a 9.860656
_cell_length_b 7.204942
_cell_length_c 18.559645
_cell_angle_alpha 131.093176
_cell_angle_beta 134.070363
_cell_angle_gamma 47.961620
_cell_volume 656.730083
_symmetry_space_group_name_H-M "P -1"
_symmetry_group_IT_number 2
_symmetry_cell_setting 'triclinic'
loop_
_space_group_symop_operation_xyz
x,y,z
-x,-y,-z
loop_
_atom_site_type_symbol
_atom_site_label
_atom_site_fract_x
_atom_site_fract_y
_atom_site_fract_z
Si Si1 0.494365 0.643944 0.847488
Si Si2 0.204452 0.638455 0.244745
Si Si3 0.267995 0.336075 0.763626
Si Si4 0.739361 0.721595 0.092755
Si Si5 0.709471 0.859594 0.585347
Si Si6 0.523200 0.771419 0.641358
Si Si7 0.879361 0.312148 0.548586
O O1 0.640922 0.476570 0.794756
O O2 0.332028 0.523151 0.782405
O O3 0.372611 0.954967 0.861996
O O4 0.637235 0.630965 0.965843
O O5 0.324056 0.456765 0.309413
O O6 0.982624 0.632729 0.148407
O O7 0.172532 0.944821 0.326307
O O8 0.295822 0.385381 0.870047
O O9 0.033081 0.372811 0.674913
O O10 0.410826 0.034496 0.715770
O O11 0.642129 0.842309 0.638477
O O12 0.833549 0.547469 0.531880
O O13 0.500000 0.000000 0.500000
O O14 0.343676 0.690781 0.522210
O O15 0.000000 0.000000 0.500000
#
# Coordination Sequence:
#
# PCOD9038014 Si02
#       7
#     2   2   2   2   2   2   2
#     4  11  24  47  66 100 134 174 236 285 339 404
#     4  12  24  44  71  99 140 178 228 281 348 400
#     4  11  22  44  67  95 138 179 222 279 346 396
#     4  11  25  42  72  97 132 181 227 287 344 402
#     4  12  24  40  67  98 136 181 226 273 337 409
#     4  11  23  43  64  99 140 178 216 286 334 407
#     4  10  23  41  65  97 136 179 221 272 337 409
#
# _framework density 21.317737999999999
#
# number of rings (size 3 to 8) (size 9 to 14) (size 15 to 20)
#    0.000    0.857    4.286    3.000    2.000    0.000 
#    0.000    2.857    0.000    0.000    0.000    0.000 
#    0.000    0.000    0.000    0.000    0.000    0.000 
#
# Total GULP energy -78205.985424 kJ/mol
# GULP energy per Si atom -5586.141816 kJ/mol
# Density = 2.126922 g / cm^3
# Si number density = 21.317738 Si / 1000 Ang^3
#
#
#
# Elastic Constant Matrix: (Units=GPa)
#
#
# Indices 1 2 3 4 5 6 
#
# 1 93.8843 19.5555 20.6623 -8.9630 -3.0452 -3.4051
# 2 19.5555 118.9966 18.9360 -6.3730 -6.6963 -10.7073
# 3 20.6623 18.9360 73.8026 -14.0924 3.8981 -2.2001
# 4 -8.9630 -6.3730 -14.0924 37.1704 1.3299 0.9379
# 5 -3.0452 -6.6963 3.8981 1.3299 31.0501 -7.8283
# 6 -3.4051 -10.7073 -2.2001 0.9379 -7.8283 35.0308
#
#
#
# Elastic Compliance Matrix: (Units=1/GPa)
#
#
# Indices 1 2 3 4 5 6 
#
# 1 0.011732 -0.001261 -0.002720 0.001511 0.001370 0.000850
# 2 -0.001261 0.009420 -0.002058 0.000341 0.002980 0.003284
# 3 -0.002720 -0.002058 0.015971 0.005176 -0.003120 -0.000726
# 4 0.001511 0.000341 0.005176 0.029370 -0.001843 -0.000622
# 5 0.001370 0.002980 -0.003120 -0.001843 0.035691 0.008873
# 6 0.000850 0.003284 -0.000726 -0.000622 0.008873 0.031587
#
#
# Mechanical properties :
#
#
# Convention : Reuss Voigt Hill
#
# Bulk Modulus (GPa) = 39.92739 44.99900 42.46320
# Shear Modulus (GPa) = 32.42638 35.81890 34.12264
#
# Velocity S-wave (km/s) = 3.90436 4.10352 4.00518
# Velocity P-wave (km/s) = 6.25265 6.60351 6.43048
#
# Compressibility (1/GPa) = 0.02504546
#
# Stress axis : x y z
#
# Youngs Moduli (GPa) = 85.23644 106.15969 62.61471
#
# Poissons Ratio (x) = 0.13384 0.17028
# Poissons Ratio (y) = 0.10746 0.12888
# Poissons Ratio (z) = 0.23180 0.21850
#
# Static dielectric constant tensor:
#      x y z
#    x 1.780720 -0.038460 -0.028570 
#    y -0.038460 1.768410 0.012410 
#    z -0.028570 0.012410 1.743660 
# 
# From -- ./inp_files/100646.got.cif
#   From: 2010.05.17/outbox.cif.g08.bks.cpg/sg2_51_cif.got.tgz:100646.got - 2010.06.03 11:33:40.
