data_PCOD9038058
_publ_section_title
;
Structure prediction by ZEFSAII (Michael W. Deem and Ramdas Pophale) SiO2 
 PCOD9038058
Probable space group: P -1
;
_chemical_formula_sum "Si O2"
_cell_formula_units_Z 14
_cell_length_a 17.150816
_cell_length_b 10.465285
_cell_length_c 5.258266
_cell_angle_alpha 64.808389
_cell_angle_beta 60.223733
_cell_angle_gamma 51.692329
_cell_volume 633.123411
_symmetry_space_group_name_H-M "P -1"
_symmetry_group_IT_number 2
_symmetry_cell_setting 'triclinic'
loop_
_space_group_symop_operation_xyz
x,y,z
-x,-y,-z
loop_
_atom_site_type_symbol
_atom_site_label
_atom_site_fract_x
_atom_site_fract_y
_atom_site_fract_z
Si Si1 0.936038 0.502336 0.357085
Si Si2 0.543911 0.040325 0.148652
Si Si3 0.427969 0.421939 0.137796
Si Si4 0.051794 0.166942 0.346827
Si Si5 0.926297 0.142355 0.192211
Si Si6 0.283831 0.509174 0.806308
Si Si7 0.222704 0.256370 0.950189
O O1 0.821854 0.654329 0.329980
O O2 0.000000 0.500000 0.500000
O O3 0.947066 0.322123 0.512631
O O4 0.000000 0.500000 0.000000
O O5 0.504629 0.231698 0.087844
O O6 0.500000 0.000000 0.500000
O O7 0.667410 0.913159 0.076811
O O8 0.500000 0.000000 0.000000
O O9 0.360435 0.451921 0.481460
O O10 0.500000 0.500000 0.000000
O O11 0.348150 0.493908 0.968397
O O12 0.007356 0.195788 0.110087
O O13 0.091099 0.976812 0.489184
O O14 0.142097 0.204077 0.223564
O O15 0.814086 0.304124 0.202582
O O16 0.000000 0.000000 0.000000
O O17 0.236139 0.389101 0.976977
#
# Coordination Sequence:
#
# PCOD9038058 Si02
#       7
#     2   2   2   2   2   2   2
#     4  10  23  41  66 102 141 181 236 287 353 433
#     4  12  25  48  74 111 152 189 256 320 369 442
#     4  12  28  52  76 111 152 199 251 315 382 450
#     4  10  25  44  67 104 146 192 237 302 359 450
#     4  11  27  46  69 106 153 194 246 300 373 455
#     4  12  27  49  78 108 147 200 247 311 380 448
#     4  11  24  46  75 107 144 195 249 301 381 429
#
# _framework density 22.112593
#
# number of rings (size 3 to 8) (size 9 to 14) (size 15 to 20)
#    0.000    0.857    4.286    0.429   10.000    4.571 
#    0.000    0.000    0.000    0.000    0.000    0.000 
#    0.000    0.000    0.000    0.000    0.000    0.000 
#
# Total GULP energy -78034.611686 kJ/mol
# GULP energy per Si atom -5573.900835 kJ/mol
# Density = 2.206226 g / cm^3
# Si number density = 22.112593 Si / 1000 Ang^3
#
#
#
# Elastic Constant Matrix: (Units=GPa)
#
#
# Indices 1 2 3 4 5 6 
#
# 1 188.1243 89.0069 60.2504 -5.3794 13.5190 3.2181
# 2 89.0069 211.6496 29.9372 -16.0389 6.8470 -16.4918
# 3 60.2504 29.9372 80.8362 2.5368 15.0047 3.3312
# 4 -5.3794 -16.0389 2.5368 35.4453 9.1289 5.4328
# 5 13.5190 6.8470 15.0047 9.1289 41.9197 -2.1349
# 6 3.2181 -16.4918 3.3312 5.4328 -2.1349 61.8980
#
#
#
# Elastic Compliance Matrix: (Units=1/GPa)
#
#
# Indices 1 2 3 4 5 6 
#
# 1 0.008335 -0.002798 -0.005041 0.000672 -0.000623 -0.000988
# 2 -0.002798 0.006256 -0.000289 0.002291 -0.000433 0.001612
# 3 -0.005041 -0.000289 0.017093 -0.000890 -0.004292 -0.000805
# 4 0.000672 0.002291 -0.000890 0.031661 -0.007290 -0.002407
# 5 -0.000623 -0.000433 -0.004292 -0.007290 0.027339 0.001731
# 6 -0.000988 0.001612 -0.000805 -0.002407 0.001731 0.016951
#
#
# Mechanical properties :
#
#
# Convention : Reuss Voigt Hill
#
# Bulk Modulus (GPa) = 64.82082 93.22214 79.02148
# Shear Modulus (GPa) = 38.75014 47.94697 43.34856
#
# Velocity S-wave (km/s) = 4.19071 4.66156 4.43239
# Velocity P-wave (km/s) = 7.26593 8.43937 7.87454
#
# Compressibility (1/GPa) = 0.01542714
#
# Stress axis : x y z
#
# Youngs Moduli (GPa) = 119.98021 159.85715 58.50472
#
# Poissons Ratio (x) = 0.44728 0.29490
# Poissons Ratio (y) = 0.33571 0.01692
# Poissons Ratio (z) = 0.60478 0.04624
#
# Static dielectric constant tensor:
#      x y z
#    x 1.908410 0.206500 -0.240000 
#    y 0.206500 2.348150 -0.472800 
#    z -0.240000 -0.472800 2.594790 
# 
# From -- ./inp_files/89778.got.cif
#   From: 2010.05.17/outbox.cif.g08.bks.cpg/sg2_45_cif.got.tgz:89778.got - 2010.06.03 11:33:40.
