data_PCOD9038283
_publ_section_title
;
Structure prediction by ZEFSAII (Michael W. Deem and Ramdas Pophale) SiO2 
 PCOD9038283
Probable space group: P -1
;
_chemical_formula_sum "Si O2"
_cell_formula_units_Z 15
_cell_length_a 8.097729
_cell_length_b 8.791128
_cell_length_c 14.865851
_cell_angle_alpha 58.533659
_cell_angle_beta 119.920977
_cell_angle_gamma 86.281380
_cell_volume 702.562043
_symmetry_space_group_name_H-M "P -1"
_symmetry_group_IT_number 2
_symmetry_cell_setting 'triclinic'
loop_
_space_group_symop_operation_xyz
x,y,z
-x,-y,-z
loop_
_atom_site_type_symbol
_atom_site_label
_atom_site_fract_x
_atom_site_fract_y
_atom_site_fract_z
Si Si1 0.443092 0.165192 0.821533
Si Si2 0.774493 0.180053 0.364751
Si Si3 0.200496 0.964844 0.913880
Si Si4 0.344444 0.542930 0.581862
Si Si5 0.400483 0.074428 0.236003
Si Si6 0.745936 0.248726 0.685031
Si Si7 0.751619 0.363652 0.114795
Si Si8 0.000000 0.500000 0.000000
O O1 0.298135 0.112971 0.864814
O O2 0.308197 0.360051 0.666895
O O3 0.558582 0.984511 0.839774
O O4 0.633275 0.181327 0.923593
O O5 0.691024 0.312174 0.389983
O O6 0.601881 0.102402 0.315319
O O7 0.800683 0.305791 0.249873
O O8 0.000000 0.000000 0.500000
O O9 0.961604 0.100191 0.837867
O O10 0.196465 0.834923 0.868065
O O11 0.587384 0.429840 0.646836
O O12 0.212120 0.661943 0.423014
O O13 0.189440 0.273192 0.133935
O O14 0.373885 0.887543 0.328625
O O15 0.873469 0.470561 0.064084
O O16 0.500000 0.500000 0.000000
#
# Coordination Sequence:
#
# PCOD9038283 Si02
#       8
#     2   2   2   2   2   2   2   1
#     4  10  23  41  68 100 133 179 236 280 353 420
#     4  12  26  46  69 101 144 188 235 289 357 429
#     4  11  21  41  70  97 134 178 229 297 346 409
#     4  10  24  44  67  99 134 188 228 286 347 422
#     4  11  24  43  69 102 141 185 231 293 362 414
#     4  10  23  46  68  98 142 177 236 295 348 418
#     4  12  23  44  71 104 145 186 235 297 355 421
#     4  12  24  42  76 104 144 188 236 294 366 416
#
# _framework density 21.350427
#
# number of rings (size 3 to 8) (size 9 to 14) (size 15 to 20)
#    0.000    1.067    4.000    1.600    0.000    5.333 
#    4.800    0.000    0.000    0.000    0.000    0.000 
#    0.000    0.000    0.000    0.000    0.000    0.000 
#
# Total GULP energy -83554.657792 kJ/mol
# GULP energy per Si atom -5570.310519 kJ/mol
# Density = 2.130183 g / cm^3
# Si number density = 21.350427 Si / 1000 Ang^3
#
#
#
# Elastic Constant Matrix: (Units=GPa)
#
#
# Indices 1 2 3 4 5 6 
#
# 1 104.2709 26.8893 46.2359 -4.6288 -11.2271 -7.8546
# 2 26.8893 83.3616 25.3318 -1.4030 9.2185 -28.8391
# 3 46.2359 25.3318 99.8427 -15.2431 -19.0409 -8.8792
# 4 -4.6288 -1.4030 -15.2431 24.3166 -5.6488 -2.8358
# 5 -11.2271 9.2185 -19.0409 -5.6488 37.8135 -9.5150
# 6 -7.8546 -28.8391 -8.8792 -2.8358 -9.5150 27.2632
#
#
#
# Elastic Compliance Matrix: (Units=1/GPa)
#
#
# Indices 1 2 3 4 5 6 
#
# 1 0.012660 -0.002991 -0.004863 -0.000441 0.001847 -0.000502
# 2 -0.002991 0.020732 -0.002364 0.000969 -0.002033 0.019690
# 3 -0.004863 -0.002364 0.018014 0.013966 0.012223 0.007684
# 4 -0.000441 0.000969 0.013966 0.056548 0.019693 0.018201
# 5 0.001847 -0.002033 0.012223 0.019693 0.041325 0.018834
# 6 -0.000502 0.019690 0.007684 0.018201 0.018834 0.068332
#
#
# Mechanical properties :
#
#
# Convention : Reuss Voigt Hill
#
# Bulk Modulus (GPa) = 32.28950 53.82103 43.05526
# Shear Modulus (GPa) = 20.13122 30.47987 25.30555
#
# Velocity S-wave (km/s) = 3.07399 3.78246 3.44648
# Velocity P-wave (km/s) = 5.26836 6.65876 6.00395
#
# Compressibility (1/GPa) = 0.03096982
#
# Stress axis : x y z
#
# Youngs Moduli (GPa) = 78.99066 48.23491 55.51163
#
# Poissons Ratio (x) = 0.14426 0.26998
# Poissons Ratio (y) = 0.23625 0.13121
# Poissons Ratio (z) = 0.38417 0.11401
#
# Static dielectric constant tensor:
#      x y z
#    x 1.784400 0.018550 -0.023700 
#    y 0.018550 1.758160 0.003730 
#    z -0.023700 0.003730 1.789370 
# 
# From -- ./inp_files/418873.got.cif
#   From: 2010.05.17/outbox.cif.g08.bks.cpg/sg2_210_cif.got.tgz:418873.got - 2010.06.03 11:33:40.
