data_PCOD9038534
_publ_section_title
;
Structure prediction by ZEFSAII (Michael W. Deem and Ramdas Pophale) SiO2 
 PCOD9038534
Probable space group: P -1
;
_chemical_formula_sum "Si O2"
_cell_formula_units_Z 16
_cell_length_a 5.754020
_cell_length_b 11.540879
_cell_length_c 12.158482
_cell_angle_alpha 104.918582
_cell_angle_beta 121.678639
_cell_angle_gamma 75.052685
_cell_volume 656.507374
_symmetry_space_group_name_H-M "P -1"
_symmetry_group_IT_number 2
_symmetry_cell_setting 'triclinic'
loop_
_space_group_symop_operation_xyz
x,y,z
-x,-y,-z
loop_
_atom_site_type_symbol
_atom_site_label
_atom_site_fract_x
_atom_site_fract_y
_atom_site_fract_z
Si Si1 0.485840 0.279499 0.747429
Si Si2 0.131762 0.225847 0.248015
Si Si3 0.425377 0.873171 0.489726
Si Si4 0.885582 0.852839 0.268981
Si Si5 0.309752 0.364337 0.150224
Si Si6 0.172475 0.987455 0.921453
Si Si7 0.014181 0.377118 0.884798
Si Si8 0.156797 0.533466 0.654927
O O1 0.502160 0.225407 0.613895
O O2 0.762044 0.326482 0.872888
O O3 0.285489 0.408725 0.715331
O O4 0.418708 0.160688 0.768709
O O5 0.392881 0.167151 0.369331
O O6 0.227981 0.245158 0.153223
O O7 0.891908 0.143188 0.169716
O O8 0.037197 0.362185 0.301516
O O9 0.093665 0.887088 0.420675
O O10 0.500000 0.000000 0.500000
O O11 0.973257 0.709804 0.235892
O O12 0.930835 0.920836 0.183598
O O13 0.075717 0.483206 0.128758
O O14 0.575331 0.400832 0.283023
O O15 0.304423 0.350758 0.013832
O O16 0.500000 0.000000 0.000000
O O17 0.000000 0.000000 0.000000
O O18 0.000000 0.500000 0.500000
#
# Coordination Sequence:
#
# PCOD9038534 Si02
#       8
#     2   2   2   2   2   2   2   2
#     4  10  23  43  69  98 141 186 241 308 376 453
#     4  12  26  44  73 104 144 199 247 317 380 459
#     4  11  24  45  62 100 141 190 254 299 380 449
#     4  11  24  43  72  96 142 189 239 310 372 445
#     4  10  23  41  70  96 143 184 244 303 380 449
#     4  12  31  52  79 114 153 200 259 320 386 455
#     4   9  21  43  65 101 133 185 239 303 372 457
#     4  11  24  43  65 107 146 186 247 311 378 452
#
# _framework density 24.371393999999999
#
# number of rings (size 3 to 8) (size 9 to 14) (size 15 to 20)
#    0.000    1.250    2.500    1.500   10.500    1.000 
#    0.000    3.750    0.000    0.000    0.000    0.000 
#    0.000    0.000    0.000    0.000    0.000    0.000 
#
# Total GULP energy -89169.429678 kJ/mol
# GULP energy per Si atom -5573.089355 kJ/mol
# Density = 2.431592 g / cm^3
# Si number density = 24.371394 Si / 1000 Ang^3
#
#
#
# Elastic Constant Matrix: (Units=GPa)
#
#
# Indices 1 2 3 4 5 6 
#
# 1 65.2007 39.0197 40.4884 -8.2669 15.0051 25.0638
# 2 39.0197 121.9007 36.1742 5.4022 10.0425 26.7022
# 3 40.4884 36.1742 110.0864 8.6058 39.2473 13.9477
# 4 -8.2669 5.4022 8.6058 43.9868 0.9427 0.4784
# 5 15.0051 10.0425 39.2473 0.9427 37.8072 8.5554
# 6 25.0638 26.7022 13.9477 0.4784 8.5554 46.5022
#
#
#
# Elastic Compliance Matrix: (Units=1/GPa)
#
#
# Indices 1 2 3 4 5 6 
#
# 1 0.027983 -0.004653 -0.008416 0.007567 0.000973 -0.010143
# 2 -0.004653 0.010975 -0.001944 -0.001842 0.001792 -0.003522
# 3 -0.008416 -0.001944 0.018451 -0.004646 -0.015881 0.003087
# 4 0.007567 -0.001842 -0.004646 0.025269 0.002198 -0.002291
# 5 0.000973 0.001792 -0.015881 0.002198 0.043091 -0.004741
# 6 -0.010143 -0.003522 0.003087 -0.002291 -0.004741 0.028963
#
#
# Mechanical properties :
#
#
# Convention : Reuss Voigt Hill
#
# Bulk Modulus (GPa) = 36.51885 58.72803 47.62344
# Shear Modulus (GPa) = 25.78824 37.75960 31.77392
#
# Velocity S-wave (km/s) = 3.25643 3.94044 3.61465
# Velocity P-wave (km/s) = 5.39962 6.69718 6.08310
#
# Compressibility (1/GPa) = 0.02738312
#
# Stress axis : x y z
#
# Youngs Moduli (GPa) = 35.73647 91.11498 54.19617
#
# Poissons Ratio (x) = 0.42399 0.45612
# Poissons Ratio (y) = 0.16629 0.10534
# Poissons Ratio (z) = 0.30076 0.17710
#
# Static dielectric constant tensor:
#      x y z
#    x 2.331980 0.012440 -0.028910 
#    y 0.012440 1.897220 0.009850 
#    z -0.028910 0.009850 2.020220 
# 
# From -- ./inp_files/94605.got.cif
#   From: 2010.05.17/outbox.cif.g08.bks.cpg/sg2_48_cif.got.tgz:94605.got - 2010.06.03 11:33:40.
