data_PCOD9038435
_publ_section_title
;
Structure prediction by ZEFSAII (Michael W. Deem and Ramdas Pophale) SiO2 
 PCOD9038435
Probable space group: P -1
;
_chemical_formula_sum "Si O2"
_cell_formula_units_Z 16
_cell_length_a 20.339631
_cell_length_b 7.989366
_cell_length_c 8.236932
_cell_angle_alpha 94.943898
_cell_angle_beta 134.642347
_cell_angle_gamma 116.427901
_cell_volume 664.986627
_symmetry_space_group_name_H-M "P -1"
_symmetry_group_IT_number 2
_symmetry_cell_setting 'triclinic'
loop_
_space_group_symop_operation_xyz
x,y,z
-x,-y,-z
loop_
_atom_site_type_symbol
_atom_site_label
_atom_site_fract_x
_atom_site_fract_y
_atom_site_fract_z
Si Si1 0.784668 0.735239 0.041710
Si Si2 0.536524 0.946773 0.824347
Si Si3 0.906086 0.384747 0.981821
Si Si4 0.503170 0.261237 0.609966
Si Si5 0.873074 0.844650 0.650613
Si Si6 0.018137 0.799528 0.428196
Si Si7 0.289173 0.677102 0.585236
Si Si8 0.266022 0.156587 0.340356
O O1 0.883805 0.711731 0.249837
O O2 0.859237 0.007912 0.226665
O O3 0.647264 0.531209 0.874609
O O4 0.758576 0.712807 0.803041
O O5 0.513803 0.101045 0.714842
O O6 0.539280 0.831536 0.659914
O O7 0.418271 0.762068 0.732467
O O8 0.662270 0.127682 0.177026
O O9 0.785735 0.339287 0.699477
O O10 0.847891 0.129890 0.900007
O O11 0.000000 0.500000 0.000000
O O12 0.981398 0.572616 0.274732
O O13 0.399743 0.245680 0.519958
O O14 0.807510 0.577252 0.512870
O O15 0.755447 0.809213 0.512124
O O16 0.932615 0.014274 0.614705
O O17 0.000000 0.000000 0.000000
#
# Coordination Sequence:
#
# PCOD9038435 Si02
#       8
#     2   2   2   2   2   2   2   2
#     4  11  25  43  66  95 128 170 218 260 319 385
#     4  10  23  41  69  93 125 173 215 260 319 383
#     4  12  23  41  65  94 134 163 210 272 318 372
#     4  11  23  44  65  95 135 167 209 274 324 378
#     4  12  21  42  69  91 127 172 212 260 320 381
#     4  11  24  43  67  94 126 174 218 257 315 389
#     4  11  22  42  68  95 122 172 222 255 313 392
#     4  12  24  41  67  97 128 172 211 268 330 373
#
# _framework density 24.060635999999999
#
# number of rings (size 3 to 8) (size 9 to 14) (size 15 to 20)
#    0.000    0.750    5.000    2.625    1.750    1.500 
#    0.000    3.750    0.000    0.000    0.000    0.000 
#    0.000    0.000    0.000    0.000    0.000    0.000 
#
# Total GULP energy -89458.954979 kJ/mol
# GULP energy per Si atom -5591.184686 kJ/mol
# Density = 2.400587 g / cm^3
# Si number density = 24.060636 Si / 1000 Ang^3
#
#
#
# Elastic Constant Matrix: (Units=GPa)
#
#
# Indices 1 2 3 4 5 6 
#
# 1 99.7320 -12.5136 33.5263 6.9484 19.9056 6.7909
# 2 -12.5136 70.2668 10.8131 13.4707 7.0562 15.6859
# 3 33.5263 10.8131 98.3637 36.0946 -0.0026 2.5547
# 4 6.9484 13.4707 36.0946 35.6145 11.8498 -5.3561
# 5 19.9056 7.0562 -0.0026 11.8498 41.9448 11.8236
# 6 6.7909 15.6859 2.5547 -5.3561 11.8236 33.4802
#
#
#
# Elastic Compliance Matrix: (Units=1/GPa)
#
#
# Indices 1 2 3 4 5 6 
#
# 1 0.014517 0.003175 -0.008093 0.007559 -0.009801 0.000856
# 2 0.003175 0.019505 0.001610 -0.012283 0.002252 -0.012666
# 3 -0.008093 0.001610 0.024146 -0.030267 0.015277 -0.011192
# 4 0.007559 -0.012283 -0.030267 0.077012 -0.031754 0.030065
# 5 -0.009801 0.002252 0.015277 -0.031754 0.042848 -0.020445
# 6 0.000856 -0.012666 -0.011192 0.030065 -0.020445 0.048513
#
#
# Mechanical properties :
#
#
# Convention : Reuss Voigt Hill
#
# Bulk Modulus (GPa) = 19.39847 36.89045 28.14446
# Shear Modulus (GPa) = 19.97279 37.97702 28.97491
#
# Velocity S-wave (km/s) = 2.88428 3.97720 3.47399
# Velocity P-wave (km/s) = 4.37857 6.03792 5.27391
#
# Compressibility (1/GPa) = 0.05155045
#
# Stress axis : x y z
#
# Youngs Moduli (GPa) = 68.88454 51.26897 41.41552
#
# Poissons Ratio (x) = -0.16277 0.33518
# Poissons Ratio (y) = -0.21869 -0.06667
# Poissons Ratio (z) = 0.55750 -0.08254
#
# Static dielectric constant tensor:
#      x y z
#    x 1.962250 -0.014880 -0.057590 
#    y -0.014880 1.869820 -0.046320 
#    z -0.057590 -0.046320 2.086460 
# 
# From -- ./inp_files/176516.got.cif
#   From: 2010.05.17/outbox.cif.g08.bks.cpg/sg2_89_cif.got.tgz:176516.got - 2010.06.03 11:33:40.
