data_PCOD9038443
_publ_section_title
;
Structure prediction by ZEFSAII (Michael W. Deem and Ramdas Pophale) SiO2 
 PCOD9038443
Probable space group: P -1
;
_chemical_formula_sum "Si O2"
_cell_formula_units_Z 16
_cell_length_a 8.495658
_cell_length_b 14.760277
_cell_length_c 8.275130
_cell_angle_alpha 128.092723
_cell_angle_beta 95.414777
_cell_angle_gamma 109.524335
_cell_volume 703.699915
_symmetry_space_group_name_H-M "P -1"
_symmetry_group_IT_number 2
_symmetry_cell_setting 'triclinic'
loop_
_space_group_symop_operation_xyz
x,y,z
-x,-y,-z
loop_
_atom_site_type_symbol
_atom_site_label
_atom_site_fract_x
_atom_site_fract_y
_atom_site_fract_z
Si Si1 0.089111 0.939669 0.060735
Si Si2 0.086908 0.366647 0.838204
Si Si3 0.133142 0.701858 0.731661
Si Si4 0.767283 0.366640 0.677559
Si Si5 0.144227 0.144326 0.744644
Si Si6 0.376888 0.218720 0.379919
Si Si7 0.486269 0.732641 0.910553
Si Si8 0.251081 0.433792 0.577611
O O1 0.947874 0.855126 0.092660
O O2 0.257168 0.075574 0.290954
O O3 0.149417 0.845386 0.876084
O O4 0.000000 0.000000 0.000000
O O5 0.140250 0.256519 0.759002
O O6 0.177273 0.435384 0.751953
O O7 0.871471 0.310925 0.735306
O O8 0.152187 0.479970 0.103175
O O9 0.194294 0.660965 0.529854
O O10 0.285033 0.717586 0.893836
O O11 0.914380 0.600049 0.600831
O O12 0.552548 0.297777 0.594921
O O13 0.353053 0.186712 0.855990
O O14 0.000000 0.000000 0.500000
O O15 0.433248 0.201279 0.183911
O O16 0.286070 0.310261 0.447707
O O17 0.429597 0.576511 0.722822
#
# Coordination Sequence:
#
# PCOD9038443 Si02
#       8
#     2   2   2   2   2   2   2   2
#     4  12  24  45  67  92 128 172 221 263 317 384
#     4  10  23  43  62  94 138 172 211 261 330 391
#     4  10  23  41  69  96 129 166 218 272 320 377
#     4   9  22  41  67  95 129 172 214 269 324 379
#     4  12  27  44  67  93 136 176 213 266 326 386
#     4  11  22  40  67  95 127 170 226 267 316 373
#     4  11  24  40  64 100 127 167 222 268 319 382
#     4  11  21  39  69  95 134 171 210 266 329 384
#
# _framework density 22.736965999999999
#
# number of rings (size 3 to 8) (size 9 to 14) (size 15 to 20)
#    0.000    1.250    2.500    2.250    1.750   12.000 
#    0.000    1.250    0.000    0.000    0.000    0.000 
#    0.000    0.000    0.000    0.000    0.000    0.000 
#
# Total GULP energy -89372.782204 kJ/mol
# GULP energy per Si atom -5585.798888 kJ/mol
# Density = 2.268522 g / cm^3
# Si number density = 22.736966 Si / 1000 Ang^3
#
#
#
# Elastic Constant Matrix: (Units=GPa)
#
#
# Indices 1 2 3 4 5 6 
#
# 1 98.6647 18.5210 67.4846 0.1435 30.2621 -17.0609
# 2 18.5210 77.7288 19.8095 4.9084 5.8296 -3.5227
# 3 67.4846 19.8095 130.0311 9.8606 29.4042 -22.2784
# 4 0.1435 4.9084 9.8606 26.0062 -0.9497 -1.0780
# 5 30.2621 5.8296 29.4042 -0.9497 57.1603 -2.8614
# 6 -17.0609 -3.5227 -22.2784 -1.0780 -2.8614 30.0844
#
#
#
# Elastic Compliance Matrix: (Units=1/GPa)
#
#
# Indices 1 2 3 4 5 6 
#
# 1 0.017789 -0.001998 -0.007279 0.003017 -0.005216 0.004076
# 2 -0.001998 0.013704 -0.000958 -0.002221 0.000101 -0.000308
# 3 -0.007279 -0.000958 0.013530 -0.004791 -0.002821 0.005339
# 4 0.003017 -0.002221 -0.004791 0.040716 0.001746 -0.000472
# 5 -0.005216 0.000101 -0.002821 0.001746 0.021580 -0.002920
# 6 0.004076 -0.000308 0.005339 -0.000472 -0.002920 0.039175
#
#
# Mechanical properties :
#
#
# Convention : Reuss Voigt Hill
#
# Bulk Modulus (GPa) = 40.72726 57.56165 49.14446
# Shear Modulus (GPa) = 28.54720 36.02415 32.28568
#
# Velocity S-wave (km/s) = 3.54721 3.98475 3.77233
# Velocity P-wave (km/s) = 5.89306 6.82219 6.37458
#
# Compressibility (1/GPa) = 0.02455358
#
# Stress axis : x y z
#
# Youngs Moduli (GPa) = 56.21340 72.97006 73.90909
#
# Poissons Ratio (x) = 0.14582 0.53799
# Poissons Ratio (y) = 0.11233 0.07078
# Poissons Ratio (z) = 0.40918 0.06988
#
# Static dielectric constant tensor:
#      x y z
#    x 1.900850 0.028320 0.047010 
#    y 0.028320 1.834550 -0.005770 
#    z 0.047010 -0.005770 1.882010 
# 
# From -- ./inp_files/209069.got.cif
#   From: 2010.05.17/outbox.cif.g08.bks.cpg/sg2_105_cif.got.tgz:209069.got - 2010.06.03 11:33:40.
