data_PCOD9038039
_publ_section_title
;
Structure prediction by ZEFSAII (Michael W. Deem and Ramdas Pophale) SiO2 
 PCOD9038039
Probable space group: P -1
;
_chemical_formula_sum "Si O2"
_cell_formula_units_Z 16
_cell_length_a 7.376717
_cell_length_b 20.721817
_cell_length_c 11.671315
_cell_angle_alpha 149.990889
_cell_angle_beta 71.759183
_cell_angle_gamma 88.951216
_cell_volume 672.059936
_symmetry_space_group_name_H-M "P -1"
_symmetry_group_IT_number 2
_symmetry_cell_setting 'triclinic'
loop_
_space_group_symop_operation_xyz
x,y,z
-x,-y,-z
loop_
_atom_site_type_symbol
_atom_site_label
_atom_site_fract_x
_atom_site_fract_y
_atom_site_fract_z
Si Si1 0.593536 0.265668 0.628430
Si Si2 0.868030 0.728532 0.241298
Si Si3 0.781514 0.993866 0.500540
Si Si4 0.808152 0.938291 0.144314
Si Si5 0.571160 0.020801 0.894779
Si Si6 0.409059 0.504472 0.833961
Si Si7 0.494318 0.280799 0.163560
Si Si8 0.245915 0.594513 0.596987
O O1 0.340552 0.293525 0.746518
O O2 0.823228 0.076370 0.302189
O O3 0.558705 0.337525 0.619435
O O4 0.615465 0.367204 0.875009
O O5 0.835575 0.832483 0.296500
O O6 0.815925 0.852073 0.545109
O O7 0.140749 0.567848 0.951769
O O8 0.738697 0.996074 0.378417
O O9 0.000000 0.000000 0.500000
O O10 0.561200 0.154964 0.855962
O O11 0.615149 0.959481 0.129730
O O12 0.012517 0.747309 0.818247
O O13 0.542211 0.183987 0.123505
O O14 0.500000 0.000000 0.000000
O O15 0.552025 0.491879 0.674884
O O16 0.250427 0.457010 0.451834
O O17 0.680649 0.322811 0.201624
#
# Coordination Sequence:
#
# PCOD9038039 Si02
#       8
#     2   2   2   2   2   2   2   2
#     4  10  24  43  64  99 130 181 238 275 332 417
#     4  10  23  42  71  98 127 182 229 281 343 404
#     4  11  20  41  72  96 130 176 224 282 338 410
#     4  11  24  42  67 101 130 176 229 279 342 400
#     4  10  25  45  67 100 137 178 224 280 342 404
#     4  11  24  43  67  94 141 181 225 283 341 407
#     4  10  23  41  65  99 135 174 225 270 346 403
#     4  11  24  40  65 103 132 177 220 284 342 401
#
# _framework density 23.807400999999999
#
# number of rings (size 3 to 8) (size 9 to 14) (size 15 to 20)
#    0.000    1.500    1.250    2.625    7.000    8.500 
#    2.250    0.000    0.000    0.000    0.000    0.000 
#    0.000    0.000    0.000    0.000    0.000    0.000 
#
# Total GULP energy -89389.531483 kJ/mol
# GULP energy per Si atom -5586.845718 kJ/mol
# Density = 2.375321 g / cm^3
# Si number density = 23.807401 Si / 1000 Ang^3
#
#
#
# Elastic Constant Matrix: (Units=GPa)
#
#
# Indices 1 2 3 4 5 6 
#
# 1 68.2594 14.2637 1.6298 -8.3730 7.9896 -14.3007
# 2 14.2637 160.6076 49.4594 9.9298 -0.0255 -10.7785
# 3 1.6298 49.4594 75.5722 14.4589 -16.6072 -18.7550
# 4 -8.3730 9.9298 14.4589 30.3225 -2.1559 9.4083
# 5 7.9896 -0.0255 -16.6072 -2.1559 28.0506 3.7486
# 6 -14.3007 -10.7785 -18.7550 9.4083 3.7486 28.8104
#
#
#
# Elastic Compliance Matrix: (Units=1/GPa)
#
#
# Indices 1 2 3 4 5 6 
#
# 1 0.017693 -0.001488 0.001523 0.001330 -0.005303 0.009473
# 2 -0.001488 0.008238 -0.006487 0.000237 -0.003185 -0.001543
# 3 0.001523 -0.006487 0.028455 -0.016550 0.012376 0.020647
# 4 0.001330 0.000237 -0.016550 0.048890 -0.002998 -0.025600
# 5 -0.005303 -0.003185 0.012376 -0.002998 0.044328 -0.000556
# 6 0.009473 -0.001543 0.020647 -0.025600 -0.000556 0.060708
#
#
# Mechanical properties :
#
#
# Convention : Reuss Voigt Hill
#
# Bulk Modulus (GPa) = 24.10670 48.34945 36.22807
# Shear Modulus (GPa) = 21.27269 33.37577 27.32423
#
# Velocity S-wave (km/s) = 2.99244 3.74827 3.39148
# Velocity P-wave (km/s) = 4.69972 6.25183 5.53049
#
# Compressibility (1/GPa) = 0.04148224
#
# Stress axis : x y z
#
# Youngs Moduli (GPa) = 56.51961 121.39531 35.14273
#
# Poissons Ratio (x) = 0.18061 -0.05353
# Poissons Ratio (y) = 0.08409 0.22798
# Poissons Ratio (z) = -0.08609 0.78753
#
# Static dielectric constant tensor:
#      x y z
#    x 1.998780 0.047290 -0.051620 
#    y 0.047290 1.932540 0.072570 
#    z -0.051620 0.072570 2.003780 
# 
# From -- ./inp_files/405070.got.cif
#   From: 2010.05.17/outbox.cif.g08.bks.cpg/sg2_203_cif.got.tgz:405070.got - 2010.06.03 11:33:40.
