data_PCOD9038184
_publ_section_title
;
Structure prediction by ZEFSAII (Michael W. Deem and Ramdas Pophale) SiO2 
 PCOD9038184
Probable space group: P -1
;
_chemical_formula_sum "Si O2"
_cell_formula_units_Z 16
_cell_length_a 9.260188
_cell_length_b 15.458597
_cell_length_c 8.015644
_cell_angle_alpha 116.072000
_cell_angle_beta 109.607677
_cell_angle_gamma 40.412670
_cell_volume 668.173866
_symmetry_space_group_name_H-M "P -1"
_symmetry_group_IT_number 2
_symmetry_cell_setting 'triclinic'
loop_
_space_group_symop_operation_xyz
x,y,z
-x,-y,-z
loop_
_atom_site_type_symbol
_atom_site_label
_atom_site_fract_x
_atom_site_fract_y
_atom_site_fract_z
Si Si1 0.830902 0.935847 0.528183
Si Si2 0.821097 0.580054 0.269111
Si Si3 0.245750 0.800537 0.752081
Si Si4 0.281163 0.163567 0.045424
Si Si5 0.015168 0.097726 0.799659
Si Si6 0.287379 0.355103 0.353649
Si Si7 0.562072 0.362967 0.962876
Si Si8 0.413643 0.145156 0.732097
O O1 0.880254 0.966262 0.398137
O O2 0.679814 0.917971 0.388367
O O3 0.072173 0.810625 0.596402
O O4 0.672752 0.044249 0.709690
O O5 0.775308 0.567525 0.429712
O O6 0.675561 0.581478 0.092460
O O7 0.712501 0.732715 0.343659
O O8 0.081460 0.470914 0.249860
O O9 0.473822 0.718965 0.674910
O O10 0.112789 0.965064 0.835777
O O11 0.320903 0.715753 0.881491
O O12 0.273657 0.244051 0.258138
O O13 0.090392 0.170115 0.955895
O O14 0.329030 0.205999 0.935785
O O15 0.500000 0.000000 0.000000
O O16 0.747229 0.229540 0.799249
O O17 0.500000 0.500000 0.000000
#
# Coordination Sequence:
#
# PCOD9038184 Si02
#       8
#     2   2   2   2   2   2   2   2
#     4  10  23  41  69 106 140 172 229 286 340 403
#     4  11  25  46  69  95 141 178 226 275 338 420
#     4  12  24  41  72  99 135 180 231 283 341 404
#     4  11  23  39  67  99 137 169 224 277 332 396
#     4  11  23  43  69 101 137 178 227 286 342 400
#     4  11  25  44  69 100 132 184 227 279 341 401
#     4  12  28  46  67 100 141 181 228 283 343 410
#     4  10  23  41  67 103 136 176 219 281 341 399
#
# _framework density 23.945862999999999
#
# number of rings (size 3 to 8) (size 9 to 14) (size 15 to 20)
#    0.000    1.000    1.250    4.500    5.250    6.000 
#    0.000    1.875    0.000    0.000    0.000    0.000 
#    0.000    0.000    0.000    0.000    0.000    0.000 
#
# Total GULP energy -89289.225345 kJ/mol
# GULP energy per Si atom -5580.576584 kJ/mol
# Density = 2.389136 g / cm^3
# Si number density = 23.945863 Si / 1000 Ang^3
#
#
#
# Elastic Constant Matrix: (Units=GPa)
#
#
# Indices 1 2 3 4 5 6 
#
# 1 115.3750 46.8983 32.5220 -9.9652 -1.9501 -17.2095
# 2 46.8983 74.4945 21.3309 -43.3797 0.5889 -28.2726
# 3 32.5220 21.3309 87.9711 -22.5733 -9.1765 1.3186
# 4 -9.9652 -43.3797 -22.5733 29.2257 2.5781 -1.6320
# 5 -1.9501 0.5889 -9.1765 2.5781 21.4704 -8.6680
# 6 -17.2095 -28.2726 1.3186 -1.6320 -8.6680 45.7709
#
#
#
# Elastic Compliance Matrix: (Units=1/GPa)
#
#
# Indices 1 2 3 4 5 6 
#
# 1 0.007076 0.013219 0.000033 0.022516 0.002474 0.012096
# 2 0.013219 -0.052523 -0.014280 -0.085716 -0.005770 -0.031211
# 3 0.000033 -0.014280 0.012060 -0.012674 0.003457 -0.008953
# 4 0.022516 -0.085716 -0.012674 -0.097060 -0.009283 -0.049335
# 5 0.002474 -0.005770 0.003457 -0.009283 0.052313 0.006843
# 6 0.012096 -0.031211 -0.008953 -0.049335 0.006843 0.006912
#
#
# Mechanical properties :
#
#
# Convention : Reuss Voigt Hill
#
# Bulk Modulus (GPa) = -28.21399 53.26034 12.52317
# Shear Modulus (GPa) = -61.74248 31.09937 -15.32156
#
# Velocity S-wave (km/s) = -5.08332 3.60771 -2.53225
# Velocity P-wave (km/s) = 6.80158 6.29638 1.81896
#
# Compressibility (1/GPa) = -0.03544341
#
# Stress axis : x y z
#
# Youngs Moduli (GPa) = 141.33084 -19.03917 82.91775
#
# Poissons Ratio (x) = 0.25167 -0.00277
# Poissons Ratio (y) = -1.86821 1.18407
# Poissons Ratio (z) = -0.00472 -0.27188
#
# Static dielectric constant tensor:
#      x y z
#    x 2.047670 0.134740 -0.102720 
#    y 0.134740 2.184570 -0.152340 
#    z -0.102720 -0.152340 2.138180 
# 
# From -- ./inp_files/208456.got.cif
#   From: 2010.05.17/outbox.cif.g08.bks.cpg/sg2_105_cif.got.tgz:208456.got - 2010.06.03 11:33:40.
