data_PCOD9038176
_publ_section_title
;
Structure prediction by ZEFSAII (Michael W. Deem and Ramdas Pophale) SiO2 
 PCOD9038176
Probable space group: P -1
;
_chemical_formula_sum "Si O2"
_cell_formula_units_Z 14
_cell_length_a 7.721348
_cell_length_b 12.944728
_cell_length_c 10.846865
_cell_angle_alpha 64.044820
_cell_angle_beta 46.012878
_cell_angle_gamma 93.550338
_cell_volume 578.414114
_symmetry_space_group_name_H-M "P -1"
_symmetry_group_IT_number 2
_symmetry_cell_setting 'triclinic'
loop_
_space_group_symop_operation_xyz
x,y,z
-x,-y,-z
loop_
_atom_site_type_symbol
_atom_site_label
_atom_site_fract_x
_atom_site_fract_y
_atom_site_fract_z
Si Si1 0.311118 0.591434 0.366730
Si Si2 0.274898 0.854644 0.003717
Si Si3 0.900436 0.045440 0.639937
Si Si4 0.692374 0.774833 0.461380
Si Si5 0.417573 0.832906 0.351142
Si Si6 0.702458 0.527342 0.080762
Si Si7 0.025482 0.573206 0.150962
O O1 0.430965 0.743116 0.282512
O O2 0.534020 0.599487 0.152481
O O3 0.232377 0.503450 0.580075
O O4 0.000000 0.500000 0.500000
O O5 0.960625 0.784278 0.256164
O O6 0.248133 0.732706 0.999692
O O7 0.568668 0.922945 0.904374
O O8 0.341950 0.999766 0.840531
O O9 0.864688 0.166858 0.544815
O O10 0.000000 0.000000 0.500000
O O11 0.134895 0.092769 0.604844
O O12 0.466672 0.774722 0.481875
O O13 0.529974 0.635638 0.692713
O O14 0.916194 0.579669 0.066291
O O15 0.846740 0.521131 0.886234
#
# Coordination Sequence:
#
# PCOD9038176 Si02
#       7
#     2   2   2   2   2   2   2
#     4  12  24  44  71 100 141 181 231 289 342 417
#     4  10  23  41  67 101 136 177 232 282 346 412
#     4  10  24  42  62  98 142 174 222 283 353 403
#     4  12  20  43  71  96 136 186 226 286 345 409
#     4  10  25  41  67 106 130 179 241 277 348 417
#     4  11  24  41  73  97 139 184 229 286 347 407
#     4  11  23  45  69 101 135 184 232 279 351 415
#
# _framework density 24.204113
#
# number of rings (size 3 to 8) (size 9 to 14) (size 15 to 20)
#    0.857    0.286    2.857    3.857    0.000    1.143 
#    0.000    1.429    0.000    0.000    0.000    0.000 
#    0.000    0.000    0.000    0.000    0.000    0.000 
#
# Total GULP energy -78072.480391 kJ/mol
# GULP energy per Si atom -5576.605742 kJ/mol
# Density = 2.414902 g / cm^3
# Si number density = 24.204113 Si / 1000 Ang^3
#
#
#
# Elastic Constant Matrix: (Units=GPa)
#
#
# Indices 1 2 3 4 5 6 
#
# 1 86.9971 36.1941 11.7572 0.0012 -8.4386 17.6940
# 2 36.1941 184.6066 23.1819 8.7484 -5.5604 12.4960
# 3 11.7572 23.1819 51.4928 -2.0012 -1.8057 -8.9336
# 4 0.0012 8.7484 -2.0012 45.3177 1.1235 -6.6425
# 5 -8.4386 -5.5604 -1.8057 1.1235 23.9306 -1.1508
# 6 17.6940 12.4960 -8.9336 -6.6425 -1.1508 33.6672
#
#
#
# Elastic Compliance Matrix: (Units=1/GPa)
#
#
# Indices 1 2 3 4 5 6 
#
# 1 0.014822 -0.001661 -0.003978 -0.001179 0.004196 -0.008318
# 2 -0.001661 0.006401 -0.003005 -0.001769 0.000631 -0.002627
# 3 -0.003978 -0.003005 0.023548 0.003095 0.000015 0.010066
# 4 -0.001179 -0.001769 0.003095 0.023561 -0.001377 0.006699
# 5 0.004196 0.000631 0.000015 -0.001377 0.043421 -0.001223
# 6 -0.008318 -0.002627 0.010066 0.006699 -0.001223 0.039000
#
#
# Mechanical properties :
#
#
# Convention : Reuss Voigt Hill
#
# Bulk Modulus (GPa) = 36.38622 51.70699 44.04660
# Shear Modulus (GPa) = 28.21640 37.38066 32.79853
#
# Velocity S-wave (km/s) = 3.41804 3.93414 3.68514
# Velocity P-wave (km/s) = 5.53562 6.48428 6.02864
#
# Compressibility (1/GPa) = 0.02748293
#
# Stress axis : x y z
#
# Youngs Moduli (GPa) = 67.46643 156.23465 42.46579
#
# Poissons Ratio (x) = 0.25954 0.16894
# Poissons Ratio (y) = 0.11207 0.12760
# Poissons Ratio (z) = 0.26840 0.46944
#
# Static dielectric constant tensor:
#      x y z
#    x 2.016710 -0.085440 -0.034260 
#    y -0.085440 2.032450 0.070680 
#    z -0.034260 0.070680 2.020470 
# 
# From -- ./inp_files/389918.got.cif
#   From: 2010.05.17/outbox.cif.g08.bks.cpg/sg2_195_cif.got.tgz:389918.got - 2010.06.03 11:33:40.
