data_PCOD9038873
_publ_section_title
;
Structure prediction by ZEFSAII (Michael W. Deem and Ramdas Pophale) SiO2 
 PCOD9038873
Probable space group: P -1
;
_chemical_formula_sum "Si O2"
_cell_formula_units_Z 16
_cell_length_a 14.258842
_cell_length_b 9.598588
_cell_length_c 7.858399
_cell_angle_alpha 111.259020
_cell_angle_beta 141.650766
_cell_angle_gamma 67.775112
_cell_volume 613.657279
_symmetry_space_group_name_H-M "P -1"
_symmetry_group_IT_number 2
_symmetry_cell_setting 'triclinic'
loop_
_space_group_symop_operation_xyz
x,y,z
-x,-y,-z
loop_
_atom_site_type_symbol
_atom_site_label
_atom_site_fract_x
_atom_site_fract_y
_atom_site_fract_z
Si Si1 0.037315 0.626380 0.977288
Si Si2 0.751809 0.677062 0.345147
Si Si3 0.721106 0.341892 0.217551
Si Si4 0.065556 0.049342 0.874170
Si Si5 0.639664 0.909351 0.547705
Si Si6 0.928379 0.808134 0.406422
Si Si7 0.494796 0.694005 0.403578
Si Si8 0.363060 0.643680 0.512799
O O1 0.216899 0.598701 0.184303
O O2 0.017463 0.791356 0.106697
O O3 0.000000 0.500000 0.000000
O O4 0.916258 0.642685 0.660941
O O5 0.685541 0.524243 0.221978
O O6 0.649013 0.830487 0.340604
O O7 0.802571 0.709282 0.240887
O O8 0.679326 0.300697 0.332029
O O9 0.903508 0.288975 0.429647
O O10 0.626421 0.268209 0.906601
O O11 0.118750 0.085610 0.775535
O O12 0.214259 0.010461 0.184250
O O13 0.960059 0.922613 0.652474
O O14 0.652008 0.751086 0.602652
O O15 0.500000 0.000000 0.500000
O O16 0.437016 0.747883 0.532745
O O17 0.525844 0.513753 0.373024
#
# Coordination Sequence:
#
# PCOD9038873 Si02
#       8
#     2   2   2   2   2   2   2   2
#     4  11  19  39  65  92 125 166 212 269 328 374
#     4  11  24  39  68  96 126 166 217 270 331 384
#     4  12  22  43  66  96 136 164 218 277 317 389
#     4  10  23  42  64  89 135 160 213 270 320 393
#     4  11  24  45  62  89 130 173 214 265 319 393
#     4  11  23  41  65 100 124 168 211 272 336 383
#     4  11  25  40  63  96 130 175 220 258 321 387
#     4  11  22  39  64  94 127 173 211 264 328 377
#
# _framework density 26.073184999999999
#
# number of rings (size 3 to 8) (size 9 to 14) (size 15 to 20)
#    0.000    1.000    3.750    3.000    0.000    6.000 
#    0.000    0.625    0.000    0.000    0.000    0.000 
#    0.000    0.000    0.000    0.000    0.000    0.000 
#
# Total GULP energy -89464.628817 kJ/mol
# GULP energy per Si atom -5591.539301 kJ/mol
# Density = 2.601384 g / cm^3
# Si number density = 26.073185 Si / 1000 Ang^3
#
#
#
# Elastic Constant Matrix: (Units=GPa)
#
#
# Indices 1 2 3 4 5 6 
#
# 1 129.6833 6.1915 5.7036 -0.1989 -4.1930 5.9090
# 2 6.1915 65.0407 6.9108 5.0378 -13.9994 -19.6775
# 3 5.7036 6.9108 81.2789 8.2657 -4.8082 -6.8886
# 4 -0.1989 5.0378 8.2657 37.1411 -6.1360 3.1938
# 5 -4.1930 -13.9994 -4.8082 -6.1360 23.4924 -1.6050
# 6 5.9090 -19.6775 -6.8886 3.1938 -1.6050 52.3300
#
#
#
# Elastic Compliance Matrix: (Units=1/GPa)
#
#
# Indices 1 2 3 4 5 6 
#
# 1 0.007870 -0.000972 -0.000594 0.000546 0.000755 -0.001343
# 2 -0.000972 0.020796 -0.000106 -0.001477 0.012384 0.008386
# 3 -0.000594 -0.000106 0.012908 -0.002716 0.001896 0.001950
# 4 0.000546 -0.001477 -0.002716 0.028951 0.006048 -0.002556
# 5 0.000755 0.012384 0.001896 0.006048 0.052464 0.006061
# 6 -0.001343 0.008386 0.001950 -0.002556 0.006061 0.023013
#
#
# Mechanical properties :
#
#
# Convention : Reuss Voigt Hill
#
# Bulk Modulus (GPa) = 26.15890 34.84608 30.50249
# Shear Modulus (GPa) = 30.84713 39.73916 35.29315
#
# Velocity S-wave (km/s) = 3.44335 3.90826 3.68315
# Velocity P-wave (km/s) = 5.08562 5.81031 5.46000
#
# Compressibility (1/GPa) = 0.03822791
#
# Stress axis : x y z
#
# Youngs Moduli (GPa) = 127.06383 48.08651 77.47309
#
# Poissons Ratio (x) = 0.04675 0.04604
# Poissons Ratio (y) = 0.12352 0.00824
# Poissons Ratio (z) = 0.07552 0.00512
#
# Static dielectric constant tensor:
#      x y z
#    x 2.099210 -0.049430 -0.023690 
#    y -0.049430 2.077180 0.016100 
#    z -0.023690 0.016100 2.058720 
# 
# From -- ./inp_files/299379.got.cif
#   From: 2010.05.17/outbox.cif.g08.bks.cpg/sg2_150_cif.got.tgz:299379.got - 2010.06.03 11:33:40.
