data_PCOD9038561
_publ_section_title
;
Structure prediction by ZEFSAII (Michael W. Deem and Ramdas Pophale) SiO2 
 PCOD9038561
Probable space group: P -1
;
_chemical_formula_sum "Si O2"
_cell_formula_units_Z 15
_cell_length_a 12.562623
_cell_length_b 13.764324
_cell_length_c 4.850593
_cell_angle_alpha 86.328149
_cell_angle_beta 96.349797
_cell_angle_gamma 135.103549
_cell_volume 588.255408
_symmetry_space_group_name_H-M "P -1"
_symmetry_group_IT_number 2
_symmetry_cell_setting 'triclinic'
loop_
_space_group_symop_operation_xyz
x,y,z
-x,-y,-z
loop_
_atom_site_type_symbol
_atom_site_label
_atom_site_fract_x
_atom_site_fract_y
_atom_site_fract_z
Si Si1 0.976265 0.385286 0.192161
Si Si2 0.179465 0.181040 0.798872
Si Si3 0.620393 0.509731 0.185917
Si Si4 0.181538 0.058313 0.332249
Si Si5 0.500000 0.000000 0.000000
Si Si6 0.672538 0.215086 0.479274
Si Si7 0.680530 0.426413 0.697872
Si Si8 0.755374 0.099263 0.911353
O O1 0.847077 0.321993 0.397736
O O2 0.138231 0.454063 0.334709
O O3 0.907179 0.252369 0.012917
O O4 0.000000 0.500000 0.000000
O O5 0.243917 0.328512 0.744068
O O6 0.235841 0.130007 0.628745
O O7 0.216836 0.169889 0.117252
O O8 0.000733 0.068765 0.711986
O O9 0.584559 0.438056 0.479427
O O10 0.500000 0.500000 0.000000
O O11 0.662019 0.448581 0.001852
O O12 0.232380 0.988422 0.241981
O O13 0.644575 0.021084 0.151731
O O14 0.430126 0.865153 0.799949
O O15 0.640962 0.293220 0.617569
O O16 0.652744 0.118818 0.729223
#
# Coordination Sequence:
#
# PCOD9038561 Si02
#       8
#     2   2   2   2   1   2   2   2
#     4  11  23  42  69 109 148 181 232 291 357 428
#     4  10  23  45  67  99 136 170 241 290 346 406
#     4  12  28  48  71 101 139 189 243 292 353 424
#     4  10  23  41  71 100 131 181 225 295 349 400
#     4  10  26  44  60  96 148 188 232 274 338 424
#     4  11  25  43  70 105 148 182 236 283 353 447
#     4  12  26  45  76 104 143 187 230 299 364 410
#     4  11  24  42  70 102 145 185 235 285 354 431
#
# _framework density 25.499126
#
# number of rings (size 3 to 8) (size 9 to 14) (size 15 to 20)
#    0.000    1.067    1.333    3.600    9.333    3.200 
#    0.000    0.000    0.000    0.000    0.000    0.000 
#    0.000    0.000    0.000    0.000    0.000    0.000 
#
# Total GULP energy -83822.461082 kJ/mol
# GULP energy per Si atom -5588.164072 kJ/mol
# Density = 2.544109 g / cm^3
# Si number density = 25.499126 Si / 1000 Ang^3
#
#
#
# Elastic Constant Matrix: (Units=GPa)
#
#
# Indices 1 2 3 4 5 6 
#
# 1 98.6412 34.7616 12.4501 8.5577 -16.6895 -17.0603
# 2 34.7616 88.5997 22.0069 13.3297 -12.4646 -6.9886
# 3 12.4501 22.0069 80.8532 13.8839 -8.2440 1.6158
# 4 8.5577 13.3297 13.8839 38.9322 -9.8725 -9.1671
# 5 -16.6895 -12.4646 -8.2440 -9.8725 48.8276 14.1129
# 6 -17.0603 -6.9886 1.6158 -9.1671 14.1129 36.4745
#
#
#
# Elastic Compliance Matrix: (Units=1/GPa)
#
#
# Indices 1 2 3 4 5 6 
#
# 1 0.012822 -0.004275 -0.000791 0.000498 0.001931 0.004591
# 2 -0.004275 0.014172 -0.002591 -0.002750 0.001264 -0.000350
# 3 -0.000791 -0.002591 0.014158 -0.004355 0.001493 -0.003166
# 4 0.000498 -0.002750 -0.004355 0.030335 0.003031 0.006350
# 5 0.001931 0.001264 0.001493 0.003031 0.024540 -0.007654
# 6 0.004591 -0.000350 -0.003166 0.006350 -0.007654 0.034195
#
#
# Mechanical properties :
#
#
# Convention : Reuss Voigt Hill
#
# Bulk Modulus (GPa) = 38.70325 45.17016 41.93671
# Shear Modulus (GPa) = 32.43634 38.10522 35.27078
#
# Velocity S-wave (km/s) = 3.57046 3.86991 3.72319
# Velocity P-wave (km/s) = 5.67528 6.14175 5.91312
#
# Compressibility (1/GPa) = 0.02583762
#
# Stress axis : x y z
#
# Youngs Moduli (GPa) = 77.99229 70.56367 70.62923
#
# Poissons Ratio (x) = 0.30167 0.05588
# Poissons Ratio (y) = 0.33343 0.18299
# Poissons Ratio (z) = 0.06170 0.18282
#
# Static dielectric constant tensor:
#      x y z
#    x 2.185730 0.194090 -0.176450 
#    y 0.194090 2.179370 -0.188920 
#    z -0.176450 -0.188920 2.159600 
# 
# From -- ./inp_files/70747.got.cif
#   From: 2010.05.17/outbox.cif.g08.bks.cpg/sg2_36_cif.got.tgz:70747.got - 2010.06.03 11:33:40.
