data_PCOD9038227
_publ_section_title
;
Structure prediction by ZEFSAII (Michael W. Deem and Ramdas Pophale) SiO2 
 PCOD9038227
Probable space group: P -1
;
_chemical_formula_sum "Si O2"
_cell_formula_units_Z 14
_cell_length_a 8.128159
_cell_length_b 20.706561
_cell_length_c 5.193933
_cell_angle_alpha 121.216682
_cell_angle_beta 60.911643
_cell_angle_gamma 118.171500
_cell_volume 624.320493
_symmetry_space_group_name_H-M "P -1"
_symmetry_group_IT_number 2
_symmetry_cell_setting 'triclinic'
loop_
_space_group_symop_operation_xyz
x,y,z
-x,-y,-z
loop_
_atom_site_type_symbol
_atom_site_label
_atom_site_fract_x
_atom_site_fract_y
_atom_site_fract_z
Si Si1 0.671478 0.260847 0.922749
Si Si2 0.037031 0.831227 0.699829
Si Si3 0.961185 0.566582 0.346267
Si Si4 0.966747 0.909903 0.411032
Si Si5 0.269740 0.325906 0.523418
Si Si6 0.731075 0.412545 0.428244
Si Si7 0.401726 0.229544 0.576447
O O1 0.527848 0.258818 0.791185
O O2 0.805150 0.208011 0.618905
O O3 0.797027 0.351443 0.065011
O O4 0.545910 0.233884 0.226756
O O5 0.022709 0.895356 0.630074
O O6 0.833646 0.759080 0.712864
O O7 0.074412 0.870104 0.032678
O O8 0.848537 0.619940 0.400153
O O9 0.806472 0.506975 0.537999
O O10 0.163576 0.603845 0.424676
O O11 0.000000 0.500000 0.000000
O O12 0.738159 0.858448 0.460350
O O13 0.000000 0.000000 0.500000
O O14 0.497527 0.381228 0.481821
O O15 0.265400 0.286868 0.731673
#
# Coordination Sequence:
#
# PCOD9038227 Si02
#       7
#     2   2   2   2   2   2   2
#     4  11  23  44  70  99 138 178 241 289 336 410
#     4  11  24  41  70 104 130 184 234 280 341 414
#     4  11  24  42  61  97 134 178 233 290 351 408
#     4  11  23  44  67 101 142 180 223 280 351 417
#     4  10  23  41  67  94 132 181 236 279 348 406
#     4  10  24  42  63  92 137 182 226 296 347 403
#     4  10  23  44  69 100 134 183 231 286 345 417
#
# _framework density 22.424381
#
# number of rings (size 3 to 8) (size 9 to 14) (size 15 to 20)
#    0.000    1.429    0.000    5.143   10.000    0.571 
#   12.857    4.286    0.000    0.000    0.000    0.000 
#    0.000    0.000    0.000    0.000    0.000    0.000 
#
# Total GULP energy -77981.071550 kJ/mol
# GULP energy per Si atom -5570.076539 kJ/mol
# Density = 2.237334 g / cm^3
# Si number density = 22.424381 Si / 1000 Ang^3
#
#
#
# Elastic Constant Matrix: (Units=GPa)
#
#
# Indices 1 2 3 4 5 6 
#
# 1 142.3221 52.7853 42.0534 -1.2461 2.4301 -17.8615
# 2 52.7853 155.7777 33.8766 7.4901 -14.7489 -6.5875
# 3 42.0534 33.8766 98.6143 -13.2182 7.8363 -7.0295
# 4 -1.2461 7.4901 -13.2182 31.5139 -6.8939 -1.5260
# 5 2.4301 -14.7489 7.8363 -6.8939 33.8542 1.5275
# 6 -17.8615 -6.5875 -7.0295 -1.5260 1.5275 22.3444
#
#
#
# Elastic Compliance Matrix: (Units=1/GPa)
#
#
# Indices 1 2 3 4 5 6 
#
# 1 0.009546 -0.002526 -0.002671 -0.000169 -0.001479 0.006136
# 2 -0.002526 0.008249 -0.002425 -0.002260 0.003911 -0.000772
# 3 -0.002671 -0.002425 0.013209 0.005469 -0.002893 0.001877
# 4 -0.000169 -0.002260 0.005469 0.035777 0.004911 0.003027
# 5 -0.001479 0.003911 -0.002893 0.004911 0.033148 -0.002870
# 6 0.006136 -0.000772 0.001877 0.003027 -0.002870 0.050424
#
#
# Mechanical properties :
#
#
# Convention : Reuss Voigt Hill
#
# Bulk Modulus (GPa) = 63.45123 72.68274 68.06698
# Shear Modulus (GPa) = 29.26506 35.40909 32.33708
#
# Velocity S-wave (km/s) = 3.61647 3.97803 3.80155
# Velocity P-wave (km/s) = 6.76724 7.32000 7.04904
#
# Compressibility (1/GPa) = 0.01576014
#
# Stress axis : x y z
#
# Youngs Moduli (GPa) = 104.75281 121.22440 75.70376
#
# Poissons Ratio (x) = 0.30626 0.20219
# Poissons Ratio (y) = 0.26465 0.18359
# Poissons Ratio (z) = 0.27977 0.29399
#
# Static dielectric constant tensor:
#      x y z
#    x 1.854480 0.026820 -0.054930 
#    y 0.026820 1.936040 -0.125190 
#    z -0.054930 -0.125190 1.962710 
# 
# From -- ./inp_files/52064.got.cif
#   From: 2010.05.17/outbox.cif.g08.bks.cpg/sg2_27_cif.got.tgz:52064.got - 2010.06.03 11:33:40.
