data_PCOD9038913
_publ_section_title
;
Structure prediction by ZEFSAII (Michael W. Deem and Ramdas Pophale) SiO2 
 PCOD9038913
Probable space group: P -1
;
_chemical_formula_sum "Si O2"
_cell_formula_units_Z 16
_cell_length_a 15.624660
_cell_length_b 5.275881
_cell_length_c 9.434322
_cell_angle_alpha 74.069520
_cell_angle_beta 72.479836
_cell_angle_gamma 75.474533
_cell_volume 701.051175
_symmetry_space_group_name_H-M "P -1"
_symmetry_group_IT_number 2
_symmetry_cell_setting 'triclinic'
loop_
_space_group_symop_operation_xyz
x,y,z
-x,-y,-z
loop_
_atom_site_type_symbol
_atom_site_label
_atom_site_fract_x
_atom_site_fract_y
_atom_site_fract_z
Si Si1 0.967661 0.765556 0.386472
Si Si2 0.946743 0.751670 0.075379
Si Si3 0.330222 0.548134 0.334532
Si Si4 0.233950 0.165404 0.024353
Si Si5 0.504288 0.780603 0.155007
Si Si6 0.344278 0.572147 0.009602
Si Si7 0.146719 0.955220 0.357795
Si Si8 0.443067 0.257997 0.562121
O O1 0.944319 0.693375 0.251871
O O2 0.000000 0.500000 0.500000
O O3 0.055543 0.908861 0.329323
O O4 0.884844 0.937511 0.488403
O O5 0.845797 0.820218 0.051830
O O6 0.000000 0.500000 0.000000
O O7 0.000000 0.000000 0.000000
O O8 0.403666 0.750650 0.261867
O O9 0.346723 0.430980 0.185230
O O10 0.226023 0.696233 0.370989
O O11 0.357724 0.359823 0.485414
O O12 0.279477 0.426511 0.967111
O O13 0.302754 0.882707 0.009184
O O14 0.188627 0.152293 0.204128
O O15 0.563055 0.820440 0.258676
O O16 0.557613 0.502272 0.102286
O O17 0.500000 0.000000 0.000000
O O18 0.500000 0.500000 0.500000
O O19 0.500000 0.000000 0.500000
#
# Coordination Sequence:
#
# PCOD9038913 Si02
#       8
#     2   2   2   2   2   2   2   2
#     4  11  25  44  70 101 137 180 231 287 341 417
#     4  12  25  45  74 102 139 183 229 284 353 408
#     4  10  23  43  70  97 136 188 225 281 346 408
#     4  11  24  44  67 104 136 186 223 284 340 416
#     4  11  22  43  70 103 136 182 229 284 340 405
#     4  11  24  41  68 101 141 173 235 279 341 403
#     4  10  23  43  68  98 138 178 235 276 348 407
#     4  10  23  42  64  96 133 173 223 274 337 401
#
# _framework density 22.822870000000002
#
# number of rings (size 3 to 8) (size 9 to 14) (size 15 to 20)
#    0.000    1.250    1.250    4.125    7.000    6.000 
#    2.250    0.000    0.000    0.000    0.000    0.000 
#    0.000    0.000    0.000    0.000    0.000    0.000 
#
# Total GULP energy -89472.924320 kJ/mol
# GULP energy per Si atom -5592.057770 kJ/mol
# Density = 2.277092 g / cm^3
# Si number density = 22.822870 Si / 1000 Ang^3
#
#
#
# Elastic Constant Matrix: (Units=GPa)
#
#
# Indices 1 2 3 4 5 6 
#
# 1 94.0262 28.7738 54.8898 13.9030 22.4677 -6.8160
# 2 28.7738 91.5673 38.9931 19.6182 -2.6083 -3.8914
# 3 54.8898 38.9931 144.2888 22.9475 32.3927 -18.9934
# 4 13.9030 19.6182 22.9475 46.7034 -2.4251 -5.7104
# 5 22.4677 -2.6083 32.3927 -2.4251 55.2843 -1.6464
# 6 -6.8160 -3.8914 -18.9934 -5.7104 -1.6464 42.5090
#
#
#
# Elastic Compliance Matrix: (Units=1/GPa)
#
#
# Indices 1 2 3 4 5 6 
#
# 1 0.014899 -0.002871 -0.003706 -0.001609 -0.004087 0.000096
# 2 -0.002871 0.013894 -0.002991 -0.003440 0.003399 -0.000855
# 3 -0.003706 -0.002991 0.011282 -0.003022 -0.005272 0.003563
# 4 -0.001609 -0.003440 -0.003022 0.025193 0.003415 0.001593
# 5 -0.004087 0.003399 -0.005272 0.003415 0.023108 -0.001346
# 6 0.000096 -0.000855 0.003563 0.001593 -0.001346 0.025215
#
#
# Mechanical properties :
#
#
# Convention : Reuss Voigt Hill
#
# Bulk Modulus (GPa) = 47.75909 63.91064 55.83486
# Shear Modulus (GPa) = 35.78933 42.71438 39.25185
#
# Velocity S-wave (km/s) = 3.96426 4.33085 4.15160
# Velocity P-wave (km/s) = 6.47497 7.28505 6.89192
#
# Compressibility (1/GPa) = 0.02093842
#
# Stress axis : x y z
#
# Youngs Moduli (GPa) = 67.12001 71.97137 88.63949
#
# Poissons Ratio (x) = 0.20665 0.32848
# Poissons Ratio (y) = 0.19272 0.26512
# Poissons Ratio (z) = 0.24874 0.21527
#
# Static dielectric constant tensor:
#      x y z
#    x 1.940490 0.033880 -0.042710 
#    y 0.033880 1.844760 -0.017840 
#    z -0.042710 -0.017840 1.904190 
# 
# From -- ./inp_files/288585.got.cif
#   From: 2010.05.17/outbox.cif.g08.bks.cpg/sg2_145_cif.got.tgz:288585.got - 2010.06.03 11:33:40.
