data_PCOD9038387
_publ_section_title
;
Structure prediction by ZEFSAII (Michael W. Deem and Ramdas Pophale) SiO2 
 PCOD9038387
Probable space group: P -1
;
_chemical_formula_sum "Si O2"
_cell_formula_units_Z 16
_cell_length_a 6.404616
_cell_length_b 23.032618
_cell_length_c 9.064623
_cell_angle_alpha 53.463037
_cell_angle_beta 53.669474
_cell_angle_gamma 40.728802
_cell_volume 675.071521
_symmetry_space_group_name_H-M "P -1"
_symmetry_group_IT_number 2
_symmetry_cell_setting 'triclinic'
loop_
_space_group_symop_operation_xyz
x,y,z
-x,-y,-z
loop_
_atom_site_type_symbol
_atom_site_label
_atom_site_fract_x
_atom_site_fract_y
_atom_site_fract_z
Si Si1 0.480426 0.421579 0.572560
Si Si2 0.328018 0.814232 0.925488
Si Si3 0.334702 0.108057 0.753670
Si Si4 0.173909 0.289649 0.629445
Si Si5 0.916419 0.932677 0.670772
Si Si6 0.937135 0.636857 0.099313
Si Si7 0.766106 0.856261 0.602737
Si Si8 0.409885 0.645056 0.700722
O O1 0.500000 0.500000 0.500000
O O2 0.153499 0.432611 0.740690
O O3 0.499758 0.412278 0.401585
O O4 0.821565 0.331272 0.638168
O O5 0.458484 0.872812 0.788933
O O6 0.187409 0.834691 0.786312
O O7 0.643178 0.712647 0.995750
O O8 0.020014 0.854294 0.096743
O O9 0.394632 0.178149 0.690348
O O10 0.300667 0.124801 0.568029
O O11 0.611021 0.997224 0.812940
O O12 0.125049 0.318271 0.779475
O O13 0.321145 0.336749 0.419567
O O14 0.835127 0.914998 0.574486
O O15 0.000000 0.000000 0.500000
O O16 0.280657 0.610514 0.931063
O O17 0.080401 0.749107 0.647982
#
# Coordination Sequence:
#
# PCOD9038387 Si02
#       8
#     2   2   2   2   2   2   2   2
#     4  11  24  46  72 102 138 173 218 277 338 409
#     4  11  25  43  63  95 131 176 228 275 329 392
#     4  12  23  43  66  93 133 182 226 276 338 384
#     4  11  23  44  69  98 134 180 222 275 335 402
#     4  12  26  43  63  96 134 179 227 285 330 381
#     4  10  24  44  68 102 136 176 230 271 330 408
#     4  11  24  44  63  92 134 173 227 277 329 394
#     4  10  23  41  69 100 132 181 222 272 336 396
#
# _framework density 23.701194000000001
#
# number of rings (size 3 to 8) (size 9 to 14) (size 15 to 20)
#    0.000    1.000    3.750    2.250    3.500    4.000 
#    0.000    1.250    0.000    0.000    0.000    0.000 
#    0.000    0.000    0.000    0.000    0.000    0.000 
#
# Total GULP energy -89351.087303 kJ/mol
# GULP energy per Si atom -5584.442956 kJ/mol
# Density = 2.364725 g / cm^3
# Si number density = 23.701194 Si / 1000 Ang^3
#
#
#
# Elastic Constant Matrix: (Units=GPa)
#
#
# Indices 1 2 3 4 5 6 
#
# 1 92.9310 18.6495 45.2177 0.1213 -20.6381 20.3380
# 2 18.6495 56.9487 22.7409 -6.6159 3.8240 23.2662
# 3 45.2177 22.7409 139.8149 18.7848 -32.3340 14.0890
# 4 0.1213 -6.6159 18.7848 20.6963 -14.1485 4.5409
# 5 -20.6381 3.8240 -32.3340 -14.1485 41.5947 -2.4202
# 6 20.3380 23.2662 14.0890 4.5409 -2.4202 49.7961
#
#
#
# Elastic Compliance Matrix: (Units=1/GPa)
#
#
# Indices 1 2 3 4 5 6 
#
# 1 0.015748 -0.000736 -0.003922 0.009802 0.007847 -0.005491
# 2 -0.000736 0.026781 -0.005492 0.014165 -0.002982 -0.012095
# 3 -0.003922 -0.005492 0.011385 -0.009597 0.004262 0.002029
# 4 0.009802 0.014165 -0.009597 0.079961 0.022479 -0.014106
# 5 0.007847 -0.002982 0.004262 0.022479 0.038984 -0.003173
# 6 -0.005491 -0.012095 0.002029 -0.014106 -0.003173 0.028534
#
#
# Mechanical properties :
#
#
# Convention : Reuss Voigt Hill
#
# Bulk Modulus (GPa) = 29.74965 51.43453 40.59209
# Shear Modulus (GPa) = 21.46859 35.95651 28.71255
#
# Velocity S-wave (km/s) = 3.01292 3.89919 3.48435
# Velocity P-wave (km/s) = 4.96818 6.48228 5.77506
#
# Compressibility (1/GPa) = 0.03361384
#
# Stress axis : x y z
#
# Youngs Moduli (GPa) = 63.49829 37.34000 87.83655
#
# Poissons Ratio (x) = 0.02748 0.34453
# Poissons Ratio (y) = 0.04673 0.48239
# Poissons Ratio (z) = 0.24907 0.20507
#
# Static dielectric constant tensor:
#      x y z
#    x 1.925350 -0.067170 -0.015590 
#    y -0.067170 2.017630 0.013980 
#    z -0.015590 0.013980 1.987210 
# 
# From -- ./inp_files/52797.got.cif
#   From: 2010.05.17/outbox.cif.g08.bks.cpg/sg2_27_cif.got.tgz:52797.got - 2010.06.03 11:33:40.
