data_PCOD9038354
_publ_section_title
;
Structure prediction by ZEFSAII (Michael W. Deem and Ramdas Pophale) SiO2 
 PCOD9038354
Probable space group: P -1
;
_chemical_formula_sum "Si O2"
_cell_formula_units_Z 14
_cell_length_a 13.083694
_cell_length_b 9.291267
_cell_length_c 18.751447
_cell_angle_alpha 42.451951
_cell_angle_beta 33.149472
_cell_angle_gamma 29.575285
_cell_volume 614.829546
_symmetry_space_group_name_H-M "P -1"
_symmetry_group_IT_number 2
_symmetry_cell_setting 'triclinic'
loop_
_space_group_symop_operation_xyz
x,y,z
-x,-y,-z
loop_
_atom_site_type_symbol
_atom_site_label
_atom_site_fract_x
_atom_site_fract_y
_atom_site_fract_z
Si Si1 0.831957 0.336517 0.992246
Si Si2 0.355741 0.828846 0.294712
Si Si3 0.245677 0.053719 0.620682
Si Si4 0.448858 0.385258 0.506634
Si Si5 0.948663 0.540969 0.718808
Si Si6 0.888697 0.299429 0.126963
Si Si7 0.337998 0.906911 0.119556
O O1 0.832941 0.477177 0.869408
O O2 0.950567 0.328838 0.000560
O O3 0.532879 0.569248 0.104320
O O4 0.000000 0.000000 0.000000
O O5 0.334721 0.623555 0.423047
O O6 0.657890 0.614214 0.180474
O O7 0.232483 0.933514 0.249825
O O8 0.233849 0.113682 0.306491
O O9 0.013066 0.378565 0.665558
O O10 0.500000 0.000000 0.500000
O O11 0.292340 0.923106 0.562282
O O12 0.220902 0.859356 0.754555
O O13 0.500000 0.500000 0.500000
O O14 0.223294 0.393097 0.646698
O O15 0.123819 0.105185 0.113562
O O16 0.500000 0.000000 0.000000
#
# Coordination Sequence:
#
# PCOD9038354 Si02
#       7
#     2   2   2   2   2   2   2
#     4  11  23  42  67  97 136 179 219 277 332 393
#     4  10  23  41  68  96 135 172 221 283 335 388
#     4   9  20  41  67  92 133 174 214 273 336 394
#     4  10  23  41  70  98 127 175 224 275 342 398
#     4  11  21  42  65  97 138 173 221 274 332 401
#     4  10  23  42  69  95 137 179 222 276 336 393
#     4  11  24  43  65 101 134 176 229 274 326 406
#
# _framework density 22.770537999999998
#
# number of rings (size 3 to 8) (size 9 to 14) (size 15 to 20)
#    0.000    1.714    2.857    0.429    4.000    4.000 
#    0.000    0.714    0.000    0.000    0.000    0.000 
#    0.000    0.000    0.000    0.000    0.000    0.000 
#
# Total GULP energy -78123.775922 kJ/mol
# GULP energy per Si atom -5580.269709 kJ/mol
# Density = 2.271871 g / cm^3
# Si number density = 22.770538 Si / 1000 Ang^3
#
#
#
# Elastic Constant Matrix: (Units=GPa)
#
#
# Indices 1 2 3 4 5 6 
#
# 1 94.7442 40.7105 14.6291 21.2280 12.4405 2.6626
# 2 40.7105 148.5644 6.1126 38.8697 9.3149 28.3389
# 3 14.6291 6.1126 48.6698 -0.8805 7.0646 15.3994
# 4 21.2280 38.8697 -0.8805 32.6159 14.9880 17.2270
# 5 12.4405 9.3149 7.0646 14.9880 29.1020 6.1071
# 6 2.6626 28.3389 15.3994 17.2270 6.1071 52.4245
#
#
#
# Elastic Compliance Matrix: (Units=1/GPa)
#
#
# Indices 1 2 3 4 5 6 
#
# 1 0.014468 -0.002191 -0.005943 -0.009758 -0.000153 0.005420
# 2 -0.002191 0.010701 -0.001005 -0.012504 0.004573 -0.001802
# 3 -0.005943 -0.001005 0.027885 0.016546 -0.009990 -0.011619
# 4 -0.009758 -0.012504 0.016546 0.076969 -0.031447 -0.019235
# 5 -0.000153 0.004573 -0.009990 -0.031447 0.050553 0.004915
# 6 0.005420 -0.001802 -0.011619 -0.019235 0.004915 0.028935
#
#
# Mechanical properties :
#
#
# Convention : Reuss Voigt Hill
#
# Bulk Modulus (GPa) = 28.75555 46.09809 37.42682
# Shear Modulus (GPa) = 20.88711 38.19690 29.54200
#
# Velocity S-wave (km/s) = 3.03196 4.10014 3.60582
# Velocity P-wave (km/s) = 4.99128 6.53478 5.81448
#
# Compressibility (1/GPa) = 0.03477589
#
# Stress axis : x y z
#
# Youngs Moduli (GPa) = 69.11840 93.44536 35.86155
#
# Poissons Ratio (x) = 0.20477 0.21311
# Poissons Ratio (y) = 0.15146 0.03605
# Poissons Ratio (z) = 0.41075 0.09393
#
# Static dielectric constant tensor:
#      x y z
#    x 1.883150 0.038370 -0.016670 
#    y 0.038370 1.862140 0.006920 
#    z -0.016670 0.006920 1.896210 
# 
# From -- ./inp_files/566523.got.cif
#   From: 2010.05.17/outbox.cif.g08.bks.cpg/sg2_284_cif.got.tgz:566523.got - 2010.06.03 11:33:40.
