data_PCOD9038747
_publ_section_title
;
Structure prediction by ZEFSAII (Michael W. Deem and Ramdas Pophale) SiO2 
 PCOD9038747
Probable space group: P -1
;
_chemical_formula_sum "Si O2"
_cell_formula_units_Z 16
_cell_length_a 21.862994
_cell_length_b 9.167335
_cell_length_c 5.193592
_cell_angle_alpha 111.673810
_cell_angle_beta 96.680049
_cell_angle_gamma 122.650610
_cell_volume 745.290481
_symmetry_space_group_name_H-M "P -1"
_symmetry_group_IT_number 2
_symmetry_cell_setting 'triclinic'
loop_
_space_group_symop_operation_xyz
x,y,z
-x,-y,-z
loop_
_atom_site_type_symbol
_atom_site_label
_atom_site_fract_x
_atom_site_fract_y
_atom_site_fract_z
Si Si1 0.814341 0.093195 0.144304
Si Si2 0.279092 0.567184 0.723549
Si Si3 0.795538 0.322633 0.901896
Si Si4 0.295235 0.382498 0.114723
Si Si5 0.555081 0.595636 0.839156
Si Si6 0.039898 0.870673 0.642893
Si Si7 0.675329 0.074064 0.289232
Si Si8 0.934614 0.733675 0.000908
O O1 0.764117 0.854814 0.006124
O O2 0.816123 0.182586 0.926179
O O3 0.901623 0.182289 0.328872
O O4 0.758781 0.124082 0.291478
O O5 0.275456 0.468952 0.391547
O O6 0.340376 0.803664 0.823537
O O7 0.205965 0.553449 0.783211
O O8 0.290027 0.460361 0.887945
O O9 0.704695 0.176804 0.652608
O O10 0.860549 0.502342 0.865301
O O11 0.382388 0.444988 0.194352
O O12 0.500000 0.500000 0.500000
O O13 0.500000 0.500000 0.000000
O O14 0.607712 0.837360 0.064146
O O15 0.000186 0.805854 0.301430
O O16 0.083694 0.109880 0.866288
O O17 0.973437 0.765889 0.764302
#
# Coordination Sequence:
#
# PCOD9038747 Si02
#       8
#     2   2   2   2   2   2   2   2
#     4  10  25  39  68  96 135 174 228 278 327 400
#     4  11  23  42  70  98 134 170 225 279 313 390
#     4  11  24  43  68  99 135 179 216 285 336 385
#     4  11  24  43  71 103 127 176 230 261 329 394
#     4  11  26  47  73  99 140 178 212 267 332 399
#     4  10  23  42  60  93 127 178 224 277 325 402
#     4  10  25  45  69 102 135 172 226 267 339 392
#     4  10  24  41  62  89 135 173 225 272 343 384
#
# _framework density 21.468138
#
# number of rings (size 3 to 8) (size 9 to 14) (size 15 to 20)
#    0.000    1.500    1.250    1.500   14.000    3.000 
#    0.000    3.750    0.000    0.000    0.000    0.000 
#    0.000    0.000    0.000    0.000    0.000    0.000 
#
# Total GULP energy -89213.944173 kJ/mol
# GULP energy per Si atom -5575.871511 kJ/mol
# Density = 2.141928 g / cm^3
# Si number density = 21.468138 Si / 1000 Ang^3
#
#
#
# Elastic Constant Matrix: (Units=GPa)
#
#
# Indices 1 2 3 4 5 6 
#
# 1 52.4784 26.7492 21.0011 -0.7558 15.7281 -9.0671
# 2 26.7492 144.4247 49.6805 -2.2627 16.2707 -15.1018
# 3 21.0011 49.6805 89.8199 -7.5856 4.3241 1.7851
# 4 -0.7558 -2.2627 -7.5856 38.1884 -1.9521 5.4692
# 5 15.7281 16.2707 4.3241 -1.9521 32.7823 -7.2475
# 6 -9.0671 -15.1018 1.7851 5.4692 -7.2475 31.4186
#
#
#
# Elastic Compliance Matrix: (Units=1/GPa)
#
#
# Indices 1 2 3 4 5 6 
#
# 1 0.025576 -0.001415 -0.004971 -0.001789 -0.009912 0.005008
# 2 -0.001415 0.009627 -0.005051 -0.001183 -0.002594 0.004114
# 3 -0.004971 -0.005051 0.015383 0.003458 0.001990 -0.004879
# 4 -0.001789 -0.001183 0.003458 0.027665 0.001358 -0.005784
# 5 -0.009912 -0.002594 0.001990 0.001358 0.037282 0.004143
# 6 0.005008 0.004114 -0.004879 -0.005784 0.004143 0.037491
#
#
# Mechanical properties :
#
#
# Convention : Reuss Voigt Hill
#
# Bulk Modulus (GPa) = 36.08423 53.50937 44.79680
# Shear Modulus (GPa) = 27.00729 33.09733 30.05231
#
# Velocity S-wave (km/s) = 3.55070 3.93070 3.74552
# Velocity P-wave (km/s) = 5.80127 6.75127 6.29422
#
# Compressibility (1/GPa) = 0.02771294
#
# Stress axis : x y z
#
# Youngs Moduli (GPa) = 39.09881 103.86986 65.00807
#
# Poissons Ratio (x) = 0.14694 0.32316
# Poissons Ratio (y) = 0.05531 0.32836
# Poissons Ratio (z) = 0.19436 0.52465
#
# Static dielectric constant tensor:
#      x y z
#    x 1.791040 -0.014580 -0.055520 
#    y -0.014580 1.803100 -0.028220 
#    z -0.055520 -0.028220 1.951120 
# 
# From -- ./inp_files/117249.got.cif
#   From: 2010.05.17/outbox.cif.g08.bks.cpg/sg2_59_cif.got.tgz:117249.got - 2010.06.03 11:33:40.
