data_PCOD9038403
_publ_section_title
;
Structure prediction by ZEFSAII (Michael W. Deem and Ramdas Pophale) SiO2 
 PCOD9038403
Probable space group: P -1
;
_chemical_formula_sum "Si O2"
_cell_formula_units_Z 16
_cell_length_a 10.009305
_cell_length_b 5.056128
_cell_length_c 22.043933
_cell_angle_alpha 103.669486
_cell_angle_beta 35.379082
_cell_angle_gamma 108.028787
_cell_volume 613.943857
_symmetry_space_group_name_H-M "P -1"
_symmetry_group_IT_number 2
_symmetry_cell_setting 'triclinic'
loop_
_space_group_symop_operation_xyz
x,y,z
-x,-y,-z
loop_
_atom_site_type_symbol
_atom_site_label
_atom_site_fract_x
_atom_site_fract_y
_atom_site_fract_z
Si Si1 0.563239 0.838536 0.242659
Si Si2 0.132886 0.810716 0.481243
Si Si3 0.750020 0.551195 0.333017
Si Si4 0.489552 0.747712 0.822173
Si Si5 0.922656 0.067564 0.965658
Si Si6 0.842113 0.581151 0.884811
Si Si7 0.187532 0.995373 0.179270
Si Si8 0.692173 0.265051 0.464575
O O1 0.547536 0.089449 0.216584
O O2 0.401533 0.859163 0.360908
O O3 0.316131 0.058268 0.198412
O O4 0.835151 0.823417 0.154114
O O5 0.142522 0.830208 0.551530
O O6 0.000000 0.500000 0.500000
O O7 0.000000 0.000000 0.500000
O O8 0.797886 0.434202 0.375361
O O9 0.473718 0.543317 0.431588
O O10 0.873908 0.393963 0.227996
O O11 0.911714 0.860548 0.284429
O O12 0.738694 0.253159 0.901061
O O13 0.538151 0.449994 0.770912
O O14 0.250865 0.723621 0.949303
O O15 0.797420 0.778355 0.965725
O O16 0.000000 0.000000 0.000000
O O17 0.768638 0.723945 0.859528
O O18 0.500000 0.000000 0.500000
#
# Coordination Sequence:
#
# PCOD9038403 Si02
#       8
#     2   2   2   2   2   2   2   2
#     4  11  26  45  74  99 149 194 241 300 365 442
#     4  12  31  49  73 113 153 197 252 311 378 449
#     4   9  24  41  70 107 139 193 243 309 362 448
#     4  11  24  46  72 106 145 192 240 299 371 437
#     4  10  25  46  72 105 142 191 247 295 363 447
#     4  10  23  41  69 102 142 183 238 297 364 429
#     4  10  23  41  69 104 141 184 237 298 371 429
#     4  11  25  45  74 103 147 191 258 309 370 444
#
# _framework density 26.061012999999999
#
# number of rings (size 3 to 8) (size 9 to 14) (size 15 to 20)
#    0.750    0.750    0.000    2.625    8.750    9.000 
#    0.000    0.000    0.000    0.000    0.000    0.000 
#    0.000    0.000    0.000    0.000    0.000    0.000 
#
# Total GULP energy -89607.749946 kJ/mol
# GULP energy per Si atom -5600.484372 kJ/mol
# Density = 2.600170 g / cm^3
# Si number density = 26.061013 Si / 1000 Ang^3
#
#
#
# Elastic Constant Matrix: (Units=GPa)
#
#
# Indices 1 2 3 4 5 6 
#
# 1 108.7410 18.7401 -0.6529 -2.9117 16.6530 -14.9173
# 2 18.7401 105.5954 -1.3007 1.7200 6.3339 -16.2212
# 3 -0.6529 -1.3007 102.6919 6.7122 -5.9810 -11.4497
# 4 -2.9117 1.7200 6.7122 28.4896 9.3622 4.7858
# 5 16.6530 6.3339 -5.9810 9.3622 22.9962 -4.3216
# 6 -14.9173 -16.2212 -11.4497 4.7858 -4.3216 45.8570
#
#
#
# Elastic Compliance Matrix: (Units=1/GPa)
#
#
# Indices 1 2 3 4 5 6 
#
# 1 0.011169 -0.001231 -0.000551 0.004080 -0.009221 0.001765
# 2 -0.001231 0.010283 0.000550 -0.001243 -0.000645 0.003443
# 3 -0.000551 0.000550 0.010856 -0.005237 0.005923 0.003830
# 4 0.004080 -0.001243 -0.005237 0.046010 -0.024114 -0.007495
# 5 -0.009221 -0.000645 0.005923 -0.024114 0.062958 0.006701
# 6 0.001765 0.003443 0.003830 -0.007495 0.006701 0.025969
#
#
# Mechanical properties :
#
#
# Convention : Reuss Voigt Hill
#
# Bulk Modulus (GPa) = 33.50928 38.95570 36.23249
# Shear Modulus (GPa) = 27.83080 39.48467 33.65774
#
# Velocity S-wave (km/s) = 3.27143 3.89663 3.59764
# Velocity P-wave (km/s) = 5.21111 5.93509 5.58484
#
# Compressibility (1/GPa) = 0.02984248
#
# Stress axis : x y z
#
# Youngs Moduli (GPa) = 89.53676 97.24570 92.11743
#
# Poissons Ratio (x) = 0.11972 0.05080
# Poissons Ratio (y) = 0.11023 -0.05067
# Poissons Ratio (z) = 0.04938 -0.05349
#
# Static dielectric constant tensor:
#      x y z
#    x 1.993240 -0.014530 -0.040500 
#    y -0.014530 2.012060 0.047930 
#    z -0.040500 0.047930 2.146750 
# 
# From -- ./inp_files/585677.got.cif
#   From: 2010.05.17/outbox.cif.g08.bks.cpg/sg2_293_cif.got.tgz:585677.got - 2010.06.03 11:33:40.
