data_PCOD9038811
_publ_section_title
;
Structure prediction by ZEFSAII (Michael W. Deem and Ramdas Pophale) SiO2 
 PCOD9038811
Probable space group: P -1
;
_chemical_formula_sum "Si O2"
_cell_formula_units_Z 16
_cell_length_a 7.763846
_cell_length_b 20.024018
_cell_length_c 19.205275
_cell_angle_alpha 20.612463
_cell_angle_beta 141.988274
_cell_angle_gamma 143.196882
_cell_volume 619.133793
_symmetry_space_group_name_H-M "P -1"
_symmetry_group_IT_number 2
_symmetry_cell_setting 'triclinic'
loop_
_space_group_symop_operation_xyz
x,y,z
-x,-y,-z
loop_
_atom_site_type_symbol
_atom_site_label
_atom_site_fract_x
_atom_site_fract_y
_atom_site_fract_z
Si Si1 0.858129 0.669956 0.004094
Si Si2 0.600650 0.967229 0.140162
Si Si3 0.685900 0.008118 0.832480
Si Si4 0.800703 0.629912 0.584170
Si Si5 0.046828 0.762033 0.829959
Si Si6 0.795830 0.632807 0.167836
Si Si7 0.861532 0.578917 0.445609
Si Si8 0.218016 0.348309 0.290162
O O1 0.933261 0.463662 0.240222
O O2 0.686156 0.682221 0.008138
O O3 0.159272 0.834488 0.954514
O O4 0.810147 0.723060 0.857030
O O5 0.368475 0.940073 0.155421
O O6 0.761918 0.795932 0.358011
O O7 0.500000 0.000000 0.000000
O O8 0.352110 0.935862 0.766246
O O9 0.782332 0.811121 0.039515
O O10 0.943999 0.194153 0.704680
O O11 0.482942 0.463506 0.638955
O O12 0.842744 0.735106 0.570713
O O13 0.917045 0.771632 0.703474
O O14 0.126982 0.553415 0.062298
O O15 0.563707 0.428638 0.314632
O O16 0.094310 0.570103 0.333155
O O17 0.000000 0.500000 0.500000
#
# Coordination Sequence:
#
# PCOD9038811 Si02
#       8
#     2   2   2   2   2   2   2   2
#     4  10  24  40  58  90 129 162 202 248 309 366
#     4  11  23  39  59  86 120 162 203 249 304 358
#     4  10  23  42  63  91 122 159 208 253 304 365
#     4  11  23  42  60  90 126 164 205 252 304 367
#     4   8  18  39  65  92 118 159 205 257 306 361
#     4  11  23  40  60  93 123 167 202 248 305 367
#     4  12  23  38  62  90 124 159 209 252 300 366
#     4   9  17  38  68  89 119 159 208 255 305 356
#
# _framework density 25.842556999999999
#
# number of rings (size 3 to 8) (size 9 to 14) (size 15 to 20)
#    0.000    1.750    2.500    1.500    0.000    6.000 
#    0.000    5.625    0.000    0.000    0.000   14.000 
#    0.000    0.000    0.000    0.000    0.000    0.000 
#
# Total GULP energy -89373.330654 kJ/mol
# GULP energy per Si atom -5585.833166 kJ/mol
# Density = 2.578374 g / cm^3
# Si number density = 25.842557 Si / 1000 Ang^3
#
#
#
# Elastic Constant Matrix: (Units=GPa)
#
#
# Indices 1 2 3 4 5 6 
#
# 1 86.3286 17.5735 7.1524 0.3983 -12.7506 -24.8824
# 2 17.5735 116.3824 37.9610 13.3169 -6.2862 -28.8249
# 3 7.1524 37.9610 109.4955 -15.9414 -5.4504 2.8904
# 4 0.3983 13.3169 -15.9414 18.0710 -17.3655 7.6132
# 5 -12.7506 -6.2862 -5.4504 -17.3655 30.9720 20.5815
# 6 -24.8824 -28.8249 2.8904 7.6132 20.5815 14.8931
#
#
#
# Elastic Compliance Matrix: (Units=1/GPa)
#
#
# Indices 1 2 3 4 5 6 
#
# 1 0.014130 -0.002206 0.001383 0.008558 0.007916 0.003756
# 2 -0.002206 0.006778 -0.000418 0.007478 0.009844 -0.007912
# 3 0.001383 -0.000418 0.008203 -0.002781 -0.006309 0.010048
# 4 0.008558 0.007478 -0.002781 0.015233 -0.014829 0.042018
# 5 0.007916 0.009844 -0.006309 -0.014829 0.010027 0.027227
# 6 0.003756 -0.007912 0.010048 0.042018 0.027227 -0.002949
#
#
# Mechanical properties :
#
#
# Convention : Reuss Voigt Hill
#
# Bulk Modulus (GPa) = 37.55383 48.62004 43.08693
# Shear Modulus (GPa) = 79.63991 29.42184 54.53087
#
# Velocity S-wave (km/s) = 5.55736 3.37783 4.59859
# Velocity P-wave (km/s) = 7.46608 5.83676 6.70112
#
# Compressibility (1/GPa) = 0.02662844
#
# Stress axis : x y z
#
# Youngs Moduli (GPa) = 70.76985 147.52595 121.90119
#
# Poissons Ratio (x) = 0.32547 -0.16856
# Poissons Ratio (y) = 0.15613 0.05100
# Poissons Ratio (z) = -0.09786 0.06172
#
# Static dielectric constant tensor:
#      x y z
#    x 2.240360 -0.067770 -0.029860 
#    y -0.067770 2.057210 0.025080 
#    z -0.029860 0.025080 2.071090 
# 
# From -- ./inp_files/591646.got.cif
#   From: 2010.05.17/outbox.cif.g08.bks.cpg/sg2_296_cif.got.tgz:591646.got - 2010.06.03 11:33:40.
