data_PCOD9038795
_publ_section_title
;
Structure prediction by ZEFSAII (Michael W. Deem and Ramdas Pophale) SiO2 
 PCOD9038795
Probable space group: P -1
;
_chemical_formula_sum "Si O2"
_cell_formula_units_Z 12
_cell_length_a 10.806600
_cell_length_b 8.970617
_cell_length_c 15.797019
_cell_angle_alpha 31.175293
_cell_angle_beta 141.736594
_cell_angle_gamma 125.065938
_cell_volume 467.783015
_symmetry_space_group_name_H-M "P -1"
_symmetry_group_IT_number 2
_symmetry_cell_setting 'triclinic'
loop_
_space_group_symop_operation_xyz
x,y,z
-x,-y,-z
loop_
_atom_site_type_symbol
_atom_site_label
_atom_site_fract_x
_atom_site_fract_y
_atom_site_fract_z
Si Si1 0.348743 0.634557 0.610201
Si Si2 0.375904 0.088657 0.801604
Si Si3 0.056717 0.648506 0.175887
Si Si4 0.272961 0.230927 0.188756
Si Si5 0.916608 0.255117 0.431100
Si Si6 0.415241 0.084442 0.639390
O O1 0.326967 0.452201 0.604881
O O2 0.588686 0.565132 0.802801
O O3 0.207296 0.570093 0.639641
O O4 0.271211 0.989872 0.376853
O O5 0.488951 0.988098 0.821800
O O6 0.145234 0.052986 0.684390
O O7 0.500000 0.000000 0.000000
O O8 0.954489 0.478799 0.272123
O O9 0.297276 0.442582 0.398421
O O10 0.953125 0.624648 0.041112
O O11 0.000000 0.000000 0.000000
O O12 0.410153 0.044563 0.274434
O O13 0.768918 0.068417 0.405969
#
# Coordination Sequence:
#
# PCOD9038795 Si02
#       6
#     2   2   2   2   2   2
#     4  10  23  42  62  97 132 168 214 276 322 385
#     4  11  23  36  64  99 130 162 216 275 323 376
#     4  11  23  39  70  96 127 173 221 267 325 385
#     4  10  23  44  67  91 135 173 217 267 331 384
#     4  10  23  45  68  91 134 172 224 262 322 400
#     4  10  24  45  67  96 130 177 221 267 315 404
#
# _framework density 25.652920000000002
#
# number of rings (size 3 to 8) (size 9 to 14) (size 15 to 20)
#    0.000    1.667    0.000    4.500    7.000    4.000 
#    3.000    2.500    0.000    0.000    0.000    0.000 
#    0.000    0.000    0.000    0.000    0.000    0.000 
#
# Total GULP energy -67188.669513 kJ/mol
# GULP energy per Si atom -5599.055793 kJ/mol
# Density = 2.559453 g / cm^3
# Si number density = 25.652920 Si / 1000 Ang^3
#
#
#
# Elastic Constant Matrix: (Units=GPa)
#
#
# Indices 1 2 3 4 5 6 
#
# 1 61.1592 13.8304 6.0558 -2.2911 -5.8315 -6.4857
# 2 13.8304 92.9967 20.4290 15.2685 0.8074 -12.1879
# 3 6.0558 20.4290 124.3862 27.4164 -6.2963 11.3810
# 4 -2.2911 15.2685 27.4164 49.7182 -9.2369 -1.3337
# 5 -5.8315 0.8074 -6.2963 -9.2369 26.9354 2.9579
# 6 -6.4857 -12.1879 11.3810 -1.3337 2.9579 40.2189
#
#
#
# Elastic Compliance Matrix: (Units=1/GPa)
#
#
# Indices 1 2 3 4 5 6 
#
# 1 0.017844 -0.002691 -0.001087 0.003148 0.004534 0.002141
# 2 -0.002691 0.012651 -0.001685 -0.003531 -0.003004 0.003980
# 3 -0.001087 -0.001685 0.009828 -0.004896 0.000839 -0.003691
# 4 0.003148 -0.003531 -0.004896 0.025615 0.008311 0.001061
# 5 0.004534 -0.003004 0.000839 0.008311 0.041595 -0.003200
# 6 0.002141 0.003980 -0.003691 0.001061 -0.003200 0.027730
#
#
# Mechanical properties :
#
#
# Convention : Reuss Voigt Hill
#
# Bulk Modulus (GPa) = 34.01503 39.90803 36.96153
# Shear Modulus (GPa) = 32.05385 39.25630 35.65507
#
# Velocity S-wave (km/s) = 3.53869 3.91613 3.73219
# Velocity P-wave (km/s) = 5.47585 6.00323 5.74560
#
# Compressibility (1/GPa) = 0.02939877
#
# Stress axis : x y z
#
# Youngs Moduli (GPa) = 56.04085 79.04638 101.74681
#
# Poissons Ratio (x) = 0.21268 0.11060
# Poissons Ratio (y) = 0.15078 0.17141
# Poissons Ratio (z) = 0.06092 0.13316
#
# Static dielectric constant tensor:
#      x y z
#    x 1.979000 0.009080 0.048070 
#    y 0.009080 2.013070 -0.033310 
#    z 0.048070 -0.033310 2.102690 
# 
# From -- ./inp_files/153109.got.cif
#   From: 2010.05.17/outbox.cif.g08.bks.cpg/sg2_77_cif.got.tgz:153109.got - 2010.06.03 11:33:40.
