data_PCOD9038619
_publ_section_title
;
Structure prediction by ZEFSAII (Michael W. Deem and Ramdas Pophale) SiO2 
 PCOD9038619
Probable space group: P -1
;
_chemical_formula_sum "Si O2"
_cell_formula_units_Z 16
_cell_length_a 9.906597
_cell_length_b 5.401263
_cell_length_c 16.757735
_cell_angle_alpha 49.625412
_cell_angle_beta 98.571573
_cell_angle_gamma 95.046284
_cell_volume 675.436242
_symmetry_space_group_name_H-M "P -1"
_symmetry_group_IT_number 2
_symmetry_cell_setting 'triclinic'
loop_
_space_group_symop_operation_xyz
x,y,z
-x,-y,-z
loop_
_atom_site_type_symbol
_atom_site_label
_atom_site_fract_x
_atom_site_fract_y
_atom_site_fract_z
Si Si1 0.822628 0.838272 0.874651
Si Si2 0.873690 0.131429 0.066476
Si Si3 0.673868 0.359926 0.328446
Si Si4 0.390068 0.644603 0.240432
Si Si5 0.153673 0.583547 0.516825
Si Si6 0.152118 0.181213 0.289184
Si Si7 0.381306 0.326157 0.478326
Si Si8 0.850695 0.398960 0.188612
O O1 0.857093 0.002398 0.757996
O O2 0.961446 0.884598 0.927467
O O3 0.683365 0.009866 0.853416
O O4 0.817628 0.448254 0.949825
O O5 0.845488 0.226347 0.137701
O O6 0.818617 0.785687 0.106215
O O7 0.550156 0.606507 0.244600
O O8 0.788761 0.477755 0.376698
O O9 0.748471 0.255870 0.275252
O O10 0.602350 0.062168 0.431361
O O11 0.288033 0.387400 0.245749
O O12 0.377693 0.524631 0.355400
O O13 0.244442 0.391106 0.501934
O O14 0.000000 0.500000 0.500000
O O15 0.169702 0.959844 0.414319
O O16 0.006465 0.362613 0.242008
O O17 0.500000 0.500000 0.500000
#
# Coordination Sequence:
#
# PCOD9038619 Si02
#       8
#     2   2   2   2   2   2   2   2
#     4  10  23  41  72 100 129 174 235 299 346 405
#     4  10  24  46  72 101 136 176 235 301 354 406
#     4  12  28  42  64 100 145 188 224 286 346 422
#     4  12  23  42  66  99 135 178 234 282 346 414
#     4  12  26  40  66  99 142 183 228 281 346 417
#     4  11  23  41  68 100 133 177 235 286 344 416
#     4  12  24  43  65  96 139 186 233 280 340 414
#     4  11  26  45  69 102 140 183 231 289 359 418
#
# _framework density 23.688395
#
# number of rings (size 3 to 8) (size 9 to 14) (size 15 to 20)
#    0.000    0.750    5.000    1.875    8.750    2.500 
#    0.000    1.250    0.000    0.000    0.000    0.000 
#    0.000    0.000    0.000    0.000    0.000    0.000 
#
# Total GULP energy -89407.131484 kJ/mol
# GULP energy per Si atom -5587.945718 kJ/mol
# Density = 2.363448 g / cm^3
# Si number density = 23.688395 Si / 1000 Ang^3
#
#
#
# Elastic Constant Matrix: (Units=GPa)
#
#
# Indices 1 2 3 4 5 6 
#
# 1 135.9446 22.8741 36.1639 5.2213 27.2452 -16.7579
# 2 22.8741 63.3581 32.4556 -1.8729 13.6484 -7.7093
# 3 36.1639 32.4556 105.9441 2.8318 17.4223 -5.1247
# 4 5.2213 -1.8729 2.8318 52.2523 -5.4573 0.1029
# 5 27.2452 13.6484 17.4223 -5.4573 42.5565 -1.5742
# 6 -16.7579 -7.7093 -5.1247 0.1029 -1.5742 36.3820
#
#
#
# Elastic Compliance Matrix: (Units=1/GPa)
#
#
# Indices 1 2 3 4 5 6 
#
# 1 0.009556 -0.000968 -0.001914 -0.001423 -0.005069 0.003712
# 2 -0.000968 0.019845 -0.005056 0.000713 -0.003476 0.002895
# 3 -0.001914 -0.005056 0.012008 -0.000869 -0.002193 -0.000354
# 4 -0.001423 0.000713 -0.000869 0.019724 0.003548 -0.000529
# 5 -0.005069 -0.003476 -0.002193 0.003548 0.029132 -0.002130
# 6 0.003712 0.002895 -0.000354 -0.000529 -0.002130 0.029669
#
#
# Mechanical properties :
#
#
# Convention : Reuss Voigt Hill
#
# Bulk Modulus (GPa) = 39.16648 54.24821 46.70734
# Shear Modulus (GPa) = 34.64463 40.48839 37.56651
#
# Velocity S-wave (km/s) = 3.82843 4.13874 3.98661
# Velocity P-wave (km/s) = 6.00936 6.76679 6.39929
#
# Compressibility (1/GPa) = 0.02553204
#
# Stress axis : x y z
#
# Youngs Moduli (GPa) = 104.64530 50.39032 83.27632
#
# Poissons Ratio (x) = 0.04877 0.15942
# Poissons Ratio (y) = 0.10129 0.42108
# Poissons Ratio (z) = 0.20032 0.25480
#
# Static dielectric constant tensor:
#      x y z
#    x 1.950050 0.081670 0.028470 
#    y 0.081670 2.092830 0.025790 
#    z 0.028470 0.025790 1.988850 
# 
# From -- ./inp_files/49356.got.cif
#   From: 2010.05.17/outbox.cif.g08.bks.cpg/sg2_25_cif.got.tgz:49356.got - 2010.06.03 11:33:40.
