data_PCOD9038937
_publ_section_title
;
Structure prediction by ZEFSAII (Michael W. Deem and Ramdas Pophale) SiO2 
 PCOD9038937
Probable space group: P -1
;
_chemical_formula_sum "Si O2"
_cell_formula_units_Z 14
_cell_length_a 12.367727
_cell_length_b 9.310873
_cell_length_c 14.111278
_cell_angle_alpha 51.959156
_cell_angle_beta 150.975829
_cell_angle_gamma 111.508661
_cell_volume 554.304291
_symmetry_space_group_name_H-M "P -1"
_symmetry_group_IT_number 2
_symmetry_cell_setting 'triclinic'
loop_
_space_group_symop_operation_xyz
x,y,z
-x,-y,-z
loop_
_atom_site_type_symbol
_atom_site_label
_atom_site_fract_x
_atom_site_fract_y
_atom_site_fract_z
Si Si1 0.047729 0.859122 0.503324
Si Si2 0.485596 0.142001 0.204990
Si Si3 0.300488 0.548298 0.527542
Si Si4 0.159530 0.616359 0.045503
Si Si5 0.733776 0.695950 0.233874
Si Si6 0.096434 0.995636 0.969602
Si Si7 0.116888 0.546489 0.833447
O O1 0.232560 0.894824 0.560709
O O2 0.166896 0.641227 0.737664
O O3 0.803772 0.866098 0.263645
O O4 0.000000 0.000000 0.500000
O O5 0.408856 0.223766 0.005208
O O6 0.331738 0.315074 0.093648
O O7 0.374684 0.980368 0.193492
O O8 0.542058 0.529206 0.665508
O O9 0.388685 0.395998 0.747375
O O10 0.098091 0.776691 0.308185
O O11 0.141403 0.464918 0.376804
O O12 0.102273 0.662440 0.871294
O O13 0.000000 0.500000 0.000000
O O14 0.098987 0.812369 0.984274
O O15 0.000000 0.500000 0.500000
O O16 0.000000 0.000000 0.000000
#
# Coordination Sequence:
#
# PCOD9038937 Si02
#       7
#     2   2   2   2   2   2   2
#     4  11  25  37  63 105 135 171 221 270 332 404
#     4  11  23  43  68  94 140 181 221 277 329 406
#     4  10  24  47  71  97 142 177 220 280 338 400
#     4  12  27  46  71  99 132 180 230 283 337 395
#     4  11  21  42  70  97 135 185 213 267 349 392
#     4  11  26  47  71 101 131 181 232 277 340 401
#     4  10  23  42  64  99 133 175 224 269 337 397
#
# _framework density 25.256886000000002
#
# number of rings (size 3 to 8) (size 9 to 14) (size 15 to 20)
#    0.000    1.143    4.286    3.000    8.000    3.429 
#    0.000    0.000    0.000    0.000    0.000    0.000 
#    0.000    0.000    0.000    0.000    0.000    0.000 
#
# Total GULP energy -78403.217709 kJ/mol
# GULP energy per Si atom -5600.229836 kJ/mol
# Density = 2.519940 g / cm^3
# Si number density = 25.256886 Si / 1000 Ang^3
#
#
#
# Elastic Constant Matrix: (Units=GPa)
#
#
# Indices 1 2 3 4 5 6 
#
# 1 130.4508 72.3053 34.4928 24.0191 13.7031 5.0563
# 2 72.3053 190.3860 34.7469 19.9796 18.1643 -8.9726
# 3 34.4928 34.7469 51.1887 14.6401 14.5839 13.1199
# 4 24.0191 19.9796 14.6401 28.4956 7.8538 8.8656
# 5 13.7031 18.1643 14.5839 7.8538 44.6436 20.4618
# 6 5.0563 -8.9726 13.1199 8.8656 20.4618 63.3707
#
#
#
# Elastic Compliance Matrix: (Units=1/GPa)
#
#
# Indices 1 2 3 4 5 6 
#
# 1 0.011424 -0.002977 -0.004162 -0.005474 -0.000127 0.000335
# 2 -0.002977 0.007367 -0.002625 -0.001554 -0.002216 0.002757
# 3 -0.004162 -0.002625 0.028155 -0.006893 -0.003980 -0.003619
# 4 -0.005474 -0.001554 -0.006893 0.046110 -0.001578 -0.004297
# 5 -0.000127 -0.002216 -0.003980 -0.001578 0.028848 -0.008574
# 6 0.000335 0.002757 -0.003619 -0.004297 -0.008574 0.020263
#
#
# Mechanical properties :
#
#
# Convention : Reuss Voigt Hill
#
# Bulk Modulus (GPa) = 36.47229 72.79060 54.63145
# Shear Modulus (GPa) = 29.26823 42.66736 35.96779
#
# Velocity S-wave (km/s) = 3.40784 4.11461 3.77779
# Velocity P-wave (km/s) = 5.47324 7.17329 6.38014
#
# Compressibility (1/GPa) = 0.02741807
#
# Stress axis : x y z
#
# Youngs Moduli (GPa) = 87.53283 135.74648 35.51749
#
# Poissons Ratio (x) = 0.40410 0.14782
# Poissons Ratio (y) = 0.26058 0.09325
# Poissons Ratio (z) = 0.36429 0.35638
#
# Static dielectric constant tensor:
#      x y z
#    x 1.982120 0.046070 -0.014830 
#    y 0.046070 2.068860 -0.023620 
#    z -0.014830 -0.023620 2.050070 
# 
# From -- ./inp_files/329652.got.cif
#   From: 2010.05.17/outbox.cif.g08.bks.cpg/sg2_165_cif.got.tgz:329652.got - 2010.06.03 11:33:40.
