data_PCOD9038665
_publ_section_title
;
Structure prediction by ZEFSAII (Michael W. Deem and Ramdas Pophale) SiO2 
 PCOD9038665
Probable space group: P -1
;
_chemical_formula_sum "Si O2"
_cell_formula_units_Z 14
_cell_length_a 10.736045
_cell_length_b 10.760078
_cell_length_c 5.521462
_cell_angle_alpha 98.876330
_cell_angle_beta 84.289757
_cell_angle_gamma 61.166634
_cell_volume 540.815858
_symmetry_space_group_name_H-M "P -1"
_symmetry_group_IT_number 2
_symmetry_cell_setting 'triclinic'
loop_
_space_group_symop_operation_xyz
x,y,z
-x,-y,-z
loop_
_atom_site_type_symbol
_atom_site_label
_atom_site_fract_x
_atom_site_fract_y
_atom_site_fract_z
Si Si1 0.964309 0.185799 0.454744
Si Si2 0.583388 0.154405 0.976455
Si Si3 0.672002 0.439647 0.478026
Si Si4 0.883386 0.109652 0.865185
Si Si5 0.401741 0.114430 0.356686
Si Si6 0.300511 0.420158 0.974541
Si Si7 0.885087 0.651483 0.680986
O O1 0.795182 0.265949 0.423940
O O2 0.937220 0.208904 0.756325
O O3 0.030076 0.261419 0.302221
O O4 0.090681 0.016017 0.372450
O O5 0.715733 0.181892 0.974282
O O6 0.628161 0.989018 0.849036
O O7 0.500970 0.173903 0.248072
O O8 0.456628 0.272504 0.867778
O O9 0.500000 0.500000 0.500000
O O10 0.687627 0.502277 0.755635
O O11 0.719861 0.492531 0.242907
O O12 0.000000 0.000000 0.000000
O O13 0.245228 0.255228 0.456645
O O14 0.500000 0.000000 0.500000
O O15 0.185465 0.372110 0.071025
O O16 0.000000 0.500000 0.500000
#
# Coordination Sequence:
#
# PCOD9038665 Si02
#       7
#     2   2   2   2   2   2   2
#     4  11  26  46  69 105 142 194 244 309 371 444
#     4  10  23  43  65 105 137 185 252 298 367 443
#     4  12  27  49  76 109 152 195 249 303 377 451
#     4  11  26  44  70 100 143 192 250 306 372 439
#     4  10  23  41  72  98 140 191 242 306 370 440
#     4  11  27  46  76 112 145 199 244 308 373 449
#     4  11  23  48  71 109 151 190 252 306 379 446
#
# _framework density 25.886816
#
# number of rings (size 3 to 8) (size 9 to 14) (size 15 to 20)
#    0.000    1.143    2.857    1.286   10.000    0.571 
#    2.571    0.000    0.000    0.000    0.000    0.000 
#    0.000    0.000    0.000    0.000    0.000    0.000 
#
# Total GULP energy -78091.418903 kJ/mol
# GULP energy per Si atom -5577.958493 kJ/mol
# Density = 2.582790 g / cm^3
# Si number density = 25.886816 Si / 1000 Ang^3
#
#
#
# Elastic Constant Matrix: (Units=GPa)
#
#
# Indices 1 2 3 4 5 6 
#
# 1 96.4585 4.8996 55.5134 2.4603 -34.4772 -24.1721
# 2 4.8996 142.9416 32.7926 -5.0182 -5.5496 -43.9147
# 3 55.5134 32.7926 111.7547 -25.3975 -8.8941 -11.4021
# 4 2.4603 -5.0182 -25.3975 54.2011 0.9893 -0.0687
# 5 -34.4772 -5.5496 -8.8941 0.9893 28.0796 11.3453
# 6 -24.1721 -43.9147 -11.4021 -0.0687 11.3453 51.7624
#
#
#
# Elastic Compliance Matrix: (Units=1/GPa)
#
#
# Indices 1 2 3 4 5 6 
#
# 1 0.037485 0.007787 -0.019168 -0.010625 0.037125 0.011738
# 2 0.007787 0.011656 -0.006252 -0.002291 0.005550 0.010928
# 3 -0.019168 -0.006252 0.020736 0.010294 -0.016081 -0.006150
# 4 -0.010625 -0.002291 0.010294 0.023725 -0.010108 -0.002391
# 5 0.037125 0.005550 -0.016081 -0.010108 0.076896 0.001635
# 6 0.011738 0.010928 -0.006150 -0.002391 0.001635 0.032356
#
#
# Mechanical properties :
#
#
# Convention : Reuss Voigt Hill
#
# Bulk Modulus (GPa) = 28.89278 59.72954 44.31116
# Shear Modulus (GPa) = 20.02746 44.00524 32.01635
#
# Velocity S-wave (km/s) = 2.78448 4.12747 3.52061
# Velocity P-wave (km/s) = 4.63931 6.77038 5.80350
#
# Compressibility (1/GPa) = 0.03461072
#
# Stress axis : x y z
#
# Youngs Moduli (GPa) = 26.67718 85.79448 48.22425
#
# Poissons Ratio (x) = -0.66807 0.92436
# Poissons Ratio (y) = -0.20773 0.30152
# Poissons Ratio (z) = 0.51135 0.53642
#
# Static dielectric constant tensor:
#      x y z
#    x 2.145370 0.128850 0.069260 
#    y 0.128850 2.402100 0.031630 
#    z 0.069260 0.031630 2.252880 
# 
# From -- ./inp_files/69404.got.cif
#   From: 2010.05.17/outbox.cif.g08.bks.cpg/sg2_35_cif.got.tgz:69404.got - 2010.06.03 11:33:40.
