data_PCOD9038273
_publ_section_title
;
Structure prediction by ZEFSAII (Michael W. Deem and Ramdas Pophale) SiO2 
 PCOD9038273
Probable space group: P -1
;
_chemical_formula_sum "Si O2"
_cell_formula_units_Z 14
_cell_length_a 11.074831
_cell_length_b 12.851154
_cell_length_c 5.433280
_cell_angle_alpha 93.378663
_cell_angle_beta 106.065679
_cell_angle_gamma 56.380894
_cell_volume 614.485628
_symmetry_space_group_name_H-M "P -1"
_symmetry_group_IT_number 2
_symmetry_cell_setting 'triclinic'
loop_
_space_group_symop_operation_xyz
x,y,z
-x,-y,-z
loop_
_atom_site_type_symbol
_atom_site_label
_atom_site_fract_x
_atom_site_fract_y
_atom_site_fract_z
Si Si1 0.900624 0.206364 0.436037
Si Si2 0.064979 0.085045 0.019767
Si Si3 0.299369 0.905141 0.791258
Si Si4 0.651485 0.719237 0.032285
Si Si5 0.174936 0.538375 0.658670
Si Si6 0.881002 0.606594 0.761588
Si Si7 0.596347 0.941647 0.301741
O O1 0.986692 0.170808 0.742320
O O2 0.807934 0.140074 0.359076
O O3 0.793302 0.356762 0.364576
O O4 0.008147 0.162488 0.249242
O O5 0.237924 0.980671 0.025971
O O6 0.000000 0.000000 0.000000
O O7 0.294459 0.009349 0.632709
O O8 0.474132 0.790146 0.885031
O O9 0.721637 0.573307 0.107230
O O10 0.665724 0.794608 0.277927
O O11 0.753476 0.721208 0.870672
O O12 0.193826 0.456787 0.422242
O O13 0.996116 0.611968 0.643614
O O14 0.000000 0.500000 0.000000
O O15 0.500000 0.000000 0.500000
O O16 0.500000 0.000000 0.000000
#
# Coordination Sequence:
#
# PCOD9038273 Si02
#       7
#     2   2   2   2   2   2   2
#     4  11  25  43  72 100 137 181 226 280 340 411
#     4  10  23  44  66  97 134 183 227 270 334 407
#     4  10  23  44  67 100 138 174 225 285 342 401
#     4  10  23  41  67  98 138 174 230 279 345 401
#     4  10  23  41  70  97 135 176 232 276 346 402
#     4   9  21  42  62  92 132 180 223 277 325 406
#     4  10  24  41  64  96 134 177 220 272 337 401
#
# _framework density 22.783282
#
# number of rings (size 3 to 8) (size 9 to 14) (size 15 to 20)
#    0.000    2.000    0.000    1.714   10.000    9.714 
#    0.000    0.714    0.000    0.000    0.000    0.000 
#    0.000    0.000    0.000    0.000    0.000    0.000 
#
# Total GULP energy -78082.834810 kJ/mol
# GULP energy per Si atom -5577.345344 kJ/mol
# Density = 2.273143 g / cm^3
# Si number density = 22.783282 Si / 1000 Ang^3
#
#
#
# Elastic Constant Matrix: (Units=GPa)
#
#
# Indices 1 2 3 4 5 6 
#
# 1 96.2623 50.0645 32.9946 15.0225 -10.3855 -8.0091
# 2 50.0645 131.1269 35.2954 3.5185 -2.0425 2.8016
# 3 32.9946 35.2954 116.4024 11.0016 -17.3154 -10.3810
# 4 15.0225 3.5185 11.0016 38.7273 -10.4439 0.0408
# 5 -10.3855 -2.0425 -17.3154 -10.4439 35.9386 4.9308
# 6 -8.0091 2.8016 -10.3810 0.0408 4.9308 55.9025
#
#
#
# Elastic Compliance Matrix: (Units=1/GPa)
#
#
# Indices 1 2 3 4 5 6 
#
# 1 0.014595 -0.004982 -0.001824 -0.004272 0.001558 0.001868
# 2 -0.004982 0.010068 -0.002086 0.001261 -0.001302 -0.001492
# 3 -0.001824 -0.002086 0.010555 -0.001041 0.003937 0.001457
# 4 -0.004272 0.001261 -0.001041 0.029588 0.007142 -0.001520
# 5 0.001558 -0.001302 0.003937 0.007142 0.032427 -0.001846
# 6 0.001868 -0.001492 0.001457 -0.001520 -0.001846 0.018665
#
#
# Mechanical properties :
#
#
# Convention : Reuss Voigt Hill
#
# Bulk Modulus (GPa) = 57.36723 64.50006 60.93364
# Shear Modulus (GPa) = 35.84393 41.14283 38.49338
#
# Velocity S-wave (km/s) = 3.97073 4.25412 4.11487
# Velocity P-wave (km/s) = 6.80121 7.24581 7.02703
#
# Compressibility (1/GPa) = 0.01743156
#
# Stress axis : x y z
#
# Youngs Moduli (GPa) = 68.51671 99.32634 94.74605
#
# Poissons Ratio (x) = 0.49488 0.17283
# Poissons Ratio (y) = 0.34138 0.19767
# Poissons Ratio (z) = 0.12499 0.20723
#
# Static dielectric constant tensor:
#      x y z
#    x 1.878590 -0.004590 -0.043770 
#    y -0.004590 1.978850 -0.070460 
#    z -0.043770 -0.070460 1.977170 
# 
# From -- ./inp_files/74831.got.cif
#   From: 2010.05.17/outbox.cif.g08.bks.cpg/sg2_38_cif.got.tgz:74831.got - 2010.06.03 11:33:40.
