data_PCOD9038788
_publ_section_title
;
Structure prediction by ZEFSAII (Michael W. Deem and Ramdas Pophale) SiO2 
 PCOD9038788
Probable space group: P -1
;
_chemical_formula_sum "Si O2"
_cell_formula_units_Z 14
_cell_length_a 12.315728
_cell_length_b 9.321957
_cell_length_c 9.838617
_cell_angle_alpha 105.604422
_cell_angle_beta 68.018535
_cell_angle_gamma 141.270472
_cell_volume 654.801927
_symmetry_space_group_name_H-M "P -1"
_symmetry_group_IT_number 2
_symmetry_cell_setting 'triclinic'
loop_
_space_group_symop_operation_xyz
x,y,z
-x,-y,-z
loop_
_atom_site_type_symbol
_atom_site_label
_atom_site_fract_x
_atom_site_fract_y
_atom_site_fract_z
Si Si1 0.422956 0.260918 0.513949
Si Si2 0.419163 0.826602 0.772965
Si Si3 0.513074 0.662178 0.191070
Si Si4 0.903329 0.057957 0.604442
Si Si5 0.887238 0.436124 0.336649
Si Si6 0.578959 0.765166 0.891747
Si Si7 0.753470 0.355049 0.677318
O O1 0.500000 0.500000 0.500000
O O2 0.553237 0.273281 0.380360
O O3 0.412703 0.223003 0.668219
O O4 0.229141 0.041248 0.484883
O O5 0.229846 0.709826 0.780359
O O6 0.455405 0.773458 0.882963
O O7 0.584879 0.099647 0.749304
O O8 0.517251 0.487892 0.140146
O O9 0.310600 0.535661 0.255535
O O10 0.607644 0.814431 0.050567
O O11 0.038310 0.322511 0.637155
O O12 0.763082 0.922728 0.761382
O O13 0.000000 0.000000 0.500000
O O14 0.779869 0.326222 0.502163
O O15 0.064118 0.504976 0.292103
#
# Coordination Sequence:
#
# PCOD9038788 Si02
#       7
#     2   2   2   2   2   2   2
#     4  11  19  37  65  93 116 167 211 254 310 364
#     4  11  21  41  65  91 126 164 215 256 309 373
#     4  11  22  39  66  89 130 164 209 257 320 373
#     4  11  21  37  64  93 123 160 216 259 307 364
#     4  11  22  37  64  95 129 155 212 268 304 368
#     4  10  23  42  62  92 124 171 206 258 317 375
#     4  11  23  38  63  97 127 164 206 266 315 361
#
# _framework density 21.380512
#
# number of rings (size 3 to 8) (size 9 to 14) (size 15 to 20)
#    0.000    1.143    7.143    2.143    0.000    0.571 
#    0.000    1.429    3.143    0.000    0.000    0.000 
#    0.000    0.000    0.000    0.000    0.000    0.000 
#
# Total GULP energy -78166.418182 kJ/mol
# GULP energy per Si atom -5583.315584 kJ/mol
# Density = 2.133185 g / cm^3
# Si number density = 21.380512 Si / 1000 Ang^3
#
#
#
# Elastic Constant Matrix: (Units=GPa)
#
#
# Indices 1 2 3 4 5 6 
#
# 1 109.7461 33.0779 31.4945 -10.9775 19.3981 16.9194
# 2 33.0779 63.4280 22.3198 -4.3733 23.7850 6.5489
# 3 31.4945 22.3198 134.3506 -14.3175 29.8749 2.4487
# 4 -10.9775 -4.3733 -14.3175 16.6076 -8.5359 -0.0447
# 5 19.3981 23.7850 29.8749 -8.5359 37.5862 2.7474
# 6 16.9194 6.5489 2.4487 -0.0447 2.7474 28.1408
#
#
#
# Elastic Compliance Matrix: (Units=1/GPa)
#
#
# Indices 1 2 3 4 5 6 
#
# 1 0.012576 -0.004814 -0.001286 0.005558 -0.000703 -0.006252
# 2 -0.004814 0.022961 -0.000269 -0.003857 -0.012620 -0.001200
# 3 -0.001286 -0.000269 0.009529 0.004313 -0.005803 0.000580
# 4 0.005558 -0.003857 0.004313 0.073303 0.013082 -0.003981
# 5 -0.000703 -0.012620 -0.005803 0.013082 0.042558 -0.000270
# 6 -0.006252 -0.001200 0.000580 -0.003981 -0.000270 0.039543
#
#
# Mechanical properties :
#
#
# Convention : Reuss Voigt Hill
#
# Bulk Modulus (GPa) = 30.93167 53.47878 42.20523
# Shear Modulus (GPa) = 22.32312 31.17575 26.74943
#
# Velocity S-wave (km/s) = 3.23474 3.82270 3.54094
# Velocity P-wave (km/s) = 5.33386 6.67467 6.04157
#
# Compressibility (1/GPa) = 0.03232932
#
# Stress axis : x y z
#
# Youngs Moduli (GPa) = 79.51795 43.55137 104.94575
#
# Poissons Ratio (x) = 0.20964 0.13493
# Poissons Ratio (y) = 0.38276 0.02823
# Poissons Ratio (z) = 0.10224 0.01172
#
# Static dielectric constant tensor:
#      x y z
#    x 1.970990 -0.029610 -0.014130 
#    y -0.029610 1.786670 -0.008420 
#    z -0.014130 -0.008420 1.792070 
# 
# From -- ./inp_files/244543.got.cif
#   From: 2010.05.17/outbox.cif.g08.bks.cpg/sg2_123_cif.got.tgz:244543.got - 2010.06.03 11:33:40.
