data_PCOD9038577
_publ_section_title
;
Structure prediction by ZEFSAII (Michael W. Deem and Ramdas Pophale) SiO2 
 PCOD9038577
Probable space group: P -1
;
_chemical_formula_sum "Si O2"
_cell_formula_units_Z 16
_cell_length_a 7.675321
_cell_length_b 7.948489
_cell_length_c 14.464791
_cell_angle_alpha 136.277106
_cell_angle_beta 113.829254
_cell_angle_gamma 76.580739
_cell_volume 555.424550
_symmetry_space_group_name_H-M "P -1"
_symmetry_group_IT_number 2
_symmetry_cell_setting 'triclinic'
loop_
_space_group_symop_operation_xyz
x,y,z
-x,-y,-z
loop_
_atom_site_type_symbol
_atom_site_label
_atom_site_fract_x
_atom_site_fract_y
_atom_site_fract_z
Si Si1 0.241570 0.254784 0.188776
Si Si2 0.761215 0.584941 0.189535
Si Si3 0.206338 0.785802 0.328311
Si Si4 0.608438 0.052445 0.274077
Si Si5 0.777337 0.402674 0.931358
Si Si6 0.817380 0.480254 0.550031
Si Si7 0.305207 0.085356 0.950438
Si Si8 0.233682 0.329921 0.574674
O O1 0.296386 0.536678 0.277587
O O2 0.414314 0.127597 0.219674
O O3 0.126051 0.318098 0.280349
O O4 0.174092 0.111284 0.023836
O O5 0.719918 0.522939 0.262510
O O6 0.979468 0.720013 0.279425
O O7 0.618143 0.782844 0.208129
O O8 0.755269 0.378139 0.027327
O O9 0.244176 0.804871 0.233271
O O10 0.271190 0.050604 0.486831
O O11 0.674576 0.239935 0.443358
O O12 0.744758 0.061454 0.213559
O O13 0.667759 0.636539 0.971746
O O14 0.000000 0.500000 0.000000
O O15 0.707478 0.580020 0.478442
O O16 0.007779 0.350128 0.521444
O O17 0.500000 0.000000 0.000000
#
# Coordination Sequence:
#
# PCOD9038577 Si02
#       8
#     2   2   2   2   2   2   2   2
#     4  10  19  34  56  79 101 129 168 210 249 297
#     4  10  17  33  54  75  97 133 172 203 249 296
#     4  10  17  33  54  75  97 133 172 203 249 296
#     4  10  19  34  56  79 101 129 168 210 249 297
#     4   8  16  26  49  77  97 117 166 220 237 282
#     4  11  22  35  48  75 106 135 170 208 251 293
#     4   8  16  30  51  77 101 125 158 205 255 294
#     4  11  22  34  50  72 106 140 167 206 251 299
#
# _framework density 28.806791
#
# number of rings (size 3 to 8) (size 9 to 14) (size 15 to 20)
#    0.000    2.250    2.500    1.500    0.000    0.000 
#    0.000    3.750    0.000    3.000    0.000   10.500 
#    0.000    0.000    0.000    0.000    0.000    0.000 
#
# Total GULP energy -89417.270794 kJ/mol
# GULP energy per Si atom -5588.579425 kJ/mol
# Density = 2.874123 g / cm^3
# Si number density = 28.806791 Si / 1000 Ang^3
#
#
#
# Elastic Constant Matrix: (Units=GPa)
#
#
# Indices 1 2 3 4 5 6 
#
# 1 53.4244 22.1169 32.8721 17.1496 -12.8371 -5.4322
# 2 22.1169 169.6336 30.7071 -4.5765 -4.2849 -2.9188
# 3 32.8721 30.7071 187.9532 -16.2698 -24.3362 12.8580
# 4 17.1496 -4.5765 -16.2698 42.1485 4.2574 -10.8839
# 5 -12.8371 -4.2849 -24.3362 4.2574 42.1936 -4.8991
# 6 -5.4322 -2.9188 12.8580 -10.8839 -4.8991 38.1519
#
#
#
# Elastic Compliance Matrix: (Units=1/GPa)
#
#
# Indices 1 2 3 4 5 6 
#
# 1 0.030002 -0.003130 -0.005198 -0.014655 0.007590 0.002578
# 2 -0.003130 0.006437 -0.000465 0.002043 -0.000692 0.000697
# 3 -0.005198 -0.000465 0.007015 0.004145 0.001799 -0.001726
# 4 -0.014655 0.002043 0.004145 0.033424 -0.004580 0.005620
# 5 0.007590 -0.000692 0.001799 -0.004580 0.027750 0.002678
# 6 0.002578 0.000697 -0.001726 0.005620 0.002678 0.029160
#
#
# Mechanical properties :
#
#
# Convention : Reuss Voigt Hill
#
# Bulk Modulus (GPa) = 38.65606 64.71151 51.68378
# Shear Modulus (GPa) = 31.25040 46.18647 38.71843
#
# Velocity S-wave (km/s) = 3.29725 4.00849 3.67014
# Velocity P-wave (km/s) = 5.28621 6.62848 5.99503
#
# Compressibility (1/GPa) = 0.02586916
#
# Stress axis : x y z
#
# Youngs Moduli (GPa) = 33.33061 155.35408 142.54477
#
# Poissons Ratio (x) = 0.48627 0.74096
# Poissons Ratio (y) = 0.10433 0.06623
# Poissons Ratio (z) = 0.17326 0.07218
#
# Static dielectric constant tensor:
#      x y z
#    x 2.384200 0.092960 -0.090690 
#    y 0.092960 2.204290 -0.053110 
#    z -0.090690 -0.053110 2.195550 
# 
# From -- ./inp_files/513715.got.cif
#   From: 2010.05.17/outbox.cif.g08.bks.cpg/sg2_257_cif.got.tgz:513715.got - 2010.06.03 11:33:40.
