data_PCOD9038386
_publ_section_title
;
Structure prediction by ZEFSAII (Michael W. Deem and Ramdas Pophale) SiO2 
 PCOD9038386
Probable space group: P -1
;
_chemical_formula_sum "Si O2"
_cell_formula_units_Z 15
_cell_length_a 10.122545
_cell_length_b 7.698054
_cell_length_c 18.479533
_cell_angle_alpha 31.933913
_cell_angle_beta 44.704513
_cell_angle_gamma 51.265641
_cell_volume 534.816293
_symmetry_space_group_name_H-M "P -1"
_symmetry_group_IT_number 2
_symmetry_cell_setting 'triclinic'
loop_
_space_group_symop_operation_xyz
x,y,z
-x,-y,-z
loop_
_atom_site_type_symbol
_atom_site_label
_atom_site_fract_x
_atom_site_fract_y
_atom_site_fract_z
Si Si1 0.752619 0.008521 0.159740
Si Si2 0.944269 0.944688 0.322941
Si Si3 0.323122 0.500001 0.358420
Si Si4 0.680072 0.365965 0.912065
Si Si5 0.000000 0.500000 0.000000
Si Si6 0.640538 0.597242 0.085896
Si Si7 0.051370 0.511791 0.651175
Si Si8 0.639432 0.097179 0.666871
O O1 0.795010 0.309554 0.093060
O O2 0.879731 0.679845 0.235785
O O3 0.547606 0.928317 0.298253
O O4 0.741922 0.138067 0.036274
O O5 0.790192 0.832786 0.480145
O O6 0.888745 0.729580 0.352010
O O7 0.151026 0.787065 0.319210
O O8 0.936480 0.311263 0.168890
O O9 0.493078 0.491953 0.238935
O O10 0.412303 0.614036 0.358442
O O11 0.495779 0.272728 0.971254
O O12 0.830183 0.485925 0.752484
O O13 0.646052 0.735793 0.828429
O O14 0.811930 0.790741 0.980645
O O15 0.171591 0.820358 0.477312
#
# Coordination Sequence:
#
# PCOD9038386 Si02
#       8
#     2   2   2   2   1   2   2   2
#     4  11  24  44  64  98 137 174 223 279 323 392
#     4  10  23  43  69 101 132 169 225 280 325 403
#     4  10  23  45  72  95 133 178 222 267 341 400
#     4  11  24  44  70  96 133 180 221 274 333 392
#     4  12  26  42  66 102 136 168 224 278 328 392
#     4  11  24  45  68  96 136 178 218 277 333 393
#     4  11  21  45  69  97 133 176 220 277 330 390
#     4  10  23  41  69 100 130 173 224 270 326 409
#
# _framework density 28.047013
#
# number of rings (size 3 to 8) (size 9 to 14) (size 15 to 20)
#    0.000    1.333    2.667    2.800    3.733    2.133 
#    2.400    0.000    0.000    0.000    0.000    0.000 
#    0.000    0.000    0.000    0.000    0.000    0.000 
#
# Total GULP energy -83632.117934 kJ/mol
# GULP energy per Si atom -5575.474529 kJ/mol
# Density = 2.798318 g / cm^3
# Si number density = 28.047013 Si / 1000 Ang^3
#
#
#
# Elastic Constant Matrix: (Units=GPa)
#
#
# Indices 1 2 3 4 5 6 
#
# 1 110.0518 24.2722 69.6829 9.6613 -12.9772 -16.6871
# 2 24.2722 36.6991 44.2881 31.5785 -10.6882 4.7119
# 3 69.6829 44.2881 176.8869 22.3930 -27.2854 -12.8459
# 4 9.6613 31.5785 22.3930 61.2452 -5.4100 -5.7609
# 5 -12.9772 -10.6882 -27.2854 -5.4100 49.2730 4.9485
# 6 -16.6871 4.7119 -12.8459 -5.7609 4.9485 42.4076
#
#
#
# Elastic Compliance Matrix: (Units=1/GPa)
#
#
# Indices 1 2 3 4 5 6 
#
# 1 0.013871 -0.011003 -0.002957 0.005140 -0.000463 0.006537
# 2 -0.011003 0.096084 -0.014889 -0.044182 0.007499 -0.026393
# 3 -0.002957 -0.014889 0.010530 0.004852 0.001942 0.004113
# 4 0.005140 -0.044182 0.004852 0.037577 -0.002807 0.013834
# 5 -0.000463 0.007499 0.001942 -0.002807 0.022917 -0.003482
# 6 0.006537 -0.026393 0.004113 0.013834 -0.003482 0.032617
#
#
# Mechanical properties :
#
#
# Convention : Reuss Voigt Hill
#
# Bulk Modulus (GPa) = 15.92685 66.68047 41.30366
# Shear Modulus (GPa) = 17.11020 42.94482 30.02751
#
# Velocity S-wave (km/s) = 2.47261 3.91727 3.27557
# Velocity P-wave (km/s) = 3.72057 6.65478 5.39114
#
# Compressibility (1/GPa) = 0.06278704
#
# Stress axis : x y z
#
# Youngs Moduli (GPa) = 72.09291 10.40755 94.96521
#
# Poissons Ratio (x) = 0.11451 0.28080
# Poissons Ratio (y) = 0.79323 1.41397
# Poissons Ratio (z) = 0.21317 0.15496
#
# Static dielectric constant tensor:
#      x y z
#    x 2.507490 -0.046990 -0.125220 
#    y -0.046990 2.366160 -0.031310 
#    z -0.125220 -0.031310 2.306590 
# 
# From -- ./inp_files/204720.got.cif
#   From: 2010.05.17/outbox.cif.g08.bks.cpg/sg2_103_cif.got.tgz:204720.got - 2010.06.03 11:33:40.
