data_PCOD9038061
_publ_section_title
;
Structure prediction by ZEFSAII (Michael W. Deem and Ramdas Pophale) SiO2 
 PCOD9038061
Probable space group: P -1
;
_chemical_formula_sum "Si O2"
_cell_formula_units_Z 16
_cell_length_a 9.986435
_cell_length_b 16.049854
_cell_length_c 11.553147
_cell_angle_alpha 78.283463
_cell_angle_beta 69.310348
_cell_angle_gamma 28.608657
_cell_volume 805.421510
_symmetry_space_group_name_H-M "P -1"
_symmetry_group_IT_number 2
_symmetry_cell_setting 'triclinic'
loop_
_space_group_symop_operation_xyz
x,y,z
-x,-y,-z
loop_
_atom_site_type_symbol
_atom_site_label
_atom_site_fract_x
_atom_site_fract_y
_atom_site_fract_z
Si Si1 0.829875 0.014386 0.681084
Si Si2 0.649090 0.333011 0.523371
Si Si3 0.563621 0.457079 0.129306
Si Si4 0.252023 0.930748 0.889147
Si Si5 0.728989 0.956274 0.938487
Si Si6 0.847475 0.191882 0.737133
Si Si7 0.287800 0.420710 0.296712
Si Si8 0.648510 0.672404 0.431344
O O1 0.843122 0.095042 0.727597
O O2 0.641490 0.129603 0.589877
O O3 0.685688 0.024080 0.809758
O O4 0.149057 0.809930 0.601352
O O5 0.500000 0.500000 0.500000
O O6 0.868045 0.225872 0.597018
O O7 0.382129 0.403256 0.601884
O O8 0.445487 0.607350 0.178094
O O9 0.378833 0.472238 0.234599
O O10 0.917852 0.254181 0.098235
O O11 0.500000 0.500000 0.000000
O O12 0.511281 0.737519 0.809971
O O13 0.101559 0.063741 0.793566
O O14 0.345488 0.941718 0.962152
O O15 0.000000 0.000000 0.000000
O O16 0.500000 0.000000 0.000000
O O17 0.354141 0.349253 0.425746
O O18 0.938890 0.577538 0.341604
#
# Coordination Sequence:
#
# PCOD9038061 Si02
#       8
#     2   2   2   2   2   2   2   2
#     4  11  23  42  66  95 140 175 226 278 354 414
#     4  11  22  40  68  98 135 175 219 283 347 409
#     4  12  24  43  67  96 136 180 230 282 339 408
#     4  12  21  42  66  94 127 185 228 271 340 410
#     4  12  27  43  64  98 137 176 229 290 341 403
#     4  11  21  38  70  95 120 177 229 266 337 412
#     4  11  23  42  69  96 137 176 236 285 338 415
#     4  10  23  41  66 103 133 178 224 291 343 404
#
# _framework density 19.865373999999999
#
# number of rings (size 3 to 8) (size 9 to 14) (size 15 to 20)
#    0.000    0.750    3.750    5.250    1.750    3.000 
#    0.000    1.250    0.000    9.750    0.000    0.000 
#    0.000    0.000    0.000    0.000    0.000    0.000 
#
# Total GULP energy -89278.956633 kJ/mol
# GULP energy per Si atom -5579.934790 kJ/mol
# Density = 1.982016 g / cm^3
# Si number density = 19.865374 Si / 1000 Ang^3
#
#
#
# Elastic Constant Matrix: (Units=GPa)
#
#
# Indices 1 2 3 4 5 6 
#
# 1 107.0341 44.0769 47.3571 6.6273 -12.2565 2.3466
# 2 44.0769 85.7166 31.7377 2.6788 -7.9176 20.5517
# 3 47.3571 31.7377 103.3534 -6.5813 -2.5485 7.8285
# 4 6.6273 2.6788 -6.5813 43.3542 6.8036 5.6429
# 5 -12.2565 -7.9176 -2.5485 6.8036 40.5586 4.0282
# 6 2.3466 20.5517 7.8285 5.6429 4.0282 33.0390
#
#
#
# Elastic Compliance Matrix: (Units=1/GPa)
#
#
# Indices 1 2 3 4 5 6 
#
# 1 0.014776 -0.006267 -0.005339 -0.003738 0.003099 0.004375
# 2 -0.006267 0.018433 -0.001857 0.000562 0.002585 -0.010993
# 3 -0.005339 -0.001857 0.013018 0.003401 -0.001535 -0.001944
# 4 -0.003738 0.000562 0.003401 0.025451 -0.004611 -0.004675
# 5 0.003099 0.002585 -0.001535 -0.004611 0.027170 -0.003990
# 6 0.004375 -0.010993 -0.001944 -0.004675 -0.003990 0.038540
#
#
# Mechanical properties :
#
#
# Convention : Reuss Voigt Hill
#
# Bulk Modulus (GPa) = 51.80827 60.27193 56.04010
# Shear Modulus (GPa) = 29.28292 34.91918 32.10105
#
# Velocity S-wave (km/s) = 3.84352 4.19715 4.02422
# Velocity P-wave (km/s) = 6.77002 7.34126 7.06142
#
# Compressibility (1/GPa) = 0.01930194
#
# Stress axis : x y z
#
# Youngs Moduli (GPa) = 67.67617 54.24957 76.81671
#
# Poissons Ratio (x) = 0.33999 0.41012
# Poissons Ratio (y) = 0.42414 0.14262
# Poissons Ratio (z) = 0.36132 0.10072
#
# Static dielectric constant tensor:
#      x y z
#    x 1.677440 0.006440 0.007210 
#    y 0.006440 1.724930 -0.016960 
#    z 0.007210 -0.016960 1.729000 
# 
# From -- ./inp_files/399049.got.cif
#   From: 2010.05.17/outbox.cif.g08.bks.cpg/sg2_200_cif.got.tgz:399049.got - 2010.06.03 11:33:40.
