data_PCOD9038056
_publ_section_title
;
Structure prediction by ZEFSAII (Michael W. Deem and Ramdas Pophale) SiO2 
 PCOD9038056
Probable space group: P -1
;
_chemical_formula_sum "Si O2"
_cell_formula_units_Z 14
_cell_length_a 19.598608
_cell_length_b 4.970674
_cell_length_c 5.324720
_cell_angle_alpha 94.046640
_cell_angle_beta 95.057918
_cell_angle_gamma 94.309602
_cell_volume 513.685998
_symmetry_space_group_name_H-M "P -1"
_symmetry_group_IT_number 2
_symmetry_cell_setting 'triclinic'
loop_
_space_group_symop_operation_xyz
x,y,z
-x,-y,-z
loop_
_atom_site_type_symbol
_atom_site_label
_atom_site_fract_x
_atom_site_fract_y
_atom_site_fract_z
Si Si1 0.352617 0.415421 0.218911
Si Si2 0.579492 0.054159 0.971701
Si Si3 0.941827 0.767573 0.897086
Si Si4 0.780104 0.511065 0.058061
Si Si5 0.171354 0.905268 0.341105
Si Si6 0.307610 0.852021 0.621550
Si Si7 0.907565 0.496189 0.369125
O O1 0.331037 0.593400 0.458466
O O2 0.399312 0.638776 0.086414
O O3 0.280882 0.325307 0.049178
O O4 0.394498 0.153502 0.240069
O O5 0.624702 0.997945 0.228586
O O6 0.500000 0.000000 0.000000
O O7 0.939923 0.552629 0.110160
O O8 0.949954 0.650822 0.612880
O O9 0.869630 0.908120 0.843597
O O10 0.000000 0.000000 0.000000
O O11 0.737144 0.265443 0.167371
O O12 0.817342 0.367355 0.832853
O O13 0.834441 0.621981 0.292314
O O14 0.249353 0.993395 0.456951
O O15 0.119319 0.794900 0.542714
#
# Coordination Sequence:
#
# PCOD9038056 Si02
#       7
#     2   2   2   2   2   2   2
#     4  10  23  41  66 101 140 187 247 304 373 445
#     4  11  24  42  66 101 146 192 247 304 374 455
#     4  12  28  43  68 105 139 190 242 298 378 457
#     4   9  20  43  66 101 126 183 238 297 369 431
#     4  10  23  46  70  97 141 181 245 306 370 442
#     4   9  22  42  67 102 137 189 240 312 376 440
#     4  11  24  45  68  99 138 187 236 302 367 444
#
# _framework density 27.254004999999999
#
# number of rings (size 3 to 8) (size 9 to 14) (size 15 to 20)
#    0.000    1.714    1.429    0.857    6.000    6.857 
#    0.000    0.000    0.000    0.000    0.000    0.000 
#    0.000    0.000    0.000    0.000    0.000    0.000 
#
# Total GULP energy -78380.622574 kJ/mol
# GULP energy per Si atom -5598.615898 kJ/mol
# Density = 2.719197 g / cm^3
# Si number density = 27.254005 Si / 1000 Ang^3
#
#
#
# Elastic Constant Matrix: (Units=GPa)
#
#
# Indices 1 2 3 4 5 6 
#
# 1 159.5679 43.2836 72.8252 13.5872 23.4489 3.2852
# 2 43.2836 106.9110 51.4161 -4.9908 7.3165 -3.9614
# 3 72.8252 51.4161 174.2036 -11.9867 -2.8422 16.7366
# 4 13.5872 -4.9908 -11.9867 48.9442 5.7584 -4.5601
# 5 23.4489 7.3165 -2.8422 5.7584 29.0918 7.7096
# 6 3.2852 -3.9614 16.7366 -4.5601 7.7096 48.2222
#
#
#
# Elastic Compliance Matrix: (Units=1/GPa)
#
#
# Indices 1 2 3 4 5 6 
#
# 1 0.009981 -0.001551 -0.004200 -0.002871 -0.007933 0.001647
# 2 -0.001551 0.011834 -0.003057 0.001506 -0.003057 0.002770
# 3 -0.004200 -0.003057 0.008995 0.002041 0.005634 -0.003795
# 4 -0.002871 0.001506 0.002041 0.022426 -0.002886 0.002193
# 5 -0.007933 -0.003057 0.005634 -0.002886 0.045083 -0.009147
# 6 0.001647 0.002770 -0.003795 0.002193 -0.009147 0.023839
#
#
# Mechanical properties :
#
#
# Convention : Reuss Voigt Hill
#
# Bulk Modulus (GPa) = 75.78822 86.19250 80.99036
# Shear Modulus (GPa) = 34.68109 43.46216 39.07163
#
# Velocity S-wave (km/s) = 3.57110 3.99771 3.79041
# Velocity P-wave (km/s) = 6.69867 7.28033 6.99555
#
# Compressibility (1/GPa) = 0.01319466
#
# Stress axis : x y z
#
# Youngs Moduli (GPa) = 100.19284 84.50466 111.16979
#
# Poissons Ratio (x) = 0.13107 0.46690
# Poissons Ratio (y) = 0.15540 0.33981
# Poissons Ratio (z) = 0.42080 0.25830
#
# Static dielectric constant tensor:
#      x y z
#    x 2.168350 -0.010940 -0.037080 
#    y -0.010940 2.110470 -0.008440 
#    z -0.037080 -0.008440 2.199430 
# 
# From -- ./inp_files/114029.got.cif
#   From: 2010.05.17/outbox.cif.g08.bks.cpg/sg2_58_cif.got.tgz:114029.got - 2010.06.03 11:33:40.
