data_PCOD9038881
_publ_section_title
;
Structure prediction by ZEFSAII (Michael W. Deem and Ramdas Pophale) SiO2 
 PCOD9038881
Probable space group: P -1
;
_chemical_formula_sum "Si O2"
_cell_formula_units_Z 12
_cell_length_a 16.180777
_cell_length_b 8.069999
_cell_length_c 7.696712
_cell_angle_alpha 34.741942
_cell_angle_beta 119.764700
_cell_angle_gamma 100.283635
_cell_volume 440.488754
_symmetry_space_group_name_H-M "P -1"
_symmetry_group_IT_number 2
_symmetry_cell_setting 'triclinic'
loop_
_space_group_symop_operation_xyz
x,y,z
-x,-y,-z
loop_
_atom_site_type_symbol
_atom_site_label
_atom_site_fract_x
_atom_site_fract_y
_atom_site_fract_z
Si Si1 0.159508 0.721209 0.367635
Si Si2 0.077760 0.108016 0.587623
Si Si3 0.491400 0.276895 0.391059
Si Si4 0.118456 0.376625 0.921276
Si Si5 0.622284 0.663083 0.236331
Si Si6 0.274003 0.630344 0.033885
O O1 0.097487 0.578993 0.544032
O O2 0.274614 0.419722 0.705176
O O3 0.114142 0.903279 0.981223
O O4 0.166408 0.998321 0.253974
O O5 0.995047 0.483401 0.218308
O O6 0.000000 0.000000 0.500000
O O7 0.185620 0.997865 0.682574
O O8 0.564191 0.455644 0.281838
O O9 0.370988 0.550042 0.071944
O O10 0.500000 0.000000 0.500000
O O11 0.543238 0.047036 0.812138
O O12 0.203558 0.462651 0.032616
O O13 0.667958 0.537525 0.581776
#
# Coordination Sequence:
#
# PCOD9038881 Si02
#       6
#     2   2   2   2   2   2
#     4  11  22  41  66  93 125 163 206 253 304 365
#     4   9  21  42  64  93 127 164 205 253 309 365
#     4  12  24  42  65  92 123 163 208 255 306 366
#     4  11  23  42  65  93 124 164 207 253 304 365
#     4  11  24  41  63  93 126 163 204 253 309 365
#     4  10  23  42  64  92 127 163 205 255 309 366
#
# _framework density 27.242467999999999
#
# number of rings (size 3 to 8) (size 9 to 14) (size 15 to 20)
#    0.000    1.333    0.000    5.500    0.000    2.667 
#    0.000   23.333    0.000    0.000    0.000    0.000 
#    0.000    0.000    0.000    0.000    0.000    0.000 
#
# Total GULP energy -67336.267673 kJ/mol
# GULP energy per Si atom -5611.355639 kJ/mol
# Density = 2.718046 g / cm^3
# Si number density = 27.242468 Si / 1000 Ang^3
#
#
#
# Elastic Constant Matrix: (Units=GPa)
#
#
# Indices 1 2 3 4 5 6 
#
# 1 142.4998 34.5138 39.6523 -16.9478 33.1559 -25.3458
# 2 34.5138 128.2739 22.9844 10.4741 6.1496 4.6913
# 3 39.6523 22.9844 107.6126 -0.0943 25.6080 -2.4049
# 4 -16.9478 10.4741 -0.0943 43.8896 -3.6757 1.1344
# 5 33.1559 6.1496 25.6080 -3.6757 68.1788 -14.0852
# 6 -25.3458 4.6913 -2.4049 1.1344 -14.0852 38.3569
#
#
#
# Elastic Compliance Matrix: (Units=1/GPa)
#
#
# Indices 1 2 3 4 5 6 
#
# 1 0.010619 -0.002865 -0.002583 0.004416 -0.002419 0.006186
# 2 -0.002865 0.009104 -0.000998 -0.003191 0.000173 -0.002911
# 3 -0.002583 -0.000998 0.011206 -0.000961 -0.003345 -0.002082
# 4 0.004416 -0.003191 -0.000961 0.025215 0.000409 0.002653
# 5 -0.002419 0.000173 -0.003345 0.000409 0.018099 0.004805
# 6 0.006186 -0.002911 -0.002082 0.002653 0.004805 0.032070
#
#
# Mechanical properties :
#
#
# Convention : Reuss Voigt Hill
#
# Bulk Modulus (GPa) = 55.44164 63.63195 59.53680
# Shear Modulus (GPa) = 39.93056 48.83413 44.38234
#
# Velocity S-wave (km/s) = 3.83266 4.23847 4.04066
# Velocity P-wave (km/s) = 6.32306 6.88195 6.60841
#
# Compressibility (1/GPa) = 0.01803698
#
# Stress axis : x y z
#
# Youngs Moduli (GPa) = 94.17405 109.83847 89.23744
#
# Poissons Ratio (x) = 0.31470 0.23049
# Poissons Ratio (y) = 0.26982 0.08905
# Poissons Ratio (z) = 0.24324 0.10961
#
# Static dielectric constant tensor:
#      x y z
#    x 2.097810 -0.094880 0.005210 
#    y -0.094880 2.171560 0.062800 
#    z 0.005210 0.062800 2.095900 
# 
# From -- ./inp_files/30245.got.cif
#   From: 2010.05.17/outbox.cif.g08.bks.cpg/sg2_16_cif.got.tgz:30245.got - 2010.06.03 11:33:40.
