data_PCOD9038145
_publ_section_title
;
Structure prediction by ZEFSAII (Michael W. Deem and Ramdas Pophale) SiO2 
 PCOD9038145
Probable space group: P -1
;
_chemical_formula_sum "Si O2"
_cell_formula_units_Z 12
_cell_length_a 5.068656
_cell_length_b 17.486445
_cell_length_c 12.182792
_cell_angle_alpha 146.866240
_cell_angle_beta 58.555055
_cell_angle_gamma 113.527534
_cell_volume 501.888623
_symmetry_space_group_name_H-M "P -1"
_symmetry_group_IT_number 2
_symmetry_cell_setting 'triclinic'
loop_
_space_group_symop_operation_xyz
x,y,z
-x,-y,-z
loop_
_atom_site_type_symbol
_atom_site_label
_atom_site_fract_x
_atom_site_fract_y
_atom_site_fract_z
Si Si1 0.237139 0.538792 0.191348
Si Si2 0.746098 0.158862 0.529841
Si Si3 0.090843 0.251914 0.895277
Si Si4 0.341960 0.734646 0.823623
Si Si5 0.339342 0.971906 0.253596
Si Si6 0.342085 0.512989 0.393732
O O1 0.151516 0.701348 0.383540
O O2 0.340232 0.516205 0.267429
O O3 0.500000 0.500000 0.000000
O O4 0.021609 0.412062 0.062730
O O5 0.439941 0.200752 0.722621
O O6 0.607589 0.046793 0.343928
O O7 0.055340 0.086516 0.428866
O O8 0.838782 0.146951 0.784625
O O9 0.021422 0.248714 0.038206
O O10 0.421581 0.665317 0.606801
O O11 0.475412 0.614214 0.734309
O O12 0.452992 0.883835 0.014361
O O13 0.000000 0.500000 0.500000
#
# Coordination Sequence:
#
# PCOD9038145 Si02
#       6
#     2   2   2   2   2   2
#     4  10  23  41  68 100 134 173 221 285 338 390
#     4  11  23  41  63 101 142 173 212 286 347 391
#     4   9  20  39  65  97 125 179 230 266 321 404
#     4   9  23  35  69  95 121 174 236 270 319 390
#     4  10  23  41  66  98 134 180 224 271 336 408
#     4  11  20  42  66  95 128 174 232 275 320 404
#
# _framework density 23.909687000000002
#
# number of rings (size 3 to 8) (size 9 to 14) (size 15 to 20)
#    1.000    1.000    1.667    1.000    4.667    4.000 
#    0.000    7.500    0.000    0.000    0.000    0.000 
#    0.000    0.000    0.000    0.000    0.000    0.000 
#
# Total GULP energy -66882.061145 kJ/mol
# GULP energy per Si atom -5573.505095 kJ/mol
# Density = 2.385527 g / cm^3
# Si number density = 23.909687 Si / 1000 Ang^3
#
#
#
# Elastic Constant Matrix: (Units=GPa)
#
#
# Indices 1 2 3 4 5 6 
#
# 1 53.0083 23.6608 13.9224 3.4947 -10.2869 -3.6628
# 2 23.6608 81.8851 48.0318 11.7041 14.3786 -2.7573
# 3 13.9224 48.0318 134.8400 11.4214 6.4731 -24.2350
# 4 3.4947 11.7041 11.4214 55.4877 3.9508 7.1347
# 5 -10.2869 14.3786 6.4731 3.9508 20.2219 -2.1616
# 6 -3.6628 -2.7573 -24.2350 7.1347 -2.1616 19.7769
#
#
#
# Elastic Compliance Matrix: (Units=1/GPa)
#
#
# Indices 1 2 3 4 5 6 
#
# 1 0.030744 -0.014559 0.002995 -0.002841 0.026795 0.011288
# 2 -0.014559 0.025187 -0.008656 0.000728 -0.024042 -0.012682
# 3 0.002995 -0.008656 0.013438 -0.003856 0.006040 0.017866
# 4 -0.002841 0.000728 -0.003856 0.021012 -0.006268 -0.013416
# 5 0.026795 -0.024042 0.006040 -0.006268 0.081627 0.020195
# 6 0.011288 -0.012682 0.017866 -0.013416 0.020195 0.079827
#
#
# Mechanical properties :
#
#
# Convention : Reuss Voigt Hill
#
# Bulk Modulus (GPa) = 34.56689 48.99592 41.78141
# Shear Modulus (GPa) = 16.56079 31.37186 23.96632
#
# Velocity S-wave (km/s) = 2.63466 3.62622 3.16946
# Velocity P-wave (km/s) = 4.87277 6.17002 5.55937
#
# Compressibility (1/GPa) = 0.02892941
#
# Stress axis : x y z
#
# Youngs Moduli (GPa) = 32.52666 39.70336 74.41547
#
# Poissons Ratio (x) = 0.57804 -0.22287
# Poissons Ratio (y) = 0.47356 0.64411
# Poissons Ratio (z) = -0.09741 0.34365
#
# Static dielectric constant tensor:
#      x y z
#    x -0.674230 -2.271140 2.705060 
#    y -2.271140 -0.114000 2.338570 
#    z 2.705060 2.338570 -0.684390 
# 
# From -- ./inp_files/368149.got.cif
#   From: 2010.05.17/outbox.cif.g08.bks.cpg/sg2_185_cif.got.tgz:368149.got - 2010.06.03 11:33:40.
