data_PCOD9038055
_publ_section_title
;
Structure prediction by ZEFSAII (Michael W. Deem and Ramdas Pophale) SiO2 
 PCOD9038055
Probable space group: P -1
;
_chemical_formula_sum "Si O2"
_cell_formula_units_Z 16
_cell_length_a 7.518244
_cell_length_b 10.968760
_cell_length_c 18.892158
_cell_angle_alpha 148.701141
_cell_angle_beta 107.730544
_cell_angle_gamma 90.267694
_cell_volume 651.151345
_symmetry_space_group_name_H-M "P -1"
_symmetry_group_IT_number 2
_symmetry_cell_setting 'triclinic'
loop_
_space_group_symop_operation_xyz
x,y,z
-x,-y,-z
loop_
_atom_site_type_symbol
_atom_site_label
_atom_site_fract_x
_atom_site_fract_y
_atom_site_fract_z
Si Si1 0.588480 0.776889 0.263666
Si Si2 0.693286 0.103607 0.633872
Si Si3 0.244652 0.277954 0.448782
Si Si4 0.257751 0.053626 0.775585
Si Si5 0.381667 0.104827 0.239741
Si Si6 0.613956 0.772467 0.969270
Si Si7 0.968695 0.263262 0.619842
Si Si8 0.751001 0.105891 0.023851
O O1 0.354820 0.746112 0.234738
O O2 0.677476 0.742350 0.182813
O O3 0.757243 0.103159 0.462982
O O4 0.572365 0.554479 0.208359
O O5 0.908549 0.292467 0.707437
O O6 0.500000 0.000000 0.500000
O O7 0.707180 0.856708 0.545833
O O8 0.266221 0.139287 0.311038
O O9 0.439408 0.594625 0.622204
O O10 0.994473 0.204281 0.390625
O O11 0.458491 0.002262 0.771353
O O12 0.266077 0.170263 0.912575
O O13 0.205917 0.935206 0.072303
O O14 0.742686 0.881460 0.965402
O O15 0.491925 0.941265 0.039779
O O16 0.112507 0.583691 0.773214
O O17 0.000000 0.000000 0.500000
#
# Coordination Sequence:
#
# PCOD9038055 Si02
#       8
#     2   2   2   2   2   2   2   2
#     4  11  22  42  67  96 138 180 230 286 340 414
#     4  10  24  41  66 100 137 175 234 288 339 409
#     4  11  23  44  72 103 138 191 224 285 351 418
#     4  11  23  42  69 103 137 183 237 283 341 416
#     4  10  24  44  69 102 147 177 233 287 352 408
#     4  10  23  41  66 101 139 183 225 292 351 399
#     4  11  22  40  68  99 128 176 236 276 342 416
#     4  10  23  43  66 100 139 177 233 293 343 406
#
# _framework density 24.571859
#
# number of rings (size 3 to 8) (size 9 to 14) (size 15 to 20)
#    0.000    1.500    2.500    1.500    3.500    6.000 
#    2.250    2.500    0.000    0.000    0.000    0.000 
#    0.000    0.000    0.000    0.000    0.000    0.000 
#
# Total GULP energy -89143.070676 kJ/mol
# GULP energy per Si atom -5571.441917 kJ/mol
# Density = 2.451593 g / cm^3
# Si number density = 24.571859 Si / 1000 Ang^3
#
#
#
# Elastic Constant Matrix: (Units=GPa)
#
#
# Indices 1 2 3 4 5 6 
#
# 1 70.5836 22.5350 18.1608 -4.2879 1.5434 12.3959
# 2 22.5350 140.2404 54.1361 13.1162 8.3885 18.1121
# 3 18.1608 54.1361 117.7729 1.5029 4.4586 10.0687
# 4 -4.2879 13.1162 1.5029 30.7300 7.2909 1.7198
# 5 1.5434 8.3885 4.4586 7.2909 17.5230 3.4674
# 6 12.3959 18.1121 10.0687 1.7198 3.4674 26.9895
#
#
#
# Elastic Compliance Matrix: (Units=1/GPa)
#
#
# Indices 1 2 3 4 5 6 
#
# 1 0.016309 -0.001643 -0.001263 0.003519 -0.000592 -0.006065
# 2 -0.001643 0.009807 -0.003818 -0.003709 -0.001242 -0.004006
# 3 -0.001263 -0.003818 0.010529 0.001243 -0.001114 -0.000722
# 4 0.003519 -0.003709 0.001243 0.038038 -0.014651 -0.000132
# 5 -0.000592 -0.001242 -0.001114 -0.014651 0.065268 -0.005930
# 6 -0.006065 -0.004006 -0.000722 -0.000132 -0.005930 0.043565
#
#
# Mechanical properties :
#
#
# Convention : Reuss Voigt Hill
#
# Bulk Modulus (GPa) = 43.11142 57.58451 50.34796
# Shear Modulus (GPa) = 24.42638 30.63285 27.52961
#
# Velocity S-wave (km/s) = 3.15632 3.53464 3.35083
# Velocity P-wave (km/s) = 5.55574 6.33595 5.95863
#
# Compressibility (1/GPa) = 0.02319571
#
# Stress axis : x y z
#
# Youngs Moduli (GPa) = 61.31529 101.96730 94.97922
#
# Poissons Ratio (x) = 0.16757 0.12001
# Poissons Ratio (y) = 0.10076 0.36260
# Poissons Ratio (z) = 0.07747 0.38928
#
# Static dielectric constant tensor:
#      x y z
#    x 2.163140 -0.021020 0.043050 
#    y -0.021020 2.062040 -0.067570 
#    z 0.043050 -0.067570 2.040000 
# 
# From -- ./inp_files/589236.got.cif
#   From: 2010.05.17/outbox.cif.g08.bks.cpg/sg2_295_cif.got.tgz:589236.got - 2010.06.03 11:33:40.
