data_PCOD9038057
_publ_section_title
;
Structure prediction by ZEFSAII (Michael W. Deem and Ramdas Pophale) SiO2 
 PCOD9038057
Probable space group: P -1
;
_chemical_formula_sum "Si O2"
_cell_formula_units_Z 16
_cell_length_a 5.022984
_cell_length_b 5.845960
_cell_length_c 24.210294
_cell_angle_alpha 108.430831
_cell_angle_beta 84.435849
_cell_angle_gamma 84.444800
_cell_volume 665.127643
_symmetry_space_group_name_H-M "P -1"
_symmetry_group_IT_number 2
_symmetry_cell_setting 'triclinic'
loop_
_space_group_symop_operation_xyz
x,y,z
-x,-y,-z
loop_
_atom_site_type_symbol
_atom_site_label
_atom_site_fract_x
_atom_site_fract_y
_atom_site_fract_z
Si Si1 0.452817 0.329644 0.264498
Si Si2 0.087612 0.368837 0.680661
Si Si3 0.250852 0.497701 0.568803
Si Si4 0.496457 0.079630 0.353290
Si Si5 0.171037 0.127338 0.462129
Si Si6 0.507326 0.805736 0.871613
Si Si7 0.340446 0.288701 0.963085
Si Si8 0.021983 0.360351 0.079000
O O1 0.724173 0.440907 0.283559
O O2 0.383360 0.144931 0.299916
O O3 0.479675 0.207818 0.195170
O O4 0.211891 0.552741 0.286208
O O5 0.105138 0.395876 0.616354
O O6 0.226251 0.099484 0.672243
O O7 0.461274 0.658067 0.602548
O O8 0.354301 0.278760 0.508807
O O9 0.038106 0.683502 0.553523
O O10 0.333680 0.973169 0.398520
O O11 0.000000 0.000000 0.500000
O O12 0.743828 0.617382 0.879812
O O13 0.216415 0.754454 0.895191
O O14 0.536224 0.070040 0.915740
O O15 0.128014 0.399212 0.929430
O O16 0.500000 0.500000 0.000000
O O17 0.174583 0.213730 0.013502
#
# Coordination Sequence:
#
# PCOD9038057 Si02
#       8
#     2   2   2   2   2   2   2   2
#     4  11  27  48  68 103 136 190 244 291 339 427
#     4  11  25  46  75  96 139 185 241 292 354 416
#     4  10  23  41  66 102 138 172 232 289 357 434
#     4  11  25  45  72  94 142 184 230 295 363 413
#     4  11  23  39  70 104 138 175 229 296 366 426
#     4  12  26  44  73 101 147 187 237 291 351 412
#     4  11  25  44  74 111 147 185 232 289 357 422
#     4  11  25  44  71 109 143 184 229 289 352 418
#
# _framework density 24.055534999999999
#
# number of rings (size 3 to 8) (size 9 to 14) (size 15 to 20)
#    0.000    1.000    2.500    2.625    7.000    5.000 
#    0.000    0.000    0.000    0.000    0.000    0.000 
#    0.000    0.000    0.000    0.000    0.000    0.000 
#
# Total GULP energy -89587.349483 kJ/mol
# GULP energy per Si atom -5599.209343 kJ/mol
# Density = 2.400078 g / cm^3
# Si number density = 24.055535 Si / 1000 Ang^3
#
#
#
# Elastic Constant Matrix: (Units=GPa)
#
#
# Indices 1 2 3 4 5 6 
#
# 1 96.0901 23.6108 47.0700 -7.6791 -2.2768 -1.7153
# 2 23.6108 75.2291 62.3484 -4.7997 -0.4650 -8.9181
# 3 47.0700 62.3484 188.9697 -20.5465 -7.6677 -3.9669
# 4 -7.6791 -4.7997 -20.5465 22.3334 -6.2952 1.0407
# 5 -2.2768 -0.4650 -7.6677 -6.2952 29.3860 -5.9313
# 6 -1.7153 -8.9181 -3.9669 1.0407 -5.9313 40.4041
#
#
#
# Elastic Compliance Matrix: (Units=1/GPa)
#
#
# Indices 1 2 3 4 5 6 
#
# 1 0.012099 -0.001898 -0.002140 0.002002 0.000767 -0.000054
# 2 -0.001898 0.019202 -0.006140 -0.002710 -0.001334 0.003429
# 3 -0.002140 -0.006140 0.008744 0.006977 0.003461 -0.000259
# 4 0.002002 -0.002710 0.006977 0.055186 0.013915 0.000793
# 5 0.000767 -0.001334 0.003461 0.013915 0.039053 0.005453
# 6 -0.000054 0.003429 -0.000259 0.000793 0.005453 0.026259
#
#
# Mechanical properties :
#
#
# Convention : Reuss Voigt Hill
#
# Bulk Modulus (GPa) = 50.78558 69.59414 60.18986
# Shear Modulus (GPa) = 26.67232 33.57534 30.12383
#
# Velocity S-wave (km/s) = 3.33345 3.74002 3.54257
# Velocity P-wave (km/s) = 5.99779 6.90244 6.46596
#
# Compressibility (1/GPa) = 0.01969063
#
# Stress axis : x y z
#
# Youngs Moduli (GPa) = 82.65424 52.07775 114.36252
#
# Poissons Ratio (x) = 0.09883 0.24471
# Poissons Ratio (y) = 0.15685 0.70214
# Poissons Ratio (z) = 0.17686 0.31974
#
# Static dielectric constant tensor:
#      x y z
#    x 1.960780 0.058440 0.001840 
#    y 0.058440 1.968900 0.001310 
#    z 0.001840 0.001310 1.874730 
# 
# From -- ./inp_files/11433.got.cif
#   From: 2010.05.17/outbox.cif.g08.bks.cpg/sg2_6_cif.got.tgz:11433.got - 2010.06.03 11:33:40.
