data_PCOD9038622
_publ_section_title
;
Structure prediction by ZEFSAII (Michael W. Deem and Ramdas Pophale) SiO2 
 PCOD9038622
Probable space group: P -1
;
_chemical_formula_sum "Si O2"
_cell_formula_units_Z 10
_cell_length_a 11.694923
_cell_length_b 8.371414
_cell_length_c 14.354625
_cell_angle_alpha 58.259436
_cell_angle_beta 20.652767
_cell_angle_gamma 54.351799
_cell_volume 401.879382
_symmetry_space_group_name_H-M "P -1"
_symmetry_group_IT_number 2
_symmetry_cell_setting 'triclinic'
loop_
_space_group_symop_operation_xyz
x,y,z
-x,-y,-z
loop_
_atom_site_type_symbol
_atom_site_label
_atom_site_fract_x
_atom_site_fract_y
_atom_site_fract_z
Si Si1 0.104043 0.035684 0.275483
Si Si2 0.189981 0.350340 0.612558
Si Si3 0.871607 0.017591 0.921893
Si Si4 0.958173 0.357124 0.993599
Si Si5 0.115297 0.269015 0.369834
O O1 0.956136 0.184353 0.426961
O O2 0.991876 0.110142 0.235676
O O3 0.048336 0.823145 0.394816
O O4 0.500000 0.000000 0.000000
O O5 0.572778 0.345887 0.298705
O O6 0.118128 0.142215 0.722473
O O7 0.970019 0.504080 0.657214
O O8 0.058779 0.418159 0.796761
O O9 0.511815 0.167695 0.118830
O O10 0.819453 0.867731 0.084553
O O11 0.000000 0.500000 0.000000
#
# Coordination Sequence:
#
# PCOD9038622 Si02
#       5
#     2   2   2   2   2
#     4   9  21  39  68 100 138 176 229 276 342 399
#     4  12  28  46  71 105 139 179 229 288 345 402
#     4  11  25  44  71 100 140 180 226 286 343 404
#     4  12  29  48  71  99 141 185 231 278 346 414
#     4  10  23  41  72 100 138 179 233 278 339 410
#
# _framework density 24.883089999999999
#
# number of rings (size 3 to 8) (size 9 to 14) (size 15 to 20)
#    0.000    1.200    0.000    3.600   19.600    0.800 
#    0.000    0.000    0.000    0.000    0.000    0.000 
#    0.000    0.000    0.000    0.000    0.000    0.000 
#
# Total GULP energy -55925.339248 kJ/mol
# GULP energy per Si atom -5592.533925 kJ/mol
# Density = 2.482645 g / cm^3
# Si number density = 24.883090 Si / 1000 Ang^3
#
#
#
# Elastic Constant Matrix: (Units=GPa)
#
#
# Indices 1 2 3 4 5 6 
#
# 1 63.3577 13.4953 34.9746 1.0858 -2.8616 -0.6610
# 2 13.4953 99.9331 7.2141 -18.1785 -16.1012 -19.9472
# 3 34.9746 7.2141 100.6652 -7.5620 3.1753 -7.2517
# 4 1.0858 -18.1785 -7.5620 33.4451 -7.8887 0.3070
# 5 -2.8616 -16.1012 3.1753 -7.8887 34.6359 -8.2275
# 6 -0.6610 -19.9472 -7.2517 0.3070 -8.2275 44.5753
#
#
#
# Elastic Compliance Matrix: (Units=1/GPa)
#
#
# Indices 1 2 3 4 5 6 
#
# 1 0.020711 -0.003856 -0.007438 -0.004692 -0.001135 -0.002806
# 2 -0.003856 0.016629 0.001389 0.012317 0.012422 0.009818
# 3 -0.007438 0.001389 0.012896 0.003979 0.000385 0.002653
# 4 -0.004692 0.012317 0.003979 0.041462 0.016520 0.008853
# 5 -0.001135 0.012422 0.000385 0.016520 0.041399 0.013132
# 6 -0.002806 0.009818 0.002653 0.008853 0.013132 0.029580
#
#
# Mechanical properties :
#
#
# Convention : Reuss Voigt Hill
#
# Bulk Modulus (GPa) = 32.86756 41.70268 37.28512
# Shear Modulus (GPa) = 25.95646 36.41607 31.18627
#
# Velocity S-wave (km/s) = 3.23327 3.82970 3.54405
# Velocity P-wave (km/s) = 5.21308 6.02921 5.63593
#
# Compressibility (1/GPa) = 0.03042513
#
# Stress axis : x y z
#
# Youngs Moduli (GPa) = 48.28444 60.13590 77.54061
#
# Poissons Ratio (x) = 0.23190 0.57675
# Poissons Ratio (y) = 0.18620 -0.10769
# Poissons Ratio (z) = 0.35914 -0.08352
#
# Static dielectric constant tensor:
#      x y z
#    x 2.017580 0.033880 0.039700 
#    y 0.033880 2.019920 0.057120 
#    z 0.039700 0.057120 1.967740 
# 
# From -- ./inp_files/15290.got.cif
#   From: 2010.05.17/outbox.cif.g08.bks.cpg/sg2_8_cif.got.tgz:15290.got - 2010.06.03 11:33:40.
