data_PCOD9038119
_publ_section_title
;
Structure prediction by ZEFSAII (Michael W. Deem and Ramdas Pophale) SiO2 
 PCOD9038119
Probable space group: P -1
;
_chemical_formula_sum "Si O2"
_cell_formula_units_Z 12
_cell_length_a 11.629298
_cell_length_b 9.631677
_cell_length_c 9.170407
_cell_angle_alpha 61.672122
_cell_angle_beta 50.944653
_cell_angle_gamma 52.563541
_cell_volume 626.334211
_symmetry_space_group_name_H-M "P -1"
_symmetry_group_IT_number 2
_symmetry_cell_setting 'triclinic'
loop_
_space_group_symop_operation_xyz
x,y,z
-x,-y,-z
loop_
_atom_site_type_symbol
_atom_site_label
_atom_site_fract_x
_atom_site_fract_y
_atom_site_fract_z
Si Si1 0.006621 0.833035 0.167527
Si Si2 0.334423 0.954345 0.564980
Si Si3 0.127118 0.359392 0.855892
Si Si4 0.636213 0.333501 0.889045
Si Si5 0.597365 0.998692 0.174996
Si Si6 0.584181 0.552154 0.537331
O O1 0.185011 0.729799 0.148599
O O2 0.968389 0.702102 0.157718
O O3 0.861923 0.933439 0.351572
O O4 0.000000 0.000000 0.000000
O O5 0.354489 0.014153 0.683746
O O6 0.436465 0.743132 0.607024
O O7 0.422049 0.997884 0.337039
O O8 0.253014 0.425515 0.649029
O O9 0.257809 0.177541 0.920374
O O10 0.000000 0.500000 0.000000
O O11 0.633692 0.404558 0.694455
O O12 0.500000 0.500000 0.000000
O O13 0.591581 0.171045 0.021532
O O14 0.500000 0.500000 0.500000
#
# Coordination Sequence:
#
# PCOD9038119 Si02
#       6
#     2   2   2   2   2   2
#     4  11  21  39  70  94 125 173 221 265 317 386
#     4   9  18  39  63  88 125 171 213 259 319 384
#     4  10  23  41  66  96 135 172 212 266 336 380
#     4  12  23  39  68  99 127 170 229 262 320 395
#     4   9  18  38  64  90 124 171 215 258 316 389
#     4  11  25  42  64  97 137 171 210 276 333 377
#
# _framework density 19.159099999999999
#
# number of rings (size 3 to 8) (size 9 to 14) (size 15 to 20)
#    0.000    1.667    5.000    1.000    4.667    0.667 
#    0.000    6.667    0.000    0.000    0.000    0.000 
#    0.000    0.000    0.000    0.000    0.000    0.000 
#
# Total GULP energy -66858.349714 kJ/mol
# GULP energy per Si atom -5571.529143 kJ/mol
# Density = 1.911549 g / cm^3
# Si number density = 19.159100 Si / 1000 Ang^3
#
#
#
# Elastic Constant Matrix: (Units=GPa)
#
#
# Indices 1 2 3 4 5 6 
#
# 1 105.0230 50.6459 56.0123 -6.3145 -5.9537 -19.0634
# 2 50.6459 163.9119 91.5136 7.5645 -11.5617 -22.1668
# 3 56.0123 91.5136 104.2828 -17.0081 -9.1661 -15.4501
# 4 -6.3145 7.5645 -17.0081 50.4348 -4.5968 -7.1291
# 5 -5.9537 -11.5617 -9.1661 -4.5968 21.9146 5.5772
# 6 -19.0634 -22.1668 -15.4501 -7.1291 5.5772 34.2957
#
#
#
# Elastic Compliance Matrix: (Units=1/GPa)
#
#
# Indices 1 2 3 4 5 6 
#
# 1 0.014028 0.000234 -0.007047 0.000003 -0.000237 0.004813
# 2 0.000234 0.013808 -0.012942 -0.006119 0.000162 0.001927
# 3 -0.007047 -0.012942 0.027104 0.010813 0.004495 0.001445
# 4 0.000003 -0.006119 0.010813 0.025637 0.005302 0.005385
# 5 -0.000237 0.000162 0.004495 0.005302 0.049922 -0.005019
# 6 0.004813 0.001927 0.001445 0.005385 -0.005019 0.035665
#
#
# Mechanical properties :
#
#
# Convention : Reuss Voigt Hill
#
# Bulk Modulus (GPa) = 64.80502 85.50680 75.15591
# Shear Modulus (GPa) = 23.71721 32.99876 28.35798
#
# Velocity S-wave (km/s) = 3.52221 4.15463 3.85142
# Velocity P-wave (km/s) = 7.10207 8.23051 7.68702
#
# Compressibility (1/GPa) = 0.01543090
#
# Stress axis : x y z
#
# Youngs Moduli (GPa) = 71.28708 72.42074 36.89454
#
# Poissons Ratio (x) = -0.01697 0.26001
# Poissons Ratio (y) = -0.01671 0.47747
# Poissons Ratio (z) = 0.50239 0.93724
#
# Static dielectric constant tensor:
#      x y z
#    x 1.729680 0.034130 -0.065430 
#    y 0.034130 1.673630 0.034040 
#    z -0.065430 0.034040 1.725780 
# 
# From -- ./inp_files/146240.got.cif
#   From: 2010.05.17/outbox.cif.g08.bks.cpg/sg2_74_cif.got.tgz:146240.got - 2010.06.03 11:33:40.
