data_PCOD9038911
_publ_section_title
;
Structure prediction by ZEFSAII (Michael W. Deem and Ramdas Pophale) SiO2 
 PCOD9038911
Probable space group: P -1
;
_chemical_formula_sum "Si O2"
_cell_formula_units_Z 16
_cell_length_a 8.992242
_cell_length_b 10.102178
_cell_length_c 12.817864
_cell_angle_alpha 132.645243
_cell_angle_beta 84.639069
_cell_angle_gamma 90.296039
_cell_volume 850.045203
_symmetry_space_group_name_H-M "P -1"
_symmetry_group_IT_number 2
_symmetry_cell_setting 'triclinic'
loop_
_space_group_symop_operation_xyz
x,y,z
-x,-y,-z
loop_
_atom_site_type_symbol
_atom_site_label
_atom_site_fract_x
_atom_site_fract_y
_atom_site_fract_z
Si Si1 0.573484 0.306694 0.421759
Si Si2 0.936779 0.311728 0.887098
Si Si3 0.582104 0.973294 0.090709
Si Si4 0.586307 0.297194 0.897985
Si Si5 0.607001 0.947001 0.558630
Si Si6 0.079260 0.677471 0.555074
Si Si7 0.929164 0.979412 0.108022
Si Si8 0.943176 0.806705 0.411354
O O1 0.500000 0.500000 0.500000
O O2 0.474620 0.202487 0.452412
O O3 0.739759 0.335838 0.468246
O O4 0.571584 0.169383 0.251523
O O5 0.758626 0.327657 0.924446
O O6 0.002065 0.169366 0.893807
O O7 0.993761 0.275043 0.745039
O O8 0.000000 0.500000 0.000000
O O9 0.500822 0.815920 0.071372
O O10 0.760685 0.929866 0.065272
O O11 0.500000 0.000000 0.000000
O O12 0.609464 0.138886 0.722192
O O13 0.500000 0.500000 0.000000
O O14 0.764959 0.848678 0.459509
O O15 0.500000 0.000000 0.500000
O O16 0.000000 0.500000 0.500000
O O17 0.011724 0.723555 0.469716
O O18 0.053285 0.835984 0.728550
O O19 0.000000 0.000000 0.000000
O O20 0.000000 0.000000 0.500000
#
# Coordination Sequence:
#
# PCOD9038911 Si02
#       8
#     2   2   2   2   2   2   2   2
#     4  10  23  42  64  96 130 167 215 268 325 386
#     4  12  27  44  69  99 136 176 223 276 333 396
#     4  10  23  43  66  91 130 173 215 265 322 389
#     4  11  24  43  65  96 133 171 216 267 328 390
#     4  11  24  40  69  96 130 172 214 271 327 386
#     4  11  24  43  69  98 132 172 224 271 326 395
#     4  11  24  44  68  96 133 176 219 271 329 392
#     4  12  23  45  70  97 134 176 224 276 331 392
#
# _framework density 18.822528999999999
#
# number of rings (size 3 to 8) (size 9 to 14) (size 15 to 20)
#    0.000    1.000    2.500    3.000    7.000    4.000 
#    0.000    0.000    0.000    0.000    0.000    0.000 
#    0.000    0.000    0.000    0.000    0.000    0.000 
#
# Total GULP energy -89081.856329 kJ/mol
# GULP energy per Si atom -5567.616021 kJ/mol
# Density = 1.877969 g / cm^3
# Si number density = 18.822529 Si / 1000 Ang^3
#
#
#
# Elastic Constant Matrix: (Units=GPa)
#
#
# Indices 1 2 3 4 5 6 
#
# 1 213.0874 95.8461 76.0687 -3.7820 4.2575 0.2476
# 2 95.8461 147.6793 72.3390 6.8779 8.3363 -9.4410
# 3 76.0687 72.3390 93.9817 -1.2159 0.7594 3.2359
# 4 -3.7820 6.8779 -1.2159 44.1010 2.8411 8.5529
# 5 4.2575 8.3363 0.7594 2.8411 31.1297 4.2399
# 6 0.2476 -9.4410 3.2359 8.5529 4.2399 41.0975
#
#
#
# Elastic Compliance Matrix: (Units=1/GPa)
#
#
# Indices 1 2 3 4 5 6 
#
# 1 0.007397 -0.003188 -0.003491 0.001184 -0.000080 -0.000740
# 2 -0.003188 0.013329 -0.007857 -0.003273 -0.003286 0.004720
# 3 -0.003491 -0.007857 0.019660 0.002089 0.002459 -0.004020
# 4 0.001184 -0.003273 0.002089 0.024549 -0.000766 -0.005953
# 5 -0.000080 -0.003286 0.002459 -0.000766 0.033604 -0.004255
# 6 -0.000740 0.004720 -0.004020 -0.005953 -0.004255 0.027416
#
#
# Mechanical properties :
#
#
# Convention : Reuss Voigt Hill
#
# Bulk Modulus (GPa) = 88.40446 104.80620 96.60533
# Shear Modulus (GPa) = 31.48637 37.29861 34.39249
#
# Velocity S-wave (km/s) = 4.09443 4.45634 4.27921
# Velocity P-wave (km/s) = 8.33197 9.07087 8.70926
#
# Compressibility (1/GPa) = 0.01131165
#
# Stress axis : x y z
#
# Youngs Moduli (GPa) = 135.19158 75.02332 50.86544
#
# Poissons Ratio (x) = 0.23921 0.17759
# Poissons Ratio (y) = 0.43105 0.39966
# Poissons Ratio (z) = 0.47201 0.58948
#
# Static dielectric constant tensor:
#      x y z
#    x 1.716720 0.040100 0.095360 
#    y 0.040100 1.675270 0.110980 
#    z 0.095360 0.110980 1.892880 
# 
# From -- ./inp_files/186632.got.cif
#   From: 2010.05.17/outbox.cif.g08.bks.cpg/sg2_94_cif.got.tgz:186632.got - 2010.06.03 11:33:40.
