data_PCOD9038690
_publ_section_title
;
Structure prediction by ZEFSAII (Michael W. Deem and Ramdas Pophale) SiO2 
 PCOD9038690
Probable space group: P -1
;
_chemical_formula_sum "Si O2"
_cell_formula_units_Z 12
_cell_length_a 10.625952
_cell_length_b 12.140969
_cell_length_c 7.508252
_cell_angle_alpha 56.042191
_cell_angle_beta 98.164036
_cell_angle_gamma 55.698784
_cell_volume 494.700676
_symmetry_space_group_name_H-M "P -1"
_symmetry_group_IT_number 2
_symmetry_cell_setting 'triclinic'
loop_
_space_group_symop_operation_xyz
x,y,z
-x,-y,-z
loop_
_atom_site_type_symbol
_atom_site_label
_atom_site_fract_x
_atom_site_fract_y
_atom_site_fract_z
Si Si1 0.846559 0.937813 0.799084
Si Si2 0.259968 0.201792 0.799865
Si Si3 0.110264 0.554814 0.694889
Si Si4 0.553029 0.806952 0.638510
Si Si5 0.692066 0.469531 0.752300
Si Si6 0.705502 0.337103 0.482954
O O1 0.672069 0.074137 0.489428
O O2 0.817254 0.104782 0.733462
O O3 0.804058 0.855245 0.009752
O O4 0.074895 0.735423 0.957447
O O5 0.196125 0.397405 0.687451
O O6 0.130049 0.273578 0.531738
O O7 0.500000 0.000000 0.000000
O O8 0.164902 0.664587 0.600635
O O9 0.246582 0.387637 0.031468
O O10 0.614887 0.682760 0.578415
O O11 0.500000 0.000000 0.500000
O O12 0.685919 0.427541 0.585638
O O13 0.521787 0.513049 0.767634
#
# Coordination Sequence:
#
# PCOD9038690 Si02
#       6
#     2   2   2   2   2   2
#     4  11  23  45  70 100 136 178 230 273 343 408
#     4  11  26  42  69 101 135 177 230 280 333 404
#     4  11  25  44  65 102 139 173 228 284 331 399
#     4  11  25  45  65 101 141 182 222 279 343 401
#     4  10  23  41  73  97 134 181 225 277 337 398
#     4  10  23  41  73  99 132 179 230 278 331 409
#
# _framework density 24.257092
#
# number of rings (size 3 to 8) (size 9 to 14) (size 15 to 20)
#    0.000    1.333    3.333    0.500    7.000    4.667 
#    0.000    1.667    0.000    0.000    0.000    0.000 
#    0.000    0.000    0.000    0.000    0.000    0.000 
#
# Total GULP energy -66995.014782 kJ/mol
# GULP energy per Si atom -5582.917898 kJ/mol
# Density = 2.420188 g / cm^3
# Si number density = 24.257092 Si / 1000 Ang^3
#
#
#
# Elastic Constant Matrix: (Units=GPa)
#
#
# Indices 1 2 3 4 5 6 
#
# 1 142.1717 52.2225 66.6589 -24.8963 18.0329 30.3649
# 2 52.2225 121.5912 36.4376 -22.5924 7.9960 34.3177
# 3 66.6589 36.4376 149.6067 -12.4590 47.0688 10.0523
# 4 -24.8963 -22.5924 -12.4590 40.3103 -1.1505 -1.2220
# 5 18.0329 7.9960 47.0688 -1.1505 59.2118 -12.6712
# 6 30.3649 34.3177 10.0523 -1.2220 -12.6712 34.7378
#
#
#
# Elastic Compliance Matrix: (Units=1/GPa)
#
#
# Indices 1 2 3 4 5 6 
#
# 1 0.012402 0.000195 -0.003177 0.006347 -0.003548 -0.011185
# 2 0.000195 0.014454 -0.000342 0.007491 -0.004999 -0.015911
# 3 -0.003177 -0.000342 0.011157 0.000955 -0.008519 -0.003188
# 4 0.006347 0.007491 0.000955 0.032612 -0.006133 -0.014314
# 5 -0.003548 -0.004999 -0.008519 -0.006133 0.029827 0.021170
# 6 -0.011185 -0.015911 -0.003188 -0.014314 0.021170 0.062423
#
#
# Mechanical properties :
#
#
# Convention : Reuss Voigt Hill
#
# Bulk Modulus (GPa) = 31.88176 80.44527 56.16352
# Shear Modulus (GPa) = 27.78120 44.05535 35.91828
#
# Velocity S-wave (km/s) = 3.38787 4.26629 3.85220
# Velocity P-wave (km/s) = 5.33623 7.58314 6.55665
#
# Compressibility (1/GPa) = 0.03136589
#
# Stress axis : x y z
#
# Youngs Moduli (GPa) = 80.63197 69.18414 89.63166
#
# Poissons Ratio (x) = -0.01348 0.28475
# Poissons Ratio (y) = -0.01571 0.03061
# Poissons Ratio (z) = 0.25616 0.02363
#
# Static dielectric constant tensor:
#      x y z
#    x 1.974160 -0.038010 0.007010 
#    y -0.038010 1.932240 0.060620 
#    z 0.007010 0.060620 1.983690 
# 
# From -- ./inp_files/183547.got.cif
#   From: 2010.05.17/outbox.cif.g08.bks.cpg/sg2_92_cif.got.tgz:183547.got - 2010.06.03 11:33:40.
