data_PCOD9038716
_publ_section_title
;
Structure prediction by ZEFSAII (Michael W. Deem and Ramdas Pophale) SiO2 
 PCOD9038716
Probable space group: P -1
;
_chemical_formula_sum "Si O2"
_cell_formula_units_Z 14
_cell_length_a 9.670134
_cell_length_b 7.670454
_cell_length_c 11.012554
_cell_angle_alpha 63.090018
_cell_angle_beta 97.577333
_cell_angle_gamma 130.063825
_cell_volume 542.037054
_symmetry_space_group_name_H-M "P -1"
_symmetry_group_IT_number 2
_symmetry_cell_setting 'triclinic'
loop_
_space_group_symop_operation_xyz
x,y,z
-x,-y,-z
loop_
_atom_site_type_symbol
_atom_site_label
_atom_site_fract_x
_atom_site_fract_y
_atom_site_fract_z
Si Si1 0.190781 0.261456 0.504138
Si Si2 0.439880 0.190660 0.988518
Si Si3 0.289700 0.732614 0.248628
Si Si4 0.904904 0.476954 0.187585
Si Si5 0.703954 0.267590 0.479902
Si Si6 0.806431 0.729578 0.930021
Si Si7 0.799970 0.993701 0.215117
O O1 0.282092 0.491699 0.343935
O O2 0.224300 0.446092 0.564009
O O3 0.273899 0.150487 0.616922
O O4 0.000000 0.000000 0.500000
O O5 0.305439 0.182175 0.071428
O O6 0.453406 0.988704 0.115783
O O7 0.647648 0.463584 0.926003
O O8 0.339255 0.156519 0.863408
O O9 0.268788 0.799503 0.362134
O O10 0.120801 0.644412 0.175032
O O11 0.825436 0.343593 0.351630
O O12 0.841290 0.259229 0.152573
O O13 0.854770 0.644547 0.081928
O O14 0.500000 0.000000 0.500000
O O15 0.999238 0.920521 0.818328
#
# Coordination Sequence:
#
# PCOD9038716 Si02
#       7
#     2   2   2   2   2   2   2
#     4  10  23  45  72 104 145 194 246 291 366 442
#     4  11  25  47  73 107 138 194 248 309 367 435
#     4  10  23  41  75 101 140 191 244 297 366 434
#     4  12  23  43  71 108 142 194 241 300 371 441
#     4  10  23  43  70 102 148 188 246 301 358 435
#     4  11  26  44  73 106 147 187 253 304 371 437
#     4  12  24  45  73 106 149 192 242 300 374 443
#
# _framework density 25.828489999999999
#
# number of rings (size 3 to 8) (size 9 to 14) (size 15 to 20)
#    0.857    0.286    2.857    3.000    2.000    1.714 
#    5.143    0.714    0.000    0.000    0.000    0.000 
#    0.000    0.000    0.000    0.000    0.000    0.000 
#
# Total GULP energy -78060.630725 kJ/mol
# GULP energy per Si atom -5575.759338 kJ/mol
# Density = 2.576970 g / cm^3
# Si number density = 25.828490 Si / 1000 Ang^3
#
#
#
# Elastic Constant Matrix: (Units=GPa)
#
#
# Indices 1 2 3 4 5 6 
#
# 1 80.2623 31.7565 20.3558 -9.7626 -4.8456 17.0874
# 2 31.7565 173.4164 42.5867 -2.0928 11.9109 16.8266
# 3 20.3558 42.5867 163.9620 -7.5373 18.0875 -0.8266
# 4 -9.7626 -2.0928 -7.5373 35.0527 -0.3103 5.9518
# 5 -4.8456 11.9109 18.0875 -0.3103 39.1757 5.3380
# 6 17.0874 16.8266 -0.8266 5.9518 5.3380 36.9457
#
#
#
# Elastic Compliance Matrix: (Units=1/GPa)
#
#
# Indices 1 2 3 4 5 6 
#
# 1 0.016432 -0.002012 -0.001820 0.005513 0.004657 -0.008285
# 2 -0.002012 0.006755 -0.001365 -0.000132 -0.001407 -0.001952
# 3 -0.001820 -0.001365 0.007085 0.000563 -0.003351 0.002015
# 4 0.005513 -0.000132 0.000563 0.031519 0.001776 -0.007812
# 5 0.004657 -0.001407 -0.003351 0.001776 0.028916 -0.006052
# 6 -0.008285 -0.001952 0.002015 -0.007812 -0.006052 0.033966
#
#
# Mechanical properties :
#
#
# Convention : Reuss Voigt Hill
#
# Bulk Modulus (GPa) = 50.30448 67.44877 58.87662
# Shear Modulus (GPa) = 35.28771 43.76427 39.52599
#
# Velocity S-wave (km/s) = 3.70027 4.12080 3.91618
# Velocity P-wave (km/s) = 6.14610 6.98656 6.57977
#
# Compressibility (1/GPa) = 0.01987895
#
# Stress axis : x y z
#
# Youngs Moduli (GPa) = 60.85597 148.04735 141.13797
#
# Poissons Ratio (x) = 0.29782 0.25682
# Poissons Ratio (y) = 0.12242 0.19270
# Poissons Ratio (z) = 0.11073 0.20213
#
# Static dielectric constant tensor:
#      x y z
#    x 2.035990 -0.055040 -0.043400 
#    y -0.055040 2.177050 -0.064780 
#    z -0.043400 -0.064780 1.980310 
# 
# From -- ./inp_files/416627.got.cif
#   From: 2010.05.17/outbox.cif.g08.bks.cpg/sg2_209_cif.got.tgz:416627.got - 2010.06.03 11:33:40.
