data_PCOD9038171
_publ_section_title
;
Structure prediction by ZEFSAII (Michael W. Deem and Ramdas Pophale) SiO2 
 PCOD9038171
Probable space group: P -1
;
_chemical_formula_sum "Si O2"
_cell_formula_units_Z 14
_cell_length_a 17.308247
_cell_length_b 5.191757
_cell_length_c 9.242981
_cell_angle_alpha 110.344484
_cell_angle_beta 127.941271
_cell_angle_gamma 56.564584
_cell_volume 546.574965
_symmetry_space_group_name_H-M "P -1"
_symmetry_group_IT_number 2
_symmetry_cell_setting 'triclinic'
loop_
_space_group_symop_operation_xyz
x,y,z
-x,-y,-z
loop_
_atom_site_type_symbol
_atom_site_label
_atom_site_fract_x
_atom_site_fract_y
_atom_site_fract_z
Si Si1 0.145823 0.326757 0.536616
Si Si2 0.015467 0.794457 0.116980
Si Si3 0.742019 0.602630 0.575350
Si Si4 0.717450 0.495793 0.084366
Si Si5 0.336079 0.074825 0.146592
Si Si6 0.444497 0.303813 0.826029
Si Si7 0.073126 0.139365 0.678189
O O1 0.222746 0.205461 0.461855
O O2 0.185561 0.564330 0.702557
O O3 0.159028 0.115417 0.649037
O O4 0.019660 0.488789 0.367298
O O5 0.139093 0.679212 0.300838
O O6 0.922916 0.934325 0.162364
O O7 0.000000 0.500000 0.000000
O O8 0.000000 0.000000 0.000000
O O9 0.687919 0.800636 0.694439
O O10 0.653441 0.531809 0.372784
O O11 0.615783 0.749658 0.113389
O O12 0.734547 0.641279 0.985671
O O13 0.690972 0.212044 0.966123
O O14 0.460235 0.963559 0.209786
O O15 0.500000 0.500000 0.000000
O O16 0.000000 0.000000 0.500000
#
# Coordination Sequence:
#
# PCOD9038171 Si02
#       7
#     2   2   2   2   2   2   2
#     4   9  22  43  61  98 132 185 235 291 349 422
#     4  11  28  48  70 104 149 188 239 297 357 424
#     4  10  23  45  70 108 146 189 237 300 360 424
#     4  10  23  41  67 100 140 187 235 283 353 429
#     4  11  23  42  69 106 142 184 231 294 358 425
#     4   9  20  46  74 106 144 188 239 294 356 432
#     4  10  23  41  69  91 132 184 240 295 347 415
#
# _framework density 25.614056000000001
#
# number of rings (size 3 to 8) (size 9 to 14) (size 15 to 20)
#    0.000    2.000    0.000    0.857   10.000    1.143 
#    2.571   12.143    0.000    0.000    0.000    0.000 
#    0.000    0.000    0.000    0.000    0.000    0.000 
#
# Total GULP energy -78175.350237 kJ/mol
# GULP energy per Si atom -5583.953588 kJ/mol
# Density = 2.555576 g / cm^3
# Si number density = 25.614056 Si / 1000 Ang^3
#
#
#
# Elastic Constant Matrix: (Units=GPa)
#
#
# Indices 1 2 3 4 5 6 
#
# 1 181.7043 47.1977 83.2380 -1.3698 -61.2468 -7.9878
# 2 47.1977 66.8656 41.8655 -7.0532 -20.2893 7.3132
# 3 83.2380 41.8655 165.7907 -10.3849 -21.9043 0.2206
# 4 -1.3698 -7.0532 -10.3849 42.0037 -10.1545 -7.1928
# 5 -61.2468 -20.2893 -21.9043 -10.1545 69.4903 -5.6363
# 6 -7.9878 7.3132 0.2206 -7.1928 -5.6363 63.5767
#
#
#
# Elastic Compliance Matrix: (Units=1/GPa)
#
#
# Indices 1 2 3 4 5 6 
#
# 1 0.010635 -0.003137 -0.003445 0.001281 0.007765 0.002542
# 2 -0.003137 0.020364 -0.003068 0.002773 0.002441 -0.002196
# 3 -0.003445 -0.003068 0.008466 0.001188 -0.001095 -0.000072
# 4 0.001281 0.002773 0.001188 0.026771 0.006504 0.003443
# 5 0.007765 0.002441 -0.001095 0.006504 0.022833 0.003459
# 6 0.002542 -0.002196 -0.000072 0.003443 0.003459 0.016997
#
#
# Mechanical properties :
#
#
# Convention : Reuss Voigt Hill
#
# Bulk Modulus (GPa) = 49.59040 84.32923 66.95981
# Shear Modulus (GPa) = 37.85391 51.15142 44.50266
#
# Velocity S-wave (km/s) = 3.84846 4.47364 4.17277
# Velocity P-wave (km/s) = 6.25701 7.72522 7.02955
#
# Compressibility (1/GPa) = 0.02016519
#
# Stress axis : x y z
#
# Youngs Moduli (GPa) = 94.02937 49.10641 118.12359
#
# Poissons Ratio (x) = 0.15404 0.40688
# Poissons Ratio (y) = 0.29496 0.36244
# Poissons Ratio (z) = 0.32389 0.15067
#
# Static dielectric constant tensor:
#      x y z
#    x 2.342290 0.131000 0.057570 
#    y 0.131000 2.484490 -0.080550 
#    z 0.057570 -0.080550 2.034690 
# 
# From -- ./inp_files/324029.got.cif
#   From: 2010.05.17/outbox.cif.g08.bks.cpg/sg2_163_cif.got.tgz:324029.got - 2010.06.03 11:33:40.
