data_PCOD9038531
_publ_section_title
;
Structure prediction by ZEFSAII (Michael W. Deem and Ramdas Pophale) SiO2 
 PCOD9038531
Probable space group: P -1
;
_chemical_formula_sum "Si O2"
_cell_formula_units_Z 15
_cell_length_a 5.142684
_cell_length_b 17.367028
_cell_length_c 21.933238
_cell_angle_alpha 158.361028
_cell_angle_beta 107.887640
_cell_angle_gamma 80.174974
_cell_volume 649.580832
_symmetry_space_group_name_H-M "P -1"
_symmetry_group_IT_number 2
_symmetry_cell_setting 'triclinic'
loop_
_space_group_symop_operation_xyz
x,y,z
-x,-y,-z
loop_
_atom_site_type_symbol
_atom_site_label
_atom_site_fract_x
_atom_site_fract_y
_atom_site_fract_z
Si Si1 0.825719 0.748860 0.818231
Si Si2 0.140984 0.038106 0.279136
Si Si3 0.748932 0.588723 0.252263
Si Si4 0.832003 0.484435 0.413151
Si Si5 0.226815 0.351729 0.116994
Si Si6 0.000000 0.500000 0.000000
Si Si7 0.954183 0.060746 0.657804
Si Si8 0.568806 0.285048 0.912620
O O1 0.493699 0.679035 0.721688
O O2 0.806844 0.719376 0.867809
O O3 0.992521 0.600625 0.688079
O O4 0.000000 0.000000 0.000000
O O5 0.403117 0.935313 0.216722
O O6 0.092799 0.030447 0.342972
O O7 0.192365 0.279492 0.434613
O O8 0.888511 0.861777 0.092484
O O9 0.552338 0.493175 0.226871
O O10 0.020368 0.500804 0.204001
O O11 0.544103 0.463634 0.090479
O O12 0.861952 0.851555 0.454391
O O13 0.000000 0.500000 0.500000
O O14 0.140194 0.596097 0.015230
O O15 0.184190 0.751124 0.226561
O O16 0.288944 0.219837 0.802063
#
# Coordination Sequence:
#
# PCOD9038531 Si02
#       8
#     2   2   2   2   2   1   2   2
#     4  12  26  45  67  99 141 185 234 294 358 422
#     4  10  23  41  70  96 136 178 233 289 346 415
#     4  11  25  41  71 101 136 181 235 282 344 415
#     4  12  27  45  70 103 140 187 238 288 362 417
#     4  11  23  44  66 102 134 176 233 294 341 411
#     4  10  24  42  68 102 140 180 228 292 342 418
#     4  11  22  43  68  98 136 183 229 284 348 413
#     4  10  23  45  66 102 138 181 231 285 352 411
#
# _framework density 23.091815
#
# number of rings (size 3 to 8) (size 9 to 14) (size 15 to 20)
#    0.000    1.067    1.333    4.400    7.467    1.600 
#    0.000    1.333    0.000    0.000    0.000    0.000 
#    0.000    0.000    0.000    0.000    0.000    0.000 
#
# Total GULP energy -83645.675494 kJ/mol
# GULP energy per Si atom -5576.378366 kJ/mol
# Density = 2.303926 g / cm^3
# Si number density = 23.091815 Si / 1000 Ang^3
#
#
#
# Elastic Constant Matrix: (Units=GPa)
#
#
# Indices 1 2 3 4 5 6 
#
# 1 256.2746 -78.8848 1.9402 72.3002 47.9413 1.6919
# 2 -78.8848 153.4012 62.9804 -43.2301 -39.5874 7.3890
# 3 1.9402 62.9804 145.5358 -26.0865 -17.5255 13.2614
# 4 72.3002 -43.2301 -26.0865 73.6534 23.0059 0.7955
# 5 47.9413 -39.5874 -17.5255 23.0059 47.5104 -3.7545
# 6 1.6919 7.3890 13.2614 0.7955 -3.7545 36.0490
#
#
#
# Elastic Compliance Matrix: (Units=1/GPa)
#
#
# Indices 1 2 3 4 5 6 
#
# 1 0.006597 0.002044 -0.002267 -0.005026 -0.003367 -0.000135
# 2 0.002044 0.010817 -0.003824 0.001500 0.004779 -0.000442
# 3 -0.002267 -0.003824 0.009448 0.003075 0.000895 -0.002560
# 4 -0.005026 0.001500 0.003075 0.021469 -0.003099 -0.001999
# 5 -0.003367 0.004779 0.000895 -0.003099 0.030422 0.002086
# 6 -0.000135 -0.000442 -0.002560 -0.001999 0.002086 0.029040
#
#
# Mechanical properties :
#
#
# Convention : Reuss Voigt Hill
#
# Bulk Modulus (GPa) = 53.27453 58.58704 55.93079
# Shear Modulus (GPa) = 40.93545 69.38762 55.16153
#
# Velocity S-wave (km/s) = 4.21494 5.48761 4.89283
# Velocity P-wave (km/s) = 6.84167 8.09803 7.49622
#
# Compressibility (1/GPa) = 0.01877069
#
# Stress axis : x y z
#
# Youngs Moduli (GPa) = 151.58324 92.44451 105.83788
#
# Poissons Ratio (x) = -0.18900 0.23990
# Poissons Ratio (y) = -0.30991 0.40471
# Poissons Ratio (z) = 0.34358 0.35349
#
# Static dielectric constant tensor:
#      x y z
#    x 1.868020 0.162270 -0.091520 
#    y 0.162270 1.709220 0.001780 
#    z -0.091520 0.001780 1.880350 
# 
# From -- ./inp_files/323000.got.cif
#   From: 2010.05.17/outbox.cif.g08.bks.cpg/sg2_162_cif.got.tgz:323000.got - 2010.06.03 11:33:40.
