data_PCOD9038787
_publ_section_title
;
Structure prediction by ZEFSAII (Michael W. Deem and Ramdas Pophale) SiO2 
 PCOD9038787
Probable space group: P -1
;
_chemical_formula_sum "Si O2"
_cell_formula_units_Z 16
_cell_length_a 13.670794
_cell_length_b 14.170342
_cell_length_c 8.781759
_cell_angle_alpha 106.267679
_cell_angle_beta 73.410683
_cell_angle_gamma 149.934048
_cell_volume 814.884458
_symmetry_space_group_name_H-M "P -1"
_symmetry_group_IT_number 2
_symmetry_cell_setting 'triclinic'
loop_
_space_group_symop_operation_xyz
x,y,z
-x,-y,-z
loop_
_atom_site_type_symbol
_atom_site_label
_atom_site_fract_x
_atom_site_fract_y
_atom_site_fract_z
Si Si1 0.127546 0.119595 0.260477
Si Si2 0.250371 0.761279 0.339109
Si Si3 0.136860 0.233042 0.617946
Si Si4 0.210355 0.338765 0.099186
Si Si5 0.055358 0.419969 0.106396
Si Si6 0.473593 0.476070 0.769470
Si Si7 0.127376 0.455313 0.733295
Si Si8 0.673907 0.198614 0.316771
O O1 0.076598 0.146215 0.439978
O O2 0.077843 0.144093 0.145597
O O3 0.363161 0.305762 0.232256
O O4 0.022151 0.931861 0.260653
O O5 0.198557 0.616397 0.212985
O O6 0.266731 0.759730 0.512684
O O7 0.067401 0.680045 0.338963
O O8 0.456409 0.977531 0.294064
O O9 0.337821 0.344265 0.627535
O O10 0.171796 0.377039 0.669011
O O11 0.104290 0.351381 0.113116
O O12 0.385618 0.494409 0.217669
O O13 0.326142 0.390666 0.927044
O O14 0.836239 0.271145 0.183230
O O15 0.084703 0.446608 0.924191
O O16 0.297068 0.665661 0.689933
#
# Coordination Sequence:
#
# PCOD9038787 Si02
#       8
#     2   2   2   2   2   2   2   2
#     4   9  22  37  58  84 122 152 200 242 278 351
#     4  10  23  42  62  92 115 151 200 243 299 357
#     4  11  21  38  59  90 115 161 194 238 296 338
#     4   9  20  39  58  84 119 154 194 238 284 346
#     4  11  21  40  60  91 120 158 196 238 299 348
#     4   9  19  40  55  81 121 153 194 241 285 337
#     4  11  23  37  64  87 123 156 194 245 295 349
#     4  10  23  42  63  87 119 151 195 250 295 357
#
# _framework density 19.634687
#
# number of rings (size 3 to 8) (size 9 to 14) (size 15 to 20)
#    0.750    1.250    1.250    3.375    3.500    3.500 
#    4.500    1.250    0.000    0.000    0.000    0.000 
#    0.000    0.000    0.000    0.000    0.000    0.000 
#
# Total GULP energy -89181.685398 kJ/mol
# GULP energy per Si atom -5573.855337 kJ/mol
# Density = 1.959000 g / cm^3
# Si number density = 19.634687 Si / 1000 Ang^3
#
#
#
# Elastic Constant Matrix: (Units=GPa)
#
#
# Indices 1 2 3 4 5 6 
#
# 1 49.7273 13.1217 5.3566 -9.9767 12.8638 -23.6921
# 2 13.1217 96.1939 27.9507 -27.5950 13.5358 -11.9549
# 3 5.3566 27.9507 53.7146 -15.4966 6.0331 -10.2821
# 4 -9.9767 -27.5950 -15.4966 31.9752 -1.5530 10.5392
# 5 12.8638 13.5358 6.0331 -1.5530 20.0574 -0.1224
# 6 -23.6921 -11.9549 -10.2821 10.5392 -0.1224 23.1728
#
#
#
# Elastic Compliance Matrix: (Units=1/GPa)
#
#
# Indices 1 2 3 4 5 6 
#
# 1 0.064836 0.004486 0.011287 0.003640 -0.047285 0.071707
# 2 0.004486 0.016466 -0.003137 0.011374 -0.012125 0.006452
# 3 0.011287 -0.003137 0.025960 0.006767 -0.012295 0.018298
# 4 0.003640 0.011374 0.006767 0.048187 -0.008372 -0.009368
# 5 -0.047285 -0.012125 -0.012295 -0.008372 0.091075 -0.055767
# 6 0.071707 0.006452 0.018298 -0.009368 -0.055767 0.131881
#
#
# Mechanical properties :
#
#
# Convention : Reuss Voigt Hill
#
# Bulk Modulus (GPa) = 7.54525 32.49933 20.02229
# Shear Modulus (GPa) = 12.58456 25.25487 18.91971
#
# Velocity S-wave (km/s) = 2.53442 3.59031 3.10754
# Velocity P-wave (km/s) = 3.52357 5.81163 4.80575
#
# Compressibility (1/GPa) = 0.13253365
#
# Stress axis : x y z
#
# Youngs Moduli (GPa) = 15.42342 60.72979 38.52135
#
# Poissons Ratio (x) = -0.27240 -0.43481
# Poissons Ratio (y) = -0.06918 0.12085
# Poissons Ratio (z) = -0.17409 0.19053
#
# Static dielectric constant tensor:
#      x y z
#    x 1.670160 -0.001720 0.031000 
#    y -0.001720 1.707760 -0.012480 
#    z 0.031000 -0.012480 1.717930 
# 
# From -- ./inp_files/313544.got.cif
#   From: 2010.05.17/outbox.cif.g08.bks.cpg/sg2_157_cif.got.tgz:313544.got - 2010.06.03 11:33:40.
