data_PCOD9038785
_publ_section_title
;
Structure prediction by ZEFSAII (Michael W. Deem and Ramdas Pophale) SiO2 
 PCOD9038785
Probable space group: P -1
;
_chemical_formula_sum "Si O2"
_cell_formula_units_Z 16
_cell_length_a 5.028319
_cell_length_b 5.487845
_cell_length_c 22.857311
_cell_angle_alpha 89.329233
_cell_angle_beta 105.607114
_cell_angle_gamma 86.143093
_cell_volume 605.815841
_symmetry_space_group_name_H-M "P -1"
_symmetry_group_IT_number 2
_symmetry_cell_setting 'triclinic'
loop_
_space_group_symop_operation_xyz
x,y,z
-x,-y,-z
loop_
_atom_site_type_symbol
_atom_site_label
_atom_site_fract_x
_atom_site_fract_y
_atom_site_fract_z
Si Si1 0.523621 0.123580 0.093757
Si Si2 0.275377 0.994130 0.346349
Si Si3 0.903474 0.390066 0.567301
Si Si4 0.593736 0.191429 0.457345
Si Si5 0.778885 0.408956 0.318095
Si Si6 0.147507 0.176579 0.965970
Si Si7 0.707873 0.387111 0.872647
Si Si8 0.800931 0.396458 0.743566
O O1 0.496622 0.368602 0.129823
O O2 0.806869 0.986328 0.089493
O O3 0.398578 0.879913 0.115991
O O4 0.408631 0.218749 0.022075
O O5 0.186955 0.805803 0.390862
O O6 0.311896 0.849625 0.288796
O O7 0.559205 0.081092 0.391308
O O8 0.005814 0.182010 0.327033
O O9 0.879666 0.277925 0.501059
O O10 0.653458 0.597729 0.555645
O O11 0.174306 0.480621 0.614266
O O12 0.500000 0.000000 0.500000
O O13 0.912436 0.571215 0.273835
O O14 0.452829 0.402330 0.287853
O O15 0.962902 0.410552 0.932745
O O16 0.000000 0.000000 0.000000
O O17 0.817338 0.390225 0.813525
#
# Coordination Sequence:
#
# PCOD9038785 Si02
#       8
#     2   2   2   2   2   2   2   2
#     4  10  23  42  67 100 135 174 222 279 343 407
#     4   9  19  37  62  87 128 171 217 275 337 400
#     4   8  15  31  57  92 123 164 216 270 335 405
#     4   8  13  27  58  92 126 163 211 272 335 400
#     4  10  23  42  62  90 127 172 222 278 340 399
#     4   9  21  42  69 100 136 174 219 278 344 406
#     4  11  25  41  66  97 134 178 228 280 338 410
#     4  11  26  42  64  93 129 175 228 275 332 405
#
# _framework density 26.410668999999999
#
# number of rings (size 3 to 8) (size 9 to 14) (size 15 to 20)
#    0.000    2.500    0.000    0.375    3.500    9.500 
#    0.000    0.625    0.000   67.500    0.000    0.000 
#    0.000    0.000    0.000    0.000    0.000    0.000 
#
# Total GULP energy -89331.885277 kJ/mol
# GULP energy per Si atom -5583.242830 kJ/mol
# Density = 2.635056 g / cm^3
# Si number density = 26.410669 Si / 1000 Ang^3
#
#
#
# Elastic Constant Matrix: (Units=GPa)
#
#
# Indices 1 2 3 4 5 6 
#
# 1 99.2136 9.8641 3.7070 -1.1194 -13.3274 -7.4402
# 2 9.8641 109.9719 13.6082 4.4203 -5.7833 -10.3228
# 3 3.7070 13.6082 118.0151 8.2001 -11.6843 -13.4227
# 4 -1.1194 4.4203 8.2001 39.3123 -10.7496 -3.9763
# 5 -13.3274 -5.7833 -11.6843 -10.7496 30.8984 6.9114
# 6 -7.4402 -10.3228 -13.4227 -3.9763 6.9114 34.9147
#
#
#
# Elastic Compliance Matrix: (Units=1/GPa)
#
#
# Indices 1 2 3 4 5 6 
#
# 1 0.010940 -0.000689 0.000268 0.001850 0.005011 0.001449
# 2 -0.000689 0.009503 -0.000732 -0.000572 0.000510 0.002215
# 3 0.000268 -0.000732 0.009174 -0.000851 0.002532 0.002770
# 4 0.001850 -0.000572 -0.000851 0.028600 0.010059 0.001164
# 5 0.005011 0.000510 0.002532 0.010059 0.040107 -0.004602
# 6 0.001449 0.002215 0.002770 0.001164 -0.004602 0.031713
#
#
# Mechanical properties :
#
#
# Convention : Reuss Voigt Hill
#
# Bulk Modulus (GPa) = 36.61375 42.39548 39.50461
# Shear Modulus (GPa) = 35.34852 41.02650 38.18751
#
# Velocity S-wave (km/s) = 3.66241 3.94560 3.80664
# Velocity P-wave (km/s) = 5.63717 6.06995 5.85756
#
# Compressibility (1/GPa) = 0.02731214
#
# Stress axis : x y z
#
# Youngs Moduli (GPa) = 91.40412 105.22548 108.99982
#
# Poissons Ratio (x) = 0.07253 -0.02924
# Poissons Ratio (y) = 0.06300 0.07978
# Poissons Ratio (z) = -0.02452 0.07702
#
# Static dielectric constant tensor:
#      x y z
#    x 2.143280 0.097270 0.058170 
#    y 0.097270 2.282350 0.050070 
#    z 0.058170 0.050070 2.093630 
# 
# From -- ./inp_files/128004.got.cif
#   From: 2010.05.17/outbox.cif.g08.bks.cpg/sg2_65_cif.got.tgz:128004.got - 2010.06.03 11:33:40.
