data_PCOD9038566
_publ_section_title
;
Structure prediction by ZEFSAII (Michael W. Deem and Ramdas Pophale) SiO2 
 PCOD9038566
Probable space group: P -1
;
_chemical_formula_sum "Si O2"
_cell_formula_units_Z 11
_cell_length_a 10.080489
_cell_length_b 12.451829
_cell_length_c 12.014772
_cell_angle_alpha 23.640507
_cell_angle_beta 36.831879
_cell_angle_gamma 39.406364
_cell_volume 357.613547
_symmetry_space_group_name_H-M "P -1"
_symmetry_group_IT_number 2
_symmetry_cell_setting 'triclinic'
loop_
_space_group_symop_operation_xyz
x,y,z
-x,-y,-z
loop_
_atom_site_type_symbol
_atom_site_label
_atom_site_fract_x
_atom_site_fract_y
_atom_site_fract_z
Si Si1 0.017539 0.205528 0.146984
Si Si2 0.460465 0.146688 0.004204
Si Si3 0.500000 0.500000 0.000000
Si Si4 0.497297 0.319822 0.433708
Si Si5 0.130507 0.684106 0.198549
Si Si6 0.051317 0.320687 0.419427
O O1 0.189015 0.189321 0.150150
O O2 0.761144 0.257321 0.304007
O O3 0.049668 0.937810 0.304521
O O4 0.055742 0.453329 0.809932
O O5 0.571669 0.950278 0.214047
O O6 0.539103 0.432440 0.690630
O O7 0.500000 0.000000 0.000000
O O8 0.265952 0.736190 0.943043
O O9 0.319081 0.290301 0.266063
O O10 0.380720 0.454362 0.272463
O O11 0.022361 0.562339 0.514969
O O12 0.000000 0.000000 0.000000
#
# Coordination Sequence:
#
# PCOD9038566 Si02
#       6
#     2   2   1   2   2   2
#     4  12  23  46  72  99 138 183 230 280 348 417
#     4  12  29  43  70  98 138 182 230 291 343 402
#     4   8  20  42  62 106 136 182 220 278 354 406
#     4  12  25  47  69  99 136 180 235 280 343 426
#     4  10  23  42  73 105 142 180 233 286 357 415
#     4  10  23  41  71 101 139 177 225 285 348 411
#
# _framework density 30.759459
#
# number of rings (size 3 to 8) (size 9 to 14) (size 15 to 20)
#    1.091    0.000    1.818    3.818    5.091    4.364 
#    0.000    1.818    0.000    0.000    0.000    0.000 
#    0.000    0.000    0.000    0.000    0.000    0.000 
#
# Total GULP energy -61507.429929 kJ/mol
# GULP energy per Si atom -5591.584539 kJ/mol
# Density = 3.068945 g / cm^3
# Si number density = 30.759459 Si / 1000 Ang^3
#
#
#
# Elastic Constant Matrix: (Units=GPa)
#
#
# Indices 1 2 3 4 5 6 
#
# 1 173.4801 28.2069 50.3123 -18.3791 1.9383 -25.2670
# 2 28.2069 235.0778 74.9816 5.6339 -12.6956 4.3379
# 3 50.3123 74.9816 195.2755 -3.0906 27.2021 -20.8131
# 4 -18.3791 5.6339 -3.0906 60.3240 -17.8973 -14.7737
# 5 1.9383 -12.6956 27.2021 -17.8973 62.5864 1.3132
# 6 -25.2670 4.3379 -20.8131 -14.7737 1.3132 62.9759
#
#
#
# Elastic Compliance Matrix: (Units=1/GPa)
#
#
# Indices 1 2 3 4 5 6 
#
# 1 0.007032 -0.000466 -0.001410 0.003220 0.001156 0.003119
# 2 -0.000466 0.005192 -0.002311 -0.000527 0.001952 -0.001473
# 3 -0.001410 -0.002311 0.007079 -0.000478 -0.003678 0.001897
# 4 0.003220 -0.000527 -0.000478 0.020757 0.005813 0.005919
# 5 0.001156 0.001952 -0.003678 0.005813 0.019598 0.000069
# 6 0.003119 -0.001473 0.001897 0.005919 0.000069 0.019246
#
#
# Mechanical properties :
#
#
# Convention : Reuss Voigt Hill
#
# Bulk Modulus (GPa) = 91.50998 101.20386 96.35692
# Shear Modulus (GPa) = 54.99321 67.19943 61.09632
#
# Velocity S-wave (km/s) = 4.23288 4.67912 4.46158
# Velocity P-wave (km/s) = 7.32833 7.88450 7.61150
#
# Compressibility (1/GPa) = 0.01092777
#
# Stress axis : x y z
#
# Youngs Moduli (GPa) = 142.21395 192.59835 141.26890
#
# Poissons Ratio (x) = 0.08978 0.19924
# Poissons Ratio (y) = 0.06629 0.32645
# Poissons Ratio (z) = 0.20058 0.44506
#
# Static dielectric constant tensor:
#      x y z
#    x 2.504560 0.179000 0.030280 
#    y 0.179000 2.791140 0.338910 
#    z 0.030280 0.338910 2.793930 
# 
# From -- ./inp_files/521179.got.cif
#   From: 2010.05.17/outbox.cif.g08.bks.cpg/sg2_261_cif.got.tgz:521179.got - 2010.06.03 11:33:40.
