data_PCOD9038169
_publ_section_title
;
Structure prediction by ZEFSAII (Michael W. Deem and Ramdas Pophale) SiO2 
 PCOD9038169
Probable space group: P -1
;
_chemical_formula_sum "Si O2"
_cell_formula_units_Z 16
_cell_length_a 14.024292
_cell_length_b 13.835118
_cell_length_c 8.745896
_cell_angle_alpha 93.197736
_cell_angle_beta 104.886617
_cell_angle_gamma 150.340393
_cell_volume 659.091605
_symmetry_space_group_name_H-M "P -1"
_symmetry_group_IT_number 2
_symmetry_cell_setting 'triclinic'
loop_
_space_group_symop_operation_xyz
x,y,z
-x,-y,-z
loop_
_atom_site_type_symbol
_atom_site_label
_atom_site_fract_x
_atom_site_fract_y
_atom_site_fract_z
Si Si1 0.826009 0.873545 0.140112
Si Si2 0.389382 0.464817 0.174764
Si Si3 0.187100 0.944362 0.715816
Si Si4 0.963044 0.228923 0.883111
Si Si5 0.675956 0.308479 0.104676
Si Si6 0.844456 0.450866 0.498104
Si Si7 0.259455 0.120343 0.440668
Si Si8 0.961002 0.395978 0.116176
O O1 0.607798 0.666990 0.156953
O O2 0.044670 0.002462 0.300193
O O3 0.896173 0.048491 0.196584
O O4 0.725822 0.744551 0.924468
O O5 0.182120 0.353486 0.029198
O O6 0.502889 0.602351 0.393325
O O7 0.200376 0.009212 0.563036
O O8 0.011128 0.695531 0.604763
O O9 0.451452 0.143766 0.897110
O O10 0.905370 0.242698 0.007329
O O11 0.088283 0.414276 0.825833
O O12 0.750631 0.972212 0.699721
O O13 0.646745 0.293209 0.272984
O O14 0.743249 0.257033 0.097492
O O15 0.000000 0.500000 0.500000
O O16 0.804092 0.392170 0.655152
O O17 0.000000 0.500000 0.000000
#
# Coordination Sequence:
#
# PCOD9038169 Si02
#       8
#     2   2   2   2   2   2   2   2
#     4   9  18  28  49  84 117 139 180 226 276 315
#     4   9  16  28  47  78 115 139 177 222 268 314
#     4  11  19  32  57  82 114 143 180 231 276 315
#     4  10  17  33  53  79 112 146 176 221 271 321
#     4  10  19  35  57  80 110 142 185 227 270 318
#     4  10  22  38  57  79 109 145 185 229 275 319
#     4  10  18  29  53  86 114 143 180 225 274 322
#     4   9  21  38  56  76 109 147 181 226 273 326
#
# _framework density 24.275836000000002
#
# number of rings (size 3 to 8) (size 9 to 14) (size 15 to 20)
#    0.000    2.250    3.750    1.500    0.000    3.000 
#    0.000    4.375    0.000    3.000    0.000   11.375 
#    0.000    0.000    0.000    0.000    0.000    0.000 
#
# Total GULP energy -89358.510158 kJ/mol
# GULP energy per Si atom -5584.906885 kJ/mol
# Density = 2.422058 g / cm^3
# Si number density = 24.275836 Si / 1000 Ang^3
#
#
#
# Elastic Constant Matrix: (Units=GPa)
#
#
# Indices 1 2 3 4 5 6 
#
# 1 146.6175 5.2656 64.5321 8.8854 -27.2914 -22.7446
# 2 5.2656 29.2135 7.5942 -13.6151 4.1600 12.2174
# 3 64.5321 7.5942 159.9429 -0.0982 -25.3138 10.5066
# 4 8.8854 -13.6151 -0.0982 29.1751 -7.7162 3.1971
# 5 -27.2914 4.1600 -25.3138 -7.7162 42.1038 0.6848
# 6 -22.7446 12.2174 10.5066 3.1971 0.6848 14.5164
#
#
#
# Elastic Compliance Matrix: (Units=1/GPa)
#
#
# Indices 1 2 3 4 5 6 
#
# 1 -0.016655 0.058721 0.009747 0.042165 -0.001517 -0.091785
# 2 0.058721 -0.101699 -0.031827 -0.086983 0.009467 0.219344
# 3 0.009747 -0.031827 0.001789 -0.021198 0.005918 0.045153
# 4 0.042165 -0.086983 -0.021198 -0.033061 0.014500 0.161212
# 5 -0.001517 0.009467 0.005918 0.014500 0.028359 -0.019159
# 6 -0.091785 0.219344 0.045153 0.161212 -0.019159 -0.326811
#
#
# Mechanical properties :
#
#
# Convention : Reuss Voigt Hill
#
# Bulk Modulus (GPa) = -23.10319 54.50643 15.70162
# Shear Modulus (GPa) = -9.33208 34.38454 12.52623
#
# Velocity S-wave (km/s) = -1.96279 3.76761 2.27402
# Velocity P-wave (km/s) = 3.83071 6.43647 3.65745
#
# Compressibility (1/GPa) = -0.04328406
#
# Stress axis : x y z
#
# Youngs Moduli (GPa) = -60.04380 -9.83293 559.10545
#
# Poissons Ratio (x) = 0.57740 -5.44937
# Poissons Ratio (y) = 3.52583 17.79472
# Poissons Ratio (z) = 0.58522 -0.31295
#
# Static dielectric constant tensor:
#      x y z
#    x 1.968270 0.040020 -0.047480 
#    y 0.040020 2.071100 -0.022940 
#    z -0.047480 -0.022940 1.963610 
# 
# From -- ./inp_files/315483.got.cif
#   From: 2010.05.17/outbox.cif.g08.bks.cpg/sg2_158_cif.got.tgz:315483.got - 2010.06.03 11:33:40.
