data_PCOD9038798
_publ_section_title
;
Structure prediction by ZEFSAII (Michael W. Deem and Ramdas Pophale) SiO2 
 PCOD9038798
Probable space group: P -1
;
_chemical_formula_sum "Si O2"
_cell_formula_units_Z 12
_cell_length_a 14.898345
_cell_length_b 12.770811
_cell_length_c 14.746926
_cell_angle_alpha 148.489880
_cell_angle_beta 26.010865
_cell_angle_gamma 153.462809
_cell_volume 532.620955
_symmetry_space_group_name_H-M "P -1"
_symmetry_group_IT_number 2
_symmetry_cell_setting 'triclinic'
loop_
_space_group_symop_operation_xyz
x,y,z
-x,-y,-z
loop_
_atom_site_type_symbol
_atom_site_label
_atom_site_fract_x
_atom_site_fract_y
_atom_site_fract_z
Si Si1 0.280171 0.719749 0.892362
Si Si2 0.908697 0.680529 0.564714
Si Si3 0.795397 0.165124 0.279037
Si Si4 0.443181 0.076592 0.387579
Si Si5 0.741845 0.855764 0.684576
Si Si6 0.110692 0.068897 0.810971
O O1 0.354898 0.762947 0.751078
O O2 0.497518 0.711275 0.737300
O O3 0.000000 0.500000 0.000000
O O4 0.287766 0.949642 0.092849
O O5 0.819403 0.408699 0.464830
O O6 0.773092 0.705365 0.621794
O O7 0.202275 0.836196 0.388337
O O8 0.904861 0.825983 0.763176
O O9 0.560018 0.012348 0.314999
O O10 0.800621 0.021078 0.252881
O O11 0.017839 0.219895 0.051265
O O12 0.319689 0.198423 0.640544
O O13 0.000000 0.000000 0.500000
#
# Coordination Sequence:
#
# PCOD9038798 Si02
#       6
#     2   2   2   2   2   2
#     4  11  26  43  71  96 132 183 228 277 341 399
#     4  10  23  42  67  97 136 175 215 281 339 390
#     4  11  21  42  70  98 134 178 219 275 343 398
#     4  10  23  42  63 100 135 168 229 278 327 412
#     4  11  23  46  65  99 135 173 230 284 332 408
#     4   9  22  44  65 100 137 170 228 272 332 415
#
# _framework density 22.530093999999998
#
# number of rings (size 3 to 8) (size 9 to 14) (size 15 to 20)
#    1.000    0.667    1.667    2.000    2.333    2.000 
#    6.000    1.667    0.000    0.000    0.000    0.000 
#    0.000    0.000    0.000    0.000    0.000    0.000 
#
# Total GULP energy -66985.117531 kJ/mol
# GULP energy per Si atom -5582.093128 kJ/mol
# Density = 2.247881 g / cm^3
# Si number density = 22.530094 Si / 1000 Ang^3
#
#
#
# Elastic Constant Matrix: (Units=GPa)
#
#
# Indices 1 2 3 4 5 6 
#
# 1 125.5059 28.8882 17.5607 -4.2074 -10.5428 14.8810
# 2 28.8882 78.3023 20.5791 -12.8013 -2.9194 18.0992
# 3 17.5607 20.5791 66.5979 -21.5469 23.9856 -1.5272
# 4 -4.2074 -12.8013 -21.5469 41.7155 -4.7413 1.9004
# 5 -10.5428 -2.9194 23.9856 -4.7413 38.2257 -12.2054
# 6 14.8810 18.0992 -1.5272 1.9004 -12.2054 20.9211
#
#
#
# Elastic Compliance Matrix: (Units=1/GPa)
#
#
# Indices 1 2 3 4 5 6 
#
# 1 0.009559 -0.001826 -0.003624 -0.000908 0.003605 -0.003298
# 2 -0.001826 0.018929 -0.003887 0.004214 -0.001380 -0.016549
# 3 -0.003624 -0.003887 0.026997 0.010495 -0.018081 -0.003591
# 4 -0.000908 0.004214 0.010495 0.030357 -0.005336 -0.008104
# 5 0.003605 -0.001380 -0.018081 -0.005336 0.045506 0.024343
# 6 -0.003298 -0.016549 -0.003591 -0.008104 0.024343 0.079137
#
#
# Mechanical properties :
#
#
# Convention : Reuss Voigt Hill
#
# Bulk Modulus (GPa) = 27.16517 44.94024 36.05270
# Shear Modulus (GPa) = 20.71015 33.73098 27.22056
#
# Velocity S-wave (km/s) = 3.03516 3.87350 3.47967
# Velocity P-wave (km/s) = 4.93623 6.32419 5.67282
#
# Compressibility (1/GPa) = 0.03681185
#
# Stress axis : x y z
#
# Youngs Moduli (GPa) = 104.61866 52.83005 37.04067
#
# Poissons Ratio (x) = 0.09645 0.13424
# Poissons Ratio (y) = 0.19099 0.14396
# Poissons Ratio (z) = 0.37915 0.20533
#
# Static dielectric constant tensor:
#      x y z
#    x 1.840350 0.048710 -0.012960 
#    y 0.048710 1.875360 -0.032760 
#    z -0.012960 -0.032760 1.850190 
# 
# From -- ./inp_files/530772.got.cif
#   From: 2010.05.17/outbox.cif.g08.bks.cpg/sg2_266_cif.got.tgz:530772.got - 2010.06.03 11:33:40.
