data_PCOD9038198
_publ_section_title
;
Structure prediction by ZEFSAII (Michael W. Deem and Ramdas Pophale) SiO2 
 PCOD9038198
Probable space group: P -1
;
_chemical_formula_sum "Si O2"
_cell_formula_units_Z 14
_cell_length_a 7.983352
_cell_length_b 9.144546
_cell_length_c 8.200308
_cell_angle_alpha 91.017162
_cell_angle_beta 98.296208
_cell_angle_gamma 111.826788
_cell_volume 548.260622
_symmetry_space_group_name_H-M "P -1"
_symmetry_group_IT_number 2
_symmetry_cell_setting 'triclinic'
loop_
_space_group_symop_operation_xyz
x,y,z
-x,-y,-z
loop_
_atom_site_type_symbol
_atom_site_label
_atom_site_fract_x
_atom_site_fract_y
_atom_site_fract_z
Si Si1 0.150208 0.730910 0.681093
Si Si2 0.657190 0.585154 0.654442
Si Si3 0.894206 0.118395 0.978881
Si Si4 0.559253 0.837672 0.847530
Si Si5 0.102659 0.442305 0.869957
Si Si6 0.925593 0.812487 0.454185
Si Si7 0.416459 0.336392 0.833114
O O1 0.369122 0.806078 0.737301
O O2 0.095896 0.545826 0.715601
O O3 0.113627 0.781825 0.495866
O O4 0.099545 0.810505 0.839043
O O5 0.500000 0.500000 0.500000
O O6 0.641158 0.730476 0.753556
O O7 0.840247 0.675776 0.582194
O O8 0.605504 0.440608 0.771257
O O9 0.994529 0.255262 0.866909
O O10 0.693764 0.017711 0.884250
O O11 0.000000 0.000000 0.000000
O O12 0.548171 0.771773 0.028079
O O13 0.312749 0.448313 0.893702
O O14 0.000000 0.500000 0.000000
O O15 0.746305 0.768465 0.314887
O O16 0.000000 0.000000 0.500000
#
# Coordination Sequence:
#
# PCOD9038198 Si02
#       7
#     2   2   2   2   2   2   2
#     4  11  25  44  68 105 144 185 233 297 351 424
#     4  10  24  44  69 104 141 189 233 287 359 428
#     4  11  22  39  70 108 142 183 236 291 354 416
#     4  12  23  42  76 106 144 180 243 297 351 418
#     4  10  23  41  67 109 144 183 240 293 349 422
#     4  11  26  47  72 100 144 189 237 290 365 424
#     4  11  23  44  73 104 143 195 234 288 356 429
#
# _framework density 25.535302000000001
#
# number of rings (size 3 to 8) (size 9 to 14) (size 15 to 20)
#    0.000    1.143    2.857    2.571    4.000    1.714 
#    0.000    3.571    0.000    0.000    0.000    0.000 
#    0.000    0.000    0.000    0.000    0.000    0.000 
#
# Total GULP energy -78066.604540 kJ/mol
# GULP energy per Si atom -5576.186039 kJ/mol
# Density = 2.547718 g / cm^3
# Si number density = 25.535302 Si / 1000 Ang^3
#
#
#
# Elastic Constant Matrix: (Units=GPa)
#
#
# Indices 1 2 3 4 5 6 
#
# 1 36.6230 13.3172 -8.7111 -17.6302 1.7989 -6.7485
# 2 13.3172 146.6094 19.2304 -3.9009 12.4481 22.3516
# 3 -8.7111 19.2304 66.6699 9.1626 26.1600 10.2915
# 4 -17.6302 -3.9009 9.1626 39.9789 -1.6817 -0.3608
# 5 1.7989 12.4481 26.1600 -1.6817 32.1980 -5.3130
# 6 -6.7485 22.3516 10.2915 -0.3608 -5.3130 34.9774
#
#
#
# Elastic Compliance Matrix: (Units=1/GPa)
#
#
# Indices 1 2 3 4 5 6 
#
# 1 0.039617 -0.005094 0.002790 0.016429 0.000040 0.010254
# 2 -0.005094 0.008711 -0.000229 -0.001583 -0.004156 -0.007130
# 3 0.002790 -0.000229 0.027799 -0.006311 -0.024853 -0.011335
# 4 0.016429 -0.001583 -0.006311 0.033948 0.007846 0.007580
# 5 0.000040 -0.004156 -0.024853 0.007846 0.056336 0.018614
# 6 0.010254 -0.007130 -0.011335 0.007580 0.018614 0.041365
#
#
# Mechanical properties :
#
#
# Convention : Reuss Voigt Hill
#
# Bulk Modulus (GPa) = 14.07267 33.06395 23.56831
# Shear Modulus (GPa) = 21.13888 36.50191 28.82040
#
# Velocity S-wave (km/s) = 2.88032 3.78493 3.36318
# Velocity P-wave (km/s) = 4.07243 5.66369 4.93265
#
# Compressibility (1/GPa) = 0.07105974
#
# Stress axis : x y z
#
# Youngs Moduli (GPa) = 25.24146 114.79213 35.97297
#
# Poissons Ratio (x) = 0.58475 -0.10035
# Poissons Ratio (y) = 0.12858 0.00825
# Poissons Ratio (z) = -0.07041 0.02633
#
# Static dielectric constant tensor:
#      x y z
#    x 2.224510 -0.062890 -0.156330 
#    y -0.062890 2.024490 0.031160 
#    z -0.156330 0.031160 1.971020 
# 
# From -- ./inp_files/158193.got.cif
#   From: 2010.05.17/outbox.cif.g08.bks.cpg/sg2_80_cif.got.tgz:158193.got - 2010.06.03 11:33:40.
