data_PCOD9038479
_publ_section_title
;
Structure prediction by ZEFSAII (Michael W. Deem and Ramdas Pophale) SiO2 
 PCOD9038479
Probable space group: P -1
;
_chemical_formula_sum "Si O2"
_cell_formula_units_Z 14
_cell_length_a 9.306414
_cell_length_b 7.627341
_cell_length_c 14.282364
_cell_angle_alpha 126.273037
_cell_angle_beta 46.357755
_cell_angle_gamma 97.450097
_cell_volume 519.652006
_symmetry_space_group_name_H-M "P -1"
_symmetry_group_IT_number 2
_symmetry_cell_setting 'triclinic'
loop_
_space_group_symop_operation_xyz
x,y,z
-x,-y,-z
loop_
_atom_site_type_symbol
_atom_site_label
_atom_site_fract_x
_atom_site_fract_y
_atom_site_fract_z
Si Si1 0.867614 0.529390 0.219982
Si Si2 0.721170 0.000194 0.936371
Si Si3 0.538080 0.085914 0.236097
Si Si4 0.295936 0.778864 0.166311
Si Si5 0.314931 0.349966 0.863124
Si Si6 0.805574 0.360663 0.386267
Si Si7 0.224553 0.944979 0.524929
O O1 0.796037 0.521037 0.143539
O O2 0.808801 0.377167 0.276014
O O3 0.741914 0.815917 0.398226
O O4 0.132777 0.461460 0.067089
O O5 0.931226 0.732780 0.739778
O O6 0.732233 0.201527 0.928481
O O7 0.500000 0.000000 0.000000
O O8 0.706321 0.063309 0.070832
O O9 0.362490 0.364615 0.421477
O O10 0.402276 0.948776 0.210958
O O11 0.661475 0.927515 0.221379
O O12 0.500000 0.500000 0.000000
O O13 0.031611 0.925611 0.360063
O O14 0.583370 0.260907 0.693606
O O15 0.760883 0.185357 0.422395
#
# Coordination Sequence:
#
# PCOD9038479 Si02
#       7
#     2   2   2   2   2   2   2
#     4  11  24  48  67  95 140 176 225 277 336 390
#     4   9  21  39  61  91 131 172 214 264 327 395
#     4  11  22  41  68  96 133 176 219 269 340 389
#     4  10  23  41  69  99 137 176 217 281 329 402
#     4  11  24  44  72  96 132 183 221 279 333 397
#     4  11  24  42  68  98 136 175 219 280 329 398
#     4  11  25  43  68 104 132 174 228 276 332 400
#
# _framework density 26.941106000000001
#
# number of rings (size 3 to 8) (size 9 to 14) (size 15 to 20)
#    0.000    1.429    2.857    1.286    2.000    9.714 
#    0.000    2.857    0.000    0.000    0.000    0.000 
#    0.000    0.000    0.000    0.000    0.000    0.000 
#
# Total GULP energy -78094.852513 kJ/mol
# GULP energy per Si atom -5578.203751 kJ/mol
# Density = 2.687979 g / cm^3
# Si number density = 26.941106 Si / 1000 Ang^3
#
#
#
# Elastic Constant Matrix: (Units=GPa)
#
#
# Indices 1 2 3 4 5 6 
#
# 1 60.2131 16.1555 27.4121 1.7086 -6.4611 -6.2682
# 2 16.1555 192.4037 47.9700 -14.1921 -9.3780 -29.4482
# 3 27.4121 47.9700 208.2036 -5.8536 -24.8393 -4.0188
# 4 1.7086 -14.1921 -5.8536 53.6872 -13.3073 0.5041
# 5 -6.4611 -9.3780 -24.8393 -13.3073 34.8992 -0.7000
# 6 -6.2682 -29.4482 -4.0188 0.5041 -0.7000 32.2102
#
#
#
# Elastic Compliance Matrix: (Units=1/GPa)
#
#
# Indices 1 2 3 4 5 6 
#
# 1 0.018164 -0.000550 -0.002035 -0.000574 0.001604 0.002822
# 2 -0.000550 0.006645 -0.001071 0.002054 0.001822 0.005842
# 3 -0.002035 -0.001071 0.005824 0.001416 0.004009 -0.000583
# 4 -0.000574 0.002054 0.001416 0.021750 0.009783 0.001815
# 5 0.001604 0.001822 0.004009 0.009783 0.036087 0.003110
# 6 0.002822 0.005842 -0.000583 0.001815 0.003110 0.036903
#
#
# Mechanical properties :
#
#
# Convention : Reuss Voigt Hill
#
# Bulk Modulus (GPa) = 42.87825 71.54396 57.21110
# Shear Modulus (GPa) = 35.59767 48.77817 42.18792
#
# Velocity S-wave (km/s) = 3.63893 4.25967 3.96148
# Velocity P-wave (km/s) = 5.79706 7.12786 6.49662
#
# Compressibility (1/GPa) = 0.02332185
#
# Stress axis : x y z
#
# Youngs Moduli (GPa) = 55.05433 150.48876 171.68902
#
# Poissons Ratio (x) = 0.08278 0.34939
# Poissons Ratio (y) = 0.03028 0.18382
# Poissons Ratio (z) = 0.11204 0.16112
#
# Static dielectric constant tensor:
#      x y z
#    x 2.299150 0.051140 0.039990 
#    y 0.051140 2.250270 0.001970 
#    z 0.039990 0.001970 2.177100 
# 
# From -- ./inp_files/515865.got.cif
#   From: 2010.05.17/outbox.cif.g08.bks.cpg/sg2_258_cif.got.tgz:515865.got - 2010.06.03 11:33:40.
