data_PCOD9038101
_publ_section_title
;
Structure prediction by ZEFSAII (Michael W. Deem and Ramdas Pophale) SiO2 
 PCOD9038101
Probable space group: P -1
;
_chemical_formula_sum "Si O2"
_cell_formula_units_Z 16
_cell_length_a 14.523119
_cell_length_b 14.227966
_cell_length_c 9.155629
_cell_angle_alpha 79.158568
_cell_angle_beta 98.497965
_cell_angle_gamma 29.335568
_cell_volume 693.436095
_symmetry_space_group_name_H-M "P -1"
_symmetry_group_IT_number 2
_symmetry_cell_setting 'triclinic'
loop_
_space_group_symop_operation_xyz
x,y,z
-x,-y,-z
loop_
_atom_site_type_symbol
_atom_site_label
_atom_site_fract_x
_atom_site_fract_y
_atom_site_fract_z
Si Si1 0.922496 0.435525 0.013035
Si Si2 0.190115 0.740478 0.279348
Si Si3 0.811891 0.266732 0.376561
Si Si4 0.930987 0.790323 0.591209
Si Si5 0.689596 0.187576 0.868868
Si Si6 0.635258 0.675727 0.381253
Si Si7 0.406592 0.368453 0.298227
Si Si8 0.628556 0.892319 0.906757
O O1 0.800853 0.455509 0.919780
O O2 0.703044 0.719894 0.906725
O O3 0.062454 0.281882 0.242667
O O4 0.108394 0.303295 0.977588
O O5 0.215888 0.688209 0.468636
O O6 0.219392 0.825583 0.232597
O O7 0.398571 0.486369 0.309085
O O8 0.926279 0.954537 0.096674
O O9 0.944390 0.227051 0.337221
O O10 0.529233 0.545840 0.177766
O O11 0.000000 0.000000 0.500000
O O12 0.109944 0.576229 0.573779
O O13 0.662268 0.078740 0.393493
O O14 0.567937 0.203978 0.777348
O O15 0.660275 0.621193 0.569584
O O16 0.544627 0.870760 0.291757
O O17 0.500000 0.000000 0.000000
#
# Coordination Sequence:
#
# PCOD9038101 Si02
#       8
#     2   2   2   2   2   2   2   2
#     4  11  26  44  71 103 132 177 228 275 342 401
#     4  11  23  40  67  98 133 188 222 272 339 390
#     4  11  24  39  65  97 140 177 228 279 327 395
#     4  11  24  43  66  99 135 178 222 273 336 401
#     4  10  23  41  66  94 133 178 229 266 332 402
#     4  11  23  45  69  96 138 179 221 283 340 398
#     4  12  25  43  70 102 137 175 226 275 332 407
#     4  11  23  46  74  97 135 177 221 284 342 398
#
# _framework density 23.073505000000001
#
# number of rings (size 3 to 8) (size 9 to 14) (size 15 to 20)
#    0.000    1.000    5.000    1.875    1.750    5.000 
#    0.000    1.250    0.000    0.000    0.000    0.000 
#    0.000    0.000    0.000    0.000    0.000    0.000 
#
# Total GULP energy -89367.667126 kJ/mol
# GULP energy per Si atom -5585.479195 kJ/mol
# Density = 2.302099 g / cm^3
# Si number density = 23.073505 Si / 1000 Ang^3
#
#
#
# Elastic Constant Matrix: (Units=GPa)
#
#
# Indices 1 2 3 4 5 6 
#
# 1 50.1576 12.6950 -6.0892 4.4259 -16.5853 -4.3351
# 2 12.6950 118.3305 9.0826 -28.1758 4.8271 -2.6252
# 3 -6.0892 9.0826 49.6281 -18.5756 6.0667 -7.6661
# 4 4.4259 -28.1758 -18.5756 28.2147 -0.3933 -9.7373
# 5 -16.5853 4.8271 6.0667 -0.3933 34.2694 -9.0744
# 6 -4.3351 -2.6252 -7.6661 -9.7373 -9.0744 44.6003
#
#
#
# Elastic Compliance Matrix: (Units=1/GPa)
#
#
# Indices 1 2 3 4 5 6 
#
# 1 0.027227 -0.005414 -0.000028 -0.008273 0.014783 0.003524
# 2 -0.005414 0.013498 0.005309 0.019350 -0.004024 0.004586
# 3 -0.000028 0.005309 0.033154 0.031310 -0.003033 0.012227
# 4 -0.008273 0.019350 0.031310 0.084588 -0.005177 0.023131
# 5 0.014783 -0.004024 -0.003033 -0.005177 0.039381 0.007561
# 6 0.003524 0.004586 0.012227 0.023131 0.007561 0.031724
#
#
# Mechanical properties :
#
#
# Convention : Reuss Voigt Hill
#
# Bulk Modulus (GPa) = 13.58465 27.72143 20.65304
# Shear Modulus (GPa) = 19.65609 34.91208 27.28409
#
# Velocity S-wave (km/s) = 2.92188 3.89405 3.44246
# Velocity P-wave (km/s) = 4.15735 5.67967 4.97706
#
# Compressibility (1/GPa) = 0.07361249
#
# Stress axis : x y z
#
# Youngs Moduli (GPa) = 36.72874 74.08748 30.16247
#
# Poissons Ratio (x) = 0.40108 0.00084
# Poissons Ratio (y) = 0.19883 -0.16012
# Poissons Ratio (z) = 0.00102 -0.39330
#
# Static dielectric constant tensor:
#      x y z
#    x 1.901800 0.018770 0.025720 
#    y 0.018770 1.903330 -0.056320 
#    z 0.025720 -0.056320 1.849650 
# 
# From -- ./inp_files/315118.got.cif
#   From: 2010.05.17/outbox.cif.g08.bks.cpg/sg2_158_cif.got.tgz:315118.got - 2010.06.03 11:33:40.
