data_PCOD9038528
_publ_section_title
;
Structure prediction by ZEFSAII (Michael W. Deem and Ramdas Pophale) SiO2 
 PCOD9038528
Probable space group: P -1
;
_chemical_formula_sum "Si O2"
_cell_formula_units_Z 16
_cell_length_a 8.223715
_cell_length_b 5.366968
_cell_length_c 17.145032
_cell_angle_alpha 78.778514
_cell_angle_beta 78.855769
_cell_angle_gamma 75.555027
_cell_volume 710.395751
_symmetry_space_group_name_H-M "P -1"
_symmetry_group_IT_number 2
_symmetry_cell_setting 'triclinic'
loop_
_space_group_symop_operation_xyz
x,y,z
-x,-y,-z
loop_
_atom_site_type_symbol
_atom_site_label
_atom_site_fract_x
_atom_site_fract_y
_atom_site_fract_z
Si Si1 0.456105 0.228178 0.222764
Si Si2 0.643997 0.293932 0.684662
Si Si3 0.279818 0.479899 0.624082
Si Si4 0.817561 0.044169 0.285870
Si Si5 0.890344 0.279867 0.522364
Si Si6 0.615025 0.793504 0.945958
Si Si7 0.855853 0.352768 0.999613
Si Si8 0.049590 0.981633 0.123984
O O1 0.365383 0.496068 0.257780
O O2 0.646425 0.143241 0.244734
O O3 0.459246 0.244108 0.128783
O O4 0.368580 0.989594 0.266863
O O5 0.472044 0.403351 0.643091
O O6 0.804652 0.265857 0.614885
O O7 0.176211 0.711962 0.674339
O O8 0.257956 0.606871 0.533231
O O9 0.207694 0.216861 0.652385
O O10 0.974308 0.978621 0.216111
O O11 0.000000 0.500000 0.500000
O O12 0.000000 0.000000 0.500000
O O13 0.673615 0.537077 0.008511
O O14 0.790922 0.884480 0.905170
O O15 0.500000 0.000000 0.000000
O O16 0.882275 0.287003 0.910026
O O17 0.000000 0.500000 0.000000
O O18 0.896322 0.114567 0.070417
#
# Coordination Sequence:
#
# PCOD9038528 Si02
#       8
#     2   2   2   2   2   2   2   2
#     4  10  24  42  67  98 129 173 220 274 330 379
#     4  10  23  47  67  93 135 177 216 262 320 400
#     4  10  23  44  68  99 127 178 217 256 324 392
#     4  10  23  41  70  95 130 171 224 266 316 396
#     4  12  25  42  68 105 135 170 211 271 323 381
#     4  11  26  41  62  95 130 172 221 279 338 387
#     4   9  22  41  61  88 120 167 226 261 338 387
#     4  10  23  42  63  90 124 177 218 270 332 391
#
# _framework density 22.522658
#
# number of rings (size 3 to 8) (size 9 to 14) (size 15 to 20)
#    0.000    1.750    0.000    1.875   10.500    5.500 
#    0.000    5.000    0.000    0.000    0.000    0.000 
#    0.000    0.000    0.000    0.000    0.000    0.000 
#
# Total GULP energy -89446.903188 kJ/mol
# GULP energy per Si atom -5590.431449 kJ/mol
# Density = 2.247140 g / cm^3
# Si number density = 22.522658 Si / 1000 Ang^3
#
#
#
# Elastic Constant Matrix: (Units=GPa)
#
#
# Indices 1 2 3 4 5 6 
#
# 1 64.3968 33.8223 35.9356 -1.3925 -12.5415 1.0682
# 2 33.8223 128.1156 23.9332 22.3082 -14.5808 5.2014
# 3 35.9356 23.9332 98.2291 13.0172 -12.7271 0.3582
# 4 -1.3925 22.3082 13.0172 31.2049 -4.4395 1.4593
# 5 -12.5415 -14.5808 -12.7271 -4.4395 46.6161 -2.6945
# 6 1.0682 5.2014 0.3582 1.4593 -2.6945 34.2240
#
#
#
# Elastic Compliance Matrix: (Units=1/GPa)
#
#
# Indices 1 2 3 4 5 6 
#
# 1 0.024106 -0.006095 -0.008144 0.009286 0.003247 0.000119
# 2 -0.006095 0.010855 0.000818 -0.008163 0.001142 -0.001030
# 3 -0.008144 0.000818 0.014002 -0.006625 0.001278 0.000366
# 4 0.009286 -0.008163 -0.006625 0.041378 0.002043 -0.000583
# 5 0.003247 0.001142 0.001278 0.002043 0.023310 0.001460
# 6 0.000119 -0.001030 0.000366 -0.000583 0.001460 0.029508
#
#
# Mechanical properties :
#
#
# Convention : Reuss Voigt Hill
#
# Bulk Modulus (GPa) = 45.20421 53.12487 49.16454
# Shear Modulus (GPa) = 28.18904 35.54569 31.86736
#
# Velocity S-wave (km/s) = 3.54161 3.97699 3.76560
# Velocity P-wave (km/s) = 6.06944 6.68783 6.38613
#
# Compressibility (1/GPa) = 0.02212183
#
# Stress axis : x y z
#
# Youngs Moduli (GPa) = 41.48406 92.12607 71.41595
#
# Poissons Ratio (x) = 0.56149 0.58162
# Poissons Ratio (y) = 0.25284 -0.05845
# Poissons Ratio (z) = 0.33785 -0.07539
#
# Static dielectric constant tensor:
#      x y z
#    x 2.095940 -0.034710 -0.333080 
#    y -0.034710 1.856670 0.027670 
#    z -0.333080 0.027670 2.424900 
# 
# From -- ./inp_files/485150.got.cif
#   From: 2010.05.17/outbox.cif.g08.bks.cpg/sg2_243_cif.got.tgz:485150.got - 2010.06.03 11:33:40.
