data_PCOD9038264
_publ_section_title
;
Structure prediction by ZEFSAII (Michael W. Deem and Ramdas Pophale) SiO2 
 PCOD9038264
Probable space group: P -1
;
_chemical_formula_sum "Si O2"
_cell_formula_units_Z 16
_cell_length_a 18.609078
_cell_length_b 12.138387
_cell_length_c 8.184858
_cell_angle_alpha 70.835175
_cell_angle_beta 38.683622
_cell_angle_gamma 45.333649
_cell_volume 713.646834
_symmetry_space_group_name_H-M "P -1"
_symmetry_group_IT_number 2
_symmetry_cell_setting 'triclinic'
loop_
_space_group_symop_operation_xyz
x,y,z
-x,-y,-z
loop_
_atom_site_type_symbol
_atom_site_label
_atom_site_fract_x
_atom_site_fract_y
_atom_site_fract_z
Si Si1 0.245781 0.901967 0.637611
Si Si2 0.945679 0.069680 0.324234
Si Si3 0.086765 0.742469 0.423721
Si Si4 0.607187 0.530894 0.239365
Si Si5 0.536743 0.891674 0.646574
Si Si6 0.823015 0.752762 0.787682
Si Si7 0.773399 0.562060 0.187496
Si Si8 0.153027 0.238117 0.629216
O O1 0.184155 0.860200 0.627530
O O2 0.454055 0.740911 0.368680
O O3 0.177571 0.082465 0.631324
O O4 0.138843 0.947513 0.967134
O O5 0.885003 0.225832 0.462907
O O6 0.968942 0.934130 0.453830
O O7 0.979395 0.705039 0.617727
O O8 0.265280 0.591095 0.078734
O O9 0.500000 0.500000 0.500000
O O10 0.722622 0.490944 0.202659
O O11 0.626686 0.704405 0.512891
O O12 0.681756 0.840304 0.528164
O O13 0.500000 0.000000 0.500000
O O14 0.351053 0.031817 0.998801
O O15 0.862409 0.696174 0.556272
O O16 0.779888 0.668659 0.002851
O O17 0.973590 0.395202 0.971263
#
# Coordination Sequence:
#
# PCOD9038264 Si02
#       8
#     2   2   2   2   2   2   2   2
#     4  11  23  42  67  95 133 177 221 273 329 397
#     4  10  23  41  67  98 130 176 220 271 332 394
#     4  11  23  44  69  98 133 174 222 275 333 393
#     4  12  25  44  68  97 132 175 222 273 331 397
#     4  10  24  42  66  98 131 174 221 269 333 397
#     4  11  23  44  68  98 135 175 222 279 333 395
#     4  11  25  44  67 100 132 178 223 275 332 398
#     4  12  23  44  68  97 136 177 220 275 338 394
#
# _framework density 22.420051999999998
#
# number of rings (size 3 to 8) (size 9 to 14) (size 15 to 20)
#    0.000    1.000    3.750    2.625    7.000    0.500 
#    0.000    0.000    0.000    0.000    0.000    0.000 
#    0.000    0.000    0.000    0.000    0.000    0.000 
#
# Total GULP energy -89537.705643 kJ/mol
# GULP energy per Si atom -5596.106603 kJ/mol
# Density = 2.236902 g / cm^3
# Si number density = 22.420052 Si / 1000 Ang^3
#
#
#
# Elastic Constant Matrix: (Units=GPa)
#
#
# Indices 1 2 3 4 5 6 
#
# 1 110.7389 6.4241 34.4147 2.2052 11.5419 22.4334
# 2 6.4241 47.9840 3.3458 -2.7448 -6.9892 10.2038
# 3 34.4147 3.3458 107.5352 28.7893 -0.6252 12.4391
# 4 2.2052 -2.7448 28.7893 40.2582 5.8095 -5.0512
# 5 11.5419 -6.9892 -0.6252 5.8095 31.7528 6.8456
# 6 22.4334 10.2038 12.4391 -5.0512 6.8456 22.4737
#
#
#
# Elastic Compliance Matrix: (Units=1/GPa)
#
#
# Indices 1 2 3 4 5 6 
#
# 1 0.012144 0.000349 -0.002929 0.000567 -0.002385 -0.009806
# 2 0.000349 0.025415 0.001909 -0.003126 0.009653 -0.016587
# 3 -0.002929 0.001909 0.014875 -0.012658 0.006463 -0.010991
# 4 0.000567 -0.003126 -0.012658 0.037976 -0.012443 0.020186
# 5 -0.002385 0.009653 0.006463 -0.012443 0.041414 -0.020991
# 6 -0.009806 -0.016587 -0.010991 0.020186 -0.020991 0.078829
#
#
# Mechanical properties :
#
#
# Convention : Reuss Voigt Hill
#
# Bulk Modulus (GPa) = 19.57240 39.40302 29.48771
# Shear Modulus (GPa) = 21.83165 33.70185 27.76675
#
# Velocity S-wave (km/s) = 3.12389 3.88132 3.52302
# Velocity P-wave (km/s) = 4.66481 6.13997 5.45251
#
# Compressibility (1/GPa) = 0.05109235
#
# Stress axis : x y z
#
# Youngs Moduli (GPa) = 82.34638 39.34707 67.22726
#
# Poissons Ratio (x) = -0.01372 0.19688
# Poissons Ratio (y) = -0.02871 -0.12836
# Poissons Ratio (z) = 0.24116 -0.07513
#
# Static dielectric constant tensor:
#      x y z
#    x 1.808590 -0.009590 0.049440 
#    y -0.009590 1.881520 0.033480 
#    z 0.049440 0.033480 1.848310 
# 
# From -- ./inp_files/333204.got.cif
#   From: 2010.05.17/outbox.cif.g08.bks.cpg/sg2_167_cif.got.tgz:333204.got - 2010.06.03 11:33:40.
