data_PCOD9038897
_publ_section_title
;
Structure prediction by ZEFSAII (Michael W. Deem and Ramdas Pophale) SiO2 
 PCOD9038897
Probable space group: P -1
;
_chemical_formula_sum "Si O2"
_cell_formula_units_Z 16
_cell_length_a 15.341326
_cell_length_b 26.486892
_cell_length_c 15.236864
_cell_angle_alpha 163.257202
_cell_angle_beta 152.355811
_cell_angle_gamma 20.623925
_cell_volume 624.937605
_symmetry_space_group_name_H-M "P -1"
_symmetry_group_IT_number 2
_symmetry_cell_setting 'triclinic'
loop_
_space_group_symop_operation_xyz
x,y,z
-x,-y,-z
loop_
_atom_site_type_symbol
_atom_site_label
_atom_site_fract_x
_atom_site_fract_y
_atom_site_fract_z
Si Si1 0.874770 0.106638 0.344853
Si Si2 0.717908 0.714426 0.638313
Si Si3 0.850195 0.774189 0.327320
Si Si4 0.993610 0.838959 0.163060
Si Si5 0.536511 0.640785 0.199124
Si Si6 0.575478 0.169927 0.031613
Si Si7 0.604251 0.476619 0.278892
Si Si8 0.830558 0.311621 0.386134
O O1 0.762337 0.038391 0.061076
O O2 0.651981 0.325010 0.567797
O O3 0.007640 0.181481 0.537179
O O4 0.057187 0.893988 0.218966
O O5 0.542635 0.800358 0.538365
O O6 0.653254 0.605317 0.469836
O O7 0.000000 0.500000 0.500000
O O8 0.744207 0.887433 0.995336
O O9 0.908206 0.809796 0.535692
O O10 0.571079 0.902967 0.261751
O O11 0.000000 0.500000 0.000000
O O12 0.172457 0.582657 0.935249
O O13 0.000000 0.000000 0.500000
O O14 0.500000 0.500000 0.000000
O O15 0.418922 0.680733 0.065119
O O16 0.716597 0.200402 0.135855
O O17 0.361819 0.425833 0.309760
O O18 0.809447 0.334223 0.300697
#
# Coordination Sequence:
#
# PCOD9038897 Si02
#       8
#     2   2   2   2   2   2   2   2
#     4  10  20  31  50  86 116 143 181 241 291 335
#     4   9  21  38  53  73 113 152 195 227 279 347
#     4   9  16  30  48  73 119 149 174 221 301 352
#     4  11  21  36  54  85 116 146 191 248 280 329
#     4   9  19  39  56  73 112 158 190 227 281 344
#     4   8  15  30  43  71 116 144 169 218 300 342
#     4  10  17  33  54  79 110 143 193 236 283 326
#     4   8  15  26  47  76 105 139 181 230 275 339
#
# _framework density 25.602556
#
# number of rings (size 3 to 8) (size 9 to 14) (size 15 to 20)
#    0.000    2.750    1.250    2.250    0.000    3.500 
#    9.000    0.000    0.000    0.000    0.000   35.000 
#    0.000    0.500    0.000    0.000    0.000    0.000 
#
# Total GULP energy -89396.063275 kJ/mol
# GULP energy per Si atom -5587.253955 kJ/mol
# Density = 2.554428 g / cm^3
# Si number density = 25.602556 Si / 1000 Ang^3
#
#
#
# Elastic Constant Matrix: (Units=GPa)
#
#
# Indices 1 2 3 4 5 6 
#
# 1 113.4554 67.2852 58.2326 -24.2959 -15.3739 28.5219
# 2 67.2852 104.1319 56.2414 -37.4173 -15.5270 46.7969
# 3 58.2326 56.2414 152.2421 -49.0860 -11.7672 23.1694
# 4 -24.2959 -37.4173 -49.0860 63.0427 7.8860 -21.4972
# 5 -15.3739 -15.5270 -11.7672 7.8860 40.2425 -3.4024
# 6 28.5219 46.7969 23.1694 -21.4972 -3.4024 52.0849
#
#
#
# Elastic Compliance Matrix: (Units=1/GPa)
#
#
# Indices 1 2 3 4 5 6 
#
# 1 0.015431 -0.008699 -0.003161 -0.001885 0.001994 0.000125
# 2 -0.008699 0.025110 -0.001953 0.004517 0.003655 -0.014824
# 3 -0.003161 -0.001953 0.010241 0.006093 -0.000039 0.001443
# 4 -0.001885 0.004517 0.006093 0.024169 -0.001582 0.004135
# 5 0.001994 0.003655 -0.000039 -0.001582 0.027046 -0.003245
# 6 0.000125 -0.014824 0.001443 0.004135 -0.003245 0.033303
#
#
# Mechanical properties :
#
#
# Convention : Reuss Voigt Hill
#
# Bulk Modulus (GPa) = 43.18904 81.48309 62.33606
# Shear Modulus (GPa) = 29.30045 43.61205 36.45625
#
# Velocity S-wave (km/s) = 3.38662 4.13174 3.77759
# Velocity P-wave (km/s) = 5.67432 7.39303 6.58995
#
# Compressibility (1/GPa) = 0.02315402
#
# Stress axis : x y z
#
# Youngs Moduli (GPa) = 64.80450 39.82535 97.64447
#
# Poissons Ratio (x) = 0.34646 0.30866
# Poissons Ratio (y) = 0.56376 0.19074
# Poissons Ratio (z) = 0.20485 0.07780
#
# Static dielectric constant tensor:
#      x y z
#    x 2.078070 -0.154870 -0.043410 
#    y -0.154870 2.285870 -0.031340 
#    z -0.043410 -0.031340 2.130980 
# 
# From -- ./inp_files/535460.got.cif
#   From: 2010.05.17/outbox.cif.g08.bks.cpg/sg2_268_cif.got.tgz:535460.got - 2010.06.03 11:33:40.
