data_PCOD9038216
_publ_section_title
;
Structure prediction by ZEFSAII (Michael W. Deem and Ramdas Pophale) SiO2 
 PCOD9038216
Probable space group: P -1
;
_chemical_formula_sum "Si O2"
_cell_formula_units_Z 16
_cell_length_a 11.879044
_cell_length_b 14.391662
_cell_length_c 13.841104
_cell_angle_alpha 30.294053
_cell_angle_beta 120.533252
_cell_angle_gamma 138.694542
_cell_volume 714.213070
_symmetry_space_group_name_H-M "P -1"
_symmetry_group_IT_number 2
_symmetry_cell_setting 'triclinic'
loop_
_space_group_symop_operation_xyz
x,y,z
-x,-y,-z
loop_
_atom_site_type_symbol
_atom_site_label
_atom_site_fract_x
_atom_site_fract_y
_atom_site_fract_z
Si Si1 0.585513 0.854592 0.020931
Si Si2 0.213414 0.495103 0.081465
Si Si3 0.671820 0.817143 0.296981
Si Si4 0.338424 0.267466 0.241855
Si Si5 0.782638 0.073789 0.316902
Si Si6 0.811488 0.412155 0.529211
Si Si7 0.727764 0.655522 0.133702
Si Si8 0.999861 0.903688 0.291039
O O1 0.663463 0.108982 0.768835
O O2 0.360978 0.620725 0.120514
O O3 0.649528 0.922004 0.098912
O O4 0.666947 0.754113 0.093911
O O5 0.281342 0.421725 0.095955
O O6 0.001258 0.242358 0.247727
O O7 0.222869 0.714995 0.853592
O O8 0.500000 0.500000 0.500000
O O9 0.676942 0.925594 0.303448
O O10 0.867703 0.905892 0.291422
O O11 0.562464 0.478003 0.140251
O O12 0.186900 0.030979 0.314788
O O13 0.302704 0.131194 0.450956
O O14 0.745398 0.481759 0.353272
O O15 0.000000 0.500000 0.500000
O O16 0.871562 0.604954 0.470163
O O17 0.918379 0.909296 0.935610
#
# Coordination Sequence:
#
# PCOD9038216 Si02
#       8
#     2   2   2   2   2   2   2   2
#     4  11  24  43  70 101 131 177 224 276 339 398
#     4  10  23  41  67  93 132 174 226 273 327 390
#     4  12  26  43  68 101 138 181 223 274 335 402
#     4  11  24  45  71  95 133 179 224 275 338 391
#     4  11  24  45  65  97 134 182 222 277 326 395
#     4  12  24  44  71 100 136 176 219 278 342 399
#     4  11  23  47  71  98 136 172 223 286 335 397
#     4  12  25  44  70 100 135 179 223 276 339 400
#
# _framework density 22.402277999999999
#
# number of rings (size 3 to 8) (size 9 to 14) (size 15 to 20)
#    0.000    0.750    3.750    4.125    3.500    2.500 
#    2.250    0.625    0.000    0.000    0.000    0.000 
#    0.000    0.000    0.000    0.000    0.000    0.000 
#
# Total GULP energy -89608.230325 kJ/mol
# GULP energy per Si atom -5600.514395 kJ/mol
# Density = 2.235129 g / cm^3
# Si number density = 22.402278 Si / 1000 Ang^3
#
#
#
# Elastic Constant Matrix: (Units=GPa)
#
#
# Indices 1 2 3 4 5 6 
#
# 1 58.2666 0.3313 18.2607 8.7061 6.1243 18.5763
# 2 0.3313 102.4873 5.9011 -1.7223 -2.0081 16.0581
# 3 18.2607 5.9011 92.3466 3.5614 0.9028 8.9288
# 4 8.7061 -1.7223 3.5614 35.3079 6.1448 -8.3753
# 5 6.1243 -2.0081 0.9028 6.1448 30.7375 -0.0694
# 6 18.5763 16.0581 8.9288 -8.3753 -0.0694 34.5495
#
#
#
# Elastic Compliance Matrix: (Units=1/GPa)
#
#
# Indices 1 2 3 4 5 6 
#
# 1 0.024818 0.002369 -0.003159 -0.008919 -0.002950 -0.015797
# 2 0.002369 0.010789 -0.000464 -0.001668 0.000565 -0.006572
# 3 -0.003159 -0.000464 0.011634 -0.000794 0.000413 -0.001284
# 4 -0.008919 -0.001668 -0.000794 0.034800 -0.005233 0.014201
# 5 -0.002950 0.000565 0.000413 -0.005233 0.034192 0.000017
# 6 -0.015797 -0.006572 -0.001284 0.014201 0.000017 0.044266
#
#
# Mechanical properties :
#
#
# Convention : Reuss Voigt Hill
#
# Bulk Modulus (GPa) = 22.35436 33.56518 27.95977
# Shear Modulus (GPa) = 28.10295 35.35948 31.73122
#
# Velocity S-wave (km/s) = 3.54569 3.97720 3.76763
# Velocity P-wave (km/s) = 5.17328 6.00885 5.60665
#
# Compressibility (1/GPa) = 0.04473400
#
# Stress axis : x y z
#
# Youngs Moduli (GPa) = 40.29343 92.68631 85.95672
#
# Poissons Ratio (x) = -0.21958 0.27152
# Poissons Ratio (y) = -0.09546 0.03986
# Poissons Ratio (z) = 0.12728 0.04298
#
# Static dielectric constant tensor:
#      x y z
#    x 1.820450 -0.004710 -0.003570 
#    y -0.004710 1.871580 -0.010500 
#    z -0.003570 -0.010500 1.797140 
# 
# From -- ./inp_files/522181.got.cif
#   From: 2010.05.17/outbox.cif.g08.bks.cpg/sg2_262_cif.got.tgz:522181.got - 2010.06.03 11:33:40.
