data_PCOD9038051
_publ_section_title
;
Structure prediction by ZEFSAII (Michael W. Deem and Ramdas Pophale) SiO2 
 PCOD9038051
Probable space group: P -1
;
_chemical_formula_sum "Si O2"
_cell_formula_units_Z 12
_cell_length_a 5.309197
_cell_length_b 8.735216
_cell_length_c 12.314169
_cell_angle_alpha 110.560511
_cell_angle_beta 72.513317
_cell_angle_gamma 119.904255
_cell_volume 457.958821
_symmetry_space_group_name_H-M "P -1"
_symmetry_group_IT_number 2
_symmetry_cell_setting 'triclinic'
loop_
_space_group_symop_operation_xyz
x,y,z
-x,-y,-z
loop_
_atom_site_type_symbol
_atom_site_label
_atom_site_fract_x
_atom_site_fract_y
_atom_site_fract_z
Si Si1 0.787341 0.927152 0.362287
Si Si2 0.440900 0.144315 0.863433
Si Si3 0.285499 0.695605 0.525909
Si Si4 0.290237 0.321805 0.137848
Si Si5 0.957206 0.530649 0.138206
Si Si6 0.380340 0.141269 0.278426
O O1 0.719373 0.863308 0.230142
O O2 0.555375 0.760122 0.421265
O O3 0.766163 0.120396 0.425732
O O4 0.134410 0.996530 0.354323
O O5 0.784547 0.271452 0.829190
O O6 0.436926 0.948445 0.830538
O O7 0.329360 0.220261 0.998895
O O8 0.417424 0.698085 0.628878
O O9 0.000000 0.500000 0.500000
O O10 0.613259 0.472693 0.170716
O O11 0.213098 0.194480 0.220362
O O12 0.070775 0.407182 0.161370
O O13 0.000000 0.500000 0.000000
#
# Coordination Sequence:
#
# PCOD9038051 Si02
#       6
#     2   2   2   2   2   2
#     4  10  24  43  70 102 140 184 248 303 370 440
#     4  10  23  41  66 100 146 190 232 301 361 434
#     4  10  24  48  70  99 139 188 245 311 374 439
#     4  11  25  41  71 107 150 192 247 290 365 441
#     4  10  23  43  65 102 149 198 244 292 351 437
#     4  11  25  42  69 105 140 189 245 304 370 433
#
# _framework density 26.203229
#
# number of rings (size 3 to 8) (size 9 to 14) (size 15 to 20)
#    0.000    1.667    0.000    3.000   14.000    1.333 
#    0.000    0.000    0.000    0.000    0.000    0.000 
#    0.000    0.000    0.000    0.000    0.000    0.000 
#
# Total GULP energy -67091.044613 kJ/mol
# GULP energy per Si atom -5590.920384 kJ/mol
# Density = 2.614359 g / cm^3
# Si number density = 26.203229 Si / 1000 Ang^3
#
#
#
# Elastic Constant Matrix: (Units=GPa)
#
#
# Indices 1 2 3 4 5 6 
#
# 1 100.3962 65.9410 43.2101 14.2835 26.5854 18.3377
# 2 65.9410 152.8236 66.7991 -3.1222 11.7444 37.9870
# 3 43.2101 66.7991 132.0553 2.4208 19.6326 12.1927
# 4 14.2835 -3.1222 2.4208 36.3176 7.8799 3.5772
# 5 26.5854 11.7444 19.6326 7.8799 41.1962 -4.4365
# 6 18.3377 37.9870 12.1927 3.5772 -4.4365 70.2252
#
#
#
# Elastic Compliance Matrix: (Units=1/GPa)
#
#
# Indices 1 2 3 4 5 6 
#
# 1 0.017836 -0.006350 -0.001187 -0.005579 -0.008202 -0.001250
# 2 -0.006350 0.012023 -0.003874 0.003929 0.001303 -0.004291
# 3 -0.001187 -0.003874 0.010330 0.000059 -0.003019 0.000418
# 4 -0.005579 0.003929 0.000059 0.031128 -0.003772 -0.002503
# 5 -0.008202 0.001303 -0.003019 -0.003772 0.031804 0.004163
# 6 -0.001250 -0.004291 0.000418 -0.002503 0.004163 0.017205
#
#
# Mechanical properties :
#
#
# Convention : Reuss Voigt Hill
#
# Bulk Modulus (GPa) = 57.57800 81.90839 69.74320
# Shear Modulus (GPa) = 33.57133 43.50280 38.53706
#
# Velocity S-wave (km/s) = 3.58326 4.07899 3.83913
# Velocity P-wave (km/s) = 6.25627 7.31512 6.80632
#
# Compressibility (1/GPa) = 0.01736774
#
# Stress axis : x y z
#
# Youngs Moduli (GPa) = 56.06585 83.17153 96.81008
#
# Poissons Ratio (x) = 0.52814 0.11491
# Poissons Ratio (y) = 0.35602 0.37500
# Poissons Ratio (z) = 0.06655 0.32217
#
# Static dielectric constant tensor:
#      x y z
#    x 1.945680 -0.003580 -0.079330 
#    y -0.003580 2.209630 -0.012370 
#    z -0.079330 -0.012370 2.033900 
# 
# From -- ./inp_files/360912.got.cif
#   From: 2010.05.17/outbox.cif.g08.bks.cpg/sg2_181_cif.got.tgz:360912.got - 2010.06.03 11:33:40.
