data_PCOD9038263
_publ_section_title
;
Structure prediction by ZEFSAII (Michael W. Deem and Ramdas Pophale) SiO2 
 PCOD9038263
Probable space group: P -1
;
_chemical_formula_sum "Si O2"
_cell_formula_units_Z 14
_cell_length_a 10.809071
_cell_length_b 11.579774
_cell_length_c 15.523210
_cell_angle_alpha 24.787576
_cell_angle_beta 52.495923
_cell_angle_gamma 44.833648
_cell_volume 570.298781
_symmetry_space_group_name_H-M "P -1"
_symmetry_group_IT_number 2
_symmetry_cell_setting 'triclinic'
loop_
_space_group_symop_operation_xyz
x,y,z
-x,-y,-z
loop_
_atom_site_type_symbol
_atom_site_label
_atom_site_fract_x
_atom_site_fract_y
_atom_site_fract_z
Si Si1 0.710271 0.846894 0.993287
Si Si2 0.822751 0.281848 0.848928
Si Si3 0.903074 0.270676 0.633921
Si Si4 0.351565 0.166612 0.158922
Si Si5 0.273143 0.249485 0.765483
Si Si6 0.630873 0.893448 0.628582
Si Si7 0.318864 0.820502 0.753391
O O1 0.789183 0.636106 0.188203
O O2 0.746834 0.713040 0.971728
O O3 0.500000 0.000000 0.000000
O O4 0.785812 0.093352 0.791375
O O5 0.856066 0.398880 0.664222
O O6 0.743379 0.558926 0.762334
O O7 0.711569 0.096533 0.008067
O O8 0.000000 0.000000 0.000000
O O9 0.851475 0.521536 0.409782
O O10 0.109128 0.021566 0.714926
O O11 0.288673 0.079623 0.333218
O O12 0.525090 0.845474 0.277954
O O13 0.370513 0.462046 0.986385
O O14 0.432466 0.930059 0.691927
O O15 0.626102 0.138086 0.394702
#
# Coordination Sequence:
#
# PCOD9038263 Si02
#       7
#     2   2   2   2   2   2   2
#     4   9  23  46  69  96 128 170 227 275 327 391
#     4  11  23  40  65  98 138 172 218 268 321 399
#     4  11  25  42  70 100 130 172 221 275 327 382
#     4  11  23  42  70  89 132 178 217 269 334 386
#     4  10  23  41  67  98 127 171 223 270 323 387
#     4  11  25  40  65  99 137 176 215 263 332 396
#     4  11  25  42  62 100 139 171 218 265 329 399
#
# _framework density 24.548535000000001
#
# number of rings (size 3 to 8) (size 9 to 14) (size 15 to 20)
#    0.000    1.429    1.429    2.143    6.000    6.286 
#    0.000    1.429    0.000    0.000    0.000    0.000 
#    0.000    0.000    0.000    0.000    0.000    0.000 
#
# Total GULP energy -78245.401737 kJ/mol
# GULP energy per Si atom -5588.957267 kJ/mol
# Density = 2.449266 g / cm^3
# Si number density = 24.548535 Si / 1000 Ang^3
#
#
#
# Elastic Constant Matrix: (Units=GPa)
#
#
# Indices 1 2 3 4 5 6 
#
# 1 80.7680 52.0574 40.6370 18.9785 19.9043 9.9919
# 2 52.0574 88.1618 38.4047 17.4216 34.1313 11.4293
# 3 40.6370 38.4047 121.3120 19.8821 39.8492 9.8574
# 4 18.9785 17.4216 19.8821 39.6541 8.9716 25.4921
# 5 19.9043 34.1313 39.8492 8.9716 54.9276 18.4982
# 6 9.9919 11.4293 9.8574 25.4921 18.4982 47.8380
#
#
#
# Elastic Compliance Matrix: (Units=1/GPa)
#
#
# Indices 1 2 3 4 5 6 
#
# 1 0.022146 -0.011569 -0.003945 -0.004266 0.002656 0.000198
# 2 -0.011569 0.022437 0.000747 -0.004476 -0.010716 0.003431
# 3 -0.003945 0.000747 0.012840 -0.005767 -0.008932 0.004527
# 4 -0.004266 -0.004476 -0.005767 0.046095 0.009421 -0.025057
# 5 0.002656 -0.010716 -0.008932 0.009421 0.033617 -0.014173
# 6 0.000198 0.003431 0.004527 -0.025057 -0.014173 0.037943
#
#
# Mechanical properties :
#
#
# Convention : Reuss Voigt Hill
#
# Bulk Modulus (GPa) = 35.85692 61.38222 48.61957
# Shear Modulus (GPa) = 23.37447 39.09345 31.23396
#
# Velocity S-wave (km/s) = 3.08908 3.99494 3.57085
# Velocity P-wave (km/s) = 5.23082 6.80721 6.07040
#
# Compressibility (1/GPa) = 0.02788862
#
# Stress axis : x y z
#
# Youngs Moduli (GPa) = 45.15443 44.56928 77.88342
#
# Poissons Ratio (x) = 0.51562 0.30728
# Poissons Ratio (y) = 0.52239 -0.05820
# Poissons Ratio (z) = 0.17815 -0.03331
#
# Static dielectric constant tensor:
#      x y z
#    x 2.065920 -0.017560 -0.033720 
#    y -0.017560 1.958940 0.042800 
#    z -0.033720 0.042800 1.984340 
# 
# From -- ./inp_files/518532.got.cif
#   From: 2010.05.17/outbox.cif.g08.bks.cpg/sg2_260_cif.got.tgz:518532.got - 2010.06.03 11:33:40.
