data_PCOD9038130
_publ_section_title
;
Structure prediction by ZEFSAII (Michael W. Deem and Ramdas Pophale) SiO2 
 PCOD9038130
Probable space group: P -1
;
_chemical_formula_sum "Si O2"
_cell_formula_units_Z 16
_cell_length_a 12.312321
_cell_length_b 10.916272
_cell_length_c 6.616492
_cell_angle_alpha 106.383876
_cell_angle_beta 113.208221
_cell_angle_gamma 68.505559
_cell_volume 750.562035
_symmetry_space_group_name_H-M "P -1"
_symmetry_group_IT_number 2
_symmetry_cell_setting 'triclinic'
loop_
_space_group_symop_operation_xyz
x,y,z
-x,-y,-z
loop_
_atom_site_type_symbol
_atom_site_label
_atom_site_fract_x
_atom_site_fract_y
_atom_site_fract_z
Si Si1 0.963819 0.088184 0.215009
Si Si2 0.138581 0.617199 0.686888
Si Si3 0.419426 0.548435 0.767912
Si Si4 0.369270 0.977643 0.453699
Si Si5 0.240453 0.208686 0.173324
Si Si6 0.178830 0.061167 0.692810
Si Si7 0.958997 0.519138 0.752357
Si Si8 0.489754 0.292023 0.415360
O O1 0.916706 0.240734 0.188196
O O2 0.075228 0.081403 0.450929
O O3 0.856818 0.048068 0.242313
O O4 0.000000 0.000000 0.000000
O O5 0.281715 0.587331 0.763831
O O6 0.091889 0.599791 0.418962
O O7 0.082138 0.516379 0.718443
O O8 0.440347 0.425053 0.572365
O O9 0.452236 0.666743 0.725462
O O10 0.500000 0.500000 0.000000
O O11 0.407928 0.817165 0.429361
O O12 0.500000 0.000000 0.500000
O O13 0.274637 0.072519 0.269565
O O14 0.308476 0.023240 0.649944
O O15 0.146916 0.337538 0.273141
O O16 0.371441 0.240205 0.255100
O O17 0.181906 0.178478 0.905751
O O18 0.000000 0.500000 0.000000
#
# Coordination Sequence:
#
# PCOD9038130 Si02
#       8
#     2   2   2   2   2   2   2   2
#     4  11  24  43  66 100 138 176 227 288 349 423
#     4  11  24  43  66  96 133 175 230 277 350 409
#     4  11  25  43  68  97 137 187 230 286 341 419
#     4  10  23  41  66  97 137 181 227 288 338 408
#     4  11  23  44  69 101 140 175 237 294 343 419
#     4  11  23  40  69  98 133 181 223 282 358 412
#     4  11  24  41  70 102 133 176 225 291 348 412
#     4  10  24  44  65  97 138 180 234 283 345 401
#
# _framework density 21.317357999999999
#
# number of rings (size 3 to 8) (size 9 to 14) (size 15 to 20)
#    0.000    1.250    1.250    3.750    1.750    9.000 
#    0.000    0.000    0.000    0.000    0.000    0.000 
#    0.000    0.000    0.000    0.000    0.000    0.000 
#
# Total GULP energy -89279.175452 kJ/mol
# GULP energy per Si atom -5579.948466 kJ/mol
# Density = 2.126884 g / cm^3
# Si number density = 21.317358 Si / 1000 Ang^3
#
#
#
# Elastic Constant Matrix: (Units=GPa)
#
#
# Indices 1 2 3 4 5 6 
#
# 1 139.3214 30.3104 35.7655 -3.5444 -4.0412 10.0766
# 2 30.3104 98.0685 26.3350 -1.5721 4.2225 -3.7213
# 3 35.7655 26.3350 110.5904 5.9266 10.1910 2.7937
# 4 -3.5444 -1.5721 5.9266 37.4268 1.1493 -6.3787
# 5 -4.0412 4.2225 10.1910 1.1493 26.9343 6.4996
# 6 10.0766 -3.7213 2.7937 -6.3787 6.4996 28.7452
#
#
#
# Elastic Compliance Matrix: (Units=1/GPa)
#
#
# Indices 1 2 3 4 5 6 
#
# 1 0.008714 -0.002309 -0.002517 0.000366 0.003529 -0.003826
# 2 -0.002309 0.011683 -0.001974 0.001217 -0.002279 0.003299
# 3 -0.002517 -0.001974 0.010803 -0.001892 -0.004095 0.000083
# 4 0.000366 0.001217 -0.001892 0.028375 -0.002329 0.007036
# 5 0.003529 -0.002279 -0.004095 -0.002329 0.042373 -0.011232
# 6 -0.003826 0.003299 0.000083 0.007036 -0.011232 0.040650
#
#
# Mechanical properties :
#
#
# Convention : Reuss Voigt Hill
#
# Bulk Modulus (GPa) = 56.81244 59.20024 58.00634
# Shear Modulus (GPa) = 30.85176 35.65921 33.25548
#
# Velocity S-wave (km/s) = 3.80841 4.09440 3.95399
# Velocity P-wave (km/s) = 6.78582 7.08402 6.93652
#
# Compressibility (1/GPa) = 0.01760178
#
# Stress axis : x y z
#
# Youngs Moduli (GPa) = 114.75242 85.59092 92.56669
#
# Poissons Ratio (x) = 0.19761 0.23296
# Poissons Ratio (y) = 0.26494 0.18273
# Poissons Ratio (z) = 0.28880 0.16896
#
# Static dielectric constant tensor:
#      x y z
#    x 1.770350 -0.005470 0.003250 
#    y -0.005470 1.796420 0.021990 
#    z 0.003250 0.021990 1.773860 
# 
# From -- ./inp_files/71981.got.cif
#   From: 2010.05.17/outbox.cif.g08.bks.cpg/sg2_36_cif.got.tgz:71981.got - 2010.06.03 11:33:40.
