data_PCOD9038370
_publ_section_title
;
Structure prediction by ZEFSAII (Michael W. Deem and Ramdas Pophale) SiO2 
 PCOD9038370
Probable space group: P -1
;
_chemical_formula_sum "Si O2"
_cell_formula_units_Z 14
_cell_length_a 14.836362
_cell_length_b 11.907762
_cell_length_c 5.427252
_cell_angle_alpha 84.249843
_cell_angle_beta 52.387684
_cell_angle_gamma 116.606758
_cell_volume 576.985778
_symmetry_space_group_name_H-M "P -1"
_symmetry_group_IT_number 2
_symmetry_cell_setting 'triclinic'
loop_
_space_group_symop_operation_xyz
x,y,z
-x,-y,-z
loop_
_atom_site_type_symbol
_atom_site_label
_atom_site_fract_x
_atom_site_fract_y
_atom_site_fract_z
Si Si1 0.219941 0.334399 0.429040
Si Si2 0.031408 0.242315 0.269121
Si Si3 0.129881 0.635402 0.417812
Si Si4 0.621317 0.959706 0.553597
Si Si5 0.638733 0.364894 0.721590
Si Si6 0.856119 0.956245 0.388009
Si Si7 0.600979 0.186481 0.440029
O O1 0.120613 0.305823 0.363603
O O2 0.355861 0.508318 0.200667
O O3 0.248035 0.219506 0.360840
O O4 0.136617 0.293991 0.842282
O O5 0.936515 0.294097 0.374615
O O6 0.919167 0.063410 0.494473
O O7 0.201596 0.590247 0.490861
O O8 0.000000 0.500000 0.500000
O O9 0.268902 0.751702 0.985332
O O10 0.773945 0.996265 0.350043
O O11 0.563048 0.925473 0.377530
O O12 0.621656 0.091098 0.603311
O O13 0.495027 0.799232 0.920838
O O14 0.624627 0.328812 0.464979
O O15 0.000000 0.000000 0.000000
#
# Coordination Sequence:
#
# PCOD9038370 Si02
#       7
#     2   2   2   2   2   2   2
#     4  11  25  44  68 100 141 178 231 281 345 403
#     4  11  24  43  69 102 139 179 228 287 341 405
#     4  11  22  36  66 102 137 177 222 284 346 402
#     4  10  23  44  65 100 133 179 237 272 352 403
#     4  11  23  40  65  98 141 178 228 282 347 411
#     4  10  24  45  70  98 134 180 232 289 336 410
#     4  10  23  41  68  97 140 181 224 286 340 418
#
# _framework density 24.264030999999999
#
# number of rings (size 3 to 8) (size 9 to 14) (size 15 to 20)
#    0.000    1.429    1.429    2.571    8.000    4.000 
#    5.143    0.714    0.000    0.000    0.000    0.000 
#    0.000    0.000    0.000    0.000    0.000    0.000 
#
# Total GULP energy -78194.576161 kJ/mol
# GULP energy per Si atom -5585.326869 kJ/mol
# Density = 2.420881 g / cm^3
# Si number density = 24.264031 Si / 1000 Ang^3
#
#
#
# Elastic Constant Matrix: (Units=GPa)
#
#
# Indices 1 2 3 4 5 6 
#
# 1 98.6261 18.2285 12.3651 3.0660 -15.9223 3.6709
# 2 18.2285 183.6107 13.3189 -14.6398 -1.8665 3.0447
# 3 12.3651 13.3189 46.9707 -2.7204 6.9455 7.4843
# 4 3.0660 -14.6398 -2.7204 23.8227 0.1488 2.0630
# 5 -15.9223 -1.8665 6.9455 0.1488 29.7055 -3.2593
# 6 3.6709 3.0447 7.4843 2.0630 -3.2593 40.7097
#
#
#
# Elastic Compliance Matrix: (Units=1/GPa)
#
#
# Indices 1 2 3 4 5 6 
#
# 1 0.012147 -0.001052 -0.004252 -0.002786 0.007508 0.000507
# 2 -0.001052 0.005933 -0.001144 0.003678 0.000023 -0.000323
# 3 -0.004252 -0.001144 0.025009 0.003187 -0.008762 -0.004992
# 4 -0.002786 0.003678 0.003187 0.045245 -0.002575 -0.003109
# 5 0.007508 0.000023 -0.008762 -0.002575 0.040221 0.004283
# 6 0.000507 -0.000323 -0.004992 -0.003109 0.004283 0.025961
#
#
# Mechanical properties :
#
#
# Convention : Reuss Voigt Hill
#
# Bulk Modulus (GPa) = 33.12033 46.33695 39.72864
# Shear Modulus (GPa) = 28.17293 37.86724 33.02008
#
# Velocity S-wave (km/s) = 3.41119 3.95477 3.69299
# Velocity P-wave (km/s) = 5.40320 6.32393 5.88161
#
# Compressibility (1/GPa) = 0.03019294
#
# Stress axis : x y z
#
# Youngs Moduli (GPa) = 82.32734 168.56067 39.98519
#
# Poissons Ratio (x) = 0.17727 0.17001
# Poissons Ratio (y) = 0.08658 0.04575
# Poissons Ratio (z) = 0.35004 0.19287
#
# Static dielectric constant tensor:
#      x y z
#    x 1.974940 0.028640 0.100340 
#    y 0.028640 2.076890 0.016730 
#    z 0.100340 0.016730 2.014060 
# 
# From -- ./inp_files/82717.got.cif
#   From: 2010.05.17/outbox.cif.g08.bks.cpg/sg2_42_cif.got.tgz:82717.got - 2010.06.03 11:33:40.
