data_PCOD9038307
_publ_section_title
;
Structure prediction by ZEFSAII (Michael W. Deem and Ramdas Pophale) SiO2 
 PCOD9038307
Probable space group: P -1
;
_chemical_formula_sum "Si O2"
_cell_formula_units_Z 14
_cell_length_a 8.754128
_cell_length_b 8.195429
_cell_length_c 12.392289
_cell_angle_alpha 63.099543
_cell_angle_beta 125.320443
_cell_angle_gamma 129.790830
_cell_volume 552.563574
_symmetry_space_group_name_H-M "P -1"
_symmetry_group_IT_number 2
_symmetry_cell_setting 'triclinic'
loop_
_space_group_symop_operation_xyz
x,y,z
-x,-y,-z
loop_
_atom_site_type_symbol
_atom_site_label
_atom_site_fract_x
_atom_site_fract_y
_atom_site_fract_z
Si Si1 0.888879 0.202399 0.423440
Si Si2 0.970907 0.021497 0.302230
Si Si3 0.357135 0.077340 0.981557
Si Si4 0.355046 0.250411 0.274396
Si Si5 0.144799 0.815236 0.181649
Si Si6 0.361270 0.602210 0.454057
Si Si7 0.338888 0.565533 0.831123
O O1 0.727897 0.284702 0.307708
O O2 0.897695 0.089860 0.569430
O O3 0.129091 0.409869 0.455105
O O4 0.867473 0.054658 0.357395
O O5 0.787358 0.899346 0.175681
O O6 0.155222 0.247228 0.257734
O O7 0.510708 0.287616 0.052794
O O8 0.500000 0.000000 0.000000
O O9 0.192796 0.896669 0.054073
O O10 0.513803 0.262353 0.430476
O O11 0.496965 0.435897 0.191209
O O12 0.227994 0.029005 0.222389
O O13 0.303991 0.729001 0.306687
O O14 0.891054 0.635308 0.159522
O O15 0.500000 0.500000 0.500000
#
# Coordination Sequence:
#
# PCOD9038307 Si02
#       7
#     2   2   2   2   2   2   2
#     4  10  23  41  68 102 137 172 234 285 334 407
#     4  11  24  42  68 104 139 176 232 287 335 409
#     4  11  24  45  72  99 140 186 227 280 350 406
#     4  11  25  42  73 100 143 182 224 288 349 397
#     4  10  26  44  68 102 141 181 231 278 343 422
#     4  11  23  41  68 107 136 177 233 285 340 402
#     4  10  24  46  68 101 136 184 229 278 346 409
#
# _framework density 25.336452000000001
#
# number of rings (size 3 to 8) (size 9 to 14) (size 15 to 20)
#    0.000    1.429    2.857    0.429   10.000    4.000 
#    2.571    1.429    0.000    0.000    0.000    0.000 
#    0.000    0.000    0.000    0.000    0.000    0.000 
#
# Total GULP energy -78366.373538 kJ/mol
# GULP energy per Si atom -5597.598110 kJ/mol
# Density = 2.527879 g / cm^3
# Si number density = 25.336452 Si / 1000 Ang^3
#
#
#
# Elastic Constant Matrix: (Units=GPa)
#
#
# Indices 1 2 3 4 5 6 
#
# 1 82.2441 29.7772 59.6475 -11.0979 -9.3302 24.2204
# 2 29.7772 125.8716 75.7761 4.5984 -6.6872 38.6455
# 3 59.6475 75.7761 206.1164 13.0674 -10.9221 23.5282
# 4 -11.0979 4.5984 13.0674 45.2271 6.9637 4.4206
# 5 -9.3302 -6.6872 -10.9221 6.9637 32.8370 0.5116
# 6 24.2204 38.6455 23.5282 4.4206 0.5116 35.4794
#
#
#
# Elastic Compliance Matrix: (Units=1/GPa)
#
#
# Indices 1 2 3 4 5 6 
#
# 1 0.020975 0.002904 -0.005765 0.007442 0.003283 -0.014633
# 2 0.002904 0.014703 -0.004493 0.001667 0.002209 -0.015258
# 3 -0.005765 -0.004493 0.008002 -0.003790 0.000851 0.003982
# 4 0.007442 0.001667 -0.003790 0.026260 -0.004257 -0.007593
# 5 0.003283 0.002209 0.000851 -0.004257 0.033102 -0.005159
# 6 -0.014633 -0.015258 0.003982 -0.007593 -0.005159 0.053174
#
#
# Mechanical properties :
#
#
# Convention : Reuss Voigt Hill
#
# Bulk Modulus (GPa) = 34.51504 82.73709 58.62606
# Shear Modulus (GPa) = 27.68831 39.31078 33.49955
#
# Velocity S-wave (km/s) = 3.30938 3.94325 3.64013
# Velocity P-wave (km/s) = 5.31553 7.31153 6.39192
#
# Compressibility (1/GPa) = 0.02897288
#
# Stress axis : x y z
#
# Youngs Moduli (GPa) = 47.67692 68.01160 124.96322
#
# Poissons Ratio (x) = -0.19749 0.72038
# Poissons Ratio (y) = -0.13845 0.56143
# Poissons Ratio (z) = 0.27485 0.30556
#
# Static dielectric constant tensor:
#      x y z
#    x 2.369670 -0.237650 0.101470 
#    y -0.237650 2.151260 -0.105950 
#    z 0.101470 -0.105950 2.006980 
# 
# From -- ./inp_files/381816.got.cif
#   From: 2010.05.17/outbox.cif.g08.bks.cpg/sg2_191_cif.got.tgz:381816.got - 2010.06.03 11:33:40.
