data_PCOD9038781
_publ_section_title
;
Structure prediction by ZEFSAII (Michael W. Deem and Ramdas Pophale) SiO2 
 PCOD9038781
Probable space group: P -1
;
_chemical_formula_sum "Si O2"
_cell_formula_units_Z 16
_cell_length_a 18.249307
_cell_length_b 26.817729
_cell_length_c 15.264981
_cell_angle_alpha 159.688139
_cell_angle_beta 21.109261
_cell_angle_gamma 161.160712
_cell_volume 765.929732
_symmetry_space_group_name_H-M "P -1"
_symmetry_group_IT_number 2
_symmetry_cell_setting 'triclinic'
loop_
_space_group_symop_operation_xyz
x,y,z
-x,-y,-z
loop_
_atom_site_type_symbol
_atom_site_label
_atom_site_fract_x
_atom_site_fract_y
_atom_site_fract_z
Si Si1 0.605532 0.253308 0.291779
Si Si2 0.114517 0.816329 0.689371
Si Si3 0.665134 0.132799 0.656731
Si Si4 0.931383 0.028460 0.309633
Si Si5 0.347045 0.405848 0.754584
Si Si6 0.124988 0.906992 0.325242
Si Si7 0.996166 0.523593 0.646579
Si Si8 0.516033 0.635824 0.773757
O O1 0.564027 0.393173 0.528295
O O2 0.749145 0.317783 0.330882
O O3 0.335536 0.074771 0.312719
O O4 0.767593 0.212328 0.983099
O O5 0.143091 0.812403 0.546791
O O6 0.058462 0.645788 0.519854
O O7 0.389672 0.976284 0.676097
O O8 0.925136 0.865140 0.009292
O O9 0.738006 0.058619 0.531787
O O10 0.647317 0.295092 0.961957
O O11 0.907447 0.026768 0.437737
O O12 0.201641 0.198577 0.264293
O O13 0.431539 0.547420 0.817246
O O14 0.136435 0.218444 0.637823
O O15 0.213077 0.444519 0.042459
O O16 0.000000 0.500000 0.500000
O O17 0.500000 0.500000 0.500000
#
# Coordination Sequence:
#
# PCOD9038781 Si02
#       8
#     2   2   2   2   2   2   2   2
#     4  10  25  43  67  90 125 173 209 259 325 365
#     4  10  23  43  59  90 127 165 213 253 315 370
#     4  10  23  42  62  87 129 171 201 259 313 377
#     4  11  24  37  68  92 124 167 209 255 314 383
#     4  11  23  44  69  89 134 165 204 273 312 375
#     4  10  23  44  61  99 124 161 220 258 312 381
#     4  11  26  44  65  96 127 164 218 266 307 375
#     4  11  23  40  61 100 125 159 206 254 322 371
#
# _framework density 20.889645000000002
#
# number of rings (size 3 to 8) (size 9 to 14) (size 15 to 20)
#    0.000    1.500    2.500    0.750    7.000    2.000 
#    0.000    0.000    0.000    0.000    0.000    0.000 
#    0.000    0.000    0.000    0.000    0.000    0.000 
#
# Total GULP energy -89437.357894 kJ/mol
# GULP energy per Si atom -5589.834868 kJ/mol
# Density = 2.084210 g / cm^3
# Si number density = 20.889645 Si / 1000 Ang^3
#
#
#
# Elastic Constant Matrix: (Units=GPa)
#
#
# Indices 1 2 3 4 5 6 
#
# 1 34.5316 -21.4954 29.0061 -7.8373 -3.0611 -4.6219
# 2 -21.4954 32.4425 -14.2960 -1.3314 -2.8454 -4.5783
# 3 29.0061 -14.2960 125.0606 4.9502 -5.9969 4.7548
# 4 -7.8373 -1.3314 4.9502 28.0693 -3.7962 -0.9057
# 5 -3.0611 -2.8454 -5.9969 -3.7962 40.4245 -2.7367
# 6 -4.6219 -4.5783 4.7548 -0.9057 -2.7367 16.5567
#
#
#
# Elastic Compliance Matrix: (Units=1/GPa)
#
#
# Indices 1 2 3 4 5 6 
#
# 1 0.122829 0.085306 -0.022272 0.047410 0.021218 0.070374
# 2 0.085306 0.093367 -0.011805 0.034697 0.018463 0.057972
# 3 -0.022272 -0.011805 0.012614 -0.009797 -0.002518 -0.014056
# 4 0.047410 0.034697 -0.009797 0.054820 0.011798 0.030592
# 5 0.021218 0.018463 -0.002518 0.011798 0.029548 0.017281
# 6 0.070374 0.057972 -0.014056 0.030592 0.017281 0.104640
#
#
# Mechanical properties :
#
#
# Convention : Reuss Voigt Hill
#
# Bulk Modulus (GPa) = 3.01868 19.82934 11.42401
# Shear Modulus (GPa) = 11.74308 30.26476 21.00392
#
# Velocity S-wave (km/s) = 2.37354 3.81043 3.17436
# Velocity P-wave (km/s) = 2.99329 5.37329 4.34925
#
# Compressibility (1/GPa) = 0.33127040
#
# Stress axis : x y z
#
# Youngs Moduli (GPa) = 8.14138 10.71037 79.27820
#
# Poissons Ratio (x) = -0.91366 1.76567
# Poissons Ratio (y) = -0.69451 0.93585
# Poissons Ratio (z) = 0.18132 0.12643
#
# Static dielectric constant tensor:
#      x y z
#    x 1.686140 -0.002360 -0.012990 
#    y -0.002360 1.734560 0.010460 
#    z -0.012990 0.010460 1.761490 
# 
# From -- ./inp_files/77768.got.cif
#   From: 2010.05.17/outbox.cif.g08.bks.cpg/sg2_39_cif.got.tgz:77768.got - 2010.06.03 11:33:40.
