data_PCOD9038574
_publ_section_title
;
Structure prediction by ZEFSAII (Michael W. Deem and Ramdas Pophale) SiO2 
 PCOD9038574
Probable space group: P -1
;
_chemical_formula_sum "Si O2"
_cell_formula_units_Z 14
_cell_length_a 15.926268
_cell_length_b 22.215204
_cell_length_c 8.824553
_cell_angle_alpha 151.562504
_cell_angle_beta 140.300296
_cell_angle_gamma 23.484374
_cell_volume 581.047796
_symmetry_space_group_name_H-M "P -1"
_symmetry_group_IT_number 2
_symmetry_cell_setting 'triclinic'
loop_
_space_group_symop_operation_xyz
x,y,z
-x,-y,-z
loop_
_atom_site_type_symbol
_atom_site_label
_atom_site_fract_x
_atom_site_fract_y
_atom_site_fract_z
Si Si1 0.678850 0.145808 0.346417
Si Si2 0.239341 0.584541 0.613213
Si Si3 0.041880 0.996658 0.309205
Si Si4 0.445849 0.069732 0.753110
Si Si5 0.677688 0.683270 0.383636
Si Si6 0.296580 0.567400 0.331536
Si Si7 0.901856 0.534162 0.681484
O O1 0.467982 0.394335 0.592041
O O2 0.790066 0.060623 0.475531
O O3 0.599705 0.068172 0.014878
O O4 0.854308 0.074610 0.322020
O O5 0.266864 0.510342 0.317659
O O6 0.077728 0.621786 0.567951
O O7 0.163911 0.785296 0.938722
O O8 0.916957 0.189638 0.458265
O O9 0.500000 0.000000 0.500000
O O10 0.488201 0.915173 0.573468
O O11 0.207588 0.299258 0.970875
O O12 0.733733 0.655864 0.576508
O O13 0.883629 0.575778 0.335967
O O14 0.653139 0.558090 0.020164
O O15 0.500000 0.500000 0.500000
#
# Coordination Sequence:
#
# PCOD9038574 Si02
#       7
#     2   2   2   2   2   2   2
#     4  10  23  41  71 104 136 180 237 281 350 424
#     4  11  23  46  70 103 142 180 235 291 356 412
#     4  11  24  41  71 100 141 186 231 285 349 420
#     4  11  24  44  73 105 140 181 229 296 355 413
#     4  11  25  46  70 100 145 179 239 288 341 425
#     4  12  27  46  68 104 145 184 232 295 352 416
#     4  10  25  45  75 103 133 188 234 287 351 415
#
# _framework density 24.094404999999998
#
# number of rings (size 3 to 8) (size 9 to 14) (size 15 to 20)
#    0.000    1.143    1.429    3.857    8.000    5.714 
#    2.571    0.000    0.000    0.000    0.000    0.000 
#    0.000    0.000    0.000    0.000    0.000    0.000 
#
# Total GULP energy -78441.436734 kJ/mol
# GULP energy per Si atom -5602.959767 kJ/mol
# Density = 2.403956 g / cm^3
# Si number density = 24.094405 Si / 1000 Ang^3
#
#
#
# Elastic Constant Matrix: (Units=GPa)
#
#
# Indices 1 2 3 4 5 6 
#
# 1 82.2191 14.9191 14.7382 -3.3707 -9.1784 11.1948
# 2 14.9191 112.4745 37.9952 7.2282 10.6941 13.0227
# 3 14.7382 37.9952 106.4236 -0.3146 11.0009 -1.5184
# 4 -3.3707 7.2282 -0.3146 41.6918 6.3937 1.2862
# 5 -9.1784 10.6941 11.0009 6.3937 31.4323 5.9655
# 6 11.1948 13.0227 -1.5184 1.2862 5.9655 38.0675
#
#
#
# Elastic Compliance Matrix: (Units=1/GPa)
#
#
# Indices 1 2 3 4 5 6 
#
# 1 0.014139 -0.001178 -0.002237 0.000541 0.006117 -0.004821
# 2 -0.001178 0.010910 -0.003589 -0.001630 -0.001864 -0.003182
# 3 -0.002237 -0.003589 0.011471 0.001085 -0.004231 0.002970
# 4 0.000541 -0.001630 0.001085 0.025050 -0.004830 0.000352
# 5 0.006117 -0.001864 -0.004231 -0.004830 0.038051 -0.007130
# 6 -0.004821 -0.003182 0.002970 0.000352 -0.007130 0.029999
#
#
# Mechanical properties :
#
#
# Convention : Reuss Voigt Hill
#
# Bulk Modulus (GPa) = 44.42330 48.49135 46.45733
# Shear Modulus (GPa) = 33.08357 37.80264 35.44311
#
# Velocity S-wave (km/s) = 3.70953 3.96528 3.83954
# Velocity P-wave (km/s) = 6.06834 6.41357 6.24334
#
# Compressibility (1/GPa) = 0.02251071
#
# Stress axis : x y z
#
# Youngs Moduli (GPa) = 70.72704 91.65802 87.17898
#
# Poissons Ratio (x) = 0.10797 0.19502
# Poissons Ratio (y) = 0.08331 0.31293
# Poissons Ratio (z) = 0.15822 0.32901
#
# Static dielectric constant tensor:
#      x y z
#    x 1.912080 -0.023380 -0.003230 
#    y -0.023380 1.902490 0.003820 
#    z -0.003230 0.003820 1.915120 
# 
# From -- ./inp_files/338715.got.cif
#   From: 2010.05.17/outbox.cif.g08.bks.cpg/sg2_170_cif.got.tgz:338715.got - 2010.06.03 11:33:40.
