data_PCOD9038931
_publ_section_title
;
Structure prediction by ZEFSAII (Michael W. Deem and Ramdas Pophale) SiO2 
 PCOD9038931
Probable space group: P -1
;
_chemical_formula_sum "Si O2"
_cell_formula_units_Z 12
_cell_length_a 13.411523
_cell_length_b 14.376619
_cell_length_c 4.944720
_cell_angle_alpha 107.327131
_cell_angle_beta 75.276240
_cell_angle_gamma 146.698503
_cell_volume 499.681217
_symmetry_space_group_name_H-M "P -1"
_symmetry_group_IT_number 2
_symmetry_cell_setting 'triclinic'
loop_
_space_group_symop_operation_xyz
x,y,z
-x,-y,-z
loop_
_atom_site_type_symbol
_atom_site_label
_atom_site_fract_x
_atom_site_fract_y
_atom_site_fract_z
Si Si1 0.348950 0.658452 0.176472
Si Si2 0.687101 0.992242 0.582979
Si Si3 0.034221 0.663165 0.553728
Si Si4 0.580297 0.654856 0.927359
Si Si5 0.223110 0.740013 0.999399
Si Si6 0.204986 0.129952 0.515614
O O1 0.504174 0.823094 0.407095
O O2 0.429044 0.620823 0.971587
O O3 0.312834 0.712389 0.023303
O O4 0.164434 0.488454 0.316965
O O5 0.751592 0.948030 0.663929
O O6 0.855404 0.150543 0.403296
O O7 0.664752 0.074289 0.839589
O O8 0.951711 0.374132 0.783600
O O9 0.162277 0.700445 0.698833
O O10 0.733226 0.812978 0.167703
O O11 0.500000 0.500000 0.000000
O O12 0.671265 0.707431 0.622363
O O13 0.000000 0.000000 0.500000
#
# Coordination Sequence:
#
# PCOD9038931 Si02
#       6
#     2   2   2   2   2   2
#     4  11  23  44  67  96 138 174 220 283 323 398
#     4   9  25  41  67 100 131 173 227 260 345 389
#     4  10  24  40  64  97 137 175 223 264 334 395
#     4  11  27  45  69 102 129 175 230 270 343 393
#     4  10  23  42  64  98 136 175 221 268 334 396
#     4  11  25  46  72  96 136 172 222 281 336 397
#
# _framework density 24.015312000000002
#
# number of rings (size 3 to 8) (size 9 to 14) (size 15 to 20)
#    1.000    0.667    0.000    2.500    7.000    7.333 
#    0.000    0.000    0.000    0.000    0.000    0.000 
#    0.000    0.000    0.000    0.000    0.000    0.000 
#
# Total GULP energy -67163.993847 kJ/mol
# GULP energy per Si atom -5596.999487 kJ/mol
# Density = 2.396065 g / cm^3
# Si number density = 24.015312 Si / 1000 Ang^3
#
#
#
# Elastic Constant Matrix: (Units=GPa)
#
#
# Indices 1 2 3 4 5 6 
#
# 1 140.5409 52.4309 9.7439 0.4513 18.0377 5.9742
# 2 52.4309 155.1935 20.1508 -22.5155 7.3948 5.7040
# 3 9.7439 20.1508 83.6693 -7.2325 12.1454 11.1071
# 4 0.4513 -22.5155 -7.2325 41.9226 -3.8198 3.8789
# 5 18.0377 7.3948 12.1454 -3.8198 27.0584 -4.3271
# 6 5.9742 5.7040 11.1071 3.8789 -4.3271 38.5483
#
#
#
# Elastic Compliance Matrix: (Units=1/GPa)
#
#
# Indices 1 2 3 4 5 6 
#
# 1 0.009076 -0.003097 0.000595 -0.002060 -0.006015 -0.001588
# 2 -0.003097 0.008280 -0.001286 0.004406 0.000886 -0.000719
# 3 0.000595 -0.001286 0.013967 0.001535 -0.006874 -0.004852
# 4 -0.002060 0.004406 0.001535 0.027056 0.002790 -0.003184
# 5 -0.006015 0.000886 -0.006874 0.002790 0.045419 0.007599
# 6 -0.001588 -0.000719 -0.004852 -0.003184 0.007599 0.028865
#
#
# Mechanical properties :
#
#
# Convention : Reuss Voigt Hill
#
# Bulk Modulus (GPa) = 42.11167 60.45055 51.28111
# Shear Modulus (GPa) = 33.74841 41.31107 37.52974
#
# Velocity S-wave (km/s) = 3.75278 4.15203 3.95744
# Velocity P-wave (km/s) = 6.02920 6.94349 6.50243
#
# Compressibility (1/GPa) = 0.02374639
#
# Stress axis : x y z
#
# Youngs Moduli (GPa) = 110.18394 120.76847 71.59814
#
# Poissons Ratio (x) = 0.37405 -0.04259
# Poissons Ratio (y) = 0.34127 0.09207
# Poissons Ratio (z) = -0.06555 0.15530
#
# Static dielectric constant tensor:
#      x y z
#    x 1.872590 -0.034210 -0.053750 
#    y -0.034210 2.023420 -0.019920 
#    z -0.053750 -0.019920 1.938670 
# 
# From -- ./inp_files/96475.got.cif
#   From: 2010.05.17/outbox.cif.g08.bks.cpg/sg2_49_cif.got.tgz:96475.got - 2010.06.03 11:33:40.
