data_PCOD9038327
_publ_section_title
;
Structure prediction by ZEFSAII (Michael W. Deem and Ramdas Pophale) SiO2 
 PCOD9038327
Probable space group: P -1
;
_chemical_formula_sum "Si O2"
_cell_formula_units_Z 14
_cell_length_a 9.333031
_cell_length_b 12.269425
_cell_length_c 5.369456
_cell_angle_alpha 86.355296
_cell_angle_beta 91.196783
_cell_angle_gamma 77.407103
_cell_volume 598.475264
_symmetry_space_group_name_H-M "P -1"
_symmetry_group_IT_number 2
_symmetry_cell_setting 'triclinic'
loop_
_space_group_symop_operation_xyz
x,y,z
-x,-y,-z
loop_
_atom_site_type_symbol
_atom_site_label
_atom_site_fract_x
_atom_site_fract_y
_atom_site_fract_z
Si Si1 0.177110 0.478376 0.533629
Si Si2 0.666170 0.975675 0.238896
Si Si3 0.109177 0.814856 0.976793
Si Si4 0.152567 0.008646 0.259872
Si Si5 0.437735 0.775301 0.797839
Si Si6 0.871716 0.431187 0.980666
Si Si7 0.593535 0.735389 0.309546
O O1 0.209477 0.548587 0.761411
O O2 0.254909 0.350712 0.608256
O O3 0.000000 0.500000 0.500000
O O4 0.225312 0.520309 0.266606
O O5 0.768961 0.984260 0.478920
O O6 0.610405 0.862975 0.286298
O O7 0.548914 0.093806 0.219205
O O8 0.751156 0.971217 0.980090
O O9 0.121261 0.886999 0.214308
O O10 0.269209 0.783932 0.863138
O O11 0.061815 0.699304 0.039839
O O12 0.995171 0.896961 0.785807
O O13 0.484099 0.727438 0.534791
O O14 0.534769 0.713648 0.037852
O O15 0.000000 0.500000 0.000000
#
# Coordination Sequence:
#
# PCOD9038327 Si02
#       7
#     2   2   2   2   2   2   2
#     4  10  24  42  64  99 123 168 228 281 331 363
#     4  11  23  40  69 101 136 173 230 270 328 389
#     4  10  24  44  66  98 143 171 221 276 331 409
#     4  10  24  39  68 104 131 178 218 275 348 373
#     4  11  24  42  63  99 137 189 206 265 342 405
#     4  10  23  41  68  93 128 166 226 280 330 369
#     4  12  24  42  69  95 141 174 228 268 323 406
#
# _framework density 23.392779000000001
#
# number of rings (size 3 to 8) (size 9 to 14) (size 15 to 20)
#    0.000    1.429    0.000    4.286    8.000    9.714 
#    0.000    4.286    0.000    0.000    0.000    0.000 
#    0.000    0.000    0.000    0.000    0.000    0.000 
#
# Total GULP energy -78324.715765 kJ/mol
# GULP energy per Si atom -5594.622555 kJ/mol
# Density = 2.333954 g / cm^3
# Si number density = 23.392779 Si / 1000 Ang^3
#
#
#
# Elastic Constant Matrix: (Units=GPa)
#
#
# Indices 1 2 3 4 5 6 
#
# 1 61.0162 25.5719 30.1838 -7.9969 4.7823 -12.3124
# 2 25.5719 98.0668 20.7919 -11.4636 3.1720 6.7484
# 3 30.1838 20.7919 192.5889 -7.5215 17.0351 -1.6219
# 4 -7.9969 -11.4636 -7.5215 14.4624 -5.5613 9.0991
# 5 4.7823 3.1720 17.0351 -5.5613 30.5021 -2.3660
# 6 -12.3124 6.7484 -1.6219 9.0991 -2.3660 36.2017
#
#
#
# Elastic Compliance Matrix: (Units=1/GPa)
#
#
# Indices 1 2 3 4 5 6 
#
# 1 0.021833 -0.005545 -0.002667 0.001016 -0.000547 0.008048
# 2 -0.005545 0.013700 -0.000290 0.012969 0.001380 -0.007622
# 3 -0.002667 -0.000290 0.005914 0.000942 -0.002761 -0.001005
# 4 0.001016 0.012969 0.000942 0.103094 0.014669 -0.026983
# 5 -0.000547 0.001380 -0.002761 0.014669 0.036800 -0.001849
# 6 0.008048 -0.007622 -0.001005 -0.026983 -0.001849 0.038397
#
#
# Mechanical properties :
#
#
# Convention : Reuss Voigt Hill
#
# Bulk Modulus (GPa) = 40.91122 56.08523 48.49823
# Shear Modulus (GPa) = 20.41732 34.57487 27.49609
#
# Velocity S-wave (km/s) = 2.95753 3.84867 3.43214
# Velocity P-wave (km/s) = 5.40273 6.61643 6.04014
#
# Compressibility (1/GPa) = 0.02444317
#
# Stress axis : x y z
#
# Youngs Moduli (GPa) = 45.80316 72.99056 169.08273
#
# Poissons Ratio (x) = 0.40473 0.45099
# Poissons Ratio (y) = 0.25398 0.04900
# Poissons Ratio (z) = 0.12217 0.02115
#
# Static dielectric constant tensor:
#      x y z
#    x 1.894770 0.020330 -0.025350 
#    y 0.020330 1.874840 -0.000350 
#    z -0.025350 -0.000350 1.926520 
# 
# From -- ./inp_files/27687.got.cif
#   From: 2010.05.17/outbox.cif.g08.bks.cpg/sg2_14_cif.got.tgz:27687.got - 2010.06.03 11:33:40.
