data_PCOD9038835
_publ_section_title
;
Structure prediction by ZEFSAII (Michael W. Deem and Ramdas Pophale) SiO2 
 PCOD9038835
Probable space group: P -1
;
_chemical_formula_sum "Si O2"
_cell_formula_units_Z 14
_cell_length_a 5.276695
_cell_length_b 8.147102
_cell_length_c 16.387386
_cell_angle_alpha 54.700185
_cell_angle_beta 84.617747
_cell_angle_gamma 67.863540
_cell_volume 525.374448
_symmetry_space_group_name_H-M "P -1"
_symmetry_group_IT_number 2
_symmetry_cell_setting 'triclinic'
loop_
_space_group_symop_operation_xyz
x,y,z
-x,-y,-z
loop_
_atom_site_type_symbol
_atom_site_label
_atom_site_fract_x
_atom_site_fract_y
_atom_site_fract_z
Si Si1 0.462511 0.305972 0.437397
Si Si2 0.391712 0.634619 0.825483
Si Si3 0.814113 0.963494 0.402959
Si Si4 0.294798 0.792095 0.321271
Si Si5 0.789639 0.761222 0.874021
Si Si6 0.861623 0.393133 0.765055
Si Si7 0.178759 0.145411 0.968175
O O1 0.720574 0.110203 0.445659
O O2 0.497916 0.533488 0.388324
O O3 0.222440 0.386801 0.349182
O O4 0.321275 0.214791 0.536820
O O5 0.328124 0.854361 0.712774
O O6 0.088347 0.656019 0.851779
O O7 0.586752 0.442897 0.814641
O O8 0.587322 0.641739 0.892003
O O9 0.129281 0.849615 0.394894
O O10 0.088979 0.784924 0.255697
O O11 0.361843 0.991224 0.229021
O O12 0.137777 0.237547 0.034155
O O13 0.101345 0.311051 0.846654
O O14 0.500000 0.000000 0.000000
O O15 0.000000 0.000000 0.000000
#
# Coordination Sequence:
#
# PCOD9038835 Si02
#       7
#     2   2   2   2   2   2   2
#     4   8  16  32  59  95 125 168 210 263 315 377
#     4  10  23  42  63  96 126 167 211 271 314 381
#     4   9  16  32  63  89 133 162 212 260 320 373
#     4   9  18  35  60  91 122 169 207 261 312 382
#     4  11  23  41  66  89 129 167 216 262 325 371
#     4   9  21  39  62  93 129 164 219 262 320 380
#     4  12  24  41  64  95 126 169 213 268 316 382
#
# _framework density 26.647659000000001
#
# number of rings (size 3 to 8) (size 9 to 14) (size 15 to 20)
#    0.857    1.429    1.429    1.286    2.000    2.286 
#    0.000    0.714    0.000   47.143    0.000    0.000 
#    0.000    0.000    0.000    0.000    0.000    0.000 
#
# Total GULP energy -78251.576650 kJ/mol
# GULP energy per Si atom -5589.398332 kJ/mol
# Density = 2.658701 g / cm^3
# Si number density = 26.647659 Si / 1000 Ang^3
#
#
#
# Elastic Constant Matrix: (Units=GPa)
#
#
# Indices 1 2 3 4 5 6 
#
# 1 112.0520 20.2594 39.7396 -11.7652 7.7158 -2.7604
# 2 20.2594 113.3913 29.5817 4.2332 -7.0945 4.6097
# 3 39.7396 29.5817 121.8938 -14.4452 -5.0612 2.2058
# 4 -11.7652 4.2332 -14.4452 42.7876 6.4719 11.4702
# 5 7.7158 -7.0945 -5.0612 6.4719 24.0986 -10.0474
# 6 -2.7604 4.6097 2.2058 11.4702 -10.0474 38.4268
#
#
#
# Elastic Compliance Matrix: (Units=1/GPa)
#
#
# Indices 1 2 3 4 5 6 
#
# 1 0.011056 -0.001649 -0.003017 0.003538 -0.006244 -0.001523
# 2 -0.001649 0.009997 -0.002084 -0.002985 0.004161 0.000781
# 3 -0.003017 -0.002084 0.010107 0.002891 0.001247 -0.001084
# 4 0.003538 -0.002985 0.002891 0.031372 -0.015205 -0.012894
# 5 -0.006244 0.004161 0.001247 -0.015205 0.056716 0.018349
# 6 -0.001523 0.000781 -0.001084 -0.012894 0.018349 0.034529
#
#
# Mechanical properties :
#
#
# Convention : Reuss Voigt Hill
#
# Bulk Modulus (GPa) = 56.62041 58.49983 57.56012
# Shear Modulus (GPa) = 28.87440 38.24634 33.56037
#
# Velocity S-wave (km/s) = 3.29532 3.79259 3.55267
# Velocity P-wave (km/s) = 5.98104 6.41709 6.20290
#
# Compressibility (1/GPa) = 0.01766147
#
# Stress axis : x y z
#
# Youngs Moduli (GPa) = 90.44491 100.02751 98.94132
#
# Poissons Ratio (x) = 0.16497 0.29849
# Poissons Ratio (y) = 0.14916 0.20615
# Poissons Ratio (z) = 0.27286 0.20841
#
# Static dielectric constant tensor:
#      x y z
#    x 2.122710 -0.088340 -0.015560 
#    y -0.088340 2.424930 0.108820 
#    z -0.015560 0.108820 2.177540 
# 
# From -- ./inp_files/582248.got.cif
#   From: 2010.05.17/outbox.cif.g08.bks.cpg/sg2_292_cif.got.tgz:582248.got - 2010.06.03 11:33:40.
