data_PCOD9038571
_publ_section_title
;
Structure prediction by ZEFSAII (Michael W. Deem and Ramdas Pophale) SiO2 
 PCOD9038571
Probable space group: P -1
;
_chemical_formula_sum "Si O2"
_cell_formula_units_Z 16
_cell_length_a 11.712446
_cell_length_b 23.989599
_cell_length_c 5.773497
_cell_angle_alpha 60.052370
_cell_angle_beta 56.131582
_cell_angle_gamma 29.691082
_cell_volume 666.731980
_symmetry_space_group_name_H-M "P -1"
_symmetry_group_IT_number 2
_symmetry_cell_setting 'triclinic'
loop_
_space_group_symop_operation_xyz
x,y,z
-x,-y,-z
loop_
_atom_site_type_symbol
_atom_site_label
_atom_site_fract_x
_atom_site_fract_y
_atom_site_fract_z
Si Si1 0.397217 0.223914 0.790236
Si Si2 0.367822 0.092459 0.147953
Si Si3 0.916863 0.004249 0.837794
Si Si4 0.615000 0.519035 0.100168
Si Si5 0.260887 0.391471 0.314695
Si Si6 0.859886 0.883892 0.239552
Si Si7 0.989183 0.595392 0.780937
Si Si8 0.887370 0.333452 0.797124
O O1 0.632922 0.129562 0.877331
O O2 0.417629 0.272029 0.479088
O O3 0.340241 0.172392 0.897314
O O4 0.162623 0.332084 0.972278
O O5 0.149515 0.144511 0.432567
O O6 0.585558 0.014425 0.248670
O O7 0.500000 0.000000 0.000000
O O8 0.000000 0.000000 0.500000
O O9 0.989610 0.900853 0.995786
O O10 0.000000 0.000000 0.000000
O O11 0.612145 0.589098 0.825533
O O12 0.772135 0.405291 0.017828
O O13 0.346220 0.595127 0.246477
O O14 0.737760 0.498384 0.240516
O O15 0.160161 0.407174 0.148004
O O16 0.000000 0.500000 0.500000
O O17 0.953361 0.792370 0.150105
O O18 0.971390 0.660387 0.483295
#
# Coordination Sequence:
#
# PCOD9038571 Si02
#       8
#     2   2   2   2   2   2   2   2
#     4  11  26  43  74 102 138 192 241 311 375 445
#     4  10  23  41  71 103 136 174 247 308 370 439
#     4  11  29  53  73 111 156 195 251 313 384 470
#     4  11  26  44  66 106 145 196 244 314 377 450
#     4  12  25  43  71 104 142 190 250 305 371 454
#     4  10  24  43  72 105 134 195 238 309 377 450
#     4  12  23  44  70 102 142 190 253 306 375 452
#     4  11  24  45  70 100 150 184 254 305 385 450
#
# _framework density 23.997651000000001
#
# number of rings (size 3 to 8) (size 9 to 14) (size 15 to 20)
#    0.000    1.000    3.750    0.750   10.500    0.000 
#    0.000    0.000    0.000    0.000    0.000    0.000 
#    0.000    0.000    0.000    0.000    0.000    0.000 
#
# Total GULP energy -89073.139035 kJ/mol
# GULP energy per Si atom -5567.071190 kJ/mol
# Density = 2.394303 g / cm^3
# Si number density = 23.997651 Si / 1000 Ang^3
#
#
#
# Elastic Constant Matrix: (Units=GPa)
#
#
# Indices 1 2 3 4 5 6 
#
# 1 128.9267 31.5037 39.4248 -8.5913 -6.0881 15.4156
# 2 31.5037 80.1587 29.9417 -24.4548 -1.4545 12.8063
# 3 39.4248 29.9417 106.8519 -18.3909 -15.6172 13.4390
# 4 -8.5913 -24.4548 -18.3909 33.8312 -5.2979 -2.1535
# 5 -6.0881 -1.4545 -15.6172 -5.2979 38.4910 -6.3617
# 6 15.4156 12.8063 13.4390 -2.1535 -6.3617 52.1073
#
#
#
# Elastic Compliance Matrix: (Units=1/GPa)
#
#
# Indices 1 2 3 4 5 6 
#
# 1 0.009358 -0.002816 -0.002718 -0.001250 -0.000140 -0.001444
# 2 -0.002816 0.018115 -0.001633 0.011436 0.000715 -0.002638
# 3 -0.002718 -0.001633 0.012740 0.005806 0.005279 -0.001196
# 4 -0.001250 0.011436 0.005806 0.041863 0.008152 -0.001213
# 5 -0.000140 0.000715 0.005279 0.008152 0.029656 0.002462
# 6 -0.001444 -0.002638 -0.001196 -0.001213 0.002462 0.020826
#
#
# Mechanical properties :
#
#
# Convention : Reuss Voigt Hill
#
# Bulk Modulus (GPa) = 38.63844 57.51974 48.07909
# Shear Modulus (GPa) = 32.15065 39.22371 35.68718
#
# Velocity S-wave (km/s) = 3.66422 4.04726 3.86049
# Velocity P-wave (km/s) = 5.83420 6.77210 6.32057
#
# Compressibility (1/GPa) = 0.02588096
#
# Stress axis : x y z
#
# Youngs Moduli (GPa) = 106.85701 55.20262 78.49097
#
# Poissons Ratio (x) = 0.15545 0.21332
# Poissons Ratio (y) = 0.30091 0.12814
# Poissons Ratio (z) = 0.29041 0.09012
#
# Static dielectric constant tensor:
#      x y z
#    x 2.084240 0.148460 -0.250490 
#    y 0.148460 2.167270 -0.290370 
#    z -0.250490 -0.290370 2.280610 
# 
# From -- ./inp_files/84187.got.cif
#   From: 2010.05.17/outbox.cif.g08.bks.cpg/sg2_43_cif.got.tgz:84187.got - 2010.06.03 11:33:40.
