data_PCOD9038645
_publ_section_title
;
Structure prediction by ZEFSAII (Michael W. Deem and Ramdas Pophale) SiO2 
 PCOD9038645
Probable space group: P -1
;
_chemical_formula_sum "Si O2"
_cell_formula_units_Z 16
_cell_length_a 12.817980
_cell_length_b 7.704878
_cell_length_c 16.339161
_cell_angle_alpha 87.631689
_cell_angle_beta 25.973610
_cell_angle_gamma 102.833465
_cell_volume 568.826372
_symmetry_space_group_name_H-M "P -1"
_symmetry_group_IT_number 2
_symmetry_cell_setting 'triclinic'
loop_
_space_group_symop_operation_xyz
x,y,z
-x,-y,-z
loop_
_atom_site_type_symbol
_atom_site_label
_atom_site_fract_x
_atom_site_fract_y
_atom_site_fract_z
Si Si1 0.318068 0.802507 0.570828
Si Si2 0.120299 0.005035 0.096153
Si Si3 0.327203 0.216950 0.246479
Si Si4 0.741952 0.245889 0.701119
Si Si5 0.226855 0.433182 0.946279
Si Si6 0.119324 0.727062 0.220383
Si Si7 0.958891 0.264083 0.384653
Si Si8 0.286611 0.344209 0.726679
O O1 0.546090 0.767039 0.369800
O O2 0.057894 0.595781 0.811149
O O3 0.168068 0.864547 0.607207
O O4 0.500000 0.000000 0.500000
O O5 0.030563 0.843533 0.084681
O O6 0.961288 0.810205 0.280473
O O7 0.129916 0.194199 0.039931
O O8 0.484812 0.384766 0.207966
O O9 0.576475 0.188696 0.043000
O O10 0.245274 0.308707 0.226224
O O11 0.000000 0.000000 0.500000
O O12 0.412788 0.169835 0.943113
O O13 0.000000 0.500000 0.500000
O O14 0.722916 0.154415 0.625948
O O15 0.833588 0.196052 0.721366
O O16 0.268192 0.451832 0.819461
O O17 0.993784 0.478859 0.327002
O O18 0.500000 0.500000 0.500000
#
# Coordination Sequence:
#
# PCOD9038645 Si02
#       8
#     2   2   2   2   2   2   2   2
#     4  12  27  50  82 118 158 216 271 333 399 482
#     4  12  25  46  80 113 160 213 266 331 398 487
#     4  12  28  50  79 119 160 210 267 339 410 488
#     4  10  23  41  72 110 152 205 254 326 396 468
#     4  12  28  54  83 114 167 213 269 337 411 473
#     4  11  24  45  75 114 155 204 270 325 401 481
#     4  11  24  47  75 110 163 201 264 331 406 470
#     4  12  30  52  79 120 162 214 280 327 401 489
#
# _framework density 28.128091000000001
#
# number of rings (size 3 to 8) (size 9 to 14) (size 15 to 20)
#    0.000    0.500    2.500    4.875    3.500    5.500 
#    0.000    1.250    0.000    0.000    0.000    0.000 
#    0.000    0.000    0.000    0.000    0.000    0.000 
#
# Total GULP energy -89261.016501 kJ/mol
# GULP energy per Si atom -5578.813531 kJ/mol
# Density = 2.806407 g / cm^3
# Si number density = 28.128091 Si / 1000 Ang^3
#
#
#
# Elastic Constant Matrix: (Units=GPa)
#
#
# Indices 1 2 3 4 5 6 
#
# 1 215.7980 44.2384 79.9613 -8.5596 7.3972 42.1495
# 2 44.2384 90.7930 31.9661 -6.3715 1.4370 8.4388
# 3 79.9613 31.9661 156.4490 -10.4331 -4.3951 25.4269
# 4 -8.5596 -6.3715 -10.4331 46.6220 9.3117 6.1303
# 5 7.3972 1.4370 -4.3951 9.3117 69.3391 -7.1643
# 6 42.1495 8.4388 25.4269 6.1303 -7.1643 62.1670
#
#
#
# Elastic Compliance Matrix: (Units=1/GPa)
#
#
# Indices 1 2 3 4 5 6 
#
# 1 0.006727 -0.001994 -0.002410 0.001164 -0.001355 -0.003575
# 2 -0.001994 0.012584 -0.001510 0.001054 -0.000272 0.000126
# 3 -0.002410 -0.001510 0.008299 0.001330 0.000467 -0.001633
# 4 0.001164 0.001054 0.001330 0.023383 -0.003636 -0.004201
# 5 -0.001355 -0.000272 0.000467 -0.003636 0.015389 0.002896
# 6 -0.003575 0.000126 -0.001633 -0.004201 0.002896 0.019909
#
#
# Mechanical properties :
#
#
# Convention : Reuss Voigt Hill
#
# Bulk Modulus (GPa) = 63.36218 86.15242 74.75730
# Shear Modulus (GPa) = 48.36614 56.08390 52.22502
#
# Velocity S-wave (km/s) = 4.15118 4.47013 4.31360
# Velocity P-wave (km/s) = 6.74919 7.57217 7.17250
#
# Compressibility (1/GPa) = 0.01578229
#
# Stress axis : x y z
#
# Youngs Moduli (GPa) = 148.66475 79.46842 120.49168
#
# Poissons Ratio (x) = 0.15842 0.29039
# Poissons Ratio (y) = 0.29637 0.18195
# Poissons Ratio (z) = 0.35828 0.12000
#
# Static dielectric constant tensor:
#      x y z
#    x 2.237690 -0.103030 -0.051480 
#    y -0.103030 2.662920 0.037080 
#    z -0.051480 0.037080 2.338420 
# 
# From -- ./inp_files/565879.got.cif
#   From: 2010.05.17/outbox.cif.g08.bks.cpg/sg2_283_cif.got.tgz:565879.got - 2010.06.03 11:33:40.
