data_PCOD9038180
_publ_section_title
;
Structure prediction by ZEFSAII (Michael W. Deem and Ramdas Pophale) SiO2 
 PCOD9038180
Probable space group: P -1
;
_chemical_formula_sum "Si O2"
_cell_formula_units_Z 14
_cell_length_a 24.404413
_cell_length_b 15.578596
_cell_length_c 5.584773
_cell_angle_alpha 83.261454
_cell_angle_beta 102.508798
_cell_angle_gamma 162.575865
_cell_volume 591.024183
_symmetry_space_group_name_H-M "P -1"
_symmetry_group_IT_number 2
_symmetry_cell_setting 'triclinic'
loop_
_space_group_symop_operation_xyz
x,y,z
-x,-y,-z
loop_
_atom_site_type_symbol
_atom_site_label
_atom_site_fract_x
_atom_site_fract_y
_atom_site_fract_z
Si Si1 0.517959 0.615751 0.835597
Si Si2 0.713913 0.513124 0.662970
Si Si3 0.860270 0.566913 0.595152
Si Si4 0.893511 0.104951 0.889414
Si Si5 0.692910 0.226436 0.159851
Si Si6 0.492675 0.218150 0.044419
Si Si7 0.885417 0.936818 0.634851
O O1 0.311332 0.332482 0.610826
O O2 0.500000 0.500000 0.000000
O O3 0.573647 0.780805 0.993754
O O4 0.693835 0.860379 0.732726
O O5 0.759831 0.479353 0.726039
O O6 0.630526 0.416595 0.874598
O O7 0.891799 0.843519 0.692314
O O8 0.580073 0.326648 0.358095
O O9 0.724250 0.292844 0.449251
O O10 0.051891 0.807511 0.809274
O O11 0.931665 0.747118 0.421539
O O12 0.089367 0.426913 0.840178
O O13 0.861949 0.957473 0.847248
O O14 0.655692 0.076983 0.069535
O O15 0.500000 0.000000 0.000000
#
# Coordination Sequence:
#
# PCOD9038180 Si02
#       7
#     2   2   2   2   2   2   2
#     4  11  22  46  70  97 139 178 228 283 344 414
#     4  11  24  42  68 103 138 177 228 284 350 410
#     4  11  23  40  68 102 134 181 224 284 350 406
#     4  11  24  40  70  98 134 185 228 279 346 402
#     4  11  24  45  67  98 138 181 233 282 338 409
#     4  11  26  44  70 101 134 189 229 280 341 404
#     4  10  23  41  67 102 135 177 226 284 349 411
#
# _framework density 23.687695000000001
#
# number of rings (size 3 to 8) (size 9 to 14) (size 15 to 20)
#    0.000    1.143    2.857    2.571    6.000    3.429 
#    0.000    0.714    0.000    0.000    0.000    0.000 
#    0.000    0.000    0.000    0.000    0.000    0.000 
#
# Total GULP energy -78100.580551 kJ/mol
# GULP energy per Si atom -5578.612896 kJ/mol
# Density = 2.363378 g / cm^3
# Si number density = 23.687695 Si / 1000 Ang^3
#
#
#
# Elastic Constant Matrix: (Units=GPa)
#
#
# Indices 1 2 3 4 5 6 
#
# 1 135.7261 32.4817 37.4335 21.4733 -24.3387 -15.6681
# 2 32.4817 104.2617 3.8439 4.3479 -10.2116 -8.2734
# 3 37.4335 3.8439 76.5262 9.6233 -19.3596 -15.1036
# 4 21.4733 4.3479 9.6233 32.8353 -7.8651 -15.8866
# 5 -24.3387 -10.2116 -19.3596 -7.8651 39.0537 11.4988
# 6 -15.6681 -8.2734 -15.1036 -15.8866 11.4988 43.0223
#
#
#
# Elastic Compliance Matrix: (Units=1/GPa)
#
#
# Indices 1 2 3 4 5 6 
#
# 1 0.010239 -0.002601 -0.003606 -0.004870 0.003131 -0.000672
# 2 -0.002601 0.010583 0.001303 0.001018 0.001554 0.001506
# 3 -0.003606 0.001303 0.016798 0.000246 0.005449 0.003469
# 4 -0.004870 0.001018 0.000246 0.040046 0.001632 0.012860
# 5 0.003131 0.001554 0.005449 0.001632 0.032376 -0.004699
# 6 -0.000672 0.001506 0.003469 0.012860 -0.004699 0.030511
#
#
# Mechanical properties :
#
#
# Convention : Reuss Voigt Hill
#
# Bulk Modulus (GPa) = 35.95584 51.55911 43.75747
# Shear Modulus (GPa) = 31.32221 39.16594 35.24407
#
# Velocity S-wave (km/s) = 3.64029 4.07065 3.86147
# Velocity P-wave (km/s) = 5.73420 6.62624 6.19629
#
# Compressibility (1/GPa) = 0.02781190
#
# Stress axis : x y z
#
# Youngs Moduli (GPa) = 97.66566 94.49449 59.53071
#
# Poissons Ratio (x) = 0.24574 0.21468
# Poissons Ratio (y) = 0.25398 -0.07756
# Poissons Ratio (z) = 0.35220 -0.12311
#
# Static dielectric constant tensor:
#      x y z
#    x 1.913160 0.055830 -0.033860 
#    y 0.055830 2.003260 -0.090580 
#    z -0.033860 -0.090580 1.989070 
# 
# From -- ./inp_files/46631.got.cif
#   From: 2010.05.17/outbox.cif.g08.bks.cpg/sg2_24_cif.got.tgz:46631.got - 2010.06.03 11:33:40.
