data_PCOD9038045
_publ_section_title
;
Structure prediction by ZEFSAII (Michael W. Deem and Ramdas Pophale) SiO2 
 PCOD9038045
Probable space group: P -1
;
_chemical_formula_sum "Si O2"
_cell_formula_units_Z 16
_cell_length_a 14.781658
_cell_length_b 9.054330
_cell_length_c 15.584145
_cell_angle_alpha 35.181012
_cell_angle_beta 38.842851
_cell_angle_gamma 39.668226
_cell_volume 700.672747
_symmetry_space_group_name_H-M "P -1"
_symmetry_group_IT_number 2
_symmetry_cell_setting 'triclinic'
loop_
_space_group_symop_operation_xyz
x,y,z
-x,-y,-z
loop_
_atom_site_type_symbol
_atom_site_label
_atom_site_fract_x
_atom_site_fract_y
_atom_site_fract_z
Si Si1 0.599442 0.575742 0.819890
Si Si2 0.160384 0.826338 0.811736
Si Si3 0.162732 0.010584 0.112560
Si Si4 0.930858 0.140781 0.574338
Si Si5 0.234801 0.010944 0.483747
Si Si6 0.649439 0.445168 0.529677
Si Si7 0.603604 0.758049 0.104219
Si Si8 0.385856 0.987408 0.666484
O O1 0.751483 0.315547 0.808367
O O2 0.653187 0.823834 0.687255
O O3 0.479697 0.688985 0.777438
O O4 0.500000 0.500000 0.000000
O O5 0.260480 0.507715 0.910023
O O6 0.219835 0.911846 0.637398
O O7 0.216603 0.000642 0.756253
O O8 0.980904 0.875912 0.900998
O O9 0.099485 0.050662 0.238656
O O10 0.300426 0.126713 0.955164
O O11 0.770696 0.368578 0.555913
O O12 0.064804 0.220425 0.480372
O O13 0.000000 0.000000 0.500000
O O14 0.283707 0.746872 0.510634
O O15 0.508127 0.366181 0.705179
O O16 0.620190 0.763073 0.385291
O O17 0.500000 0.000000 0.000000
O O18 0.500000 0.000000 0.500000
#
# Coordination Sequence:
#
# PCOD9038045 Si02
#       8
#     2   2   2   2   2   2   2   2
#     4  12  26  45  69 102 141 180 237 287 350 410
#     4  11  25  43  68 101 133 181 235 279 344 421
#     4  11  24  42  69  97 141 187 224 288 353 410
#     4   9  20  39  63 102 131 174 229 280 341 406
#     4  10  23  41  66 100 136 176 232 288 339 416
#     4  11  22  40  70  96 135 180 226 287 344 403
#     4  12  22  39  66  99 137 177 229 278 348 412
#     4  12  23  45  69 102 136 179 236 283 343 421
#
# _framework density 22.835196
#
# number of rings (size 3 to 8) (size 9 to 14) (size 15 to 20)
#    0.000    1.000    3.750    2.625    1.750    4.000 
#    0.000    1.875    0.000    0.000    0.000    0.000 
#    0.000    0.000    0.000    0.000    0.000    0.000 
#
# Total GULP energy -89368.566205 kJ/mol
# GULP energy per Si atom -5585.535388 kJ/mol
# Density = 2.278322 g / cm^3
# Si number density = 22.835196 Si / 1000 Ang^3
#
#
#
# Elastic Constant Matrix: (Units=GPa)
#
#
# Indices 1 2 3 4 5 6 
#
# 1 145.9636 57.1268 54.7087 -13.0407 -32.8074 -33.1258
# 2 57.1268 96.5872 25.8640 -15.4582 -18.1627 -7.5266
# 3 54.7087 25.8640 60.7369 -5.2185 -11.5912 -13.7751
# 4 -13.0407 -15.4582 -5.2185 29.5247 5.3714 -3.3502
# 5 -32.8074 -18.1627 -11.5912 5.3714 38.0015 0.4407
# 6 -33.1258 -7.5266 -13.7751 -3.3502 0.4407 47.4066
#
#
#
# Elastic Compliance Matrix: (Units=1/GPa)
#
#
# Indices 1 2 3 4 5 6 
#
# 1 0.015710 -0.004380 -0.008693 0.002476 0.008376 0.007853
# 2 -0.004380 0.014458 -0.001625 0.004889 0.001952 -0.000910
# 3 -0.008693 -0.001625 0.025079 -0.000033 -0.000638 0.000959
# 4 0.002476 0.004889 -0.000033 0.038293 -0.001008 0.005212
# 5 0.008376 0.001952 -0.000638 -0.001008 0.034362 0.005587
# 6 0.007853 -0.000910 0.000959 0.005212 0.005587 0.027032
#
#
# Mechanical properties :
#
#
# Convention : Reuss Voigt Hill
#
# Bulk Modulus (GPa) = 38.68339 64.29852 51.49096
# Shear Modulus (GPa) = 25.91385 34.02578 29.96982
#
# Velocity S-wave (km/s) = 3.37236 3.86432 3.62669
# Velocity P-wave (km/s) = 5.66929 6.93753 6.33523
#
# Compressibility (1/GPa) = 0.02585089
#
# Stress axis : x y z
#
# Youngs Moduli (GPa) = 63.65496 69.16618 39.87360
#
# Poissons Ratio (x) = 0.30298 0.34661
# Poissons Ratio (y) = 0.27884 0.06479
# Poissons Ratio (z) = 0.55334 0.11238
#
# Static dielectric constant tensor:
#      x y z
#    x 1.933450 -0.041250 -0.015780 
#    y -0.041250 1.909490 0.003040 
#    z -0.015780 0.003040 1.820580 
# 
# From -- ./inp_files/529276.got.cif
#   From: 2010.05.17/outbox.cif.g08.bks.cpg/sg2_265_cif.got.tgz:529276.got - 2010.06.03 11:33:40.
