data_PCOD9038011
_publ_section_title
;
Structure prediction by ZEFSAII (Michael W. Deem and Ramdas Pophale) SiO2 
 PCOD9038011
Probable space group: P -1
;
_chemical_formula_sum "Si O2"
_cell_formula_units_Z 14
_cell_length_a 15.299632
_cell_length_b 6.191048
_cell_length_c 13.710259
_cell_angle_alpha 44.667419
_cell_angle_beta 48.049240
_cell_angle_gamma 64.123564
_cell_volume 677.076660
_symmetry_space_group_name_H-M "P -1"
_symmetry_group_IT_number 2
_symmetry_cell_setting 'triclinic'
loop_
_space_group_symop_operation_xyz
x,y,z
-x,-y,-z
loop_
_atom_site_type_symbol
_atom_site_label
_atom_site_fract_x
_atom_site_fract_y
_atom_site_fract_z
Si Si1 0.892190 0.146170 0.980123
Si Si2 0.452238 0.217967 0.045993
Si Si3 0.663306 0.736921 0.234932
Si Si4 0.245530 0.290216 0.040572
Si Si5 0.333887 0.297581 0.275762
Si Si6 0.450690 0.941210 0.447466
Si Si7 0.109246 0.650522 0.309179
O O1 0.842601 0.437121 0.980056
O O2 0.917386 0.257615 0.813008
O O3 0.785913 0.880643 0.139887
O O4 0.000000 0.000000 0.000000
O O5 0.573695 0.418973 0.913567
O O6 0.343787 0.369268 0.024390
O O7 0.383093 0.052791 0.241720
O O8 0.500000 0.000000 0.000000
O O9 0.561517 0.926418 0.296856
O O10 0.625134 0.383048 0.399930
O O11 0.682826 0.744306 0.101961
O O12 0.170296 0.961855 0.213612
O O13 0.205756 0.397205 0.320790
O O14 0.367356 0.198830 0.389987
O O15 0.500000 0.000000 0.500000
O O16 0.000000 0.500000 0.500000
#
# Coordination Sequence:
#
# PCOD9038011 Si02
#       7
#     2   2   2   2   2   2   2
#     4  11  25  46  68  91 127 184 230 275 332 388
#     4  11  20  37  67  98 125 167 206 264 338 384
#     4  10  23  41  65  97 131 171 223 268 328 408
#     4  11  22  44  68  93 130 170 222 277 329 399
#     4  11  23  38  64  98 132 165 216 269 324 405
#     4  11  23  40  64 100 140 171 208 272 339 400
#     4  11  26  44  63  98 135 173 230 276 329 401
#
# _framework density 20.677126000000001
#
# number of rings (size 3 to 8) (size 9 to 14) (size 15 to 20)
#    0.000    1.143    2.857    3.429    4.000    7.429 
#    2.571    0.000    0.000    0.000    0.000    0.000 
#    0.000    0.000    0.000    0.000    0.000    0.000 
#
# Total GULP energy -78090.919421 kJ/mol
# GULP energy per Si atom -5577.922816 kJ/mol
# Density = 2.063006 g / cm^3
# Si number density = 20.677126 Si / 1000 Ang^3
#
#
#
# Elastic Constant Matrix: (Units=GPa)
#
#
# Indices 1 2 3 4 5 6 
#
# 1 159.0716 45.3161 73.4484 12.3491 9.6410 -26.2660
# 2 45.3161 78.5159 44.5703 16.5331 1.3207 -10.7137
# 3 73.4484 44.5703 139.1865 11.1068 -19.8206 -6.3137
# 4 12.3491 16.5331 11.1068 25.4964 0.0765 -4.3413
# 5 9.6410 1.3207 -19.8206 0.0765 34.5054 -4.1873
# 6 -26.2660 -10.7137 -6.3137 -4.3413 -4.1873 36.1112
#
#
#
# Elastic Compliance Matrix: (Units=1/GPa)
#
#
# Indices 1 2 3 4 5 6 
#
# 1 0.010666 -0.002143 -0.005416 -0.000464 -0.005341 0.005500
# 2 -0.002143 0.018606 -0.004380 -0.008795 -0.002384 0.001862
# 3 -0.005416 -0.004380 0.012620 -0.000414 0.008679 -0.002076
# 4 -0.000464 -0.008795 -0.000414 0.045759 0.000435 0.002532
# 5 -0.005341 -0.002384 0.008679 0.000435 0.035684 0.001116
# 6 0.005500 0.001862 -0.002076 0.002532 0.001116 0.032316
#
#
# Mechanical properties :
#
#
# Convention : Reuss Voigt Hill
#
# Bulk Modulus (GPa) = 55.51673 78.16040 66.83856
# Shear Modulus (GPa) = 26.94937 33.45188 30.20062
#
# Velocity S-wave (km/s) = 3.61410 4.02658 3.82590
# Velocity P-wave (km/s) = 6.65757 7.71364 7.20498
#
# Compressibility (1/GPa) = 0.01801259
#
# Stress axis : x y z
#
# Youngs Moduli (GPa) = 93.75942 53.74684 79.23980
#
# Poissons Ratio (x) = 0.11520 0.42915
# Poissons Ratio (y) = 0.20096 0.34708
# Poissons Ratio (z) = 0.50779 0.23542
#
# Static dielectric constant tensor:
#      x y z
#    x 2.236360 0.865140 0.240630 
#    y 0.865140 3.340060 0.341140 
#    z 0.240630 0.341140 1.821600 
# 
# From -- ./inp_files/77289.got.cif
#   From: 2010.05.17/outbox.cif.g08.bks.cpg/sg2_39_cif.got.tgz:77289.got - 2010.06.03 11:33:40.
