data_PCOD9038617
_publ_section_title
;
Structure prediction by ZEFSAII (Michael W. Deem and Ramdas Pophale) SiO2 
 PCOD9038617
Probable space group: P -1
;
_chemical_formula_sum "Si O2"
_cell_formula_units_Z 16
_cell_length_a 7.525933
_cell_length_b 12.003908
_cell_length_c 12.500838
_cell_angle_alpha 78.563769
_cell_angle_beta 50.506628
_cell_angle_gamma 110.177155
_cell_volume 668.351995
_symmetry_space_group_name_H-M "P -1"
_symmetry_group_IT_number 2
_symmetry_cell_setting 'triclinic'
loop_
_space_group_symop_operation_xyz
x,y,z
-x,-y,-z
loop_
_atom_site_type_symbol
_atom_site_label
_atom_site_fract_x
_atom_site_fract_y
_atom_site_fract_z
Si Si1 0.359524 0.635089 0.608918
Si Si2 0.621694 0.627975 0.831718
Si Si3 0.972084 0.193048 0.666588
Si Si4 0.901918 0.360934 0.495130
Si Si5 0.003496 0.696969 0.133633
Si Si6 0.609359 0.115051 0.345142
Si Si7 0.659872 0.891413 0.750428
Si Si8 0.783777 0.666108 0.006279
O O1 0.679620 0.689789 0.508164
O O2 0.349530 0.673475 0.482553
O O3 0.129511 0.464240 0.747515
O O4 0.306735 0.733208 0.676240
O O5 0.742247 0.787103 0.722344
O O6 0.300081 0.495185 0.934964
O O7 0.843199 0.607151 0.690868
O O8 0.610451 0.635463 0.965227
O O9 0.934922 0.214085 0.799997
O O10 0.826389 0.237972 0.631493
O O11 0.857997 0.030874 0.721957
O O12 0.000000 0.500000 0.500000
O O13 0.780197 0.681823 0.133326
O O14 0.320966 0.780686 0.940972
O O15 0.359554 0.051906 0.365700
O O16 0.500000 0.000000 0.500000
O O17 0.918213 0.174603 0.165383
#
# Coordination Sequence:
#
# PCOD9038617 Si02
#       8
#     2   2   2   2   2   2   2   2
#     4  12  25  44  74 103 139 192 237 296 352 422
#     4  11  24  45  70 109 140 179 246 289 359 425
#     4  12  27  46  72 108 145 188 241 289 362 426
#     4  12  26  45  73 108 145 185 233 299 354 421
#     4  11  24  48  69 101 143 189 241 287 355 425
#     4  11  23  43  68 101 142 180 239 294 358 424
#     4  11  26  45  73 101 146 190 227 303 362 415
#     4  10  23  41  71  99 139 185 234 298 338 422
#
# _framework density 23.939481000000001
#
# number of rings (size 3 to 8) (size 9 to 14) (size 15 to 20)
#    0.000    0.750    2.500    4.500    5.250    3.000 
#    0.000    0.625    0.000    0.000    0.000    0.000 
#    0.000    0.000    0.000    0.000    0.000    0.000 
#
# Total GULP energy -89298.401516 kJ/mol
# GULP energy per Si atom -5581.150095 kJ/mol
# Density = 2.388499 g / cm^3
# Si number density = 23.939481 Si / 1000 Ang^3
#
#
#
# Elastic Constant Matrix: (Units=GPa)
#
#
# Indices 1 2 3 4 5 6 
#
# 1 80.6911 32.4613 34.7822 5.7493 36.6039 17.5239
# 2 32.4613 144.5722 46.5089 -4.0093 9.0707 10.2195
# 3 34.7822 46.5089 98.9065 -9.1911 19.5008 -0.2987
# 4 5.7493 -4.0093 -9.1911 38.5893 9.9271 6.9277
# 5 36.6039 9.0707 19.5008 9.9271 37.1801 5.9896
# 6 17.5239 10.2195 -0.2987 6.9277 5.9896 36.5952
#
#
#
# Elastic Compliance Matrix: (Units=1/GPa)
#
#
# Indices 1 2 3 4 5 6 
#
# 1 0.027707 -0.002899 -0.003441 0.002545 -0.023988 -0.009042
# 2 -0.002899 0.008662 -0.003628 -0.000001 0.002891 -0.001533
# 3 -0.003441 -0.003628 0.014399 0.004325 -0.004878 0.002758
# 4 0.002545 -0.000001 0.004325 0.030582 -0.012136 -0.004986
# 5 -0.023988 0.002891 -0.004878 -0.012136 0.054971 0.003940
# 6 -0.009042 -0.001533 0.002758 -0.004986 0.003940 0.032405
#
#
# Mechanical properties :
#
#
# Convention : Reuss Voigt Hill
#
# Bulk Modulus (GPa) = 32.43642 61.29717 46.86679
# Shear Modulus (GPa) = 25.13315 36.50077 30.81696
#
# Velocity S-wave (km/s) = 3.24367 3.90899 3.59177
# Velocity P-wave (km/s) = 5.25427 6.78485 6.06801
#
# Compressibility (1/GPa) = 0.03082955
#
# Stress axis : x y z
#
# Youngs Moduli (GPa) = 36.09258 115.44474 69.44922
#
# Poissons Ratio (x) = 0.33469 0.23901
# Poissons Ratio (y) = 0.10464 0.25199
# Poissons Ratio (z) = 0.12421 0.41888
#
# Static dielectric constant tensor:
#      x y z
#    x 2.016930 -0.021540 -0.050760 
#    y -0.021540 1.886180 0.019360 
#    z -0.050760 0.019360 2.151200 
# 
# From -- ./inp_files/392566.got.cif
#   From: 2010.05.17/outbox.cif.g08.bks.cpg/sg2_197_cif.got.tgz:392566.got - 2010.06.03 11:33:40.
