data_PCOD9038663
_publ_section_title
;
Structure prediction by ZEFSAII (Michael W. Deem and Ramdas Pophale) SiO2 
 PCOD9038663
Probable space group: P -1
;
_chemical_formula_sum "Si O2"
_cell_formula_units_Z 14
_cell_length_a 27.669088
_cell_length_b 11.371260
_cell_length_c 5.694234
_cell_angle_alpha 60.071270
_cell_angle_beta 59.795390
_cell_angle_gamma 24.761506
_cell_volume 644.117319
_symmetry_space_group_name_H-M "P -1"
_symmetry_group_IT_number 2
_symmetry_cell_setting 'triclinic'
loop_
_space_group_symop_operation_xyz
x,y,z
-x,-y,-z
loop_
_atom_site_type_symbol
_atom_site_label
_atom_site_fract_x
_atom_site_fract_y
_atom_site_fract_z
Si Si1 0.145254 0.847284 0.812442
Si Si2 0.173419 0.273722 0.787849
Si Si3 0.584623 0.957563 0.591782
Si Si4 0.967483 0.660585 0.200686
Si Si5 0.632178 0.768194 0.171831
Si Si6 0.945861 0.211968 0.619806
Si Si7 0.452589 0.660471 0.706935
O O1 0.278956 0.546384 0.723178
O O2 0.116633 0.032257 0.865372
O O3 0.109872 0.776345 0.075363
O O4 0.057715 0.052842 0.606401
O O5 0.105946 0.288017 0.829530
O O6 0.144611 0.478289 0.532603
O O7 0.310825 0.955017 0.773158
O O8 0.094172 0.454348 0.033854
O O9 0.498326 0.012823 0.732420
O O10 0.519168 0.239693 0.468046
O O11 0.653436 0.804625 0.326452
O O12 0.644160 0.816662 0.842303
O O13 0.000000 0.500000 0.500000
O O14 0.000000 0.000000 0.500000
O O15 0.500000 0.500000 0.500000
O O16 0.500000 0.500000 0.000000
#
# Coordination Sequence:
#
# PCOD9038663 Si02
#       7
#     2   2   2   2   2   2   2
#     4  11  24  37  70  98 135 175 231 282 349 422
#     4  11  26  45  72  96 146 182 233 297 347 426
#     4  10  23  47  65 101 136 177 238 279 359 390
#     4  11  24  45  66 102 136 188 225 286 362 418
#     4  10  23  41  72  97 134 181 222 301 336 418
#     4  11  23  42  64 103 131 172 229 279 350 415
#     4  12  29  47  73 105 140 195 239 289 350 427
#
# _framework density 21.735171000000001
#
# number of rings (size 3 to 8) (size 9 to 14) (size 15 to 20)
#    0.000    1.143    2.857    1.714    8.000    0.000 
#    0.000    0.000    0.000    0.000    0.000    0.000 
#    0.000    0.000    0.000    0.000    0.000    0.000 
#
# Total GULP energy -77993.127564 kJ/mol
# GULP energy per Si atom -5570.937683 kJ/mol
# Density = 2.168570 g / cm^3
# Si number density = 21.735171 Si / 1000 Ang^3
#
#
#
# Elastic Constant Matrix: (Units=GPa)
#
#
# Indices 1 2 3 4 5 6 
#
# 1 63.8614 29.0893 43.6306 -3.5123 1.2507 14.0082
# 2 29.0893 139.0307 52.9432 -12.4433 17.5165 12.6297
# 3 43.6306 52.9432 107.0186 -13.6441 19.8283 6.2521
# 4 -3.5123 -12.4433 -13.6441 33.0429 6.3327 0.2259
# 5 1.2507 17.5165 19.8283 6.3327 31.6594 -0.7536
# 6 14.0082 12.6297 6.2521 0.2259 -0.7536 38.4547
#
#
#
# Elastic Compliance Matrix: (Units=1/GPa)
#
#
# Indices 1 2 3 4 5 6 
#
# 1 0.024887 -0.001793 -0.010720 -0.003816 0.007330 -0.006568
# 2 -0.001793 0.009611 -0.002715 0.003132 -0.004224 -0.002163
# 3 -0.010720 -0.002715 0.017864 0.007249 -0.010673 0.001641
# 4 -0.003816 0.003132 0.007249 0.036622 -0.013478 -0.001296
# 5 0.007330 -0.004224 -0.010673 -0.013478 0.043047 0.001375
# 6 -0.006568 -0.002163 0.001641 -0.001296 0.001375 0.028875
#
#
# Mechanical properties :
#
#
# Convention : Reuss Voigt Hill
#
# Bulk Modulus (GPa) = 45.65286 62.35967 54.00626
# Shear Modulus (GPa) = 25.16806 32.91457 29.04132
#
# Velocity S-wave (km/s) = 3.40655 3.89568 3.65930
# Velocity P-wave (km/s) = 6.04338 6.99915 6.53875
#
# Compressibility (1/GPa) = 0.02190443
#
# Stress axis : x y z
#
# Youngs Moduli (GPa) = 40.18158 104.04980 55.97965
#
# Poissons Ratio (x) = 0.18659 0.60010
# Poissons Ratio (y) = 0.07206 0.15199
# Poissons Ratio (z) = 0.43075 0.28251
#
# Static dielectric constant tensor:
#      x y z
#    x 1.649300 -0.232280 0.097160 
#    y -0.232280 1.493960 0.124010 
#    z 0.097160 0.124010 1.849970 
# 
# From -- ./inp_files/60620.got.cif
#   From: 2010.05.17/outbox.cif.g08.bks.cpg/sg2_31_cif.got.tgz:60620.got - 2010.06.03 11:33:40.
