data_PCOD9038183
_publ_section_title
;
Structure prediction by ZEFSAII (Michael W. Deem and Ramdas Pophale) SiO2 
 PCOD9038183
Probable space group: P -1
;
_chemical_formula_sum "Si O2"
_cell_formula_units_Z 15
_cell_length_a 24.858497
_cell_length_b 8.827625
_cell_length_c 12.050147
_cell_angle_alpha 147.348047
_cell_angle_beta 29.151003
_cell_angle_gamma 135.284675
_cell_volume 691.882219
_symmetry_space_group_name_H-M "P -1"
_symmetry_group_IT_number 2
_symmetry_cell_setting 'triclinic'
loop_
_space_group_symop_operation_xyz
x,y,z
-x,-y,-z
loop_
_atom_site_type_symbol
_atom_site_label
_atom_site_fract_x
_atom_site_fract_y
_atom_site_fract_z
Si Si1 0.505363 0.980225 0.111852
Si Si2 0.741553 0.640965 0.714216
Si Si3 0.500000 0.500000 0.000000
Si Si4 0.272965 0.822610 0.080626
Si Si5 0.867292 0.701095 0.750586
Si Si6 0.888117 0.082492 0.359357
Si Si7 0.744824 0.797220 0.264131
Si Si8 0.941464 0.259697 0.020555
O O1 0.382966 0.083685 0.440030
O O2 0.533629 0.677918 0.933939
O O3 0.500000 0.000000 0.000000
O O4 0.600865 0.168271 0.098494
O O5 0.616076 0.568651 0.890524
O O6 0.785317 0.674017 0.779528
O O7 0.821389 0.399755 0.359808
O O8 0.751193 0.934538 0.815467
O O9 0.193503 0.888952 0.370037
O O10 0.253503 0.515841 0.881370
O O11 0.931337 0.390263 0.454989
O O12 0.798227 0.761426 0.024833
O O13 0.935081 0.973240 0.784329
O O14 0.814652 0.989093 0.333085
O O15 0.986174 0.848852 0.070438
O O16 0.000000 0.500000 0.000000
#
# Coordination Sequence:
#
# PCOD9038183 Si02
#       8
#     2   2   1   2   2   2   2   2
#     4  11  21  42  71 100 141 186 237 300 354 426
#     4  11  25  47  69 106 142 183 236 297 353 422
#     4  10  24  44  72 100 142 184 232 294 358 420
#     4  10  23  41  67 103 135 182 237 289 351 419
#     4  11  26  44  71 102 144 183 233 290 359 427
#     4  11  23  45  68  99 137 180 234 294 342 428
#     4  11  24  44  70 101 139 188 237 283 364 422
#     4  12  26  44  73 103 140 187 236 292 361 415
#
# _framework density 21.679988999999999
#
# number of rings (size 3 to 8) (size 9 to 14) (size 15 to 20)
#    0.000    1.067    2.667    3.200    3.733    4.800 
#    2.400    3.333    0.000    0.000    0.000    0.000 
#    0.000    0.000    0.000    0.000    0.000    0.000 
#
# Total GULP energy -83658.459461 kJ/mol
# GULP energy per Si atom -5577.230631 kJ/mol
# Density = 2.163064 g / cm^3
# Si number density = 21.679989 Si / 1000 Ang^3
#
#
#
# Elastic Constant Matrix: (Units=GPa)
#
#
# Indices 1 2 3 4 5 6 
#
# 1 107.4655 42.6005 14.4020 12.4080 -4.4004 0.8761
# 2 42.6005 160.7315 27.5231 26.5996 0.0379 3.5071
# 3 14.4020 27.5231 43.1617 12.1251 -0.4898 3.2334
# 4 12.4080 26.5996 12.1251 34.1050 -2.0655 -8.4622
# 5 -4.4004 0.0379 -0.4898 -2.0655 28.3527 -0.2600
# 6 0.8761 3.5071 3.2334 -8.4622 -0.2600 35.9307
#
#
#
# Elastic Compliance Matrix: (Units=1/GPa)
#
#
# Indices 1 2 3 4 5 6 
#
# 1 0.010671 -0.002299 -0.001649 -0.001466 0.001522 -0.000222
# 2 -0.002299 0.008193 -0.002948 -0.004964 -0.000795 -0.001653
# 3 -0.001649 -0.002948 0.028202 -0.008178 -0.000399 -0.004139
# 4 -0.001466 -0.004964 -0.008178 0.039411 0.002606 0.010557
# 5 0.001522 -0.000795 -0.000399 0.002606 0.035699 0.000948
# 6 -0.000222 -0.001653 -0.004139 0.010557 0.000948 0.030864
#
#
# Mechanical properties :
#
#
# Convention : Reuss Voigt Hill
#
# Bulk Modulus (GPa) = 30.05348 53.37889 41.71618
# Shear Modulus (GPa) = 28.10189 34.79987 31.45088
#
# Velocity S-wave (km/s) = 3.60420 4.01079 3.81292
# Velocity P-wave (km/s) = 5.58684 6.79142 6.21836
#
# Compressibility (1/GPa) = 0.03327402
#
# Stress axis : x y z
#
# Youngs Moduli (GPa) = 93.71229 122.04809 35.45850
#
# Poissons Ratio (x) = 0.28056 0.05847
# Poissons Ratio (y) = 0.21542 0.10454
# Poissons Ratio (z) = 0.15454 0.35984
#
# Static dielectric constant tensor:
#      x y z
#    x 1.759160 -0.021800 -0.017960 
#    y -0.021800 1.813890 0.029510 
#    z -0.017960 0.029510 1.798980 
# 
# From -- ./inp_files/34649.got.cif
#   From: 2010.05.17/outbox.cif.g08.bks.cpg/sg2_18_cif.got.tgz:34649.got - 2010.06.03 11:33:40.
