data_PCOD9038882
_publ_section_title
;
Structure prediction by ZEFSAII (Michael W. Deem and Ramdas Pophale) SiO2 
 PCOD9038882
Probable space group: P -1
;
_chemical_formula_sum "Si O2"
_cell_formula_units_Z 16
_cell_length_a 5.255864
_cell_length_b 15.499667
_cell_length_c 13.057874
_cell_angle_alpha 40.514665
_cell_angle_beta 87.886741
_cell_angle_gamma 101.932446
_cell_volume 643.839777
_symmetry_space_group_name_H-M "P -1"
_symmetry_group_IT_number 2
_symmetry_cell_setting 'triclinic'
loop_
_space_group_symop_operation_xyz
x,y,z
-x,-y,-z
loop_
_atom_site_type_symbol
_atom_site_label
_atom_site_fract_x
_atom_site_fract_y
_atom_site_fract_z
Si Si1 0.792903 0.727620 0.596477
Si Si2 0.342493 0.578231 0.863800
Si Si3 0.928751 0.906139 0.982468
Si Si4 0.964460 0.286040 0.166471
Si Si5 0.141321 0.664667 0.479253
Si Si6 0.102184 0.028218 0.354618
Si Si7 0.486797 0.983060 0.234847
Si Si8 0.772740 0.599956 0.346481
O O1 0.481666 0.641828 0.699694
O O2 0.930753 0.714044 0.716769
O O3 0.911183 0.665649 0.560619
O O4 0.870482 0.893948 0.426048
O O5 0.337499 0.716569 0.801496
O O6 0.500000 0.500000 0.000000
O O7 0.073011 0.441481 0.971913
O O8 0.212696 0.935389 0.889867
O O9 0.720894 0.959374 0.875366
O O10 0.774647 0.740315 0.162639
O O11 0.000000 0.000000 0.000000
O O12 0.060062 0.176489 0.202731
O O13 0.179829 0.515610 0.623055
O O14 0.018772 0.659854 0.371303
O O15 0.388676 0.814011 0.361989
O O16 0.382796 0.009524 0.328323
O O17 0.000000 0.000000 0.500000
O O18 0.500000 0.500000 0.500000
#
# Coordination Sequence:
#
# PCOD9038882 Si02
#       8
#     2   2   2   2   2   2   2   2
#     4   9  19  37  58  86 115 163 211 265 328 392
#     4   9  18  34  55  79 118 160 207 253 328 384
#     4  12  25  46  75 101 144 183 233 297 353 418
#     4   9  18  36  57  85 119 164 207 267 326 388
#     4  10  23  42  64  92 132 171 229 276 340 421
#     4   9  20  43  64  95 132 172 227 279 333 404
#     4  11  25  47  71 108 137 189 235 282 359 419
#     4  11  25  42  67  97 132 178 224 286 353 414
#
# _framework density 24.850901
#
# number of rings (size 3 to 8) (size 9 to 14) (size 15 to 20)
#    0.000    2.000    1.250    1.125    3.500    2.500 
#   24.750    0.000    0.000    0.000    0.000    0.000 
#    0.000    0.000    0.000    0.000    0.000    0.000 
#
# Total GULP energy -89281.037611 kJ/mol
# GULP energy per Si atom -5580.064851 kJ/mol
# Density = 2.479434 g / cm^3
# Si number density = 24.850901 Si / 1000 Ang^3
#
#
#
# Elastic Constant Matrix: (Units=GPa)
#
#
# Indices 1 2 3 4 5 6 
#
# 1 70.9118 40.6378 25.7773 1.2412 -9.9957 -13.1166
# 2 40.6378 168.8886 53.3937 -21.7766 -5.7758 -35.9475
# 3 25.7773 53.3937 157.7234 -23.7394 -7.1152 -23.1664
# 4 1.2412 -21.7766 -23.7394 44.7119 -14.8163 10.4779
# 5 -9.9957 -5.7758 -7.1152 -14.8163 40.9526 9.5454
# 6 -13.1166 -35.9475 -23.1664 10.4779 9.5454 45.8855
#
#
#
# Elastic Compliance Matrix: (Units=1/GPa)
#
#
# Indices 1 2 3 4 5 6 
#
# 1 0.017425 -0.003623 -0.001737 -0.002831 0.002071 0.001482
# 2 -0.003623 0.008442 -0.001244 0.002519 -0.000019 0.004379
# 3 -0.001737 -0.001244 0.007913 0.004005 0.001944 0.001205
# 4 -0.002831 0.002519 0.004005 0.031892 0.013508 -0.006906
# 5 0.002071 -0.000019 0.001944 0.013508 0.032056 -0.008195
# 6 0.001482 0.004379 0.001205 -0.006906 -0.008195 0.029537
#
#
# Mechanical properties :
#
#
# Convention : Reuss Voigt Hill
#
# Bulk Modulus (GPa) = 48.60761 70.79349 59.70055
# Shear Modulus (GPa) = 33.93743 44.82432 39.38088
#
# Velocity S-wave (km/s) = 3.69947 4.25164 3.98513
# Velocity P-wave (km/s) = 6.15226 7.25611 6.72686
#
# Compressibility (1/GPa) = 0.02057291
#
# Stress axis : x y z
#
# Youngs Moduli (GPa) = 57.38940 118.45082 126.37849
#
# Poissons Ratio (x) = 0.42909 0.21946
# Poissons Ratio (y) = 0.20789 0.15727
# Poissons Ratio (z) = 0.09966 0.14741
#
# Static dielectric constant tensor:
#      x y z
#    x 2.502660 -0.040690 -0.072670 
#    y -0.040690 2.034740 0.030080 
#    z -0.072670 0.030080 2.034900 
# 
# From -- ./inp_files/484222.got.cif
#   From: 2010.05.17/outbox.cif.g08.bks.cpg/sg2_243_cif.got.tgz:484222.got - 2010.06.03 11:33:40.
