data_PCOD9038841
_publ_section_title
;
Structure prediction by ZEFSAII (Michael W. Deem and Ramdas Pophale) SiO2 
 PCOD9038841
Probable space group: P -1
;
_chemical_formula_sum "Si O2"
_cell_formula_units_Z 16
_cell_length_a 11.381187
_cell_length_b 8.726662
_cell_length_c 14.313649
_cell_angle_alpha 138.018832
_cell_angle_beta 75.689670
_cell_angle_gamma 120.996959
_cell_volume 791.971276
_symmetry_space_group_name_H-M "P -1"
_symmetry_group_IT_number 2
_symmetry_cell_setting 'triclinic'
loop_
_space_group_symop_operation_xyz
x,y,z
-x,-y,-z
loop_
_atom_site_type_symbol
_atom_site_label
_atom_site_fract_x
_atom_site_fract_y
_atom_site_fract_z
Si Si1 0.664272 0.218940 0.571186
Si Si2 0.117538 0.813295 0.621434
Si Si3 0.973452 0.766432 0.181497
Si Si4 0.619675 0.648584 0.681018
Si Si5 0.131291 0.791588 0.344816
Si Si6 0.694878 0.621787 0.438873
Si Si7 0.810269 0.179303 0.979920
Si Si8 0.157697 0.709222 0.764368
O O1 0.753518 0.148049 0.449777
O O2 0.679029 0.494008 0.659130
O O3 0.735171 0.234776 0.664727
O O4 0.500000 0.000000 0.500000
O O5 0.161588 0.874889 0.749223
O O6 0.000000 0.500000 0.500000
O O7 0.056415 0.998268 0.686764
O O8 0.079853 0.761764 0.235175
O O9 0.052832 0.811895 0.088470
O O10 0.836214 0.472806 0.084891
O O11 0.671194 0.667869 0.572704
O O12 0.450757 0.476728 0.631048
O O13 0.677955 0.936275 0.845456
O O14 0.997440 0.556637 0.317399
O O15 0.182106 0.097275 0.497652
O O16 0.737701 0.400685 0.324227
O O17 0.808685 0.150265 0.078335
#
# Coordination Sequence:
#
# PCOD9038841 Si02
#       8
#     2   2   2   2   2   2   2   2
#     4  12  25  40  65 102 134 167 217 280 335 379
#     4  12  23  42  69  98 135 169 223 284 325 387
#     4  10  23  42  64  95 134 174 219 271 329 389
#     4  11  23  43  66  92 133 177 217 269 331 397
#     4  11  22  37  65  97 125 170 215 274 322 383
#     4  11  22  40  68  94 130 171 226 275 320 391
#     4  10  23  42  63  97 132 178 217 265 334 405
#     4  11  24  39  66 101 127 174 220 271 337 388
#
# _framework density 20.202750999999999
#
# number of rings (size 3 to 8) (size 9 to 14) (size 15 to 20)
#    0.000    1.000    5.000    1.875    3.500    1.000 
#    4.500    0.000    0.000    1.500    0.000    0.000 
#    0.000    0.000    0.000    0.000    0.000    0.000 
#
# Total GULP energy -89393.724551 kJ/mol
# GULP energy per Si atom -5587.107784 kJ/mol
# Density = 2.015677 g / cm^3
# Si number density = 20.202751 Si / 1000 Ang^3
#
#
#
# Elastic Constant Matrix: (Units=GPa)
#
#
# Indices 1 2 3 4 5 6 
#
# 1 104.4163 25.9911 41.5768 -1.0054 8.6296 -11.2081
# 2 25.9911 62.6659 43.2793 -8.4487 11.2781 -1.5684
# 3 41.5768 43.2793 119.0470 -2.0444 17.8635 -4.6618
# 4 -1.0054 -8.4487 -2.0444 36.5308 -8.1268 -1.8646
# 5 8.6296 11.2781 17.8635 -8.1268 18.6419 -2.9635
# 6 -11.2081 -1.5684 -4.6618 -1.8646 -2.9635 37.5707
#
#
#
# Elastic Compliance Matrix: (Units=1/GPa)
#
#
# Indices 1 2 3 4 5 6 
#
# 1 0.011790 -0.002743 -0.002898 -0.000491 -0.000765 0.002958
# 2 -0.002743 0.023052 -0.006676 0.003776 -0.004772 -0.000873
# 3 -0.002898 -0.006676 0.013035 -0.002773 -0.008371 -0.000324
# 4 -0.000491 0.003776 -0.002773 0.031471 0.014699 0.002388
# 5 -0.000765 -0.004772 -0.008371 0.014699 0.072100 0.004951
# 6 0.002958 -0.000873 -0.000324 0.002388 0.004951 0.027931
#
#
# Mechanical properties :
#
#
# Convention : Reuss Voigt Hill
#
# Bulk Modulus (GPa) = 43.02382 56.42485 49.72434
# Shear Modulus (GPa) = 23.61164 30.23414 26.92289
#
# Velocity S-wave (km/s) = 3.42238 3.87271 3.65449
# Velocity P-wave (km/s) = 6.07941 6.92727 6.51714
#
# Compressibility (1/GPa) = 0.02324294
#
# Stress axis : x y z
#
# Youngs Moduli (GPa) = 84.81867 43.38041 76.71671
#
# Poissons Ratio (x) = 0.11898 0.22234
# Poissons Ratio (y) = 0.23264 0.51215
# Poissons Ratio (z) = 0.24582 0.28960
#
# Static dielectric constant tensor:
#      x y z
#    x 1.702790 -0.014740 0.020430 
#    y -0.014740 1.763420 -0.012490 
#    z 0.020430 -0.012490 1.730180 
# 
# From -- ./inp_files/516385.got.cif
#   From: 2010.05.17/outbox.cif.g08.bks.cpg/sg2_259_cif.got.tgz:516385.got - 2010.06.03 11:33:40.
