data_PCOD9038673
_publ_section_title
;
Structure prediction by ZEFSAII (Michael W. Deem and Ramdas Pophale) SiO2 
 PCOD9038673
Probable space group: P -1
;
_chemical_formula_sum "Si O2"
_cell_formula_units_Z 10
_cell_length_a 12.507588
_cell_length_b 10.833078
_cell_length_c 11.150636
_cell_angle_alpha 125.734453
_cell_angle_beta 43.605408
_cell_angle_gamma 155.407978
_cell_volume 418.821529
_symmetry_space_group_name_H-M "P -1"
_symmetry_group_IT_number 2
_symmetry_cell_setting 'triclinic'
loop_
_space_group_symop_operation_xyz
x,y,z
-x,-y,-z
loop_
_atom_site_type_symbol
_atom_site_label
_atom_site_fract_x
_atom_site_fract_y
_atom_site_fract_z
Si Si1 0.367066 0.527884 0.198160
Si Si2 0.594509 0.406704 0.342653
Si Si3 0.792476 0.364647 0.976408
Si Si4 0.044684 0.204073 0.519637
Si Si5 0.207074 0.843293 0.704453
O O1 0.291942 0.418083 0.334216
O O2 0.042084 0.306142 0.275355
O O3 0.626449 0.881093 0.197920
O O4 0.500000 0.500000 0.000000
O O5 0.500000 0.500000 0.500000
O O6 0.858766 0.608478 0.341965
O O7 0.677596 0.435722 0.155844
O O8 0.290567 0.045000 0.406792
O O9 0.989065 0.558751 0.807755
O O10 0.000000 0.500000 0.000000
O O11 0.500000 0.000000 0.000000
O O12 0.000000 0.000000 0.500000
O O13 0.500000 0.000000 0.500000
#
# Coordination Sequence:
#
# PCOD9038673 Si02
#       5
#     2   2   2   2   2
#     4  12  28  48  81 110 151 202 256 314 383 447
#     4  10  23  41  73 102 143 182 250 307 370 424
#     4  12  28  48  77 107 148 202 259 304 370 457
#     4  10  23  41  73 106 145 182 246 305 376 431
#     4  12  30  52  74 111 163 200 249 314 393 454
#
# _framework density 23.876519999999999
#
# number of rings (size 3 to 8) (size 9 to 14) (size 15 to 20)
#    0.000    0.800    0.000    4.800   19.600    0.000 
#    0.000    0.000    0.000    0.000    0.000    0.000 
#    0.000    0.000    0.000    0.000    0.000    0.000 
#
# Total GULP energy -55878.823822 kJ/mol
# GULP energy per Si atom -5587.882382 kJ/mol
# Density = 2.382218 g / cm^3
# Si number density = 23.876520 Si / 1000 Ang^3
#
#
#
# Elastic Constant Matrix: (Units=GPa)
#
#
# Indices 1 2 3 4 5 6 
#
# 1 114.4479 63.1050 44.5798 -6.1819 -1.8332 10.3882
# 2 63.1050 209.1578 76.0574 3.9295 1.0219 37.6905
# 3 44.5798 76.0574 152.1956 -3.5112 17.7220 -21.0158
# 4 -6.1819 3.9295 -3.5112 52.8147 -4.1059 -0.7623
# 5 -1.8332 1.0219 17.7220 -4.1059 34.5583 -2.4221
# 6 10.3882 37.6905 -21.0158 -0.7623 -2.4221 49.5382
#
#
#
# Elastic Compliance Matrix: (Units=1/GPa)
#
#
# Indices 1 2 3 4 5 6 
#
# 1 0.011225 -0.002143 -0.002664 0.001432 0.002074 -0.001730
# 2 -0.002143 0.008831 -0.005152 -0.001253 0.001530 -0.008400
# 3 -0.002664 -0.005152 0.011838 0.000577 -0.005343 0.009249
# 4 0.001432 -0.001253 0.000577 0.019424 0.002217 0.001305
# 5 0.002074 0.001530 -0.005343 0.002217 0.031845 -0.002274
# 6 -0.001730 -0.008400 0.009249 0.001305 -0.002274 0.030773
#
#
# Mechanical properties :
#
#
# Convention : Reuss Voigt Hill
#
# Bulk Modulus (GPa) = 83.51000 93.69840 88.60420
# Shear Modulus (GPa) = 36.27214 46.85285 41.56250
#
# Velocity S-wave (km/s) = 3.90186 4.43459 4.17673
# Velocity P-wave (km/s) = 7.43983 8.09623 7.77496
#
# Compressibility (1/GPa) = 0.01197461
#
# Stress axis : x y z
#
# Youngs Moduli (GPa) = 89.08963 113.23820 84.47230
#
# Poissons Ratio (x) = 0.24268 0.22505
# Poissons Ratio (y) = 0.19092 0.43523
# Poissons Ratio (z) = 0.23735 0.58344
#
# Static dielectric constant tensor:
#      x y z
#    x 2.809500 0.068870 -0.599920 
#    y 0.068870 1.909150 -0.013980 
#    z -0.599920 -0.013980 2.359170 
# 
# From -- ./inp_files/130504.got.cif
#   From: 2010.05.17/outbox.cif.g08.bks.cpg/sg2_66_cif.got.tgz:130504.got - 2010.06.03 11:33:40.
