data_PCOD9038643
_publ_section_title
;
Structure prediction by ZEFSAII (Michael W. Deem and Ramdas Pophale) SiO2 
 PCOD9038643
Probable space group: P -1
;
_chemical_formula_sum "Si O2"
_cell_formula_units_Z 12
_cell_length_a 12.007821
_cell_length_b 11.420100
_cell_length_c 5.222298
_cell_angle_alpha 119.674316
_cell_angle_beta 76.056383
_cell_angle_gamma 132.713229
_cell_volume 452.104885
_symmetry_space_group_name_H-M "P -1"
_symmetry_group_IT_number 2
_symmetry_cell_setting 'triclinic'
loop_
_space_group_symop_operation_xyz
x,y,z
-x,-y,-z
loop_
_atom_site_type_symbol
_atom_site_label
_atom_site_fract_x
_atom_site_fract_y
_atom_site_fract_z
Si Si1 0.693310 0.491324 0.570695
Si Si2 0.236763 0.031364 0.680406
Si Si3 0.245197 0.312195 0.755261
Si Si4 0.161942 0.695271 0.070450
Si Si5 0.983930 0.231386 0.115659
Si Si6 0.444489 0.804998 0.290313
O O1 0.678007 0.561356 0.395083
O O2 0.600665 0.291542 0.512386
O O3 0.875358 0.599811 0.614264
O O4 0.668940 0.576171 0.912157
O O5 0.197952 0.855003 0.394515
O O6 0.106506 0.952229 0.877565
O O7 0.237099 0.145826 0.588501
O O8 0.405768 0.157103 0.844995
O O9 0.075481 0.242152 0.831992
O O10 0.297004 0.696259 0.068096
O O11 0.137000 0.746846 0.866444
O O12 0.000000 0.500000 0.000000
O O13 0.500000 0.000000 0.500000
#
# Coordination Sequence:
#
# PCOD9038643 Si02
#       6
#     2   2   2   2   2   2
#     4  10  23  47  73 108 145 195 241 305 363 440
#     4  11  25  43  72 109 149 188 244 310 368 430
#     4  10  24  45  77 108 149 187 253 295 374 435
#     4  11  22  45  70 103 141 199 243 299 356 441
#     4  10  23  41  72 108 142 192 239 301 362 436
#     4  10  24  49  68 108 148 194 246 303 368 436
#
# _framework density 26.542515000000002
#
# number of rings (size 3 to 8) (size 9 to 14) (size 15 to 20)
#    1.000    0.667    1.667    1.500    2.333    4.000 
#   18.000    0.000    0.000    0.000    0.000    0.000 
#    0.000    0.000    0.000    0.000    0.000    0.000 
#
# Total GULP energy -67118.005350 kJ/mol
# GULP energy per Si atom -5593.167113 kJ/mol
# Density = 2.648210 g / cm^3
# Si number density = 26.542515 Si / 1000 Ang^3
#
#
#
# Elastic Constant Matrix: (Units=GPa)
#
#
# Indices 1 2 3 4 5 6 
#
# 1 109.4365 77.1161 19.4502 9.3117 1.0681 -8.4150
# 2 77.1161 232.0220 60.9840 -16.2124 12.8086 -20.4810
# 3 19.4502 60.9840 73.7691 -9.8677 0.4094 -17.6780
# 4 9.3117 -16.2124 -9.8677 43.9341 6.7021 13.5146
# 5 1.0681 12.8086 0.4094 6.7021 18.1931 -0.8917
# 6 -8.4150 -20.4810 -17.6780 13.5146 -0.8917 45.2699
#
#
#
# Elastic Compliance Matrix: (Units=1/GPa)
#
#
# Indices 1 2 3 4 5 6 
#
# 1 0.013228 -0.004988 0.000337 -0.006027 0.005058 0.002232
# 2 -0.004988 0.007799 -0.004689 0.004069 -0.006620 -0.000575
# 3 0.000337 -0.004689 0.018610 0.000332 0.002994 0.005168
# 4 -0.006027 0.004069 0.000332 0.030384 -0.014128 -0.008499
# 5 0.005058 -0.006620 0.002994 -0.014128 0.064692 0.004606
# 6 0.002232 -0.000575 0.005168 -0.008499 0.004606 0.026891
#
#
# Mechanical properties :
#
#
# Convention : Reuss Voigt Hill
#
# Bulk Modulus (GPa) = 47.71960 81.14757 64.43358
# Shear Modulus (GPa) = 26.69919 38.65790 32.67854
#
# Velocity S-wave (km/s) = 3.17504 3.82049 3.51262
# Velocity P-wave (km/s) = 5.60881 7.07817 6.38589
#
# Compressibility (1/GPa) = 0.02095575
#
# Stress axis : x y z
#
# Youngs Moduli (GPa) = 75.59648 128.21529 53.73523
#
# Poissons Ratio (x) = 0.63958 -0.01810
# Poissons Ratio (y) = 0.37710 0.25197
# Poissons Ratio (z) = -0.02546 0.60122
#
# Static dielectric constant tensor:
#      x y z
#    x 2.122590 -0.010340 -0.009300 
#    y -0.010340 2.046200 0.016810 
#    z -0.009300 0.016810 2.191720 
# 
# From -- ./inp_files/67610.got.cif
#   From: 2010.05.17/outbox.cif.g08.bks.cpg/sg2_34_cif.got.tgz:67610.got - 2010.06.03 11:33:40.
