data_PCOD9038208
_publ_section_title
;
Structure prediction by ZEFSAII (Michael W. Deem and Ramdas Pophale) SiO2 
 PCOD9038208
Probable space group: P -1
;
_chemical_formula_sum "Si O2"
_cell_formula_units_Z 14
_cell_length_a 5.230161
_cell_length_b 19.550527
_cell_length_c 9.357921
_cell_angle_alpha 111.247144
_cell_angle_beta 125.882745
_cell_angle_gamma 59.582045
_cell_volume 665.604751
_symmetry_space_group_name_H-M "P -1"
_symmetry_group_IT_number 2
_symmetry_cell_setting 'triclinic'
loop_
_space_group_symop_operation_xyz
x,y,z
-x,-y,-z
loop_
_atom_site_type_symbol
_atom_site_label
_atom_site_fract_x
_atom_site_fract_y
_atom_site_fract_z
Si Si1 0.464806 0.306315 0.102371
Si Si2 0.393360 0.084334 0.953700
Si Si3 0.230076 0.050165 0.566240
Si Si4 0.285011 0.817400 0.690282
Si Si5 0.386379 0.592217 0.565912
Si Si6 0.164821 0.749569 0.110922
Si Si7 0.620585 0.689100 0.490556
O O1 0.751842 0.243816 0.253610
O O2 0.396061 0.389562 0.220499
O O3 0.612964 0.295742 0.985298
O O4 0.141090 0.280950 0.983713
O O5 0.409582 0.067886 0.777853
O O6 0.018310 0.155286 0.906453
O O7 0.637652 0.120706 0.137483
O O8 0.500000 0.000000 0.000000
O O9 0.006117 0.132704 0.476939
O O10 0.500000 0.000000 0.500000
O O11 0.000000 0.000000 0.500000
O O12 0.591154 0.758766 0.646892
O O13 0.500000 0.500000 0.500000
O O14 0.445533 0.637542 0.480116
O O15 0.995324 0.630861 0.520693
O O16 0.402328 0.731103 0.313089
#
# Coordination Sequence:
#
# PCOD9038208 Si02
#       7
#     2   2   2   2   2   2   2
#     4  10  23  41  67  91 132 168 221 263 334 390
#     4  11  23  42  66  93 132 174 224 275 331 371
#     4  12  27  42  62  93 131 168 225 279 332 378
#     4  10  23  44  65  93 128 179 221 272 323 395
#     4  11  23  43  69  99 132 172 214 267 337 401
#     4  11  23  43  65  98 128 176 223 276 316 396
#     4  11  23  43  69  97 132 174 221 267 329 399
#
# _framework density 21.033503
#
# number of rings (size 3 to 8) (size 9 to 14) (size 15 to 20)
#    0.000    1.143    2.857    3.857    2.000    5.143 
#    0.000    4.286    0.000    0.000    0.000    0.000 
#    0.000    0.000    0.000    0.000    0.000    0.000 
#
# Total GULP energy -78189.540674 kJ/mol
# GULP energy per Si atom -5584.967191 kJ/mol
# Density = 2.098563 g / cm^3
# Si number density = 21.033503 Si / 1000 Ang^3
#
#
#
# Elastic Constant Matrix: (Units=GPa)
#
#
# Indices 1 2 3 4 5 6 
#
# 1 121.0293 29.4279 29.8321 11.9326 -20.6922 -12.3672
# 2 29.4279 97.3237 44.6018 38.2089 -1.0412 -10.4080
# 3 29.8321 44.6018 154.4339 12.4271 -27.7988 -2.2217
# 4 11.9326 38.2089 12.4271 35.9499 -3.9382 -0.5184
# 5 -20.6922 -1.0412 -27.7988 -3.9382 25.9210 2.2038
# 6 -12.3672 -10.4080 -2.2217 -0.5184 2.2038 27.1941
#
#
#
# Elastic Compliance Matrix: (Units=1/GPa)
#
#
# Indices 1 2 3 4 5 6 
#
# 1 0.010682 -0.003395 0.000467 0.000905 0.008782 0.002902
# 2 -0.003395 0.024495 -0.006774 -0.023908 -0.013295 0.007899
# 3 0.000467 -0.006774 0.010044 0.004832 0.011813 -0.002425
# 4 0.000905 -0.023908 0.004832 0.052630 0.013659 -0.008447
# 5 0.008782 -0.013295 0.011813 0.013659 0.060202 -0.004748
# 6 0.002902 0.007899 -0.002425 -0.008447 -0.004748 0.041141
#
#
# Mechanical properties :
#
#
# Convention : Reuss Voigt Hill
#
# Bulk Modulus (GPa) = 38.73570 64.50115 51.61843
# Shear Modulus (GPa) = 22.00671 35.74134 28.87403
#
# Velocity S-wave (km/s) = 3.23812 4.12668 3.70910
# Velocity P-wave (km/s) = 5.69532 7.31016 6.55268
#
# Compressibility (1/GPa) = 0.02581598
#
# Stress axis : x y z
#
# Youngs Moduli (GPa) = 93.61931 40.82549 99.56074
#
# Poissons Ratio (x) = 0.13859 -0.04647
# Poissons Ratio (y) = 0.31781 0.67444
# Poissons Ratio (z) = -0.04370 0.27656
#
# Static dielectric constant tensor:
#      x y z
#    x 1.780800 0.019970 0.032800 
#    y 0.019970 1.797580 0.025900 
#    z 0.032800 0.025900 1.746390 
# 
# From -- ./inp_files/85263.got.cif
#   From: 2010.05.17/outbox.cif.g08.bks.cpg/sg2_43_cif.got.tgz:85263.got - 2010.06.03 11:33:40.
