data_PCOD9038588
_publ_section_title
;
Structure prediction by ZEFSAII (Michael W. Deem and Ramdas Pophale) SiO2 
 PCOD9038588
Probable space group: P -1
;
_chemical_formula_sum "Si O2"
_cell_formula_units_Z 16
_cell_length_a 7.656275
_cell_length_b 14.931581
_cell_length_c 8.715839
_cell_angle_alpha 95.498858
_cell_angle_beta 131.141187
_cell_angle_gamma 62.243795
_cell_volume 630.018311
_symmetry_space_group_name_H-M "P -1"
_symmetry_group_IT_number 2
_symmetry_cell_setting 'triclinic'
loop_
_space_group_symop_operation_xyz
x,y,z
-x,-y,-z
loop_
_atom_site_type_symbol
_atom_site_label
_atom_site_fract_x
_atom_site_fract_y
_atom_site_fract_z
Si Si1 0.152941 0.760018 0.919702
Si Si2 0.308745 0.410949 0.202018
Si Si3 0.180210 0.280472 0.882539
Si Si4 0.851221 0.127614 0.586144
Si Si5 0.108287 0.697246 0.556965
Si Si6 0.766103 0.052978 0.006302
Si Si7 0.399189 0.669196 0.338651
Si Si8 0.406981 0.090328 0.185501
O O1 0.078855 0.717380 0.722259
O O2 0.867415 0.833176 0.858786
O O3 0.269223 0.834928 0.960173
O O4 0.381321 0.666870 0.145871
O O5 0.584626 0.406659 0.311729
O O6 0.351834 0.394719 0.408628
O O7 0.328606 0.318736 0.087914
O O8 0.000000 0.500000 0.000000
O O9 0.126636 0.305238 0.674821
O O10 0.859104 0.339374 0.760702
O O11 0.321850 0.156169 0.987238
O O12 0.892369 0.202452 0.506185
O O13 0.701098 0.208506 0.655913
O O14 0.655339 0.092394 0.401283
O O15 0.110253 0.022019 0.785648
O O16 0.547410 0.026024 0.812939
O O17 0.000000 0.000000 0.000000
#
# Coordination Sequence:
#
# PCOD9038588 Si02
#       8
#     2   2   2   2   2   2   2   2
#     4  10  21  36  50  82 119 146 174 231 273 307
#     4  10  20  37  64  84  99 137 187 225 265 341
#     4   9  16  35  58  78 103 144 179 218 270 328
#     4  10  17  33  54  76 100 150 193 221 250 315
#     4  10  21  36  54  81 116 140 174 228 283 315
#     4  10  18  32  52  77 110 148 197 219 248 313
#     4   9  18  34  57  77 109 142 179 219 271 320
#     4  10  17  34  57  75 104 152 195 216 257 311
#
# _framework density 25.396087999999999
#
# number of rings (size 3 to 8) (size 9 to 14) (size 15 to 20)
#    0.000    2.500    7.500    0.000    0.000    4.500 
#    2.250    1.250    0.000    3.750    0.000    0.000 
#    0.000    0.000    0.000    0.000    0.000    0.000 
#
# Total GULP energy -89332.961303 kJ/mol
# GULP energy per Si atom -5583.310081 kJ/mol
# Density = 2.533829 g / cm^3
# Si number density = 25.396088 Si / 1000 Ang^3
#
#
#
# Elastic Constant Matrix: (Units=GPa)
#
#
# Indices 1 2 3 4 5 6 
#
# 1 51.0305 3.8083 23.2875 2.5744 3.2203 -6.7992
# 2 3.8083 34.3112 13.9869 -8.6863 -2.9395 -9.4229
# 3 23.2875 13.9869 188.4313 2.1440 -5.3333 2.6422
# 4 2.5744 -8.6863 2.1440 47.1794 -5.4896 9.1806
# 5 3.2203 -2.9395 -5.3333 -5.4896 49.1209 7.0445
# 6 -6.7992 -9.4229 2.6422 9.1806 7.0445 22.4799
#
#
#
# Elastic Compliance Matrix: (Units=1/GPa)
#
#
# Indices 1 2 3 4 5 6 
#
# 1 0.022660 0.000249 -0.003020 -0.003381 -0.003584 0.009817
# 2 0.000249 0.034983 -0.002852 0.003994 0.000299 0.013349
# 3 -0.003020 -0.002852 0.005968 0.000130 0.001152 -0.003224
# 4 -0.003381 0.003994 0.000130 0.024814 0.004827 -0.011010
# 5 -0.003584 0.000299 0.001152 0.004827 0.022737 -0.010190
# 6 0.009817 0.013349 -0.003224 -0.011010 -0.010190 0.061118
#
#
# Mechanical properties :
#
#
# Convention : Reuss Voigt Hill
#
# Bulk Modulus (GPa) = 19.09619 39.54870 29.32245
# Shear Modulus (GPa) = 24.87819 39.26872 32.07345
#
# Velocity S-wave (km/s) = 3.13326 3.93651 3.55763
# Velocity P-wave (km/s) = 4.54153 6.02229 5.33355
#
# Compressibility (1/GPa) = 0.05236647
#
# Stress axis : x y z
#
# Youngs Moduli (GPa) = 44.13016 28.58554 167.55554
#
# Poissons Ratio (x) = -0.00711 0.50595
# Poissons Ratio (y) = -0.01098 0.47780
# Poissons Ratio (z) = 0.13326 0.08151
#
# Static dielectric constant tensor:
#      x y z
#    x 2.127060 -0.080920 -0.029490 
#    y -0.080920 2.105340 0.016590 
#    z -0.029490 0.016590 1.994450 
# 
# From -- ./inp_files/212963.got.cif
#   From: 2010.05.17/outbox.cif.g08.bks.cpg/sg2_107_cif.got.tgz:212963.got - 2010.06.03 11:33:40.
