data_PCOD9038945
_publ_section_title
;
Structure prediction by ZEFSAII (Michael W. Deem and Ramdas Pophale) SiO2 
 PCOD9038945
Probable space group: P -1
;
_chemical_formula_sum "Si O2"
_cell_formula_units_Z 15
_cell_length_a 11.621205
_cell_length_b 13.898063
_cell_length_c 11.607618
_cell_angle_alpha 78.414877
_cell_angle_beta 46.201338
_cell_angle_gamma 42.286224
_cell_volume 698.948146
_symmetry_space_group_name_H-M "P -1"
_symmetry_group_IT_number 2
_symmetry_cell_setting 'triclinic'
loop_
_space_group_symop_operation_xyz
x,y,z
-x,-y,-z
loop_
_atom_site_type_symbol
_atom_site_label
_atom_site_fract_x
_atom_site_fract_y
_atom_site_fract_z
Si Si1 0.629191 0.083718 0.197563
Si Si2 0.887625 0.652103 0.970147
Si Si3 0.838536 0.313047 0.547285
Si Si4 0.667113 0.050518 0.566567
Si Si5 0.663068 0.286941 0.201770
Si Si6 0.635750 0.835385 0.875697
Si Si7 0.500000 0.000000 0.500000
Si Si8 0.445779 0.661272 0.462451
O O1 0.564039 0.231131 0.240039
O O2 0.572042 0.097854 0.097119
O O3 0.449932 0.097641 0.394158
O O4 0.984484 0.882051 0.025366
O O5 0.736833 0.708436 0.937613
O O6 0.198472 0.547139 0.757993
O O7 0.621862 0.837549 0.186073
O O8 0.000000 0.500000 0.000000
O O9 0.539895 0.519544 0.755726
O O10 0.750710 0.302335 0.494280
O O11 0.063508 0.283242 0.365896
O O12 0.024184 0.143449 0.541073
O O13 0.628051 0.187753 0.555752
O O14 0.633902 0.023925 0.470252
O O15 0.615637 0.316489 0.365398
O O16 0.500000 0.000000 0.000000
#
# Coordination Sequence:
#
# PCOD9038945 Si02
#       8
#     2   2   2   2   2   2   1   2
#     4  11  26  46  73  95 143 181 231 283 342 418
#     4  10  23  42  65 101 131 175 227 274 340 398
#     4  12  24  38  69 100 132 172 231 285 338 397
#     4  11  24  44  66 101 136 185 228 278 346 406
#     4  11  25  45  68 105 132 183 227 284 355 398
#     4  12  22  41  71 100 129 178 230 278 337 408
#     4  12  22  46  74  92 138 192 222 280 338 422
#     4  11  23  42  68  96 143 173 226 290 343 405
#
# _framework density 21.460819000000001
#
# number of rings (size 3 to 8) (size 9 to 14) (size 15 to 20)
#    0.000    0.800    5.333    1.600    3.733    0.533 
#    4.800    0.667    0.000    0.000    0.000    0.000 
#    0.000    0.000    0.000    0.000    0.000    0.000 
#
# Total GULP energy -83581.587660 kJ/mol
# GULP energy per Si atom -5572.105844 kJ/mol
# Density = 2.141197 g / cm^3
# Si number density = 21.460819 Si / 1000 Ang^3
#
#
#
# Elastic Constant Matrix: (Units=GPa)
#
#
# Indices 1 2 3 4 5 6 
#
# 1 135.2034 49.0982 17.5855 14.2972 17.5218 -4.1258
# 2 49.0982 142.9861 22.4283 15.5957 10.7493 -9.6118
# 3 17.5855 22.4283 47.0223 13.0835 2.2183 -4.1765
# 4 14.2972 15.5957 13.0835 34.8165 -2.4568 4.3770
# 5 17.5218 10.7493 2.2183 -2.4568 20.9399 -7.5497
# 6 -4.1258 -9.6118 -4.1765 4.3770 -7.5497 35.8836
#
#
#
# Elastic Compliance Matrix: (Units=1/GPa)
#
#
# Indices 1 2 3 4 5 6 
#
# 1 0.009641 -0.002279 -0.001471 -0.002795 -0.007390 -0.000887
# 2 -0.002279 0.008671 -0.002374 -0.002405 -0.001976 0.001662
# 3 -0.001471 -0.002374 0.025555 -0.008341 -0.000095 0.003167
# 4 -0.002795 -0.002405 -0.008341 0.035167 0.006859 -0.004783
# 5 -0.007390 -0.001976 -0.000095 0.006859 0.059477 0.010287
# 6 -0.000887 0.001662 0.003167 -0.004783 0.010287 0.031327
#
#
# Mechanical properties :
#
#
# Convention : Reuss Voigt Hill
#
# Bulk Modulus (GPa) = 31.62526 55.93732 43.78129
# Shear Modulus (GPa) = 25.95697 34.06797 30.01247
#
# Velocity S-wave (km/s) = 3.48157 3.98860 3.74368
# Velocity P-wave (km/s) = 5.56148 6.87993 6.25553
#
# Compressibility (1/GPa) = 0.03162030
#
# Stress axis : x y z
#
# Youngs Moduli (GPa) = 103.71891 115.32532 39.13082
#
# Poissons Ratio (x) = 0.26284 0.05756
# Poissons Ratio (y) = 0.23639 0.09288
# Poissons Ratio (z) = 0.15257 0.27374
#
# Static dielectric constant tensor:
#      x y z
#    x 1.736730 -0.001480 -0.000420 
#    y -0.001480 1.798140 0.013460 
#    z -0.000420 0.013460 1.828330 
# 
# From -- ./inp_files/431385.got.cif
#   From: 2010.05.17/outbox.cif.g08.bks.cpg/sg2_216_cif.got.tgz:431385.got - 2010.06.03 11:33:40.
