data_PCOD9038461
_publ_section_title
;
Structure prediction by ZEFSAII (Michael W. Deem and Ramdas Pophale) SiO2 
 PCOD9038461
Probable space group: P -1
;
_chemical_formula_sum "Si O2"
_cell_formula_units_Z 12
_cell_length_a 10.255228
_cell_length_b 17.789753
_cell_length_c 5.083925
_cell_angle_alpha 97.283648
_cell_angle_beta 86.700248
_cell_angle_gamma 148.935103
_cell_volume 472.370407
_symmetry_space_group_name_H-M "P -1"
_symmetry_group_IT_number 2
_symmetry_cell_setting 'triclinic'
loop_
_space_group_symop_operation_xyz
x,y,z
-x,-y,-z
loop_
_atom_site_type_symbol
_atom_site_label
_atom_site_fract_x
_atom_site_fract_y
_atom_site_fract_z
Si Si1 0.741436 0.903936 0.205342
Si Si2 0.851439 0.516633 0.817410
Si Si3 0.752303 0.633780 0.703009
Si Si4 0.727986 0.052973 0.518767
Si Si5 0.083087 0.159811 0.914261
Si Si6 0.681697 0.347298 0.266848
O O1 0.822177 0.861672 0.289529
O O2 0.629424 0.919813 0.383397
O O3 0.567439 0.800003 0.926032
O O4 0.991151 0.068327 0.136528
O O5 0.808628 0.582526 0.807796
O O6 0.678790 0.381774 0.572226
O O7 0.131947 0.631583 0.747247
O O8 0.809350 0.470515 0.101840
O O9 0.500000 0.500000 0.500000
O O10 0.013979 0.787895 0.587407
O O11 0.708364 0.677532 0.943644
O O12 0.848831 0.092549 0.805035
O O13 0.500000 0.000000 0.500000
#
# Coordination Sequence:
#
# PCOD9038461 Si02
#       6
#     2   2   2   2   2   2
#     4  10  23  43  69  96 136 186 239 299 352 435
#     4  10  24  41  65 104 138 187 242 292 365 431
#     4  11  26  44  70 100 144 189 239 298 365 438
#     4  11  27  42  71 106 139 185 238 303 363 430
#     4  10  24  44  68  99 136 186 243 292 365 430
#     4  10  23  41  69  97 140 187 237 300 360 430
#
# _framework density 25.403794000000001
#
# number of rings (size 3 to 8) (size 9 to 14) (size 15 to 20)
#    0.000    1.667    0.000    1.500   11.667    3.333 
#    0.000    0.000    0.000    0.000    0.000    0.000 
#    0.000    0.000    0.000    0.000    0.000    0.000 
#
# Total GULP energy -67073.862971 kJ/mol
# GULP energy per Si atom -5589.488581 kJ/mol
# Density = 2.534597 g / cm^3
# Si number density = 25.403794 Si / 1000 Ang^3
#
#
#
# Elastic Constant Matrix: (Units=GPa)
#
#
# Indices 1 2 3 4 5 6 
#
# 1 204.7405 74.3659 47.7076 17.1784 5.8794 -27.4997
# 2 74.3659 86.0498 13.3752 19.3165 -1.6643 3.7360
# 3 47.7076 13.3752 96.3812 23.7225 15.7677 -1.6507
# 4 17.1784 19.3165 23.7225 53.5425 -2.1395 -7.5723
# 5 5.8794 -1.6643 15.7677 -2.1395 32.7056 5.0654
# 6 -27.4997 3.7360 -1.6507 -7.5723 5.0654 44.2526
#
#
#
# Elastic Compliance Matrix: (Units=1/GPa)
#
#
# Indices 1 2 3 4 5 6 
#
# 1 0.009796 -0.008813 -0.003984 0.002785 -0.001237 0.007301
# 2 -0.008813 0.020805 0.002686 -0.006994 0.002220 -0.008584
# 3 -0.003984 0.002686 0.014621 -0.006786 -0.006236 -0.002604
# 4 0.002785 -0.006994 -0.006786 0.024267 0.003094 0.005866
# 5 -0.001237 0.002220 -0.006236 0.003094 0.034840 -0.004647
# 6 0.007301 -0.008584 -0.002604 0.005866 -0.004647 0.029298
#
#
# Mechanical properties :
#
#
# Convention : Reuss Voigt Hill
#
# Bulk Modulus (GPa) = 39.99787 73.11877 56.55832
# Shear Modulus (GPa) = 30.82981 42.88166 36.85574
#
# Velocity S-wave (km/s) = 3.48744 4.11299 3.81306
# Velocity P-wave (km/s) = 5.65644 7.16943 6.45740
#
# Compressibility (1/GPa) = 0.02500133
#
# Stress axis : x y z
#
# Youngs Moduli (GPa) = 102.08243 48.06461 68.39647
#
# Poissons Ratio (x) = 0.42358 0.27248
# Poissons Ratio (y) = 0.89962 -0.18373
# Poissons Ratio (z) = 0.40668 -0.12911
#
# Static dielectric constant tensor:
#      x y z
#    x 2.017160 0.035020 -0.063730 
#    y 0.035020 2.058130 -0.039730 
#    z -0.063730 -0.039730 2.077970 
# 
# From -- ./inp_files/28824.got.cif
#   From: 2010.05.17/outbox.cif.g08.bks.cpg/sg2_15_cif.got.tgz:28824.got - 2010.06.03 11:33:40.
