data_PCOD9038823
_publ_section_title
;
Structure prediction by ZEFSAII (Michael W. Deem and Ramdas Pophale) SiO2 
 PCOD9038823
Probable space group: P -1
;
_chemical_formula_sum "Si O2"
_cell_formula_units_Z 10
_cell_length_a 7.603668
_cell_length_b 17.020956
_cell_length_c 15.837931
_cell_angle_alpha 154.513608
_cell_angle_beta 148.118504
_cell_angle_gamma 30.920812
_cell_volume 426.541139
_symmetry_space_group_name_H-M "P -1"
_symmetry_group_IT_number 2
_symmetry_cell_setting 'triclinic'
loop_
_space_group_symop_operation_xyz
x,y,z
-x,-y,-z
loop_
_atom_site_type_symbol
_atom_site_label
_atom_site_fract_x
_atom_site_fract_y
_atom_site_fract_z
Si Si1 0.203980 0.193850 0.925812
Si Si2 0.801435 0.444502 0.142889
Si Si3 0.540909 0.447369 0.225385
Si Si4 0.481936 0.126921 0.533617
Si Si5 0.329488 0.168078 0.330904
O O1 0.859631 0.155084 0.714478
O O2 0.543571 0.990860 0.846146
O O3 0.239070 0.374666 0.063768
O O4 0.136431 0.264028 0.063419
O O5 0.648794 0.404763 0.129937
O O6 0.841379 0.652371 0.375115
O O7 0.500000 0.500000 0.000000
O O8 0.474177 0.676316 0.438858
O O9 0.906605 0.308404 0.289099
O O10 0.427939 0.051480 0.346896
O O11 0.500000 0.000000 0.500000
#
# Coordination Sequence:
#
# PCOD9038823 Si02
#       5
#     2   2   2   2   2
#     4  11  23  40  70  91 120 174 203 252 320 360
#     4   9  22  40  61  95 122 162 204 260 304 360
#     4  10  23  45  63  90 134 155 213 258 303 377
#     4  10  23  42  63  94 130 159 212 258 304 374
#     4  10  23  43  64  94 124 168 203 261 310 362
#
# _framework density 23.444399000000001
#
# number of rings (size 3 to 8) (size 9 to 14) (size 15 to 20)
#    0.000    2.000    0.000    1.200    8.400    8.000 
#    3.600    3.000    0.000    0.000    0.000    0.000 
#    0.000    0.000    0.000    0.000    0.000    0.000 
#
# Total GULP energy -55880.658438 kJ/mol
# GULP energy per Si atom -5588.065844 kJ/mol
# Density = 2.339104 g / cm^3
# Si number density = 23.444399 Si / 1000 Ang^3
#
#
#
# Elastic Constant Matrix: (Units=GPa)
#
#
# Indices 1 2 3 4 5 6 
#
# 1 126.3872 15.7190 55.6788 7.6849 12.7713 16.5106
# 2 15.7190 46.8501 12.4376 4.8393 10.0119 9.7216
# 3 55.6788 12.4376 82.9013 16.0807 14.0421 1.9476
# 4 7.6849 4.8393 16.0807 27.9365 -7.1623 -17.2809
# 5 12.7713 10.0119 14.0421 -7.1623 40.1541 18.3583
# 6 16.5106 9.7216 1.9476 -17.2809 18.3583 34.7923
#
#
#
# Elastic Compliance Matrix: (Units=1/GPa)
#
#
# Indices 1 2 3 4 5 6 
#
# 1 0.012459 -0.000531 -0.007794 -0.003294 0.001966 -0.008001
# 2 -0.000531 0.025834 -0.000448 -0.011760 -0.003123 -0.011135
# 3 -0.007794 -0.000448 0.020632 -0.010845 -0.007007 0.000979
# 4 -0.003294 -0.011760 -0.010845 0.069551 0.002491 0.038687
# 5 0.001966 -0.003123 -0.007007 0.002491 0.035894 -0.017370
# 6 -0.008001 -0.011135 0.000979 0.038687 -0.017370 0.063976
#
#
# Mechanical properties :
#
#
# Convention : Reuss Voigt Hill
#
# Bulk Modulus (GPa) = 24.16641 47.08994 35.62817
# Shear Modulus (GPa) = 19.25421 32.06344 25.65883
#
# Velocity S-wave (km/s) = 2.86889 3.70217 3.31184
# Velocity P-wave (km/s) = 4.61567 6.19711 5.46391
#
# Compressibility (1/GPa) = 0.04137975
#
# Stress axis : x y z
#
# Youngs Moduli (GPa) = 80.26553 38.70842 48.46884
#
# Poissons Ratio (x) = 0.02054 0.37776
# Poissons Ratio (y) = 0.04258 0.02171
# Poissons Ratio (z) = 0.62559 0.01734
#
# Static dielectric constant tensor:
#      x y z
#    x 1.938890 -0.059020 -0.015410 
#    y -0.059020 1.926940 0.031130 
#    z -0.015410 0.031130 1.939690 
# 
# From -- ./inp_files/19970.got.cif
#   From: 2010.05.17/outbox.cif.g08.bks.cpg/sg2_10_cif.got.tgz:19970.got - 2010.06.03 11:33:40.
