data_PCOD9038314
_publ_section_title
;
Structure prediction by ZEFSAII (Michael W. Deem and Ramdas Pophale) SiO2 
 PCOD9038314
Probable space group: P -1
;
_chemical_formula_sum "Si O2"
_cell_formula_units_Z 14
_cell_length_a 6.807777
_cell_length_b 17.009926
_cell_length_c 9.025861
_cell_angle_alpha 52.237068
_cell_angle_beta 78.569676
_cell_angle_gamma 47.652591
_cell_volume 568.101520
_symmetry_space_group_name_H-M "P -1"
_symmetry_group_IT_number 2
_symmetry_cell_setting 'triclinic'
loop_
_space_group_symop_operation_xyz
x,y,z
-x,-y,-z
loop_
_atom_site_type_symbol
_atom_site_label
_atom_site_fract_x
_atom_site_fract_y
_atom_site_fract_z
Si Si1 0.777364 0.961100 0.445224
Si Si2 0.956550 0.707894 0.180742
Si Si3 0.367810 0.767521 0.750571
Si Si4 0.492012 0.995798 0.181655
Si Si5 0.421608 0.259085 0.553642
Si Si6 0.293406 0.654865 0.436511
Si Si7 0.497530 0.475419 0.857758
O O1 0.072137 0.838515 0.630124
O O2 0.500000 0.000000 0.500000
O O3 0.705331 0.101920 0.315166
O O4 0.767083 0.929868 0.312047
O O5 0.824044 0.682652 0.356322
O O6 0.080998 0.748115 0.225436
O O7 0.219644 0.575044 0.199234
O O8 0.743045 0.835552 0.950393
O O9 0.599158 0.693768 0.666844
O O10 0.465142 0.656044 0.990159
O O11 0.428819 0.901066 0.320844
O O12 0.500000 0.000000 0.000000
O O13 0.591310 0.282142 0.592992
O O14 0.500000 0.500000 0.500000
O O15 0.235581 0.609755 0.645734
O O16 0.500000 0.500000 0.000000
#
# Coordination Sequence:
#
# PCOD9038314 Si02
#       7
#     2   2   2   2   2   2   2
#     4  11  23  44  69 103 143 178 225 285 357 410
#     4  10  25  46  68  99 143 179 223 296 343 409
#     4  11  25  42  75 100 142 181 231 291 344 411
#     4  10  23  41  68 105 139 175 223 278 355 420
#     4  11  23  43  70 106 130 189 230 274 358 415
#     4  10  24  45  69  93 142 183 234 283 336 405
#     4  11  23  44  68 100 130 183 237 284 334 404
#
# _framework density 24.643484999999998
#
# number of rings (size 3 to 8) (size 9 to 14) (size 15 to 20)
#    0.000    1.429    2.857    0.857    6.000    7.429 
#    2.571    2.143    0.000    0.000    0.000    0.000 
#    0.000    0.000    0.000    0.000    0.000    0.000 
#
# Total GULP energy -77995.820661 kJ/mol
# GULP energy per Si atom -5571.130047 kJ/mol
# Density = 2.458740 g / cm^3
# Si number density = 24.643485 Si / 1000 Ang^3
#
#
#
# Elastic Constant Matrix: (Units=GPa)
#
#
# Indices 1 2 3 4 5 6 
#
# 1 96.5597 28.0113 39.8823 1.6207 -3.5002 21.8141
# 2 28.0113 83.6208 20.9285 16.8034 -2.4190 -2.3070
# 3 39.8823 20.9285 133.3492 4.0556 0.1837 -2.5740
# 4 1.6207 16.8034 4.0556 53.5043 -2.4075 -6.1032
# 5 -3.5002 -2.4190 0.1837 -2.4075 41.6133 11.0585
# 6 21.8141 -2.3070 -2.5740 -6.1032 11.0585 44.1508
#
#
#
# Elastic Compliance Matrix: (Units=1/GPa)
#
#
# Indices 1 2 3 4 5 6 
#
# 1 0.015463 -0.004364 -0.004128 0.000352 0.003458 -0.008926
# 2 -0.004364 0.014500 -0.000799 -0.004105 -0.000396 0.002399
# 3 -0.004128 -0.000799 0.008916 -0.000033 -0.001181 0.002809
# 4 0.000352 -0.004105 -0.000033 0.020252 0.000346 0.002322
# 5 0.003458 -0.000396 -0.001181 0.000346 0.026557 -0.008402
# 6 -0.008926 0.002399 0.002809 0.002322 -0.008402 0.029774
#
#
# Mechanical properties :
#
#
# Convention : Reuss Voigt Hill
#
# Bulk Modulus (GPa) = 49.26493 54.57484 51.91989
# Shear Modulus (GPa) = 35.50934 42.83418 39.17176
#
# Velocity S-wave (km/s) = 3.80007 4.17364 3.99123
# Velocity P-wave (km/s) = 6.26805 6.73940 6.50799
#
# Compressibility (1/GPa) = 0.02029841
#
# Stress axis : x y z
#
# Youngs Moduli (GPa) = 64.67087 68.96474 112.16033
#
# Poissons Ratio (x) = 0.30095 0.46295
# Poissons Ratio (y) = 0.28221 0.08961
# Poissons Ratio (z) = 0.26693 0.05510
#
# Static dielectric constant tensor:
#      x y z
#    x 2.034810 -0.164150 0.047820 
#    y -0.164150 2.375200 -0.141880 
#    z 0.047820 -0.141880 2.121110 
# 
# From -- ./inp_files/138499.got.cif
#   From: 2010.05.17/outbox.cif.g08.bks.cpg/sg2_70_cif.got.tgz:138499.got - 2010.06.03 11:33:40.
