data_PCOD9038221
_publ_section_title
;
Structure prediction by ZEFSAII (Michael W. Deem and Ramdas Pophale) SiO2 
 PCOD9038221
Probable space group: P -1
;
_chemical_formula_sum "Si O2"
_cell_formula_units_Z 14
_cell_length_a 22.656193
_cell_length_b 13.776061
_cell_length_c 22.093024
_cell_angle_alpha 23.376728
_cell_angle_beta 167.085912
_cell_angle_gamma 156.497278
_cell_volume 591.734143
_symmetry_space_group_name_H-M "P -1"
_symmetry_group_IT_number 2
_symmetry_cell_setting 'triclinic'
loop_
_space_group_symop_operation_xyz
x,y,z
-x,-y,-z
loop_
_atom_site_type_symbol
_atom_site_label
_atom_site_fract_x
_atom_site_fract_y
_atom_site_fract_z
Si Si1 0.037930 0.771851 0.125220
Si Si2 0.943285 0.641513 0.303072
Si Si3 0.748169 0.039438 0.946912
Si Si4 0.585692 0.883197 0.532435
Si Si5 0.760273 0.546075 0.777316
Si Si6 0.863263 0.293616 0.307093
Si Si7 0.298831 0.983844 0.943818
O O1 0.793673 0.735315 0.853158
O O2 0.000769 0.510751 0.273239
O O3 0.336052 0.860254 0.342774
O O4 0.000000 0.000000 0.000000
O O5 0.000000 0.500000 0.500000
O O6 0.847138 0.443522 0.267398
O O7 0.213150 0.839315 0.434563
O O8 0.733635 0.797056 0.028803
O O9 0.577328 0.199851 0.646208
O O10 0.070391 0.178123 0.189829
O O11 0.656200 0.983428 0.956228
O O12 0.500000 0.500000 0.500000
O O13 0.000000 0.500000 0.000000
O O14 0.722317 0.311555 0.919383
O O15 0.037137 0.087904 0.608542
O O16 0.553522 0.148499 0.067698
#
# Coordination Sequence:
#
# PCOD9038221 Si02
#       7
#     2   2   2   2   2   2   2
#     4  12  25  42  65  88 132 180 230 254 308 390
#     4  12  25  39  64 102 138 169 199 265 342 391
#     4  11  24  41  67  99 134 168 215 266 332 397
#     4  12  25  42  62  96 128 177 214 267 316 379
#     4  10  23  41  67  94 129 173 218 259 324 396
#     4  12  25  41  66  95 134 172 216 267 324 388
#     4  11  24  42  66  98 131 169 210 277 329 382
#
# _framework density 23.659272000000001
#
# number of rings (size 3 to 8) (size 9 to 14) (size 15 to 20)
#    0.000    0.571    4.286    3.857    8.000    1.143 
#    0.000    0.000    0.000    5.143    0.000    0.000 
#    0.000    0.000    0.000    0.000    0.000    0.000 
#
# Total GULP energy -78265.482531 kJ/mol
# GULP energy per Si atom -5590.391609 kJ/mol
# Density = 2.360542 g / cm^3
# Si number density = 23.659272 Si / 1000 Ang^3
#
#
#
# Elastic Constant Matrix: (Units=GPa)
#
#
# Indices 1 2 3 4 5 6 
#
# 1 59.5465 10.9369 15.5306 -0.5819 -3.0585 21.2279
# 2 10.9369 102.3057 11.0111 0.7512 3.4371 22.5778
# 3 15.5306 11.0111 108.2866 5.7405 -11.5387 -4.1635
# 4 -0.5819 0.7512 5.7405 41.9525 13.2555 0.6391
# 5 -3.0585 3.4371 -11.5387 13.2555 33.1274 -0.1768
# 6 21.2279 22.5778 -4.1635 0.6391 -0.1768 42.8981
#
#
#
# Elastic Compliance Matrix: (Units=1/GPa)
#
#
# Indices 1 2 3 4 5 6 
#
# 1 0.021728 0.000572 -0.003631 0.000876 0.000270 -0.011418
# 2 0.000572 0.011395 -0.001756 0.000806 -0.002098 -0.006472
# 3 -0.003631 -0.001756 0.010761 -0.003082 0.004849 0.003831
# 4 0.000876 0.000806 -0.003082 0.028187 -0.012364 -0.001628
# 5 0.000270 -0.002098 0.004849 -0.012364 0.037075 0.001778
# 6 -0.011418 -0.006472 0.003831 -0.001628 0.001778 0.032771
#
#
# Mechanical properties :
#
#
# Convention : Reuss Voigt Hill
#
# Bulk Modulus (GPa) = 29.19249 38.34399 33.76824
# Shear Modulus (GPa) = 30.68135 39.10628 34.89382
#
# Velocity S-wave (km/s) = 3.60502 4.06999 3.84454
# Velocity P-wave (km/s) = 5.44919 6.19099 5.83190
#
# Compressibility (1/GPa) = 0.03425539
#
# Stress axis : x y z
#
# Youngs Moduli (GPa) = 46.02291 87.75595 92.92426
#
# Poissons Ratio (x) = -0.05021 0.33742
# Poissons Ratio (y) = -0.02633 0.16316
# Poissons Ratio (z) = 0.16712 0.15409
#
# Static dielectric constant tensor:
#      x y z
#    x 2.078300 -0.177530 0.105540 
#    y -0.177530 2.051520 -0.132100 
#    z 0.105540 -0.132100 2.034160 
# 
# From -- ./inp_files/548931.got.cif
#   From: 2010.05.17/outbox.cif.g08.bks.cpg/sg2_275_cif.got.tgz:548931.got - 2010.06.03 11:33:40.
