data_PCOD9038079
_publ_section_title
;
Structure prediction by ZEFSAII (Michael W. Deem and Ramdas Pophale) SiO2 
 PCOD9038079
Probable space group: P -1
;
_chemical_formula_sum "Si O2"
_cell_formula_units_Z 14
_cell_length_a 5.021220
_cell_length_b 9.379483
_cell_length_c 13.850973
_cell_angle_alpha 103.438572
_cell_angle_beta 72.987441
_cell_angle_gamma 81.511668
_cell_volume 590.179281
_symmetry_space_group_name_H-M "P -1"
_symmetry_group_IT_number 2
_symmetry_cell_setting 'triclinic'
loop_
_space_group_symop_operation_xyz
x,y,z
-x,-y,-z
loop_
_atom_site_type_symbol
_atom_site_label
_atom_site_fract_x
_atom_site_fract_y
_atom_site_fract_z
Si Si1 0.480393 0.616604 0.107833
Si Si2 0.049084 0.825866 0.859503
Si Si3 0.031576 0.505495 0.819295
Si Si4 0.679146 0.124384 0.981580
Si Si5 0.509563 0.856164 0.540974
Si Si6 0.927188 0.782110 0.641759
Si Si7 0.235561 0.468601 0.585268
O O1 0.774176 0.580796 0.129308
O O2 0.406604 0.776360 0.088072
O O3 0.218311 0.579452 0.190984
O O4 0.500000 0.500000 0.000000
O O5 0.913345 0.683302 0.884034
O O6 0.992111 0.816615 0.750319
O O7 0.306897 0.788669 0.905281
O O8 0.979370 0.007831 0.908210
O O9 0.240928 0.499244 0.704112
O O10 0.500000 0.000000 0.000000
O O11 0.195825 0.823141 0.565902
O O12 0.738778 0.708373 0.455627
O O13 0.500000 0.000000 0.500000
O O14 0.370675 0.133559 0.361136
O O15 0.962642 0.600639 0.604253
O O16 0.500000 0.500000 0.500000
#
# Coordination Sequence:
#
# PCOD9038079 Si02
#       7
#     2   2   2   2   2   2   2
#     4  12  25  43  67  96 139 174 226 277 336 393
#     4  10  24  41  63  95 126 172 227 265 331 397
#     4  11  25  43  70 100 131 182 224 277 335 400
#     4  11  25  41  66  91 135 177 221 278 333 395
#     4  11  23  40  65  94 131 163 206 275 333 384
#     4  10  23  41  66  90 124 172 215 262 322 401
#     4   9  22  44  69  98 134 172 227 271 331 400
#
# _framework density 23.721603999999999
#
# number of rings (size 3 to 8) (size 9 to 14) (size 15 to 20)
#    0.000    1.429    1.429    2.143    6.000   10.286 
#    0.000    0.000    0.000    0.000    0.000    0.000 
#    0.000    0.000    0.000    0.000    0.000    0.000 
#
# Total GULP energy -77971.076933 kJ/mol
# GULP energy per Si atom -5569.362638 kJ/mol
# Density = 2.366761 g / cm^3
# Si number density = 23.721604 Si / 1000 Ang^3
#
#
#
# Elastic Constant Matrix: (Units=GPa)
#
#
# Indices 1 2 3 4 5 6 
#
# 1 104.9634 30.5111 4.8978 -12.3662 13.0496 -5.6841
# 2 30.5111 169.0918 17.9900 -34.1782 14.7952 -15.8260
# 3 4.8978 17.9900 66.1239 -4.5813 14.3450 -4.0503
# 4 -12.3662 -34.1782 -4.5813 29.7171 3.0091 9.3944
# 5 13.0496 14.7952 14.3450 3.0091 31.5087 -8.5066
# 6 -5.6841 -15.8260 -4.0503 9.3944 -8.5066 41.3284
#
#
#
# Elastic Compliance Matrix: (Units=1/GPa)
#
#
# Indices 1 2 3 4 5 6 
#
# 1 0.010840 -0.000744 0.000783 0.004554 -0.005151 -0.000813
# 2 -0.000744 0.008467 -0.000636 0.009780 -0.004322 -0.000035
# 3 0.000783 -0.000636 0.017253 0.003417 -0.008467 -0.000964
# 4 0.004554 0.009780 0.003417 0.052218 -0.015834 -0.010423
# 5 -0.005151 -0.004322 -0.008467 -0.015834 0.043811 0.009424
# 6 -0.000813 -0.000035 -0.000964 -0.010423 0.009424 0.028286
#
#
# Mechanical properties :
#
#
# Convention : Reuss Voigt Hill
#
# Bulk Modulus (GPa) = 28.27595 49.66410 38.97002
# Shear Modulus (GPa) = 28.75919 39.62952 34.19435
#
# Velocity S-wave (km/s) = 3.48568 4.09174 3.80081
# Velocity P-wave (km/s) = 5.30525 6.58064 5.97706
#
# Compressibility (1/GPa) = 0.03536575
#
# Stress axis : x y z
#
# Youngs Moduli (GPa) = 92.25269 118.09936 57.96248
#
# Poissons Ratio (x) = 0.08788 -0.04537
# Poissons Ratio (y) = 0.06864 0.03684
# Poissons Ratio (z) = -0.07220 0.07506
#
# Static dielectric constant tensor:
#      x y z
#    x 1.956460 0.008340 -0.003130 
#    y 0.008340 1.894260 0.040450 
#    z -0.003130 0.040450 2.068270 
# 
# From -- ./inp_files/480487.got.cif
#   From: 2010.05.17/outbox.cif.g08.bks.cpg/sg2_241_cif.got.tgz:480487.got - 2010.06.03 11:33:40.
