data_PCOD9038886
_publ_section_title
;
Structure prediction by ZEFSAII (Michael W. Deem and Ramdas Pophale) SiO2 
 PCOD9038886
Probable space group: P -1
;
_chemical_formula_sum "Si O2"
_cell_formula_units_Z 16
_cell_length_a 8.766808
_cell_length_b 5.044698
_cell_length_c 16.013835
_cell_angle_alpha 82.941015
_cell_angle_beta 104.526400
_cell_angle_gamma 106.367093
_cell_volume 656.762981
_symmetry_space_group_name_H-M "P -1"
_symmetry_group_IT_number 2
_symmetry_cell_setting 'triclinic'
loop_
_space_group_symop_operation_xyz
x,y,z
-x,-y,-z
loop_
_atom_site_type_symbol
_atom_site_label
_atom_site_fract_x
_atom_site_fract_y
_atom_site_fract_z
Si Si1 0.064139 0.509254 0.847248
Si Si2 0.137158 0.089479 0.748626
Si Si3 0.550279 0.015092 0.291141
Si Si4 0.627243 0.407361 0.578806
Si Si5 0.276773 0.914687 0.127684
Si Si6 0.208127 0.775841 0.550025
Si Si7 0.672063 0.517110 0.977312
Si Si8 0.086022 0.172514 0.413696
O O1 0.062846 0.815731 0.805556
O O2 0.890149 0.296087 0.853834
O O3 0.136669 0.362413 0.788019
O O4 0.191251 0.538189 0.939372
O O5 0.023817 0.053319 0.652821
O O6 0.315276 0.075096 0.743245
O O7 0.461993 0.786721 0.354205
O O8 0.406656 0.055644 0.211401
O O9 0.658898 0.239762 0.361256
O O10 0.500000 0.500000 0.500000
O O11 0.725895 0.284132 0.527738
O O12 0.764619 0.655951 0.626777
O O13 0.354663 0.717893 0.088132
O O14 0.255054 0.175096 0.061591
O O15 0.034566 0.651399 0.574986
O O16 0.171518 0.072280 0.509413
O O17 0.500000 0.500000 0.000000
#
# Coordination Sequence:
#
# PCOD9038886 Si02
#       8
#     2   2   2   2   2   2   2   2
#     4  12  25  48  72 103 138 180 228 281 341 410
#     4  11  26  44  70 100 139 183 228 284 340 408
#     4  11  25  44  62 102 133 178 229 284 347 401
#     4  12  24  39  66  95 130 182 229 292 345 407
#     4  12  26  44  73 107 137 180 227 282 336 409
#     4  10  23  43  62  91 134 178 233 281 340 413
#     4  12  25  47  75 104 142 179 221 277 346 416
#     4  10  23  42  64  93 130 184 232 278 345 400
#
# _framework density 24.361910000000002
#
# number of rings (size 3 to 8) (size 9 to 14) (size 15 to 20)
#    0.000    0.750    1.250    5.625    3.500    3.000 
#    0.000    0.000    0.000    0.000    0.000    0.000 
#    0.000    0.000    0.000    0.000    0.000    0.000 
#
# Total GULP energy -89485.667282 kJ/mol
# GULP energy per Si atom -5592.854205 kJ/mol
# Density = 2.430646 g / cm^3
# Si number density = 24.361910 Si / 1000 Ang^3
#
#
#
# Elastic Constant Matrix: (Units=GPa)
#
#
# Indices 1 2 3 4 5 6 
#
# 1 92.1664 8.3895 30.4133 -8.1022 8.3660 25.7857
# 2 8.3895 67.5846 19.9342 -15.0156 -0.7526 -2.8572
# 3 30.4133 19.9342 109.0044 -4.3600 12.0470 5.5563
# 4 -8.1022 -15.0156 -4.3600 30.9011 7.4400 -1.2436
# 5 8.3660 -0.7526 12.0470 7.4400 39.8791 3.8396
# 6 25.7857 -2.8572 5.5563 -1.2436 3.8396 30.4873
#
#
#
# Elastic Compliance Matrix: (Units=1/GPa)
#
#
# Indices 1 2 3 4 5 6 
#
# 1 0.016016 -0.000838 -0.003348 0.003231 -0.001748 -0.012663
# 2 -0.000838 0.017683 -0.002782 0.008233 -0.000501 0.003272
# 3 -0.003348 -0.002782 0.010870 -0.000003 -0.002723 0.000932
# 4 0.003231 0.008233 -0.000003 0.039132 -0.007883 0.000628
# 5 -0.001748 -0.000501 -0.002723 -0.007883 0.027910 -0.001909
# 6 -0.012663 0.003272 0.000932 0.000628 -0.001909 0.043913
#
#
# Mechanical properties :
#
#
# Convention : Reuss Voigt Hill
#
# Bulk Modulus (GPa) = 32.64318 42.91439 37.77878
# Shear Modulus (GPa) = 27.82876 34.25472 31.04174
#
# Velocity S-wave (km/s) = 3.38347 3.75384 3.57345
# Velocity P-wave (km/s) = 5.35651 6.03672 5.70676
#
# Compressibility (1/GPa) = 0.03063427
#
# Stress axis : x y z
#
# Youngs Moduli (GPa) = 62.43637 56.55266 91.99574
#
# Poissons Ratio (x) = 0.04737 0.30797
# Poissons Ratio (y) = 0.05230 0.25594
# Poissons Ratio (z) = 0.20901 0.15734
#
# Static dielectric constant tensor:
#      x y z
#    x 1.962190 -0.014720 -0.026280 
#    y -0.014720 2.046820 0.044710 
#    z -0.026280 0.044710 1.974610 
# 
# From -- ./inp_files/356332.got.cif
#   From: 2010.05.17/outbox.cif.g08.bks.cpg/sg2_179_cif.got.tgz:356332.got - 2010.06.03 11:33:40.
