data_PCOD9038895
_publ_section_title
;
Structure prediction by ZEFSAII (Michael W. Deem and Ramdas Pophale) SiO2 
 PCOD9038895
Probable space group: P -1
;
_chemical_formula_sum "Si O2"
_cell_formula_units_Z 16
_cell_length_a 11.848449
_cell_length_b 8.831813
_cell_length_c 15.674547
_cell_angle_alpha 143.822850
_cell_angle_beta 119.231539
_cell_angle_gamma 78.118521
_cell_volume 786.433534
_symmetry_space_group_name_H-M "P -1"
_symmetry_group_IT_number 2
_symmetry_cell_setting 'triclinic'
loop_
_space_group_symop_operation_xyz
x,y,z
-x,-y,-z
loop_
_atom_site_type_symbol
_atom_site_label
_atom_site_fract_x
_atom_site_fract_y
_atom_site_fract_z
Si Si1 0.557941 0.831520 0.169840
Si Si2 0.325446 0.117767 0.435633
Si Si3 0.662959 0.425413 0.234498
Si Si4 0.825066 0.782326 0.917212
Si Si5 0.913796 0.299366 0.952136
Si Si6 0.251423 0.725987 0.965030
Si Si7 0.651989 0.839095 0.031082
Si Si8 0.371705 0.792543 0.468972
O O1 0.668739 0.897591 0.164176
O O2 0.617029 0.005308 0.355338
O O3 0.500000 0.500000 0.000000
O O4 0.416641 0.883573 0.116007
O O5 0.287365 0.360246 0.574145
O O6 0.476751 0.224372 0.496495
O O7 0.208973 0.946398 0.249440
O O8 0.335811 0.927806 0.432258
O O9 0.750350 0.486279 0.207411
O O10 0.656445 0.125599 0.123272
O O11 0.503210 0.387257 0.139937
O O12 0.742447 0.513993 0.708268
O O13 0.751911 0.742828 0.966111
O O14 0.979096 0.800725 0.002197
O O15 0.807614 0.048519 0.990003
O O16 0.833421 0.410826 0.044186
O O17 0.000000 0.500000 0.000000
#
# Coordination Sequence:
#
# PCOD9038895 Si02
#       8
#     2   2   2   2   2   2   2   2
#     4  11  23  36  63  97 130 155 209 265 322 366
#     4  11  22  39  62  94 124 164 217 258 312 368
#     4   9  18  38  64  88 126 158 206 256 320 366
#     4  11  23  42  67  92 132 166 211 254 321 378
#     4  12  25  43  63  90 130 174 213 256 313 378
#     4  10  23  42  64  94 128 170 205 259 319 376
#     4   9  19  36  61  94 123 163 195 260 321 373
#     4  11  22  37  63  96 125 161 209 269 308 372
#
# _framework density 20.345013000000002
#
# number of rings (size 3 to 8) (size 9 to 14) (size 15 to 20)
#    0.000    1.500    3.750    2.625    3.500    1.500 
#    0.000    4.375    0.000    0.000    0.000    0.000 
#    0.000    0.000    0.000    0.000    0.000    0.000 
#
# Total GULP energy -89311.581070 kJ/mol
# GULP energy per Si atom -5581.973817 kJ/mol
# Density = 2.029871 g / cm^3
# Si number density = 20.345013 Si / 1000 Ang^3
#
#
#
# Elastic Constant Matrix: (Units=GPa)
#
#
# Indices 1 2 3 4 5 6 
#
# 1 119.0596 25.6043 60.0954 -12.3755 -23.2829 15.9889
# 2 25.6043 43.4037 21.0954 -10.0278 0.8494 -0.0740
# 3 60.0954 21.0954 109.1441 -23.9307 -17.0859 -5.7105
# 4 -12.3755 -10.0278 -23.9307 19.8876 -1.7882 -2.5314
# 5 -23.2829 0.8494 -17.0859 -1.7882 37.5823 -14.2913
# 6 15.9889 -0.0740 -5.7105 -2.5314 -14.2913 36.7951
#
#
#
# Elastic Compliance Matrix: (Units=1/GPa)
#
#
# Indices 1 2 3 4 5 6 
#
# 1 0.014565 -0.005811 -0.007517 -0.003469 0.003082 -0.006549
# 2 -0.005811 0.029216 -0.000598 0.010342 -0.003311 0.001917
# 3 -0.007517 -0.000598 0.020508 0.022147 0.010284 0.011966
# 4 -0.003469 0.010342 0.022147 0.083933 0.018495 0.017923
# 5 0.003082 -0.003311 0.010284 0.018495 0.040745 0.017348
# 6 -0.006549 0.001917 0.011966 0.017923 0.017348 0.039855
#
#
# Mechanical properties :
#
#
# Convention : Reuss Voigt Hill
#
# Bulk Modulus (GPa) = 27.44453 53.91086 40.67769
# Shear Modulus (GPa) = 18.59990 29.84046 24.22018
#
# Velocity S-wave (km/s) = 3.02689 3.83393 3.45407
# Velocity P-wave (km/s) = 5.07296 6.79372 5.99540
#
# Compressibility (1/GPa) = 0.03643713
#
# Stress axis : x y z
#
# Youngs Moduli (GPa) = 68.65948 34.22839 48.76032
#
# Poissons Ratio (x) = 0.19891 0.36653
# Poissons Ratio (y) = 0.39900 0.02914
# Poissons Ratio (z) = 0.51611 0.02045
#
# Static dielectric constant tensor:
#      x y z
#    x 1.748160 0.028530 -0.014640 
#    y 0.028530 1.788420 -0.012010 
#    z -0.014640 -0.012010 1.706470 
# 
# From -- ./inp_files/271566.got.cif
#   From: 2010.05.17/outbox.cif.g08.bks.cpg/sg2_136_cif.got.tgz:271566.got - 2010.06.03 11:33:40.
