data_PCOD9038858
_publ_section_title
;
Structure prediction by ZEFSAII (Michael W. Deem and Ramdas Pophale) SiO2 
 PCOD9038858
Probable space group: P -1
;
_chemical_formula_sum "Si O2"
_cell_formula_units_Z 16
_cell_length_a 5.339403
_cell_length_b 26.424902
_cell_length_c 5.269087
_cell_angle_alpha 100.250576
_cell_angle_beta 86.492236
_cell_angle_gamma 122.283803
_cell_volume 617.963010
_symmetry_space_group_name_H-M "P -1"
_symmetry_group_IT_number 2
_symmetry_cell_setting 'triclinic'
loop_
_space_group_symop_operation_xyz
x,y,z
-x,-y,-z
loop_
_atom_site_type_symbol
_atom_site_label
_atom_site_fract_x
_atom_site_fract_y
_atom_site_fract_z
Si Si1 0.223354 0.349066 0.121845
Si Si2 0.263048 0.540813 0.711733
Si Si3 0.846612 0.909568 0.770776
Si Si4 0.015822 0.872323 0.250050
Si Si5 0.917833 0.575810 0.159208
Si Si6 0.263308 0.701072 0.526849
Si Si7 0.873934 0.745717 0.314030
Si Si8 0.594274 0.964672 0.144079
O O1 0.459099 0.395889 0.353239
O O2 0.887543 0.307583 0.199836
O O3 0.238587 0.397440 0.969319
O O4 0.296460 0.304610 0.939019
O O5 0.315175 0.488426 0.758395
O O6 0.000000 0.500000 0.500000
O O7 0.123667 0.562669 0.956051
O O8 0.806974 0.875348 0.480318
O O9 0.588392 0.912829 0.926386
O O10 0.078767 0.981387 0.752181
O O11 0.946360 0.883434 0.976902
O O12 0.348083 0.929299 0.339680
O O13 0.008293 0.811079 0.240276
O O14 0.122851 0.631608 0.382655
O O15 0.615553 0.735338 0.514479
O O16 0.113494 0.732140 0.405239
O O17 0.500000 0.000000 0.000000
#
# Coordination Sequence:
#
# PCOD9038858 Si02
#       8
#     2   2   2   2   2   2   2   2
#     4  11  25  45  72  93 143 181 232 293 370 427
#     4  11  23  39  70 100 136 174 229 293 368 432
#     4  10  23  42  70 104 147 187 241 300 367 432
#     4  11  25  43  70 103 144 188 250 296 366 427
#     4  10  23  42  64 100 136 172 232 289 358 441
#     4  11  26  46  74  98 139 186 240 292 368 424
#     4  11  28  47  70 104 139 191 242 302 348 446
#     4   9  21  42  70 106 146 190 236 300 369 430
#
# _framework density 25.891518999999999
#
# number of rings (size 3 to 8) (size 9 to 14) (size 15 to 20)
#    0.000    1.500    1.250    1.500    7.000   10.500 
#    0.000    0.000    0.000    0.000    0.000    0.000 
#    0.000    0.000    0.000    0.000    0.000    0.000 
#
# Total GULP energy -89474.304316 kJ/mol
# GULP energy per Si atom -5592.144020 kJ/mol
# Density = 2.583259 g / cm^3
# Si number density = 25.891519 Si / 1000 Ang^3
#
#
#
# Elastic Constant Matrix: (Units=GPa)
#
#
# Indices 1 2 3 4 5 6 
#
# 1 85.0830 29.2644 20.3209 -7.2082 -11.4959 -18.2429
# 2 29.2644 154.6799 27.2303 -8.6435 -1.1858 -24.7636
# 3 20.3209 27.2303 76.8566 -17.0972 -10.6633 -10.2031
# 4 -7.2082 -8.6435 -17.0972 21.6842 -3.0165 -6.3855
# 5 -11.4959 -1.1858 -10.6633 -3.0165 41.5302 -5.8198
# 6 -18.2429 -24.7636 -10.2031 -6.3855 -5.8198 35.7623
#
#
#
# Elastic Compliance Matrix: (Units=1/GPa)
#
#
# Indices 1 2 3 4 5 6 
#
# 1 0.015828 -0.000853 0.000463 0.009249 0.006597 0.010340
# 2 -0.000853 0.007908 -0.000808 0.004021 0.000869 0.005669
# 3 0.000463 -0.000808 0.020075 0.019816 0.008138 0.010266
# 4 0.009249 0.004021 0.019816 0.077666 0.017592 0.029887
# 5 0.006597 0.000869 0.008138 0.017592 0.031333 0.014528
# 6 0.010340 0.005669 0.010266 0.029887 0.014528 0.047793
#
#
# Mechanical properties :
#
#
# Convention : Reuss Voigt Hill
#
# Bulk Modulus (GPa) = 24.14669 52.25008 38.19839
# Shear Modulus (GPa) = 23.06222 35.78226 29.42224
#
# Velocity S-wave (km/s) = 2.98774 3.72157 3.37466
# Velocity P-wave (km/s) = 4.60961 6.22021 5.47446
#
# Compressibility (1/GPa) = 0.04141354
#
# Stress axis : x y z
#
# Youngs Moduli (GPa) = 63.17862 126.45933 49.81247
#
# Poissons Ratio (x) = 0.10789 -0.02305
# Poissons Ratio (y) = 0.05390 0.04027
# Poissons Ratio (z) = -0.02924 0.10223
#
# Static dielectric constant tensor:
#      x y z
#    x 2.157510 0.048470 0.064140 
#    y 0.048470 1.997880 0.015900 
#    z 0.064140 0.015900 2.149680 
# 
# From -- ./inp_files/13428.got.cif
#   From: 2010.05.17/outbox.cif.g08.bks.cpg/sg2_7_cif.got.tgz:13428.got - 2010.06.03 11:33:40.
