data_PCOD9038725
_publ_section_title
;
Structure prediction by ZEFSAII (Michael W. Deem and Ramdas Pophale) SiO2 
 PCOD9038725
Probable space group: P -1
;
_chemical_formula_sum "Si O2"
_cell_formula_units_Z 16
_cell_length_a 10.122955
_cell_length_b 9.552768
_cell_length_c 8.938018
_cell_angle_alpha 105.795664
_cell_angle_beta 120.967247
_cell_angle_gamma 64.374021
_cell_volume 666.846448
_symmetry_space_group_name_H-M "P -1"
_symmetry_group_IT_number 2
_symmetry_cell_setting 'triclinic'
loop_
_space_group_symop_operation_xyz
x,y,z
-x,-y,-z
loop_
_atom_site_type_symbol
_atom_site_label
_atom_site_fract_x
_atom_site_fract_y
_atom_site_fract_z
Si Si1 0.811265 0.098919 0.933686
Si Si2 0.347570 0.547490 0.036507
Si Si3 0.952610 0.542329 0.154155
Si Si4 0.105362 0.183314 0.599588
Si Si5 0.602486 0.280415 0.609853
Si Si6 0.253556 0.702057 0.625796
Si Si7 0.235121 0.368916 0.488934
Si Si8 0.347684 0.945025 0.881088
O O1 0.712703 0.130489 0.727724
O O2 0.778513 0.276191 0.018019
O O3 0.738243 0.022844 0.998239
O O4 0.000000 0.000000 0.000000
O O5 0.235120 0.444758 0.930862
O O6 0.374786 0.765629 0.808757
O O7 0.500000 0.500000 0.000000
O O8 0.399901 0.574345 0.243421
O O9 0.959674 0.704861 0.261406
O O10 0.085796 0.416234 0.298271
O O11 0.000000 0.500000 0.000000
O O12 0.191994 0.267655 0.562126
O O13 0.238689 0.032029 0.701881
O O14 0.936519 0.180179 0.429575
O O15 0.684405 0.296183 0.507293
O O16 0.414873 0.287196 0.496916
O O17 0.240122 0.533966 0.602247
O O18 0.500000 0.000000 0.000000
#
# Coordination Sequence:
#
# PCOD9038725 Si02
#       8
#     2   2   2   2   2   2   2   2
#     4  10  25  46  74 100 147 194 244 294 366 432
#     4  10  23  41  76 105 141 188 248 293 359 423
#     4  11  24  41  69 106 141 179 236 304 356 425
#     4  11  25  44  67  98 143 183 240 285 361 432
#     4  10  23  43  72 105 144 188 243 296 357 432
#     4  11  24  46  68 100 140 190 233 299 365 429
#     4  11  24  44  70 104 142 185 235 295 361 427
#     4  12  28  45  69 104 140 189 246 300 357 432
#
# _framework density 23.993531000000001
#
# number of rings (size 3 to 8) (size 9 to 14) (size 15 to 20)
#    0.750    0.500    0.000    6.000    8.750    1.000 
#    0.000    1.875    0.000    0.000    0.000    0.000 
#    0.000    0.000    0.000    0.000    0.000    0.000 
#
# Total GULP energy -89499.791459 kJ/mol
# GULP energy per Si atom -5593.736966 kJ/mol
# Density = 2.393892 g / cm^3
# Si number density = 23.993531 Si / 1000 Ang^3
#
#
#
# Elastic Constant Matrix: (Units=GPa)
#
#
# Indices 1 2 3 4 5 6 
#
# 1 180.2548 39.2618 50.9512 7.9011 12.7057 16.6612
# 2 39.2618 61.6544 27.2443 -14.6559 -0.9254 12.3404
# 3 50.9512 27.2443 95.3439 -4.3921 5.2690 19.7928
# 4 7.9011 -14.6559 -4.3921 39.3176 3.8994 2.8940
# 5 12.7057 -0.9254 5.2690 3.8994 54.1899 -2.5183
# 6 16.6612 12.3404 19.7928 2.8940 -2.5183 39.9020
#
#
#
# Elastic Compliance Matrix: (Units=1/GPa)
#
#
# Indices 1 2 3 4 5 6 
#
# 1 0.007547 -0.004306 -0.002825 -0.003284 -0.001344 -0.000265
# 2 -0.004306 0.023519 -0.003071 0.009547 0.000809 -0.004594
# 3 -0.002825 -0.003071 0.014044 0.001469 -0.001094 -0.005013
# 4 -0.003284 0.009547 0.001469 0.030315 -0.001605 -0.004610
# 5 -0.001344 0.000809 -0.001094 -0.001605 0.019106 0.002176
# 6 -0.000265 -0.004594 -0.005013 -0.004610 0.002176 0.029551
#
#
# Mechanical properties :
#
#
# Convention : Reuss Voigt Hill
#
# Bulk Modulus (GPa) = 40.47267 63.57420 52.02344
# Shear Modulus (GPa) = 32.73922 41.33494 37.03708
#
# Velocity S-wave (km/s) = 3.69792 4.15511 3.93317
# Velocity P-wave (km/s) = 5.92770 7.04087 6.50813
#
# Compressibility (1/GPa) = 0.02470803
#
# Stress axis : x y z
#
# Youngs Moduli (GPa) = 132.49869 42.51801 71.20368
#
# Poissons Ratio (x) = 0.18307 0.20114
# Poissons Ratio (y) = 0.57050 0.21866
# Poissons Ratio (z) = 0.37428 0.13057
#
# Static dielectric constant tensor:
#      x y z
#    x 1.771660 -0.077460 -0.029160 
#    y -0.077460 1.965530 -0.072680 
#    z -0.029160 -0.072680 1.978910 
# 
# From -- ./inp_files/196633.got.cif
#   From: 2010.05.17/outbox.cif.g08.bks.cpg/sg2_99_cif.got.tgz:196633.got - 2010.06.03 11:33:40.
