data_PCOD9038794
_publ_section_title
;
Structure prediction by ZEFSAII (Michael W. Deem and Ramdas Pophale) SiO2 
 PCOD9038794
Probable space group: P -1
;
_chemical_formula_sum "Si O2"
_cell_formula_units_Z 12
_cell_length_a 8.231401
_cell_length_b 16.879485
_cell_length_c 9.567170
_cell_angle_alpha 145.732686
_cell_angle_beta 64.790487
_cell_angle_gamma 136.525127
_cell_volume 460.245171
_symmetry_space_group_name_H-M "P -1"
_symmetry_group_IT_number 2
_symmetry_cell_setting 'triclinic'
loop_
_space_group_symop_operation_xyz
x,y,z
-x,-y,-z
loop_
_atom_site_type_symbol
_atom_site_label
_atom_site_fract_x
_atom_site_fract_y
_atom_site_fract_z
Si Si1 0.350807 0.547965 0.051756
Si Si2 0.521598 0.835412 0.942317
Si Si3 0.242720 0.875881 0.312770
Si Si4 0.246661 0.144234 0.860744
Si Si5 0.868841 0.616802 0.655174
Si Si6 0.666454 0.279078 0.445030
O O1 0.468129 0.644410 0.997442
O O2 0.430229 0.724887 0.378524
O O3 0.500000 0.500000 0.000000
O O4 0.033952 0.359659 0.892415
O O5 0.370548 0.594612 0.650628
O O6 0.540982 0.863582 0.810223
O O7 0.753448 0.945038 0.126553
O O8 0.346252 0.861640 0.110541
O O9 0.150987 0.983983 0.540321
O O10 0.500000 0.000000 0.500000
O O11 0.125056 0.222069 0.060091
O O12 0.840139 0.507291 0.647853
O O13 0.127341 0.727539 0.634341
#
# Coordination Sequence:
#
# PCOD9038794 Si02
#       6
#     2   2   2   2   2   2
#     4  12  22  41  64  99 128 160 216 274 304 371
#     4   9  18  38  63  86 122 171 208 247 315 382
#     4  10  23  42  62  95 134 164 204 269 325 369
#     4  11  23  36  70  95 119 168 221 255 315 378
#     4   9  16  35  62  86 116 174 204 241 320 384
#     4   9  18  36  63  85 126 172 202 255 322 372
#
# _framework density 26.073060000000002
#
# number of rings (size 3 to 8) (size 9 to 14) (size 15 to 20)
#    1.000    1.000    3.333    0.500    0.000    3.333 
#    0.000    0.833    3.667   13.000    0.000    0.000 
#    0.000    0.000    0.000    0.000    0.000    0.000 
#
# Total GULP energy -66891.099534 kJ/mol
# GULP energy per Si atom -5574.258294 kJ/mol
# Density = 2.601372 g / cm^3
# Si number density = 26.073060 Si / 1000 Ang^3
#
#
#
# Elastic Constant Matrix: (Units=GPa)
#
#
# Indices 1 2 3 4 5 6 
#
# 1 69.0906 32.1825 34.9303 -11.4529 -23.8478 -1.3161
# 2 32.1825 107.0465 44.1875 -38.7585 9.0132 12.8215
# 3 34.9303 44.1875 141.0045 -31.2688 -29.0886 11.2130
# 4 -11.4529 -38.7585 -31.2688 53.4945 16.0741 -5.2321
# 5 -23.8478 9.0132 -29.0886 16.0741 59.8831 -16.8246
# 6 -1.3161 12.8215 11.2130 -5.2321 -16.8246 35.3945
#
#
#
# Elastic Compliance Matrix: (Units=1/GPa)
#
#
# Indices 1 2 3 4 5 6 
#
# 1 0.027056 -0.014236 -0.001667 -0.009730 0.018692 0.014138
# 2 -0.014236 0.024882 -0.003284 0.017579 -0.020067 -0.015442
# 3 -0.001667 -0.003284 0.009761 0.001739 0.004184 0.000281
# 4 -0.009730 0.017579 0.001739 0.034727 -0.018006 -0.010706
# 5 0.018692 -0.020067 0.004184 -0.018006 0.040563 0.023259
# 6 0.014138 -0.015442 0.000281 -0.010706 0.023259 0.043757
#
#
# Mechanical properties :
#
#
# Convention : Reuss Voigt Hill
#
# Bulk Modulus (GPa) = 42.87539 59.97135 51.42337
# Shear Modulus (GPa) = 22.03669 43.47716 32.75693
#
# Velocity S-wave (km/s) = 2.91037 4.08795 3.54835
# Velocity P-wave (km/s) = 5.27007 6.73298 6.04594
#
# Compressibility (1/GPa) = 0.02332340
#
# Stress axis : x y z
#
# Youngs Moduli (GPa) = 36.96048 40.19048 102.45344
#
# Poissons Ratio (x) = 0.57216 0.17081
# Poissons Ratio (y) = 0.52617 0.33646
# Poissons Ratio (z) = 0.06162 0.13199
#
# Static dielectric constant tensor:
#      x y z
#    x 2.123470 -0.025620 -0.067930 
#    y -0.025620 2.029230 0.044710 
#    z -0.067930 0.044710 2.106210 
# 
# From -- ./inp_files/405689.got.cif
#   From: 2010.05.17/outbox.cif.g08.bks.cpg/sg2_203_cif.got.tgz:405689.got - 2010.06.03 11:33:40.
