data_PCOD9038318
_publ_section_title
;
Structure prediction by ZEFSAII (Michael W. Deem and Ramdas Pophale) SiO2 
 PCOD9038318
Probable space group: P -1
;
_chemical_formula_sum "Si O2"
_cell_formula_units_Z 16
_cell_length_a 14.377133
_cell_length_b 8.793483
_cell_length_c 11.355700
_cell_angle_alpha 41.994858
_cell_angle_beta 113.351710
_cell_angle_gamma 133.727870
_cell_volume 673.357414
_symmetry_space_group_name_H-M "P -1"
_symmetry_group_IT_number 2
_symmetry_cell_setting 'triclinic'
loop_
_space_group_symop_operation_xyz
x,y,z
-x,-y,-z
loop_
_atom_site_type_symbol
_atom_site_label
_atom_site_fract_x
_atom_site_fract_y
_atom_site_fract_z
Si Si1 0.709141 0.910414 0.308492
Si Si2 0.105443 0.802628 0.949248
Si Si3 0.588068 0.009805 0.642721
Si Si4 0.462885 0.944125 0.872807
Si Si5 0.710166 0.735013 0.799967
Si Si6 0.950717 0.173132 0.838089
Si Si7 0.101839 0.796146 0.562072
Si Si8 0.837283 0.659620 0.448425
O O1 0.737144 0.681478 0.458497
O O2 0.750099 0.040435 0.121167
O O3 0.576945 0.854843 0.297865
O O4 0.826264 0.170523 0.301027
O O5 0.094910 0.056140 0.767591
O O6 0.094145 0.761841 0.104182
O O7 0.000000 0.500000 0.000000
O O8 0.736120 0.334037 0.528858
O O9 0.500000 0.000000 0.500000
O O10 0.541805 0.971863 0.778492
O O11 0.597103 0.758186 0.755191
O O12 0.339711 0.590494 0.019217
O O13 0.500000 0.000000 0.000000
O O14 0.825567 0.956095 0.821072
O O15 0.783015 0.894723 0.622173
O O16 0.059819 0.498816 0.650393
O O17 0.000000 0.000000 0.000000
O O18 0.965294 0.741472 0.530405
#
# Coordination Sequence:
#
# PCOD9038318 Si02
#       8
#     2   2   2   2   2   2   2   2
#     4  10  25  43  75 104 148 189 245 307 367 433
#     4  10  23  41  68 106 149 189 233 294 382 443
#     4  12  29  52  77 106 150 203 257 309 370 439
#     4  12  31  52  77 104 148 206 265 307 363 441
#     4  12  29  46  78 107 148 193 251 312 375 450
#     4  12  24  41  72 106 157 184 236 294 385 459
#     4  12  23  45  71 119 146 186 237 307 391 441
#     4  10  25  42  76 109 151 186 243 308 377 447
#
# _framework density 23.761526
#
# number of rings (size 3 to 8) (size 9 to 14) (size 15 to 20)
#    0.750    0.000    2.500    3.375   10.500    0.500 
#    0.000    0.000    0.000    0.000    0.000    0.000 
#    0.000    0.000    0.000    0.000    0.000    0.000 
#
# Total GULP energy -89190.943417 kJ/mol
# GULP energy per Si atom -5574.433964 kJ/mol
# Density = 2.370744 g / cm^3
# Si number density = 23.761526 Si / 1000 Ang^3
#
#
#
# Elastic Constant Matrix: (Units=GPa)
#
#
# Indices 1 2 3 4 5 6 
#
# 1 119.1872 10.1341 34.1539 16.9140 10.2732 0.8191
# 2 10.1341 79.3743 20.2000 10.1449 -15.7121 -15.0377
# 3 34.1539 20.2000 110.5761 -2.8941 -5.4104 -6.5346
# 4 16.9140 10.1449 -2.8941 48.6652 -2.4716 4.1717
# 5 10.2732 -15.7121 -5.4104 -2.4716 48.5446 7.1339
# 6 0.8191 -15.0377 -6.5346 4.1717 7.1339 24.2936
#
#
#
# Elastic Compliance Matrix: (Units=1/GPa)
#
#
# Indices 1 2 3 4 5 6 
#
# 1 0.010158 -0.000571 -0.003277 -0.003745 -0.002877 -0.000089
# 2 -0.000571 0.016141 -0.002165 -0.003889 0.003576 0.009046
# 3 -0.003277 -0.002165 0.010619 0.002202 0.001155 0.000910
# 4 -0.003745 -0.003889 0.002202 0.023425 0.001893 -0.006267
# 5 -0.002877 0.003576 0.001155 0.001893 0.023257 -0.004533
# 6 -0.000089 0.009046 0.000910 -0.006267 -0.004533 0.049418
#
#
# Mechanical properties :
#
#
# Convention : Reuss Voigt Hill
#
# Bulk Modulus (GPa) = 40.17210 48.67929 44.42570
# Shear Modulus (GPa) = 32.60708 40.61065 36.60886
#
# Velocity S-wave (km/s) = 3.70843 4.13860 3.92941
# Velocity P-wave (km/s) = 5.93967 6.58547 6.27089
#
# Compressibility (1/GPa) = 0.02489290
#
# Stress axis : x y z
#
# Youngs Moduli (GPa) = 98.44590 61.95386 94.16947
#
# Poissons Ratio (x) = 0.03536 0.30862
# Poissons Ratio (y) = 0.05618 0.20384
# Poissons Ratio (z) = 0.32264 0.13410
#
# Static dielectric constant tensor:
#      x y z
#    x 2.039990 -0.040180 -0.069470 
#    y -0.040180 1.876600 0.034160 
#    z -0.069470 0.034160 1.768860 
# 
# From -- ./inp_files/446671.got.cif
#   From: 2010.05.17/outbox.cif.g08.bks.cpg/sg2_224_cif.got.tgz:446671.got - 2010.06.03 11:33:40.
