data_PCOD9038752
_publ_section_title
;
Structure prediction by ZEFSAII (Michael W. Deem and Ramdas Pophale) SiO2 
 PCOD9038752
Probable space group: P -1
;
_chemical_formula_sum "Si O2"
_cell_formula_units_Z 12
_cell_length_a 6.006936
_cell_length_b 5.049064
_cell_length_c 18.468593
_cell_angle_alpha 61.217373
_cell_angle_beta 90.648111
_cell_angle_gamma 84.715133
_cell_volume 487.855305
_symmetry_space_group_name_H-M "P -1"
_symmetry_group_IT_number 2
_symmetry_cell_setting 'triclinic'
loop_
_space_group_symop_operation_xyz
x,y,z
-x,-y,-z
loop_
_atom_site_type_symbol
_atom_site_label
_atom_site_fract_x
_atom_site_fract_y
_atom_site_fract_z
Si Si1 0.092550 0.304978 0.325960
Si Si2 0.069376 0.359159 0.095649
Si Si3 0.204920 0.315842 0.482053
Si Si4 0.709697 0.280788 0.828894
Si Si5 0.285474 0.775990 0.778115
Si Si6 0.500761 0.813495 0.366804
O O1 0.080855 0.227372 0.420466
O O2 0.184997 0.616510 0.260206
O O3 0.875298 0.277683 0.282482
O O4 0.284865 0.054655 0.332236
O O5 0.522316 0.508674 0.186031
O O6 0.858664 0.222923 0.150042
O O7 0.268720 0.082897 0.124242
O O8 0.000000 0.500000 0.000000
O O9 0.400088 0.499683 0.422978
O O10 0.347114 0.130770 0.569458
O O11 0.000000 0.500000 0.500000
O O12 0.861832 0.390641 0.880397
O O13 0.368540 0.103063 0.715436
#
# Coordination Sequence:
#
# PCOD9038752 Si02
#       6
#     2   2   2   2   2   2
#     4  10  23  42  62  93 134 181 230 284 347 415
#     4  11  25  48  74 109 143 180 233 291 354 429
#     4  11  24  38  65  94 133 178 232 294 342 408
#     4  10  25  43  73 105 143 184 234 286 354 426
#     4  10  24  45  70 100 140 188 227 292 353 420
#     4  10  23  42  60  95 132 180 236 284 349 408
#
# _framework density 24.597459000000001
#
# number of rings (size 3 to 8) (size 9 to 14) (size 15 to 20)
#    0.000    1.667    0.000    2.000    9.333   12.000 
#    3.000    0.000    0.000    0.000    0.000    0.000 
#    0.000    0.000    0.000    0.000    0.000    0.000 
#
# Total GULP energy -67094.887858 kJ/mol
# GULP energy per Si atom -5591.240655 kJ/mol
# Density = 2.454147 g / cm^3
# Si number density = 24.597459 Si / 1000 Ang^3
#
#
#
# Elastic Constant Matrix: (Units=GPa)
#
#
# Indices 1 2 3 4 5 6 
#
# 1 105.7010 8.6404 55.4525 8.3573 1.0656 -8.8378
# 2 8.6404 73.3767 33.2415 9.5247 -0.7906 -6.5670
# 3 55.4525 33.2415 184.1550 20.1154 1.7672 -2.0537
# 4 8.3573 9.5247 20.1154 39.1708 -4.4404 7.6075
# 5 1.0656 -0.7906 1.7672 -4.4404 37.8490 0.2324
# 6 -8.8378 -6.5670 -2.0537 7.6075 0.2324 25.6463
#
#
#
# Elastic Compliance Matrix: (Units=1/GPa)
#
#
# Indices 1 2 3 4 5 6 
#
# 1 0.011717 0.000811 -0.003416 -0.001868 -0.000400 0.004530
# 2 0.000811 0.015651 -0.002614 -0.003642 -0.000033 0.005159
# 3 -0.003416 -0.002614 0.007177 -0.002269 -0.000556 -0.000594
# 4 -0.001868 -0.003642 -0.002269 0.030507 0.003728 -0.010841
# 5 -0.000400 -0.000033 -0.000556 0.003728 0.026904 -0.001541
# 6 0.004530 0.005159 -0.000594 -0.010841 -0.001541 0.045056
#
#
# Mechanical properties :
#
#
# Convention : Reuss Voigt Hill
#
# Bulk Modulus (GPa) = 41.47992 61.98904 51.73448
# Shear Modulus (GPa) = 32.15738 38.25978 35.20858
#
# Velocity S-wave (km/s) = 3.61965 3.94818 3.78748
# Velocity P-wave (km/s) = 5.86253 6.78530 6.34072
#
# Compressibility (1/GPa) = 0.02410805
#
# Stress axis : x y z
#
# Youngs Moduli (GPa) = 85.34595 63.89384 139.32816
#
# Poissons Ratio (x) = -0.05185 0.47599
# Poissons Ratio (y) = -0.06926 0.36418
# Poissons Ratio (z) = 0.29157 0.16701
#
# Static dielectric constant tensor:
#      x y z
#    x 1.992340 0.091610 -0.054790 
#    y 0.091610 2.014080 -0.017960 
#    z -0.054790 -0.017960 2.017160 
# 
# From -- ./inp_files/102583.got.cif
#   From: 2010.05.17/outbox.cif.g08.bks.cpg/sg2_52_cif.got.tgz:102583.got - 2010.06.03 11:33:40.
