data_PCOD9038644
_publ_section_title
;
Structure prediction by ZEFSAII (Michael W. Deem and Ramdas Pophale) SiO2 
 PCOD9038644
Probable space group: P -1
;
_chemical_formula_sum "Si O2"
_cell_formula_units_Z 16
_cell_length_a 16.624347
_cell_length_b 5.625525
_cell_length_c 11.562108
_cell_angle_alpha 125.340178
_cell_angle_beta 47.642848
_cell_angle_gamma 104.816978
_cell_volume 635.492619
_symmetry_space_group_name_H-M "P -1"
_symmetry_group_IT_number 2
_symmetry_cell_setting 'triclinic'
loop_
_space_group_symop_operation_xyz
x,y,z
-x,-y,-z
loop_
_atom_site_type_symbol
_atom_site_label
_atom_site_fract_x
_atom_site_fract_y
_atom_site_fract_z
Si Si1 0.109579 0.201932 0.631957
Si Si2 0.592066 0.680387 0.506495
Si Si3 0.878408 0.352841 0.814500
Si Si4 0.893656 0.887403 0.123028
Si Si5 0.732600 0.436658 0.500426
Si Si6 0.312121 0.710078 0.875246
Si Si7 0.269627 0.603362 0.247862
Si Si8 0.424681 0.253024 0.835037
O O1 0.075887 0.207375 0.799798
O O2 0.151901 0.485682 0.630571
O O3 0.004841 0.173867 0.648880
O O4 0.218763 0.945893 0.426787
O O5 0.500000 0.500000 0.500000
O O6 0.624055 0.608904 0.587214
O O7 0.700067 0.494847 0.281260
O O8 0.545738 0.034911 0.636808
O O9 0.821781 0.448076 0.772692
O O10 0.876629 0.640696 0.977569
O O11 0.798030 0.177133 0.910883
O O12 0.769033 0.095000 0.325991
O O13 0.000000 0.000000 0.000000
O O14 0.721782 0.531127 0.670867
O O15 0.385914 0.453201 0.815650
O O16 0.359293 0.994089 0.867208
O O17 0.387945 0.498171 0.040190
#
# Coordination Sequence:
#
# PCOD9038644 Si02
#       8
#     2   2   2   2   2   2   2   2
#     4  11  24  45  63 106 144 187 232 290 358 423
#     4  10  23  44  74 103 137 183 240 302 364 420
#     4  11  23  42  74 102 142 190 240 283 357 435
#     4  11  24  42  68 103 137 186 235 298 354 416
#     4  11  25  45  67  99 151 178 234 303 354 423
#     4  10  23  41  72 110 140 173 243 300 349 420
#     4  10  26  44  67 100 143 191 237 285 356 431
#     4  10  23  46  69 104 138 187 238 297 353 421
#
# _framework density 25.177319000000001
#
# number of rings (size 3 to 8) (size 9 to 14) (size 15 to 20)
#    0.000    1.500    1.250    1.875   12.250    1.000 
#    9.000    0.625    0.000    0.000    0.000    0.000 
#    0.000    0.000    0.000    0.000    0.000    0.000 
#
# Total GULP energy -89231.876931 kJ/mol
# GULP energy per Si atom -5576.992308 kJ/mol
# Density = 2.512001 g / cm^3
# Si number density = 25.177319 Si / 1000 Ang^3
#
#
#
# Elastic Constant Matrix: (Units=GPa)
#
#
# Indices 1 2 3 4 5 6 
#
# 1 125.3074 23.7625 21.7209 -22.1509 15.4667 -24.1526
# 2 23.7625 62.4200 16.2618 -20.2180 7.7400 -7.3166
# 3 21.7209 16.2618 116.9372 5.4588 18.0128 -3.1458
# 4 -22.1509 -20.2180 5.4588 39.6167 -10.6738 -1.9144
# 5 15.4667 7.7400 18.0128 -10.6738 53.1523 -5.8475
# 6 -24.1526 -7.3166 -3.1458 -1.9144 -5.8475 31.2136
#
#
#
# Elastic Compliance Matrix: (Units=1/GPa)
#
#
# Indices 1 2 3 4 5 6 
#
# 1 0.011361 -0.000541 -0.002082 0.006736 -0.000197 0.008831
# 2 -0.000541 0.021354 -0.003445 0.011620 0.001117 0.005161
# 3 -0.002082 -0.003445 0.010176 -0.005438 -0.003699 -0.002419
# 4 0.006736 0.011620 -0.005438 0.038125 0.007062 0.011050
# 5 -0.000197 0.001117 -0.003699 0.007062 0.021849 0.004262
# 6 0.008831 0.005161 -0.002419 0.011050 0.004262 0.041313
#
#
# Mechanical properties :
#
#
# Convention : Reuss Voigt Hill
#
# Bulk Modulus (GPa) = 32.51362 47.57278 40.04320
# Shear Modulus (GPa) = 30.01835 40.99114 35.50475
#
# Velocity S-wave (km/s) = 3.45668 4.03935 3.75932
# Velocity P-wave (km/s) = 5.37340 6.37897 5.89765
#
# Compressibility (1/GPa) = 0.03075634
#
# Stress axis : x y z
#
# Youngs Moduli (GPa) = 88.01988 46.82895 98.27188
#
# Poissons Ratio (x) = 0.02535 0.20456
# Poissons Ratio (y) = 0.04764 0.33852
# Poissons Ratio (z) = 0.18322 0.16131
#
# Static dielectric constant tensor:
#      x y z
#    x 2.011620 -0.018660 -0.073500 
#    y -0.018660 2.178970 0.044140 
#    z -0.073500 0.044140 2.139700 
# 
# From -- ./inp_files/459602.got.cif
#   From: 2010.05.17/outbox.cif.g08.bks.cpg/sg2_230_cif.got.tgz:459602.got - 2010.06.03 11:33:40.
