data_PCOD9038219
_publ_section_title
;
Structure prediction by ZEFSAII (Michael W. Deem and Ramdas Pophale) SiO2 
 PCOD9038219
Probable space group: P -1
;
_chemical_formula_sum "Si O2"
_cell_formula_units_Z 12
_cell_length_a 18.144068
_cell_length_b 14.293868
_cell_length_c 9.596075
_cell_angle_alpha 130.479569
_cell_angle_beta 140.528663
_cell_angle_gamma 21.189057
_cell_volume 544.188015
_symmetry_space_group_name_H-M "P -1"
_symmetry_group_IT_number 2
_symmetry_cell_setting 'triclinic'
loop_
_space_group_symop_operation_xyz
x,y,z
-x,-y,-z
loop_
_atom_site_type_symbol
_atom_site_label
_atom_site_fract_x
_atom_site_fract_y
_atom_site_fract_z
Si Si1 0.815115 0.751641 0.575450
Si Si2 0.081990 0.753192 0.057649
Si Si3 0.227217 0.335838 0.270741
Si Si4 0.521396 0.624001 0.963039
Si Si5 0.160720 0.780070 0.745753
Si Si6 0.982426 0.806737 0.276715
O O1 0.806619 0.689473 0.650843
O O2 0.000000 0.500000 0.500000
O O3 0.522318 0.035927 0.368220
O O4 0.924749 0.784973 0.799200
O O5 0.120585 0.700268 0.228713
O O6 0.337599 0.520729 0.116502
O O7 0.931397 0.024687 0.097139
O O8 0.155968 0.545268 0.355784
O O9 0.000000 0.500000 0.000000
O O10 0.735165 0.427384 0.205503
O O11 0.369804 0.647302 0.821229
O O12 0.313180 0.930854 0.950151
O O13 0.952201 0.936939 0.479802
#
# Coordination Sequence:
#
# PCOD9038219 Si02
#       6
#     2   2   2   2   2   2
#     4  11  28  45  72 100 133 179 230 276 337 397
#     4  11  23  44  66 103 134 172 226 276 327 402
#     4  11  26  49  71  95 139 178 225 282 336 396
#     4  10  23  41  67  93 143 169 223 269 334 391
#     4  10  24  42  66  99 136 180 214 269 342 395
#     4  11  25  42  69 101 133 176 222 272 338 397
#
# _framework density 22.051202
#
# number of rings (size 3 to 8) (size 9 to 14) (size 15 to 20)
#    0.000    1.333    1.667    2.500   11.667    4.667 
#    0.000    0.000    0.000    0.000    0.000    0.000 
#    0.000    0.000    0.000    0.000    0.000    0.000 
#
# Total GULP energy -66899.385750 kJ/mol
# GULP energy per Si atom -5574.948813 kJ/mol
# Density = 2.200101 g / cm^3
# Si number density = 22.051202 Si / 1000 Ang^3
#
#
#
# Elastic Constant Matrix: (Units=GPa)
#
#
# Indices 1 2 3 4 5 6 
#
# 1 80.1118 79.4534 27.1363 -13.7259 -14.2784 -17.4239
# 2 79.4534 180.8861 64.8014 -16.2328 -16.7975 -17.8758
# 3 27.1363 64.8014 92.4611 4.8677 -18.7700 1.2845
# 4 -13.7259 -16.2328 4.8677 31.9851 2.0410 -10.0710
# 5 -14.2784 -16.7975 -18.7700 2.0410 23.4981 -7.7932
# 6 -17.4239 -17.8758 1.2845 -10.0710 -7.7932 45.3574
#
#
#
# Elastic Compliance Matrix: (Units=1/GPa)
#
#
# Indices 1 2 3 4 5 6 
#
# 1 0.028300 -0.009082 0.000170 0.010395 0.013912 0.011986
# 2 -0.009082 0.012292 -0.006515 0.004120 -0.001569 0.002185
# 3 0.000170 -0.006515 0.017625 -0.007472 0.009150 -0.003088
# 4 0.010395 0.004120 -0.007472 0.043803 0.004928 0.016401
# 5 0.013912 -0.001569 0.009150 0.004928 0.062155 0.016240
# 6 0.011986 0.002185 -0.003088 0.016401 0.016240 0.034032
#
#
# Mechanical properties :
#
#
# Convention : Reuss Voigt Hill
#
# Bulk Modulus (GPa) = 36.54671 77.36012 56.95342
# Shear Modulus (GPa) = 20.99237 32.30599 26.64918
#
# Velocity S-wave (km/s) = 3.08877 3.83174 3.48014
# Velocity P-wave (km/s) = 5.41574 7.39828 6.48324
#
# Compressibility (1/GPa) = 0.02736225
#
# Stress axis : x y z
#
# Youngs Moduli (GPa) = 35.33565 81.35673 56.73730
#
# Poissons Ratio (x) = 0.73891 -0.00964
# Poissons Ratio (y) = 0.32093 0.36963
# Poissons Ratio (z) = -0.00601 0.53003
#
# Static dielectric constant tensor:
#      x y z
#    x 1.802360 0.028510 0.033570 
#    y 0.028510 1.705000 -0.078040 
#    z 0.033570 -0.078040 1.800700 
# 
# From -- ./inp_files/335079.got.cif
#   From: 2010.05.17/outbox.cif.g08.bks.cpg/sg2_168_cif.got.tgz:335079.got - 2010.06.03 11:33:40.
