data_PCOD9038347
_publ_section_title
;
Structure prediction by ZEFSAII (Michael W. Deem and Ramdas Pophale) SiO2 
 PCOD9038347
Probable space group: P -1
;
_chemical_formula_sum "Si O2"
_cell_formula_units_Z 16
_cell_length_a 9.408716
_cell_length_b 9.805398
_cell_length_c 11.844820
_cell_angle_alpha 78.557194
_cell_angle_beta 101.180064
_cell_angle_gamma 131.443422
_cell_volume 799.942221
_symmetry_space_group_name_H-M "P -1"
_symmetry_group_IT_number 2
_symmetry_cell_setting 'triclinic'
loop_
_space_group_symop_operation_xyz
x,y,z
-x,-y,-z
loop_
_atom_site_type_symbol
_atom_site_label
_atom_site_fract_x
_atom_site_fract_y
_atom_site_fract_z
Si Si1 0.210120 0.985266 0.708961
Si Si2 0.544479 0.866313 0.053691
Si Si3 0.750281 0.466400 0.430216
Si Si4 0.986085 0.123258 0.667894
Si Si5 0.601819 0.916355 0.507786
Si Si6 0.856724 0.024717 0.922031
Si Si7 0.865188 0.357644 0.906311
Si Si8 0.006737 0.420856 0.335040
O O1 0.306943 0.053939 0.834528
O O2 0.370659 0.087358 0.620570
O O3 0.070857 0.027683 0.664099
O O4 0.090790 0.771009 0.707695
O O5 0.337186 0.693787 0.091974
O O6 0.500000 0.000000 0.000000
O O7 0.642396 0.857989 0.960711
O O8 0.527865 0.288779 0.428065
O O9 0.851535 0.402715 0.390646
O O10 0.840256 0.658996 0.354275
O O11 0.826591 0.515200 0.562758
O O12 0.898643 0.058760 0.790279
O O13 0.811660 0.054084 0.571113
O O14 0.500000 0.000000 0.500000
O O15 0.876663 0.196499 0.940535
O O16 0.000000 0.000000 0.000000
O O17 0.923788 0.434765 0.776383
O O18 0.000000 0.500000 0.000000
#
# Coordination Sequence:
#
# PCOD9038347 Si02
#       8
#     2   2   2   2   2   2   2   2
#     4  12  24  44  69  97 139 176 226 278 349 398
#     4  10  23  41  68  96 127 177 230 275 334 406
#     4  11  23  42  67  99 133 179 225 273 338 404
#     4  12  26  46  67  99 143 180 218 288 346 402
#     4  12  25  42  72 101 133 182 229 276 338 410
#     4  11  23  46  68  93 134 179 223 282 352 394
#     4  11  24  41  68 100 130 173 230 282 333 405
#     4  11  21  41  68  96 136 173 223 281 332 401
#
# _framework density 20.001446000000001
#
# number of rings (size 3 to 8) (size 9 to 14) (size 15 to 20)
#    0.000    0.750    5.000    3.375    3.500    1.500 
#    2.250    0.625    0.000    0.000    0.000    0.000 
#    0.000    0.000    0.000    0.000    0.000    0.000 
#
# Total GULP energy -89332.725620 kJ/mol
# GULP energy per Si atom -5583.295351 kJ/mol
# Density = 1.995592 g / cm^3
# Si number density = 20.001446 Si / 1000 Ang^3
#
#
#
# Elastic Constant Matrix: (Units=GPa)
#
#
# Indices 1 2 3 4 5 6 
#
# 1 96.3483 25.3242 17.0531 -14.1604 -4.1823 4.3665
# 2 25.3242 87.7057 8.9858 -10.8809 -3.1004 5.6225
# 3 17.0531 8.9858 99.5910 -17.6502 -13.2792 5.6371
# 4 -14.1604 -10.8809 -17.6502 26.3956 3.1981 -3.8029
# 5 -4.1823 -3.1004 -13.2792 3.1981 36.1857 -6.6706
# 6 4.3665 5.6225 5.6371 -3.8029 -6.6706 25.6739
#
#
#
# Elastic Compliance Matrix: (Units=1/GPa)
#
#
# Indices 1 2 3 4 5 6 
#
# 1 0.011972 -0.002755 -0.000924 0.004563 0.000319 -0.000471
# 2 -0.002755 0.012750 0.000072 0.003552 0.000160 -0.001772
# 3 -0.000924 0.000072 0.011940 0.007012 0.003566 -0.000515
# 4 0.004563 0.003552 0.007012 0.047048 -0.000041 0.003865
# 5 0.000319 0.000160 0.003566 -0.000041 0.030287 0.006991
# 6 -0.000471 -0.001772 -0.000515 0.003865 0.006991 0.041920
#
#
# Mechanical properties :
#
#
# Convention : Reuss Voigt Hill
#
# Bulk Modulus (GPa) = 33.95551 42.93013 38.44282
# Shear Modulus (GPa) = 28.91081 33.13649 31.02365
#
# Velocity S-wave (km/s) = 3.80601 4.07468 3.94264
# Velocity P-wave (km/s) = 6.02725 6.60662 6.32357
#
# Compressibility (1/GPa) = 0.02945030
#
# Stress axis : x y z
#
# Youngs Moduli (GPa) = 83.52561 78.43378 83.75116
#
# Poissons Ratio (x) = 0.21606 0.07735
# Poissons Ratio (y) = 0.23009 -0.00606
# Poissons Ratio (z) = 0.07715 -0.00568
#
# Static dielectric constant tensor:
#      x y z
#    x 1.704430 0.038380 -0.017830 
#    y 0.038380 1.740850 -0.043350 
#    z -0.017830 -0.043350 1.705230 
# 
# From -- ./inp_files/186362.got.cif
#   From: 2010.05.17/outbox.cif.g08.bks.cpg/sg2_94_cif.got.tgz:186362.got - 2010.06.03 11:33:40.
