data_PCOD9038768
_publ_section_title
;
Structure prediction by ZEFSAII (Michael W. Deem and Ramdas Pophale) SiO2 
 PCOD9038768
Probable space group: P -1
;
_chemical_formula_sum "Si O2"
_cell_formula_units_Z 16
_cell_length_a 10.978210
_cell_length_b 5.838258
_cell_length_c 24.539280
_cell_angle_alpha 49.215344
_cell_angle_beta 146.140874
_cell_angle_gamma 115.657503
_cell_volume 640.786037
_symmetry_space_group_name_H-M "P -1"
_symmetry_group_IT_number 2
_symmetry_cell_setting 'triclinic'
loop_
_space_group_symop_operation_xyz
x,y,z
-x,-y,-z
loop_
_atom_site_type_symbol
_atom_site_label
_atom_site_fract_x
_atom_site_fract_y
_atom_site_fract_z
Si Si1 0.667390 0.279671 0.023492
Si Si2 0.153697 0.744003 0.026122
Si Si3 0.340222 0.147519 0.611677
Si Si4 0.319591 0.790020 0.464381
Si Si5 0.081687 0.324456 0.234660
Si Si6 0.046314 0.958712 0.446952
Si Si7 0.812910 0.557019 0.203972
Si Si8 0.293829 0.752245 0.193601
O O1 0.864124 0.409344 0.102186
O O2 0.715253 0.928147 0.120479
O O3 0.716887 0.244295 0.983088
O O4 0.414502 0.501639 0.899852
O O5 0.316370 0.700189 0.145776
O O6 0.000000 0.500000 0.000000
O O7 0.961511 0.058300 0.917638
O O8 0.395350 0.416491 0.551478
O O9 0.547396 0.071915 0.742742
O O10 0.251139 0.931763 0.569729
O O11 0.127648 0.213065 0.564336
O O12 0.500000 0.000000 0.500000
O O13 0.160112 0.949906 0.330671
O O14 0.160108 0.847210 0.449354
O O15 0.293073 0.425127 0.272032
O O16 0.005954 0.483405 0.240467
O O17 0.903768 0.320771 0.324331
#
# Coordination Sequence:
#
# PCOD9038768 Si02
#       8
#     2   2   2   2   2   2   2   2
#     4  11  22  40  66  91 127 171 213 261 324 384
#     4  11  24  41  63  94 131 166 211 264 318 393
#     4  11  24  46  67  94 129 175 219 266 328 388
#     4  11  23  42  67  99 128 168 214 271 329 386
#     4  11  21  41  64  94 131 161 213 269 321 380
#     4  10  25  45  67  93 132 172 220 271 320 390
#     4  10  23  42  61  95 125 170 215 265 319 382
#     4  11  24  41  65  96 130 168 211 269 325 379
#
# _framework density 24.969335999999998
#
# number of rings (size 3 to 8) (size 9 to 14) (size 15 to 20)
#    0.000    1.250    3.750    1.500    1.750    2.500 
#   13.500    0.000    0.000    0.000    0.000    0.000 
#    0.000    0.000    0.000    0.000    0.000    0.000 
#
# Total GULP energy -89344.632983 kJ/mol
# GULP energy per Si atom -5584.039561 kJ/mol
# Density = 2.491250 g / cm^3
# Si number density = 24.969336 Si / 1000 Ang^3
#
#
#
# Elastic Constant Matrix: (Units=GPa)
#
#
# Indices 1 2 3 4 5 6 
#
# 1 99.5951 10.4607 24.3427 -1.2734 -8.7724 17.8525
# 2 10.4607 52.9563 36.1512 3.4692 -5.5360 27.1420
# 3 24.3427 36.1512 115.1858 29.0029 -12.3042 5.4505
# 4 -1.2734 3.4692 29.0029 43.0002 0.4260 0.6545
# 5 -8.7724 -5.5360 -12.3042 0.4260 33.8469 6.2682
# 6 17.8525 27.1420 5.4505 0.6545 6.2682 35.0839
#
#
#
# Elastic Compliance Matrix: (Units=1/GPa)
#
#
# Indices 1 2 3 4 5 6 
#
# 1 0.013229 0.007612 -0.004810 0.003165 0.005269 -0.012874
# 2 0.007612 0.051820 -0.016388 0.007641 0.012505 -0.043793
# 3 -0.004810 -0.016388 0.016851 -0.010379 -0.000024 0.012706
# 4 0.003165 0.007641 -0.010379 0.029839 -0.000911 -0.006303
# 5 0.005269 0.012505 -0.000024 -0.000911 0.036449 -0.018847
# 6 -0.012874 -0.043793 0.012706 -0.006303 -0.018847 0.070444
#
#
# Mechanical properties :
#
#
# Convention : Reuss Voigt Hill
#
# Bulk Modulus (GPa) = 18.27226 45.51626 31.89426
# Shear Modulus (GPa) = 18.93607 35.50507 27.22057
#
# Velocity S-wave (km/s) = 2.75684 3.77496 3.30534
# Velocity P-wave (km/s) = 4.17940 6.10482 5.23145
#
# Compressibility (1/GPa) = 0.05472778
#
# Stress axis : x y z
#
# Youngs Moduli (GPa) = 75.59185 19.29772 59.34294
#
# Poissons Ratio (x) = -0.14689 0.28542
# Poissons Ratio (y) = -0.57540 0.97252
# Poissons Ratio (z) = 0.36357 0.31625
#
# Static dielectric constant tensor:
#      x y z
#    x 1.920670 0.015590 -0.034590 
#    y 0.015590 2.065780 -0.073710 
#    z -0.034590 -0.073710 2.121870 
# 
# From -- ./inp_files/371093.got.cif
#   From: 2010.05.17/outbox.cif.g08.bks.cpg/sg2_186_cif.got.tgz:371093.got - 2010.06.03 11:33:40.
