data_PCOD9038393
_publ_section_title
;
Structure prediction by ZEFSAII (Michael W. Deem and Ramdas Pophale) SiO2 
 PCOD9038393
Probable space group: P -1
;
_chemical_formula_sum "Si O2"
_cell_formula_units_Z 12
_cell_length_a 8.080733
_cell_length_b 11.875789
_cell_length_c 5.873189
_cell_angle_alpha 98.878430
_cell_angle_beta 122.695477
_cell_angle_gamma 78.620578
_cell_volume 464.213357
_symmetry_space_group_name_H-M "P -1"
_symmetry_group_IT_number 2
_symmetry_cell_setting 'triclinic'
loop_
_space_group_symop_operation_xyz
x,y,z
-x,-y,-z
loop_
_atom_site_type_symbol
_atom_site_label
_atom_site_fract_x
_atom_site_fract_y
_atom_site_fract_z
Si Si1 0.744385 0.974344 0.693345
Si Si2 0.153223 0.811979 0.414537
Si Si3 0.791626 0.762111 0.414413
Si Si4 0.721523 0.429275 0.683621
Si Si5 0.605949 0.104659 0.014892
Si Si6 0.735276 0.504090 0.217604
O O1 0.827333 0.058286 0.603590
O O2 0.500000 0.000000 0.500000
O O3 0.828417 0.840769 0.685773
O O4 0.778700 0.035463 0.973013
O O5 0.248028 0.708391 0.290482
O O6 0.303043 0.806011 0.734416
O O7 0.937364 0.794438 0.335369
O O8 0.785348 0.628115 0.372381
O O9 0.569018 0.816297 0.214304
O O10 0.500000 0.500000 0.500000
O O11 0.800657 0.433959 0.479175
O O12 0.808677 0.476589 0.999986
O O13 0.500000 0.000000 0.000000
O O14 0.500000 0.500000 0.000000
#
# Coordination Sequence:
#
# PCOD9038393 Si02
#       6
#     2   2   2   2   2   2
#     4  10  23  41  69 100 137 181 232 281 357 428
#     4  12  25  45  69 103 142 180 235 299 353 425
#     4  11  25  45  69 106 139 179 239 295 353 430
#     4  10  24  42  73  98 141 186 240 293 356 421
#     4  11  23  42  68  98 139 188 227 282 362 423
#     4  10  23  45  70 100 140 187 239 292 357 422
#
# _framework density 25.850180000000002
#
# number of rings (size 3 to 8) (size 9 to 14) (size 15 to 20)
#    0.000    1.333    3.333    2.500   11.667    3.333 
#    3.000    0.000    0.000    0.000    0.000    0.000 
#    0.000    0.000    0.000    0.000    0.000    0.000 
#
# Total GULP energy -66884.404291 kJ/mol
# GULP energy per Si atom -5573.700358 kJ/mol
# Density = 2.579134 g / cm^3
# Si number density = 25.850180 Si / 1000 Ang^3
#
#
#
# Elastic Constant Matrix: (Units=GPa)
#
#
# Indices 1 2 3 4 5 6 
#
# 1 94.9200 37.5297 24.5780 3.9895 3.6323 3.8125
# 2 37.5297 119.7865 48.9264 47.4548 0.3157 3.7647
# 3 24.5780 48.9264 86.2317 9.5234 -9.6883 -4.3680
# 4 3.9895 47.4548 9.5234 50.1672 -1.2053 -3.0648
# 5 3.6323 0.3157 -9.6883 -1.2053 40.1572 0.9551
# 6 3.8125 3.7647 -4.3680 -3.0648 0.9551 44.9937
#
#
#
# Elastic Compliance Matrix: (Units=1/GPa)
#
#
# Indices 1 2 3 4 5 6 
#
# 1 0.012762 -0.004903 -0.001456 0.003835 -0.001340 -0.000523
# 2 -0.004903 0.020559 -0.008741 -0.017655 -0.002278 -0.003307
# 3 -0.001456 -0.008741 0.017006 0.005431 0.004400 0.002782
# 4 0.003835 -0.017655 0.005431 0.035595 0.002074 0.004060
# 5 -0.001340 -0.002278 0.004400 0.002074 0.026158 0.000317
# 6 -0.000523 -0.003307 0.002782 0.004060 0.000317 0.023086
#
#
# Mechanical properties :
#
#
# Convention : Reuss Voigt Hill
#
# Bulk Modulus (GPa) = 49.68443 58.11181 53.89812
# Shear Modulus (GPa) = 29.05713 39.72387 34.39050
#
# Velocity S-wave (km/s) = 3.35634 3.92432 3.65139
# Velocity P-wave (km/s) = 5.85507 6.56223 6.21871
#
# Compressibility (1/GPa) = 0.02012703
#
# Stress axis : x y z
#
# Youngs Moduli (GPa) = 78.35840 48.64167 58.80110
#
# Poissons Ratio (x) = 0.23850 0.08562
# Poissons Ratio (y) = 0.38420 0.51397
# Poissons Ratio (z) = 0.11409 0.42516
#
# Static dielectric constant tensor:
#      x y z
#    x 2.290760 -0.075210 -0.403120 
#    y -0.075210 0.978410 -0.685150 
#    z -0.403120 -0.685150 2.125070 
# 
# From -- ./inp_files/28789.got.cif
#   From: 2010.05.17/outbox.cif.g08.bks.cpg/sg2_15_cif.got.tgz:28789.got - 2010.06.03 11:33:40.
