data_PCOD9038703
_publ_section_title
;
Structure prediction by ZEFSAII (Michael W. Deem and Ramdas Pophale) SiO2 
 PCOD9038703
Probable space group: P -1
;
_chemical_formula_sum "Si O2"
_cell_formula_units_Z 15
_cell_length_a 7.816881
_cell_length_b 8.830728
_cell_length_c 12.716227
_cell_angle_alpha 72.910341
_cell_angle_beta 132.935189
_cell_angle_gamma 115.519995
_cell_volume 579.948163
_symmetry_space_group_name_H-M "P -1"
_symmetry_group_IT_number 2
_symmetry_cell_setting 'triclinic'
loop_
_space_group_symop_operation_xyz
x,y,z
-x,-y,-z
loop_
_atom_site_type_symbol
_atom_site_label
_atom_site_fract_x
_atom_site_fract_y
_atom_site_fract_z
Si Si1 0.828135 0.505100 0.188744
Si Si2 0.200462 0.514038 0.172051
Si Si3 0.958068 0.308442 0.555858
Si Si4 0.474170 0.829799 0.314171
Si Si5 0.000000 0.000000 0.500000
Si Si6 0.927522 0.001612 0.822601
Si Si7 0.660970 0.759843 0.942841
Si Si8 0.588476 0.749909 0.602189
O O1 0.726580 0.595568 0.035570
O O2 0.062879 0.481270 0.235090
O O3 0.897999 0.642090 0.282822
O O4 0.632336 0.325282 0.173965
O O5 0.377162 0.704316 0.204359
O O6 0.371695 0.398807 0.282796
O O7 0.000000 0.500000 0.000000
O O8 0.663093 0.224707 0.469016
O O9 0.000000 0.500000 0.500000
O O10 0.045233 0.186178 0.543191
O O11 0.244304 0.886728 0.243028
O O12 0.553473 0.736201 0.465387
O O13 0.713947 0.984119 0.359538
O O14 0.214280 0.098997 0.945174
O O15 0.833776 0.913018 0.690406
O O16 0.821514 0.849671 0.892255
#
# Coordination Sequence:
#
# PCOD9038703 Si02
#       8
#     2   2   2   2   1   2   2   2
#     4  11  24  46  74 108 152 206 259 314 392 468
#     4  12  27  48  75 114 150 205 264 321 387 480
#     4  12  26  48  78 112 154 205 259 332 394 467
#     4  12  26  47  72 108 152 196 260 319 389 468
#     4  12  30  46  74 116 156 194 268 322 396 470
#     4  11  22  44  73 106 147 200 252 314 393 457
#     4  10  23  41  74 106 149 201 253 311 387 469
#     4  12  25  45  79 104 150 206 256 320 398 465
#
# _framework density 25.864379
#
# number of rings (size 3 to 8) (size 9 to 14) (size 15 to 20)
#    0.000    0.533    4.000    3.200    5.600    3.200 
#    0.000    0.667    0.000    0.000    0.000    0.000 
#    0.000    0.000    0.000    0.000    0.000    0.000 
#
# Total GULP energy -83569.824775 kJ/mol
# GULP energy per Si atom -5571.321652 kJ/mol
# Density = 2.580551 g / cm^3
# Si number density = 25.864379 Si / 1000 Ang^3
#
#
#
# Elastic Constant Matrix: (Units=GPa)
#
#
# Indices 1 2 3 4 5 6 
#
# 1 73.5457 34.4793 18.0179 15.3277 11.8823 -3.1565
# 2 34.4793 121.3884 57.6233 20.9497 -1.0833 -3.2844
# 3 18.0179 57.6233 137.3561 31.0128 -4.7300 -5.1605
# 4 15.3277 20.9497 31.0128 81.0917 17.9199 5.1284
# 5 11.8823 -1.0833 -4.7300 17.9199 32.1660 5.8118
# 6 -3.1565 -3.2844 -5.1605 5.1284 5.8118 36.7745
#
#
#
# Elastic Compliance Matrix: (Units=1/GPa)
#
#
# Indices 1 2 3 4 5 6 
#
# 1 0.017114 -0.004604 -0.000323 -0.000604 -0.006574 0.002136
# 2 -0.004604 0.011629 -0.003960 -0.001085 0.002132 -0.000098
# 3 -0.000323 -0.003960 0.009917 -0.003479 0.003204 0.000989
# 4 -0.000604 -0.001085 -0.003479 0.016151 -0.009059 -0.001457
# 5 -0.006574 0.002132 0.003204 -0.009059 0.040008 -0.004984
# 6 0.002136 -0.000098 0.000989 -0.001457 -0.004984 0.028497
#
#
# Mechanical properties :
#
#
# Convention : Reuss Voigt Hill
#
# Bulk Modulus (GPa) = 47.88011 61.39236 54.63624
# Shear Modulus (GPa) = 33.77159 44.81774 39.29466
#
# Velocity S-wave (km/s) = 3.61739 4.16720 3.90199
# Velocity P-wave (km/s) = 5.99996 6.85142 6.43978
#
# Compressibility (1/GPa) = 0.02088550
#
# Stress axis : x y z
#
# Youngs Moduli (GPa) = 58.43008 85.98989 100.83622
#
# Poissons Ratio (x) = 0.39594 0.03258
# Poissons Ratio (y) = 0.26904 0.39932
# Poissons Ratio (z) = 0.01888 0.34053
#
# Static dielectric constant tensor:
#      x y z
#    x 1.965330 -0.137490 0.092350 
#    y -0.137490 1.913820 0.136840 
#    z 0.092350 0.136840 1.997720 
# 
# From -- ./inp_files/494996.got.cif
#   From: 2010.05.17/outbox.cif.g08.bks.cpg/sg2_248_cif.got.tgz:494996.got - 2010.06.03 11:33:40.
