data_PCOD9038389
_publ_section_title
;
Structure prediction by ZEFSAII (Michael W. Deem and Ramdas Pophale) SiO2 
 PCOD9038389
Probable space group: P -1
;
_chemical_formula_sum "Si O2"
_cell_formula_units_Z 16
_cell_length_a 17.637386
_cell_length_b 13.768684
_cell_length_c 25.870113
_cell_angle_alpha 21.058062
_cell_angle_beta 21.549260
_cell_angle_gamma 21.680466
_cell_volume 734.355824
_symmetry_space_group_name_H-M "P -1"
_symmetry_group_IT_number 2
_symmetry_cell_setting 'triclinic'
loop_
_space_group_symop_operation_xyz
x,y,z
-x,-y,-z
loop_
_atom_site_type_symbol
_atom_site_label
_atom_site_fract_x
_atom_site_fract_y
_atom_site_fract_z
Si Si1 0.368360 0.880742 0.964615
Si Si2 0.445529 0.226692 0.268640
Si Si3 0.972093 0.472551 0.400204
Si Si4 0.870696 0.790714 0.681970
Si Si5 0.868757 0.844010 0.128551
Si Si6 0.632797 0.121308 0.316929
Si Si7 0.604962 0.286900 0.768454
Si Si8 0.779086 0.834097 0.974234
O O1 0.591880 0.944454 0.786923
O O2 0.212340 0.020022 0.944011
O O3 0.238139 0.012108 0.035915
O O4 0.457976 0.516557 0.090787
O O5 0.506387 0.211079 0.297510
O O6 0.186792 0.279751 0.397199
O O7 0.635554 0.928858 0.267397
O O8 0.760490 0.398967 0.581795
O O9 0.062718 0.380229 0.330768
O O10 0.877837 0.829092 0.295717
O O11 0.973705 0.517669 0.793810
O O12 0.000000 0.000000 0.500000
O O13 0.000000 0.000000 0.000000
O O14 0.598976 0.430822 0.211052
O O15 0.500000 0.000000 0.500000
O O16 0.465833 0.172447 0.876367
O O17 0.770307 0.043140 0.827108
O O18 0.000000 0.500000 0.000000
#
# Coordination Sequence:
#
# PCOD9038389 Si02
#       8
#     2   2   2   2   2   2   2   2
#     4  12  26  45  71 106 137 186 245 283 356 429
#     4  12  23  42  72 103 137 178 237 292 349 418
#     4  11  24  43  70 101 139 177 227 289 352 416
#     4  12  26  46  71 103 146 189 230 295 354 421
#     4  12  25  45  72 103 141 187 238 294 351 419
#     4  10  23  41  69 100 135 179 226 287 345 408
#     4  10  24  46  66 101 136 179 234 283 352 417
#     4  11  26  45  70  95 138 185 229 287 346 424
#
# _framework density 21.787804000000001
#
# number of rings (size 3 to 8) (size 9 to 14) (size 15 to 20)
#    0.000    0.750    5.000    1.875    1.750    7.500 
#    2.250    0.000    0.000    0.000    0.000    0.000 
#    0.000    0.000    0.000    0.000    0.000    0.000 
#
# Total GULP energy -89494.619725 kJ/mol
# GULP energy per Si atom -5593.413733 kJ/mol
# Density = 2.173821 g / cm^3
# Si number density = 21.787804 Si / 1000 Ang^3
#
#
#
# Elastic Constant Matrix: (Units=GPa)
#
#
# Indices 1 2 3 4 5 6 
#
# 1 123.6403 20.3870 13.1808 -3.0745 14.4786 -17.5756
# 2 20.3870 85.8745 2.3657 -3.7204 3.1699 -11.2258
# 3 13.1808 2.3657 80.2580 -0.9526 0.1726 -16.1875
# 4 -3.0745 -3.7204 -0.9526 32.6507 -1.8285 5.0592
# 5 14.4786 3.1699 0.1726 -1.8285 29.8331 -2.2725
# 6 -17.5756 -11.2258 -16.1875 5.0592 -2.2725 37.9487
#
#
#
# Elastic Compliance Matrix: (Units=1/GPa)
#
#
# Indices 1 2 3 4 5 6 
#
# 1 0.009393 -0.001629 -0.000825 -0.000065 -0.004135 0.003277
# 2 -0.001629 0.012458 0.000522 0.000797 -0.000256 0.003032
# 3 -0.000825 0.000522 0.013729 -0.000468 0.000674 0.005731
# 4 -0.000065 0.000797 -0.000468 0.031419 0.001564 -0.004089
# 5 -0.004135 -0.000256 0.000674 0.001564 0.035663 0.000224
# 6 0.003277 0.003032 0.005731 -0.004089 0.000224 0.031769
#
#
# Mechanical properties :
#
#
# Convention : Reuss Voigt Hill
#
# Bulk Modulus (GPa) = 31.53151 40.18217 35.85684
# Shear Modulus (GPa) = 33.58686 37.00912 35.29799
#
# Velocity S-wave (km/s) = 3.93051 4.12590 4.02939
# Velocity P-wave (km/s) = 5.92470 6.41716 6.17584
#
# Compressibility (1/GPa) = 0.03171431
#
# Stress axis : x y z
#
# Youngs Moduli (GPa) = 106.46140 80.27252 72.83900
#
# Poissons Ratio (x) = 0.13076 0.06013
# Poissons Ratio (y) = 0.17342 -0.03801
# Poissons Ratio (z) = 0.08788 -0.04189
#
# Static dielectric constant tensor:
#      x y z
#    x 1.785310 -0.017540 -0.006570 
#    y -0.017540 1.819410 0.002570 
#    z -0.006570 0.002570 1.799640 
# 
# From -- ./inp_files/579869.got.cif
#   From: 2010.05.17/outbox.cif.g08.bks.cpg/sg2_290_cif.got.tgz:579869.got - 2010.06.03 11:33:40.
