data_PCOD9038075
_publ_section_title
;
Structure prediction by ZEFSAII (Michael W. Deem and Ramdas Pophale) SiO2 
 PCOD9038075
Probable space group: P -1
;
_chemical_formula_sum "Si O2"
_cell_formula_units_Z 12
_cell_length_a 9.889415
_cell_length_b 10.575232
_cell_length_c 18.199260
_cell_angle_alpha 34.300380
_cell_angle_beta 148.758958
_cell_angle_gamma 144.020755
_cell_volume 520.650841
_symmetry_space_group_name_H-M "P -1"
_symmetry_group_IT_number 2
_symmetry_cell_setting 'triclinic'
loop_
_space_group_symop_operation_xyz
x,y,z
-x,-y,-z
loop_
_atom_site_type_symbol
_atom_site_label
_atom_site_fract_x
_atom_site_fract_y
_atom_site_fract_z
Si Si1 0.892040 0.699950 0.885346
Si Si2 0.692744 0.717148 0.531983
Si Si3 0.280725 0.558794 0.731901
Si Si4 0.252925 0.001706 0.436356
Si Si5 0.859437 0.943205 0.042439
Si Si6 0.298590 0.803475 0.772542
O O1 0.035315 0.831305 0.963275
O O2 0.946098 0.907131 0.749160
O O3 0.000000 0.500000 0.000000
O O4 0.527754 0.849455 0.919120
O O5 0.500000 0.500000 0.500000
O O6 0.617538 0.803444 0.533394
O O7 0.976084 0.666460 0.705026
O O8 0.712102 0.943016 0.381125
O O9 0.559529 0.589690 0.800573
O O10 0.376426 0.670592 0.803591
O O11 0.135571 0.737055 0.544788
O O12 0.500000 0.000000 0.500000
O O13 0.909930 0.716128 0.212783
O O14 0.000000 0.000000 0.000000
#
# Coordination Sequence:
#
# PCOD9038075 Si02
#       6
#     2   2   2   2   2   2
#     4  11  26  44  69 106 146 186 229 290 354 418
#     4  10  23  41  72  98 138 180 227 297 351 407
#     4  10  23  45  69 100 141 183 240 290 340 420
#     4   9  22  46  68  98 144 182 233 282 347 433
#     4  12  26  42  75 101 139 194 234 288 353 409
#     4  10  23  41  66 109 131 174 245 286 344 417
#
# _framework density 23.048075000000001
#
# number of rings (size 3 to 8) (size 9 to 14) (size 15 to 20)
#    0.000    1.667    1.667    0.500    7.000    1.333 
#    0.000    3.333    0.000    0.000    0.000    0.000 
#    0.000    0.000    0.000    0.000    0.000    0.000 
#
# Total GULP energy -67071.736665 kJ/mol
# GULP energy per Si atom -5589.311389 kJ/mol
# Density = 2.299562 g / cm^3
# Si number density = 23.048075 Si / 1000 Ang^3
#
#
#
# Elastic Constant Matrix: (Units=GPa)
#
#
# Indices 1 2 3 4 5 6 
#
# 1 104.6027 64.6029 59.8343 -11.0588 11.1298 -23.8903
# 2 64.6029 112.3476 45.8184 -7.5162 7.6230 -26.2175
# 3 59.8343 45.8184 133.6709 -11.7174 -0.7000 -19.7294
# 4 -11.0588 -7.5162 -11.7174 39.0429 -0.4570 5.1697
# 5 11.1298 7.6230 -0.7000 -0.4570 36.5763 -1.1624
# 6 -23.8903 -26.2175 -19.7294 5.1697 -1.1624 30.2498
#
#
#
# Elastic Compliance Matrix: (Units=1/GPa)
#
#
# Indices 1 2 3 4 5 6 
#
# 1 0.018518 -0.007100 -0.005028 0.001693 -0.004079 0.004746
# 2 -0.007100 0.015001 -0.000997 -0.000328 -0.000774 0.006769
# 3 -0.005028 -0.000997 0.010471 0.001305 0.002013 0.001849
# 4 0.001693 -0.000328 0.001305 0.026774 -0.000172 -0.002678
# 5 -0.004079 -0.000774 0.002013 -0.000172 0.028733 -0.001446
# 6 0.004746 0.006769 0.001849 -0.002678 -0.001446 0.044281
#
#
# Mechanical properties :
#
#
# Convention : Reuss Voigt Hill
#
# Bulk Modulus (GPa) = 56.37163 76.79250 66.58207
# Shear Modulus (GPa) = 28.41845 33.19817 30.80831
#
# Velocity S-wave (km/s) = 3.51523 3.79936 3.66005
# Velocity P-wave (km/s) = 6.40212 7.25518 6.84196
#
# Compressibility (1/GPa) = 0.01773942
#
# Stress axis : x y z
#
# Youngs Moduli (GPa) = 54.00113 66.66297 95.49938
#
# Poissons Ratio (x) = 0.47333 0.48015
# Poissons Ratio (y) = 0.38343 0.09523
# Poissons Ratio (z) = 0.27151 0.06648
#
# Static dielectric constant tensor:
#      x y z
#    x 1.894830 0.059510 -0.024980 
#    y 0.059510 1.891900 -0.023180 
#    z -0.024980 -0.023180 1.945930 
# 
# From -- ./inp_files/555845.got.cif
#   From: 2010.05.17/outbox.cif.g08.bks.cpg/sg2_278_cif.got.tgz:555845.got - 2010.06.03 11:33:40.
