data_PCOD9038782
_publ_section_title
;
Structure prediction by ZEFSAII (Michael W. Deem and Ramdas Pophale) SiO2 
 PCOD9038782
Probable space group: P -1
;
_chemical_formula_sum "Si O2"
_cell_formula_units_Z 16
_cell_length_a 21.345087
_cell_length_b 10.476985
_cell_length_c 8.164815
_cell_angle_alpha 136.512121
_cell_angle_beta 80.437613
_cell_angle_gamma 130.937754
_cell_volume 763.029782
_symmetry_space_group_name_H-M "P -1"
_symmetry_group_IT_number 2
_symmetry_cell_setting 'triclinic'
loop_
_space_group_symop_operation_xyz
x,y,z
-x,-y,-z
loop_
_atom_site_type_symbol
_atom_site_label
_atom_site_fract_x
_atom_site_fract_y
_atom_site_fract_z
Si Si1 0.856727 0.281086 0.283697
Si Si2 0.521097 0.297244 0.117671
Si Si3 0.639060 0.772842 0.012316
Si Si4 0.477192 0.120963 0.355688
Si Si5 0.911828 0.408983 0.862709
Si Si6 0.077196 0.262109 0.076356
Si Si7 0.922057 0.130223 0.352789
Si Si8 0.685538 0.957411 0.547130
O O1 0.856227 0.442611 0.572138
O O2 0.898611 0.178140 0.235136
O O3 0.952472 0.570861 0.399459
O O4 0.735262 0.976666 0.033298
O O5 0.432505 0.221238 0.006374
O O6 0.526648 0.109769 0.854506
O O7 0.497090 0.217137 0.245607
O O8 0.625488 0.653729 0.380943
O O9 0.671588 0.883166 0.289447
O O10 0.569630 0.428379 0.704568
O O11 0.374221 0.989747 0.336602
O O12 0.963828 0.699725 0.013242
O O13 0.872026 0.155427 0.523133
O O14 0.804105 0.238772 0.817769
O O15 0.000000 0.500000 0.000000
O O16 0.121457 0.175438 0.902289
O O17 0.000000 0.000000 0.000000
#
# Coordination Sequence:
#
# PCOD9038782 Si02
#       8
#     2   2   2   2   2   2   2   2
#     4   9  18  34  56  90 116 153 200 249 301 355
#     4  10  23  42  62  88 120 163 206 249 316 376
#     4  11  20  36  63  96 122 154 205 256 309 362
#     4  10  23  42  63  88 123 160 204 257 309 379
#     4  11  24  40  59  92 127 165 206 250 310 365
#     4   9  18  37  59  81 116 157 205 249 290 355
#     4   9  18  35  57  79 122 162 197 243 296 356
#     4  11  22  40  62  90 126 160 201 256 313 365
#
# _framework density 20.969038999999999
#
# number of rings (size 3 to 8) (size 9 to 14) (size 15 to 20)
#    0.000    2.000    2.500    3.750    0.000    6.500 
#    0.000    5.000    0.000    0.000    0.000    0.000 
#    0.000    0.000    0.000    0.000    0.000    0.000 
#
# Total GULP energy -89071.963004 kJ/mol
# GULP energy per Si atom -5566.997688 kJ/mol
# Density = 2.092131 g / cm^3
# Si number density = 20.969039 Si / 1000 Ang^3
#
#
#
# Elastic Constant Matrix: (Units=GPa)
#
#
# Indices 1 2 3 4 5 6 
#
# 1 117.1396 43.7529 61.8239 21.1590 -12.4157 1.7966
# 2 43.7529 62.1851 20.2805 12.5839 9.0257 8.4830
# 3 61.8239 20.2805 58.5249 4.9363 -9.5080 4.1623
# 4 21.1590 12.5839 4.9363 23.9827 8.5197 -1.8252
# 5 -12.4157 9.0257 -9.5080 8.5197 45.7345 7.1268
# 6 1.7966 8.4830 4.1623 -1.8252 7.1268 41.0889
#
#
#
# Elastic Compliance Matrix: (Units=1/GPa)
#
#
# Indices 1 2 3 4 5 6 
#
# 1 0.029949 -0.010445 -0.025191 -0.018597 0.008241 0.001143
# 2 -0.010445 0.024687 0.001911 -0.002184 -0.006305 -0.003837
# 3 -0.025191 0.001911 0.042147 0.012432 -0.000309 -0.002957
# 4 -0.018597 -0.002184 0.012432 0.062225 -0.014447 0.005274
# 5 0.008241 -0.006305 -0.000309 -0.014447 0.028698 -0.004647
# 6 0.001143 -0.003837 -0.002957 0.005274 -0.004647 0.026419
#
#
# Mechanical properties :
#
#
# Convention : Reuss Voigt Hill
#
# Bulk Modulus (GPa) = 34.09050 54.39604 44.24327
# Shear Modulus (GPa) = 17.16134 29.62738 23.39436
#
# Velocity S-wave (km/s) = 2.86390 3.76295 3.34378
# Velocity P-wave (km/s) = 5.21811 6.69904 6.00441
#
# Compressibility (1/GPa) = 0.02933368
#
# Stress axis : x y z
#
# Youngs Moduli (GPa) = 33.39050 40.50722 23.72626
#
# Poissons Ratio (x) = 0.42308 0.59770
# Poissons Ratio (y) = 0.34875 -0.04535
# Poissons Ratio (z) = 0.84115 -0.07742
#
# Static dielectric constant tensor:
#      x y z
#    x 1.756790 0.011940 0.010010 
#    y 0.011940 1.875000 -0.056450 
#    z 0.010010 -0.056450 1.803850 
# 
# From -- ./inp_files/353726.got.cif
#   From: 2010.05.17/outbox.cif.g08.bks.cpg/sg2_177_cif.got.tgz:353726.got - 2010.06.03 11:33:40.
