data_PCOD9038381
_publ_section_title
;
Structure prediction by ZEFSAII (Michael W. Deem and Ramdas Pophale) SiO2 
 PCOD9038381
Probable space group: P -1
;
_chemical_formula_sum "Si O2"
_cell_formula_units_Z 16
_cell_length_a 13.482861
_cell_length_b 9.195067
_cell_length_c 5.275062
_cell_angle_alpha 100.319246
_cell_angle_beta 80.846267
_cell_angle_gamma 104.622705
_cell_volume 618.092386
_symmetry_space_group_name_H-M "P -1"
_symmetry_group_IT_number 2
_symmetry_cell_setting 'triclinic'
loop_
_space_group_symop_operation_xyz
x,y,z
-x,-y,-z
loop_
_atom_site_type_symbol
_atom_site_label
_atom_site_fract_x
_atom_site_fract_y
_atom_site_fract_z
Si Si1 0.614969 0.967095 0.435663
Si Si2 0.329348 0.260801 0.008356
Si Si3 0.015369 0.870946 0.142561
Si Si4 0.977547 0.616734 0.753275
Si Si5 0.235177 0.520094 0.937054
Si Si6 0.511136 0.667381 0.653958
Si Si7 0.302680 0.696673 0.480732
Si Si8 0.134967 0.158631 0.409626
O O1 0.594722 0.814013 0.561916
O O2 0.500000 0.000000 0.500000
O O3 0.693554 0.126081 0.512580
O O4 0.660180 0.902384 0.149130
O O5 0.294222 0.381130 0.871611
O O6 0.445626 0.333791 0.080478
O O7 0.241596 0.231931 0.253169
O O8 0.897996 0.821155 0.283395
O O9 0.099498 0.976370 0.324793
O O10 0.049407 0.728157 0.963002
O O11 0.000000 0.000000 0.000000
O O12 0.880094 0.531853 0.928494
O O13 0.942023 0.747559 0.651043
O O14 0.000000 0.500000 0.500000
O O15 0.293731 0.623529 0.181427
O O16 0.227889 0.590532 0.681199
O O17 0.500000 0.500000 0.500000
O O18 0.405005 0.702418 0.612870
#
# Coordination Sequence:
#
# PCOD9038381 Si02
#       8
#     2   2   2   2   2   2   2   2
#     4  10  26  44  65  98 139 190 232 303 349 421
#     4  11  24  41  72 100 136 189 246 291 351 429
#     4   9  19  40  65  91 133 171 224 285 350 418
#     4  10  23  41  68  99 137 181 227 294 360 424
#     4  11  26  46  72 104 143 189 243 294 352 433
#     4  11  23  41  72 100 137 184 239 289 353 415
#     4  11  26  46  68 102 149 185 237 297 357 422
#     4   9  21  41  66 100 130 181 231 292 347 425
#
# _framework density 25.886099000000002
#
# number of rings (size 3 to 8) (size 9 to 14) (size 15 to 20)
#    0.000    1.750    1.250    0.750    8.750    5.500 
#    6.750    0.000    0.000    0.000    0.000    0.000 
#    0.000    0.000    0.000    0.000    0.000    0.000 
#
# Total GULP energy -89136.974627 kJ/mol
# GULP energy per Si atom -5571.060914 kJ/mol
# Density = 2.582718 g / cm^3
# Si number density = 25.886099 Si / 1000 Ang^3
#
#
#
# Elastic Constant Matrix: (Units=GPa)
#
#
# Indices 1 2 3 4 5 6 
#
# 1 27.7208 41.5974 12.5812 16.1192 4.5259 -10.4134
# 2 41.5974 171.7075 62.3782 32.0769 -1.8098 -3.0861
# 3 12.5812 62.3782 107.2673 17.1555 -11.6749 -7.2065
# 4 16.1192 32.0769 17.1555 69.6594 7.4961 -9.2160
# 5 4.5259 -1.8098 -11.6749 7.4961 32.0847 5.0192
# 6 -10.4134 -3.0861 -7.2065 -9.2160 5.0192 24.0199
#
#
#
# Elastic Compliance Matrix: (Units=1/GPa)
#
#
# Indices 1 2 3 4 5 6 
#
# 1 0.083823 -0.020209 0.003266 -0.004289 -0.016487 0.036523
# 2 -0.020209 0.012717 -0.005031 -0.001668 0.003699 -0.010050
# 3 0.003266 -0.005031 0.012738 -0.001555 0.003752 0.003211
# 4 -0.004289 -0.001668 -0.001555 0.017745 -0.005033 0.005320
# 5 -0.016487 0.003699 0.003752 -0.005033 0.038677 -0.015560
# 6 0.036523 -0.010050 0.003211 0.005320 -0.015560 0.062431
#
#
# Mechanical properties :
#
#
# Convention : Reuss Voigt Hill
#
# Bulk Modulus (GPa) = 15.30697 59.97878 37.64287
# Shear Modulus (GPa) = 17.01515 37.82873 27.42194
#
# Velocity S-wave (km/s) = 2.56658 3.82691 3.25827
# Velocity P-wave (km/s) = 3.83525 6.53816 5.35989
#
# Compressibility (1/GPa) = 0.06532972
#
# Stress axis : x y z
#
# Youngs Moduli (GPa) = 11.92986 78.63254 78.50708
#
# Poissons Ratio (x) = 1.58912 -0.25640
# Poissons Ratio (y) = 0.24110 0.39495
# Poissons Ratio (z) = -0.03896 0.39559
#
# Static dielectric constant tensor:
#      x y z
#    x 2.183850 0.060140 0.185510 
#    y 0.060140 2.051380 -0.068590 
#    z 0.185510 -0.068590 2.332500 
# 
# From -- ./inp_files/90677.got.cif
#   From: 2010.05.17/outbox.cif.g08.bks.cpg/sg2_46_cif.got.tgz:90677.got - 2010.06.03 11:33:40.
