data_PCOD9038550
_publ_section_title
;
Structure prediction by ZEFSAII (Michael W. Deem and Ramdas Pophale) SiO2 
 PCOD9038550
Probable space group: P -1
;
_chemical_formula_sum "Si O2"
_cell_formula_units_Z 16
_cell_length_a 9.593080
_cell_length_b 9.092162
_cell_length_c 12.282725
_cell_angle_alpha 129.415041
_cell_angle_beta 94.509806
_cell_angle_gamma 116.250630
_cell_volume 634.604098
_symmetry_space_group_name_H-M "P -1"
_symmetry_group_IT_number 2
_symmetry_cell_setting 'triclinic'
loop_
_space_group_symop_operation_xyz
x,y,z
-x,-y,-z
loop_
_atom_site_type_symbol
_atom_site_label
_atom_site_fract_x
_atom_site_fract_y
_atom_site_fract_z
Si Si1 0.871292 0.738389 0.223220
Si Si2 0.666440 0.106195 0.702132
Si Si3 0.374207 0.483554 0.077582
Si Si4 0.131294 0.704745 0.982850
Si Si5 0.872986 0.334231 0.618858
Si Si6 0.823634 0.723243 0.439406
Si Si7 0.328454 0.567200 0.496545
Si Si8 0.214660 0.164887 0.124044
O O1 0.817092 0.470311 0.108107
O O2 0.762881 0.728372 0.316487
O O3 0.820366 0.728417 0.091863
O O4 0.068058 0.003166 0.377066
O O5 0.597626 0.264841 0.790080
O O6 0.710247 0.116762 0.582458
O O7 0.522060 0.824233 0.598563
O O8 0.840960 0.241828 0.859861
O O9 0.349078 0.357983 0.130394
O O10 0.500000 0.500000 0.000000
O O11 0.955602 0.548982 0.818199
O O12 0.247473 0.972121 0.061864
O O13 0.808250 0.385776 0.531933
O O14 0.018990 0.301513 0.581069
O O15 0.688311 0.512571 0.417524
O O16 0.264206 0.333337 0.310989
O O17 0.000000 0.000000 0.000000
#
# Coordination Sequence:
#
# PCOD9038550 Si02
#       8
#     2   2   2   2   2   2   2   2
#     4   9  22  44  67  98 132 175 229 274 327 401
#     4  11  25  45  66 102 141 175 221 279 343 397
#     4  11  25  42  68  96 136 179 219 273 339 401
#     4  10  23  44  71  96 133 184 225 275 331 403
#     4  11  22  42  72  97 136 179 225 274 333 401
#     4  10  23  41  70  99 131 178 227 273 332 400
#     4  12  25  41  68 104 141 168 223 287 333 393
#     4  12  24  44  69 102 132 175 231 276 329 402
#
# _framework density 25.212568999999998
#
# number of rings (size 3 to 8) (size 9 to 14) (size 15 to 20)
#    0.000    1.250    2.500    1.875    1.750    9.500 
#    0.000    4.375    0.000    0.000    0.000    0.000 
#    0.000    0.000    0.000    0.000    0.000    0.000 
#
# Total GULP energy -89313.183361 kJ/mol
# GULP energy per Si atom -5582.073960 kJ/mol
# Density = 2.515518 g / cm^3
# Si number density = 25.212569 Si / 1000 Ang^3
#
#
#
# Elastic Constant Matrix: (Units=GPa)
#
#
# Indices 1 2 3 4 5 6 
#
# 1 64.5795 8.0715 18.9228 14.3353 -18.9135 4.6524
# 2 8.0715 170.3376 26.9305 11.5236 -13.3307 12.3783
# 3 18.9228 26.9305 126.4324 15.6490 -10.5235 5.9686
# 4 14.3353 11.5236 15.6490 46.1436 -3.4294 6.1122
# 5 -18.9135 -13.3307 -10.5235 -3.4294 40.1424 -1.9499
# 6 4.6524 12.3783 5.9686 6.1122 -1.9499 36.1540
#
#
#
# Elastic Compliance Matrix: (Units=1/GPa)
#
#
# Indices 1 2 3 4 5 6 
#
# 1 0.019546 0.000404 -0.001658 -0.004837 0.008442 -0.001107
# 2 0.000404 0.006360 -0.001055 -0.000981 0.001855 -0.001789
# 3 -0.001658 -0.001055 0.008738 -0.002051 0.000961 -0.000469
# 4 -0.004837 -0.000981 -0.002051 0.024409 -0.001198 -0.002894
# 5 0.008442 0.001855 0.000961 -0.001198 0.029651 -0.000079
# 6 -0.001107 -0.001789 -0.000469 -0.002894 -0.000079 0.028977
#
#
# Mechanical properties :
#
#
# Convention : Reuss Voigt Hill
#
# Bulk Modulus (GPa) = 33.30327 52.13322 42.71824
# Shear Modulus (GPa) = 37.79086 44.98297 41.38692
#
# Velocity S-wave (km/s) = 3.87575 4.22850 4.05596
# Velocity P-wave (km/s) = 5.76769 6.67553 6.23815
#
# Compressibility (1/GPa) = 0.03002709
#
# Stress axis : x y z
#
# Youngs Moduli (GPa) = 51.16172 157.23477 114.43921
#
# Poissons Ratio (x) = -0.06356 0.18973
# Poissons Ratio (y) = -0.02068 0.12072
# Poissons Ratio (z) = 0.08482 0.16586
#
# Static dielectric constant tensor:
#      x y z
#    x 2.212220 -0.009560 0.078680 
#    y -0.009560 1.961260 -0.025920 
#    z 0.078680 -0.025920 1.996510 
# 
# From -- ./inp_files/420038.got.cif
#   From: 2010.05.17/outbox.cif.g08.bks.cpg/sg2_211_cif.got.tgz:420038.got - 2010.06.03 11:33:40.
