data_PCOD9038416
_publ_section_title
;
Structure prediction by ZEFSAII (Michael W. Deem and Ramdas Pophale) SiO2 
 PCOD9038416
Probable space group: P -1
;
_chemical_formula_sum "Si O2"
_cell_formula_units_Z 12
_cell_length_a 5.143616
_cell_length_b 17.352670
_cell_length_c 8.817834
_cell_angle_alpha 133.735690
_cell_angle_beta 99.099303
_cell_angle_gamma 56.958706
_cell_volume 444.509192
_symmetry_space_group_name_H-M "P -1"
_symmetry_group_IT_number 2
_symmetry_cell_setting 'triclinic'
loop_
_space_group_symop_operation_xyz
x,y,z
-x,-y,-z
loop_
_atom_site_type_symbol
_atom_site_label
_atom_site_fract_x
_atom_site_fract_y
_atom_site_fract_z
Si Si1 0.334279 0.295521 0.793854
Si Si2 0.554169 0.132675 0.076536
Si Si3 0.783444 0.873658 0.244603
Si Si4 0.607544 0.583972 0.544835
Si Si5 0.826025 0.060405 0.315053
Si Si6 0.664088 0.479280 0.827422
O O1 0.171655 0.241364 0.803496
O O2 0.668494 0.185108 0.582484
O O3 0.059056 0.382270 0.756543
O O4 0.407768 0.378469 0.021424
O O5 0.566158 0.258242 0.233478
O O6 0.552973 0.104049 0.216381
O O7 0.270799 0.168430 0.983408
O O8 0.861550 0.994336 0.836931
O O9 0.500000 0.000000 0.500000
O O10 0.949165 0.937874 0.273837
O O11 0.500000 0.500000 0.500000
O O12 0.488714 0.576902 0.359412
O O13 0.000000 0.500000 0.500000
O O14 0.500000 0.500000 0.000000
#
# Coordination Sequence:
#
# PCOD9038416 Si02
#       6
#     2   2   2   2   2   2
#     4  10  24  45  75 114 151 196 254 320 387 463
#     4  11  25  45  72 107 148 202 251 316 382 459
#     4  10  23  41  69 104 149 189 250 309 383 452
#     4  12  31  51  80 114 157 206 261 323 389 467
#     4  10  24  45  73 107 149 195 252 312 390 454
#     4  11  26  46  78 108 154 202 258 318 392 460
#
# _framework density 26.996067
#
# number of rings (size 3 to 8) (size 9 to 14) (size 15 to 20)
#    0.000    1.333    0.000    2.500   11.667   12.000 
#    0.000    0.000    0.000    0.000    0.000    0.000 
#    0.000    0.000    0.000    0.000    0.000    0.000 
#
# Total GULP energy -66943.542056 kJ/mol
# GULP energy per Si atom -5578.628505 kJ/mol
# Density = 2.693462 g / cm^3
# Si number density = 26.996067 Si / 1000 Ang^3
#
#
#
# Elastic Constant Matrix: (Units=GPa)
#
#
# Indices 1 2 3 4 5 6 
#
# 1 112.2591 21.3471 37.3514 16.2055 20.0208 12.7712
# 2 21.3471 115.8470 42.0673 3.6649 10.9180 22.8767
# 3 37.3514 42.0673 134.1085 4.6002 31.7937 -13.8117
# 4 16.2055 3.6649 4.6002 48.1889 -5.2495 0.1804
# 5 20.0208 10.9180 31.7937 -5.2495 47.9772 -8.0593
# 6 12.7712 22.8767 -13.8117 0.1804 -8.0593 33.7338
#
#
#
# Elastic Compliance Matrix: (Units=1/GPa)
#
#
# Indices 1 2 3 4 5 6 
#
# 1 0.012184 0.001071 -0.003198 -0.004389 -0.005002 -0.007820
# 2 0.001071 0.012754 -0.004952 -0.001046 -0.002128 -0.011585
# 3 -0.003198 -0.004952 0.011694 -0.000119 -0.003885 0.008429
# 4 -0.004389 -0.001046 -0.000119 0.022876 0.005231 0.003450
# 5 -0.005002 -0.002128 -0.003885 0.005231 0.027973 0.008402
# 6 -0.007820 -0.011585 0.008429 0.003450 0.008402 0.045901
#
#
# Mechanical properties :
#
#
# Convention : Reuss Voigt Hill
#
# Bulk Modulus (GPa) = 44.49615 62.63847 53.56731
# Shear Modulus (GPa) = 32.25169 43.40990 37.83080
#
# Velocity S-wave (km/s) = 3.46017 4.01435 3.74752
# Velocity P-wave (km/s) = 5.69929 6.68878 6.21376
#
# Compressibility (1/GPa) = 0.02247386
#
# Stress axis : x y z
#
# Youngs Moduli (GPa) = 82.07599 78.40524 85.51522
#
# Poissons Ratio (x) = -0.08395 0.27349
# Poissons Ratio (y) = -0.08788 0.42344
# Poissons Ratio (z) = 0.26249 0.38823
#
# Static dielectric constant tensor:
#      x y z
#    x 2.422100 -0.304030 0.092850 
#    y -0.304030 2.481410 -0.014030 
#    z 0.092850 -0.014030 2.071190 
# 
# From -- ./inp_files/137030.got.cif
#   From: 2010.05.17/outbox.cif.g08.bks.cpg/sg2_69_cif.got.tgz:137030.got - 2010.06.03 11:33:40.
