data_PCOD9038044
_publ_section_title
;
Structure prediction by ZEFSAII (Michael W. Deem and Ramdas Pophale) SiO2 
 PCOD9038044
Probable space group: P -1
;
_chemical_formula_sum "Si O2"
_cell_formula_units_Z 12
_cell_length_a 7.838158
_cell_length_b 6.783031
_cell_length_c 19.805172
_cell_angle_alpha 60.406246
_cell_angle_beta 46.862758
_cell_angle_gamma 40.500415
_cell_volume 498.265934
_symmetry_space_group_name_H-M "P -1"
_symmetry_group_IT_number 2
_symmetry_cell_setting 'triclinic'
loop_
_space_group_symop_operation_xyz
x,y,z
-x,-y,-z
loop_
_atom_site_type_symbol
_atom_site_label
_atom_site_fract_x
_atom_site_fract_y
_atom_site_fract_z
Si Si1 0.494740 0.969001 0.326237
Si Si2 0.593026 0.049024 0.803825
Si Si3 0.180159 0.769534 0.790886
Si Si4 0.210593 0.138527 0.006066
Si Si5 0.676555 0.391042 0.399217
Si Si6 0.015559 0.752821 0.468400
O O1 0.403296 0.025781 0.262643
O O2 0.755500 0.605011 0.331406
O O3 0.635468 0.115784 0.287142
O O4 0.184236 0.105047 0.431353
O O5 0.413358 0.406035 0.796293
O O6 0.375103 0.010124 0.910671
O O7 0.924254 0.870624 0.784438
O O8 0.616039 0.442729 0.599238
O O9 0.993332 0.911449 0.889223
O O10 0.000000 0.500000 0.000000
O O11 0.500000 0.000000 0.000000
O O12 0.500000 0.500000 0.500000
O O13 0.870994 0.033116 0.409880
O O14 0.000000 0.500000 0.500000
#
# Coordination Sequence:
#
# PCOD9038044 Si02
#       6
#     2   2   2   2   2   2
#     4  11  25  44  69 100 135 173 227 278 329 396
#     4  10  23  41  66  97 137 175 217 277 326 388
#     4  10  23  41  66 100 134 176 220 269 332 394
#     4   8  16  37  62  91 133 174 213 263 327 389
#     4  10  23  45  65  91 131 167 214 275 331 393
#     4  11  25  46  69  93 128 179 217 269 341 397
#
# _framework density 24.083523
#
# number of rings (size 3 to 8) (size 9 to 14) (size 15 to 20)
#    0.000    2.000    0.000    2.500    2.333   10.000 
#    0.000    0.000    0.000   12.000    0.000    0.000 
#    0.000    0.000    0.000    0.000    0.000    0.667 
#
# Total GULP energy -66987.994081 kJ/mol
# GULP energy per Si atom -5582.332840 kJ/mol
# Density = 2.402871 g / cm^3
# Si number density = 24.083523 Si / 1000 Ang^3
#
#
#
# Elastic Constant Matrix: (Units=GPa)
#
#
# Indices 1 2 3 4 5 6 
#
# 1 68.4051 50.6779 28.4431 2.4436 4.8231 -3.6696
# 2 50.6779 170.7143 6.8733 -10.8280 0.8868 -27.9333
# 3 28.4431 6.8733 146.0351 6.4087 20.2450 6.1861
# 4 2.4436 -10.8280 6.4087 29.5661 -1.0099 0.4109
# 5 4.8231 0.8868 20.2450 -1.0099 44.9478 1.6069
# 6 -3.6696 -27.9333 6.1861 0.4109 1.6069 46.6386
#
#
#
# Elastic Compliance Matrix: (Units=1/GPa)
#
#
# Indices 1 2 3 4 5 6 
#
# 1 0.021027 -0.006608 -0.003480 -0.003398 -0.000571 -0.001792
# 2 -0.006608 0.008786 0.000487 0.003602 0.000232 0.004638
# 3 -0.003480 0.000487 0.008055 -0.001379 -0.003262 -0.000926
# 4 -0.003398 0.003602 -0.001379 0.035754 0.001657 0.001701
# 5 -0.000571 0.000232 -0.003262 0.001657 0.023822 -0.000309
# 6 -0.001792 0.004638 -0.000926 0.001701 -0.000309 0.024197
#
#
# Mechanical properties :
#
#
# Convention : Reuss Voigt Hill
#
# Bulk Modulus (GPa) = 53.57626 61.90480 57.74053
# Shear Modulus (GPa) = 33.99893 44.17451 39.08672
#
# Velocity S-wave (km/s) = 3.76135 4.28743 4.03297
# Velocity P-wave (km/s) = 6.41545 7.09009 6.76119
#
# Compressibility (1/GPa) = 0.01866498
#
# Stress axis : x y z
#
# Youngs Moduli (GPa) = 47.55889 113.82053 124.15393
#
# Poissons Ratio (x) = 0.75207 0.43208
# Poissons Ratio (y) = 0.31425 -0.06044
# Poissons Ratio (z) = 0.16551 -0.05541
#
# Static dielectric constant tensor:
#      x y z
#    x 1.989240 -0.018560 0.059500 
#    y -0.018560 2.014260 0.027370 
#    z 0.059500 0.027370 2.282350 
# 
# From -- ./inp_files/609273.got.cif
#   From: 2010.05.17/outbox.cif.g08.bks.cpg/sg2_305_cif.got.tgz:609273.got - 2010.06.03 11:33:40.
