data_PCOD9038311
_publ_section_title
;
Structure prediction by ZEFSAII (Michael W. Deem and Ramdas Pophale) SiO2 
 PCOD9038311
Probable space group: P -1
;
_chemical_formula_sum "Si O2"
_cell_formula_units_Z 13
_cell_length_a 19.587108
_cell_length_b 5.373031
_cell_length_c 10.340611
_cell_angle_alpha 85.896502
_cell_angle_beta 152.116764
_cell_angle_gamma 84.495674
_cell_volume 477.178957
_symmetry_space_group_name_H-M "P -1"
_symmetry_group_IT_number 2
_symmetry_cell_setting 'triclinic'
loop_
_space_group_symop_operation_xyz
x,y,z
-x,-y,-z
loop_
_atom_site_type_symbol
_atom_site_label
_atom_site_fract_x
_atom_site_fract_y
_atom_site_fract_z
Si Si1 0.718125 0.975183 0.404233
Si Si2 0.678211 0.968427 0.812814
Si Si3 0.871667 0.068643 0.912160
Si Si4 0.588430 0.652708 0.056161
Si Si5 0.955071 0.511744 0.175577
Si Si6 0.237930 0.769610 0.804881
Si Si7 0.000000 0.500000 0.500000
O O1 0.824880 0.033727 0.689591
O O2 0.740552 0.116865 0.304575
O O3 0.725813 0.688420 0.373419
O O4 0.550558 0.066031 0.194040
O O5 0.500000 0.000000 0.500000
O O6 0.727160 0.109567 0.767260
O O7 0.809267 0.666008 0.030537
O O8 0.706590 0.098987 0.987354
O O9 0.025878 0.232750 0.866321
O O10 0.923318 0.316931 0.025816
O O11 0.640628 0.529989 0.009335
O O12 0.500000 0.500000 0.000000
O O13 0.058874 0.336280 0.468054
O O14 0.077526 0.724578 0.568369
#
# Coordination Sequence:
#
# PCOD9038311 Si02
#       7
#     2   2   2   2   2   2   1
#     4  10  23  41  68 103 146 183 237 304 366 444
#     4  10  25  40  68 108 144 181 241 302 369 429
#     4  10  24  43  68 102 141 182 233 300 371 422
#     4   9  22  39  66 102 141 187 235 289 370 432
#     4  10  25  45  70 101 140 195 234 299 364 418
#     4  11  25  42  71 106 136 204 236 299 363 425
#     4  12  24  52  70 100 150 192 258 292 338 462
#
# _framework density 27.243448000000001
#
# number of rings (size 3 to 8) (size 9 to 14) (size 15 to 20)
#    0.923    0.923    1.538    0.000   15.077    3.077 
#    0.000    1.538    0.000    0.000    0.000    0.000 
#    0.000    0.000    0.000    0.000    0.000    0.000 
#
# Total GULP energy -72413.744188 kJ/mol
# GULP energy per Si atom -5570.288014 kJ/mol
# Density = 2.718144 g / cm^3
# Si number density = 27.243448 Si / 1000 Ang^3
#
#
#
# Elastic Constant Matrix: (Units=GPa)
#
#
# Indices 1 2 3 4 5 6 
#
# 1 199.9102 77.4180 89.3673 24.1772 -16.1673 -27.4813
# 2 77.4180 134.0538 68.9835 41.7793 -4.5865 -35.1967
# 3 89.3673 68.9835 142.1857 51.1559 -13.7391 -14.5590
# 4 24.1772 41.7793 51.1559 55.1876 -12.5566 6.7542
# 5 -16.1673 -4.5865 -13.7391 -12.5566 56.9666 12.4129
# 6 -27.4813 -35.1967 -14.5590 6.7542 12.4129 71.8003
#
#
#
# Elastic Compliance Matrix: (Units=1/GPa)
#
#
# Indices 1 2 3 4 5 6 
#
# 1 0.008053 -0.003458 -0.004591 0.003775 0.001777 -0.000206
# 2 -0.003458 0.015242 -0.000814 -0.011149 -0.004094 0.007740
# 3 -0.004591 -0.000814 0.014471 -0.011203 -0.000776 0.001966
# 4 0.003775 -0.011149 -0.011203 0.038610 0.008464 -0.011387
# 5 0.001777 -0.004094 -0.000776 0.008464 0.020683 -0.005856
# 6 -0.000206 0.007740 0.001966 -0.011387 -0.005856 0.020125
#
#
# Mechanical properties :
#
#
# Convention : Reuss Voigt Hill
#
# Bulk Modulus (GPa) = 49.90110 105.29860 77.59985
# Shear Modulus (GPa) = 35.31350 52.81630 44.06490
#
# Velocity S-wave (km/s) = 3.60421 4.40782 4.02612
# Velocity P-wave (km/s) = 5.97302 8.03990 7.08227
#
# Compressibility (1/GPa) = 0.02003964
#
# Stress axis : x y z
#
# Youngs Moduli (GPa) = 124.18370 65.60875 69.10503
#
# Poissons Ratio (x) = 0.22686 0.31729
# Poissons Ratio (y) = 0.42940 0.05622
# Poissons Ratio (z) = 0.57018 0.05338
#
# Static dielectric constant tensor:
#      x y z
#    x 2.086280 -0.129840 0.205250 
#    y -0.129840 2.387820 0.008090 
#    z 0.205250 0.008090 2.236190 
# 
# From -- ./inp_files/289107.got.cif
#   From: 2010.05.17/outbox.cif.g08.bks.cpg/sg2_145_cif.got.tgz:289107.got - 2010.06.03 11:33:40.
