data_PCOD9038203
_publ_section_title
;
Structure prediction by ZEFSAII (Michael W. Deem and Ramdas Pophale) SiO2 
 PCOD9038203
Probable space group: P -1
;
_chemical_formula_sum "Si O2"
_cell_formula_units_Z 14
_cell_length_a 7.177374
_cell_length_b 21.721920
_cell_length_c 10.782714
_cell_angle_alpha 156.700766
_cell_angle_beta 111.517398
_cell_angle_gamma 65.081455
_cell_volume 602.072968
_symmetry_space_group_name_H-M "P -1"
_symmetry_group_IT_number 2
_symmetry_cell_setting 'triclinic'
loop_
_space_group_symop_operation_xyz
x,y,z
-x,-y,-z
loop_
_atom_site_type_symbol
_atom_site_label
_atom_site_fract_x
_atom_site_fract_y
_atom_site_fract_z
Si Si1 0.930015 0.248127 0.042031
Si Si2 0.744451 0.599936 0.738091
Si Si3 0.743632 0.943228 0.752886
Si Si4 0.481659 0.850728 0.309590
Si Si5 0.059333 0.651864 0.349242
Si Si6 0.796096 0.832482 0.825673
Si Si7 0.436641 0.717443 0.662534
O O1 0.832740 0.411165 0.396263
O O2 0.078830 0.308822 0.092307
O O3 0.077872 0.129961 0.955319
O O4 0.747919 0.177502 0.809744
O O5 0.563069 0.633880 0.654162
O O6 0.638491 0.690270 0.000693
O O7 0.560813 0.888292 0.534203
O O8 0.729816 0.952136 0.915953
O O9 0.954696 0.811184 0.539788
O O10 0.727731 0.122740 0.037208
O O11 0.500000 0.000000 0.500000
O O12 0.300436 0.625172 0.379947
O O13 0.940129 0.688035 0.517203
O O14 0.000000 0.500000 0.000000
O O15 0.604272 0.774762 0.726967
#
# Coordination Sequence:
#
# PCOD9038203 Si02
#       7
#     2   2   2   2   2   2   2
#     4  10  23  43  66  91 124 168 213 254 307 377
#     4  10  23  41  67  90 124 170 211 251 315 371
#     4  10  24  41  61  95 125 160 208 250 313 368
#     4  12  24  40  62  96 129 162 205 264 313 364
#     4  10  24  38  60  94 124 157 205 255 307 363
#     4   9  23  40  67  88 121 163 211 247 309 364
#     4  11  20  44  65  88 123 168 206 251 308 372
#
# _framework density 23.252996
#
# number of rings (size 3 to 8) (size 9 to 14) (size 15 to 20)
#    0.857    0.857    1.429    2.143    4.000    1.143 
#    2.571    0.000    0.000    0.000    0.000    0.000 
#    0.000    0.000    0.000    0.000    0.000    0.000 
#
# Total GULP energy -78189.886319 kJ/mol
# GULP energy per Si atom -5584.991880 kJ/mol
# Density = 2.320007 g / cm^3
# Si number density = 23.252996 Si / 1000 Ang^3
#
#
#
# Elastic Constant Matrix: (Units=GPa)
#
#
# Indices 1 2 3 4 5 6 
#
# 1 119.3477 28.5412 32.9379 -12.8635 36.1962 -21.4561
# 2 28.5412 136.7560 44.5447 -6.7314 18.2665 -31.0862
# 3 32.9379 44.5447 83.8967 -19.5287 29.4448 -18.2471
# 4 -12.8635 -6.7314 -19.5287 32.8384 -17.4666 10.7440
# 5 36.1962 18.2665 29.4448 -17.4666 40.9503 -10.7317
# 6 -21.4561 -31.0862 -18.2471 10.7440 -10.7317 20.1876
#
#
#
# Elastic Compliance Matrix: (Units=1/GPa)
#
#
# Indices 1 2 3 4 5 6 
#
# 1 0.013145 0.001491 -0.000594 -0.004617 -0.010526 0.012591
# 2 0.001491 0.012824 -0.003898 -0.006727 -0.001742 0.020462
# 3 -0.000594 -0.003898 0.019078 0.004579 -0.008550 0.003628
# 4 -0.004617 -0.006727 0.004579 0.048113 0.017061 -0.027663
# 5 -0.010526 -0.001742 -0.008550 0.017061 0.046342 -0.006043
# 6 0.012591 0.020462 0.003628 -0.027663 -0.006043 0.109215
#
#
# Mechanical properties :
#
#
# Convention : Reuss Voigt Hill
#
# Bulk Modulus (GPa) = 25.61222 61.33865 43.47544
# Shear Modulus (GPa) = 18.67523 34.39372 26.53447
#
# Velocity S-wave (km/s) = 2.83703 3.85009 3.38171
# Velocity P-wave (km/s) = 4.66585 6.79708 5.82969
#
# Compressibility (1/GPa) = 0.03904386
#
# Stress axis : x y z
#
# Youngs Moduli (GPa) = 76.07652 77.98122 52.41636
#
# Poissons Ratio (x) = -0.11627 0.03114
# Poissons Ratio (y) = -0.11343 0.20432
# Poissons Ratio (z) = 0.04520 0.30398
#
# Static dielectric constant tensor:
#      x y z
#    x 1.911850 -0.013390 -0.010360 
#    y -0.013390 1.976370 0.040080 
#    z -0.010360 0.040080 1.869770 
# 
# From -- ./inp_files/406942.got.cif
#   From: 2010.05.17/outbox.cif.g08.bks.cpg/sg2_204_cif.got.tgz:406942.got - 2010.06.03 11:33:40.
