data_PCOD9038504
_publ_section_title
;
Structure prediction by ZEFSAII (Michael W. Deem and Ramdas Pophale) SiO2 
 PCOD9038504
Probable space group: P -1
;
_chemical_formula_sum "Si O2"
_cell_formula_units_Z 12
_cell_length_a 11.500652
_cell_length_b 14.660601
_cell_length_c 9.544766
_cell_angle_alpha 100.794980
_cell_angle_beta 58.572815
_cell_angle_gamma 150.166995
_cell_volume 533.652480
_symmetry_space_group_name_H-M "P -1"
_symmetry_group_IT_number 2
_symmetry_cell_setting 'triclinic'
loop_
_space_group_symop_operation_xyz
x,y,z
-x,-y,-z
loop_
_atom_site_type_symbol
_atom_site_label
_atom_site_fract_x
_atom_site_fract_y
_atom_site_fract_z
Si Si1 0.941069 0.536449 0.421918
Si Si2 0.375877 0.968752 0.422181
Si Si3 0.229476 0.106498 0.261370
Si Si4 0.250552 0.201946 0.785342
Si Si5 0.662703 0.624294 0.785990
Si Si6 0.334515 0.805245 0.971831
O O1 0.540257 0.307385 0.604141
O O2 0.000000 0.500000 0.500000
O O3 0.153601 0.755094 0.414020
O O4 0.055644 0.598413 0.205080
O O5 0.076747 0.861284 0.598679
O O6 0.500000 0.000000 0.500000
O O7 0.689836 0.185753 0.177326
O O8 0.431020 0.326870 0.163666
O O9 0.433715 0.141464 0.171262
O O10 0.000000 0.000000 0.500000
O O11 0.983618 0.926898 0.236757
O O12 0.460877 0.427061 0.754928
O O13 0.000000 0.000000 0.000000
O O14 0.500000 0.500000 0.000000
O O15 0.500000 0.000000 0.000000
#
# Coordination Sequence:
#
# PCOD9038504 Si02
#       6
#     2   2   2   2   2   2
#     4  10  23  41  70 103 137 188 239 284 366 433
#     4  10  23  44  68  98 142 186 233 303 359 424
#     4  12  25  46  76 103 147 191 243 306 365 431
#     4  11  24  45  72 103 148 194 238 301 358 426
#     4  11  24  44  72 110 138 188 257 286 360 449
#     4  10  23  47  70 103 146 188 240 303 365 433
#
# _framework density 22.486543999999999
#
# number of rings (size 3 to 8) (size 9 to 14) (size 15 to 20)
#    0.000    1.333    3.333    1.000    4.667    3.333 
#    3.000    1.667    0.000    0.000    0.000    0.000 
#    0.000    0.000    0.000    0.000    0.000    0.000 
#
# Total GULP energy -66866.304978 kJ/mol
# GULP energy per Si atom -5572.192082 kJ/mol
# Density = 2.243536 g / cm^3
# Si number density = 22.486544 Si / 1000 Ang^3
#
#
#
# Elastic Constant Matrix: (Units=GPa)
#
#
# Indices 1 2 3 4 5 6 
#
# 1 117.3809 23.9470 58.6821 3.2728 13.3364 -14.2558
# 2 23.9470 104.0891 17.6013 11.8137 1.3639 -8.7903
# 3 58.6821 17.6013 178.9831 -0.7778 23.7077 7.2792
# 4 3.2728 11.8137 -0.7778 28.3283 -0.2124 0.2095
# 5 13.3364 1.3639 23.7077 -0.2124 45.2196 13.6675
# 6 -14.2558 -8.7903 7.2792 0.2095 13.6675 37.1197
#
#
#
# Elastic Compliance Matrix: (Units=1/GPa)
#
#
# Indices 1 2 3 4 5 6 
#
# 1 0.011721 -0.001439 -0.003499 -0.000921 -0.003431 0.006115
# 2 -0.001439 0.010735 -0.000661 -0.004347 -0.000249 0.002236
# 3 -0.003499 -0.000661 0.007162 0.000877 -0.002047 -0.002156
# 4 -0.000921 -0.004347 0.000877 0.037264 0.000733 -0.002036
# 5 -0.003431 -0.000249 -0.002047 0.000733 0.027575 -0.011133
# 6 0.006115 0.002236 -0.002156 -0.002036 -0.011133 0.034351
#
#
# Mechanical properties :
#
#
# Convention : Reuss Voigt Hill
#
# Bulk Modulus (GPa) = 54.28906 66.76820 60.52863
# Shear Modulus (GPa) = 34.21213 42.14836 38.18025
#
# Velocity S-wave (km/s) = 3.90481 4.33411 4.12505
# Velocity P-wave (km/s) = 6.67273 7.40290 7.04728
#
# Compressibility (1/GPa) = 0.01841992
#
# Stress axis : x y z
#
# Youngs Moduli (GPa) = 85.32048 93.15019 139.62363
#
# Poissons Ratio (x) = 0.13402 0.48861
# Poissons Ratio (y) = 0.12276 0.09227
# Poissons Ratio (z) = 0.29858 0.06155
#
# Static dielectric constant tensor:
#      x y z
#    x 1.980460 0.004230 0.036270 
#    y 0.004230 1.699020 0.008990 
#    z 0.036270 0.008990 1.899770 
# 
# From -- ./inp_files/273598.got.cif
#   From: 2010.05.17/outbox.cif.g08.bks.cpg/sg2_137_cif.got.tgz:273598.got - 2010.06.03 11:33:40.
