data_PCOD9038903
_publ_section_title
;
Structure prediction by ZEFSAII (Michael W. Deem and Ramdas Pophale) SiO2 
 PCOD9038903
Probable space group: P -1
;
_chemical_formula_sum "Si O2"
_cell_formula_units_Z 16
_cell_length_a 8.990691
_cell_length_b 19.921853
_cell_length_c 5.492509
_cell_angle_alpha 112.968113
_cell_angle_beta 58.866923
_cell_angle_gamma 129.628906
_cell_volume 645.827720
_symmetry_space_group_name_H-M "P -1"
_symmetry_group_IT_number 2
_symmetry_cell_setting 'triclinic'
loop_
_space_group_symop_operation_xyz
x,y,z
-x,-y,-z
loop_
_atom_site_type_symbol
_atom_site_label
_atom_site_fract_x
_atom_site_fract_y
_atom_site_fract_z
Si Si1 0.661580 0.217525 0.275751
Si Si2 0.305369 0.912347 0.653082
Si Si3 0.329058 0.339953 0.276587
Si Si4 0.288681 0.243990 0.672874
Si Si5 0.190347 0.545953 0.093062
Si Si6 0.681261 0.953443 0.859236
Si Si7 0.012225 0.925516 0.591254
Si Si8 0.032457 0.384065 0.342225
O O1 0.671876 0.167130 0.430940
O O2 0.500381 0.246153 0.471802
O O3 0.543853 0.136070 0.071989
O O4 0.896647 0.299791 0.161354
O O5 0.103131 0.887169 0.639855
O O6 0.500000 0.000000 0.500000
O O7 0.301530 0.958500 0.967355
O O8 0.286571 0.300289 0.527770
O O9 0.187500 0.376836 0.378926
O O10 0.281348 0.276002 0.993658
O O11 0.579892 0.408500 0.146782
O O12 0.103711 0.145589 0.625525
O O13 0.157940 0.472999 0.208639
O O14 0.145893 0.612518 0.357590
O O15 0.000000 0.500000 0.000000
O O16 0.835121 0.938162 0.863661
O O17 0.796300 0.981312 0.538871
#
# Coordination Sequence:
#
# PCOD9038903 Si02
#       8
#     2   2   2   2   2   2   2   2
#     4  11  23  46  67 106 143 197 250 308 380 435
#     4  12  24  39  65 103 137 193 247 310 370 439
#     4  12  27  51  78 114 153 198 251 309 384 448
#     4  11  27  47  74 109 151 198 255 317 367 453
#     4  11  26  50  79 113 156 190 251 309 387 452
#     4  10  23  42  64  94 143 187 249 307 366 436
#     4  10  23  43  65  94 138 196 245 305 370 429
#     4  11  26  47  78 113 148 202 247 314 374 462
#
# _framework density 24.774408999999999
#
# number of rings (size 3 to 8) (size 9 to 14) (size 15 to 20)
#    0.000    1.000    2.500    2.625    7.000    2.500 
#    2.250    0.000    0.000    0.000    0.000    0.000 
#    0.000    0.000    0.000    0.000    0.000    0.000 
#
# Total GULP energy -89431.314230 kJ/mol
# GULP energy per Si atom -5589.457139 kJ/mol
# Density = 2.471802 g / cm^3
# Si number density = 24.774409 Si / 1000 Ang^3
#
#
#
# Elastic Constant Matrix: (Units=GPa)
#
#
# Indices 1 2 3 4 5 6 
#
# 1 198.0952 55.1301 22.5297 -2.1886 -2.8627 -17.4537
# 2 55.1301 90.1952 25.1918 -3.7819 -11.4824 9.4285
# 3 22.5297 25.1918 51.3877 -10.7358 -0.1244 0.4386
# 4 -2.1886 -3.7819 -10.7358 29.0902 12.0330 3.9703
# 5 -2.8627 -11.4824 -0.1244 12.0330 32.1750 4.5366
# 6 -17.4537 9.4285 0.4386 3.9703 4.5366 54.9522
#
#
#
# Elastic Compliance Matrix: (Units=1/GPa)
#
#
# Indices 1 2 3 4 5 6 
#
# 1 0.006569 -0.004247 -0.000882 -0.000269 -0.001249 0.002945
# 2 -0.004247 0.016953 -0.007058 -0.003190 0.007485 -0.004589
# 3 -0.000882 -0.007058 0.025627 0.011203 -0.006755 0.000474
# 4 -0.000269 -0.003190 0.011203 0.045725 -0.018016 -0.001444
# 5 -0.001249 0.007485 -0.006755 -0.018016 0.040873 -0.003700
# 6 0.002945 -0.004589 0.000474 -0.001444 -0.003700 0.020326
#
#
# Mechanical properties :
#
#
# Convention : Reuss Voigt Hill
#
# Bulk Modulus (GPa) = 40.36446 60.59793 50.48120
# Shear Modulus (GPa) = 26.49635 39.03192 32.76413
#
# Velocity S-wave (km/s) = 3.27388 3.97355 3.64056
# Velocity P-wave (km/s) = 5.53346 6.75020 6.17189
#
# Compressibility (1/GPa) = 0.02477427
#
# Stress axis : x y z
#
# Youngs Moduli (GPa) = 152.23738 58.98689 39.02124
#
# Poissons Ratio (x) = 0.25050 0.03443
# Poissons Ratio (y) = 0.64650 0.27542
# Poissons Ratio (z) = 0.13432 0.41634
#
# Static dielectric constant tensor:
#      x y z
#    x 2.022730 0.023550 -0.104190 
#    y 0.023550 1.963420 0.008720 
#    z -0.104190 0.008720 2.457180 
# 
# From -- ./inp_files/53394.got.cif
#   From: 2010.05.17/outbox.cif.g08.bks.cpg/sg2_27_cif.got.tgz:53394.got - 2010.06.03 11:33:40.
