data_PCOD9038959
_publ_section_title
;
Structure prediction by ZEFSAII (Michael W. Deem and Ramdas Pophale) SiO2 
 PCOD9038959
Probable space group: P -1
;
_chemical_formula_sum "Si O2"
_cell_formula_units_Z 14
_cell_length_a 8.929821
_cell_length_b 13.340960
_cell_length_c 6.271873
_cell_angle_alpha 101.310498
_cell_angle_beta 55.281468
_cell_angle_gamma 115.832790
_cell_volume 551.411989
_symmetry_space_group_name_H-M "P -1"
_symmetry_group_IT_number 2
_symmetry_cell_setting 'triclinic'
loop_
_space_group_symop_operation_xyz
x,y,z
-x,-y,-z
loop_
_atom_site_type_symbol
_atom_site_label
_atom_site_fract_x
_atom_site_fract_y
_atom_site_fract_z
Si Si1 0.664364 0.085830 0.064447
Si Si2 0.110738 0.174685 0.552899
Si Si3 0.995307 0.683610 0.595610
Si Si4 0.506250 0.383857 0.406873
Si Si5 0.216965 0.047264 0.747658
Si Si6 0.596577 0.233683 0.506781
Si Si7 0.130842 0.531629 0.118440
O O1 0.598912 0.180987 0.248160
O O2 0.687288 0.029727 0.247261
O O3 0.886046 0.140175 0.808659
O O4 0.500000 0.000000 0.000000
O O5 0.288127 0.285315 0.547286
O O6 0.173239 0.074746 0.547699
O O7 0.099526 0.228407 0.354103
O O8 0.215996 0.763667 0.521365
O O9 0.039023 0.607947 0.348451
O O10 0.887090 0.585984 0.813094
O O11 0.500000 0.500000 0.500000
O O12 0.624473 0.358741 0.495639
O O13 0.638574 0.395932 0.094623
O O14 0.381727 0.163952 0.746805
O O15 0.000000 0.000000 0.000000
O O16 0.000000 0.500000 0.000000
#
# Coordination Sequence:
#
# PCOD9038959 Si02
#       7
#     2   2   2   2   2   2   2
#     4  11  23  45  76  99 138 191 241 302 356 423
#     4  10  23  42  65 105 141 178 237 285 363 425
#     4  11  24  42  72 102 135 193 242 281 348 426
#     4  11  24  42  69 102 154 183 226 299 354 419
#     4   9  21  43  65  97 139 175 227 302 356 408
#     4  11  23  43  70 105 134 187 248 283 351 441
#     4  11  23  44  70  97 144 192 241 285 339 423
#
# _framework density 25.389364
#
# number of rings (size 3 to 8) (size 9 to 14) (size 15 to 20)
#    0.000    1.429    1.429    3.000    4.000    0.571 
#    0.000   17.143    0.000    0.000    0.000    0.000 
#    0.000    0.000    0.000    0.000    0.000    0.000 
#
# Total GULP energy -77999.907001 kJ/mol
# GULP energy per Si atom -5571.421929 kJ/mol
# Density = 2.533158 g / cm^3
# Si number density = 25.389364 Si / 1000 Ang^3
#
#
#
# Elastic Constant Matrix: (Units=GPa)
#
#
# Indices 1 2 3 4 5 6 
#
# 1 124.4125 57.8645 24.7320 -17.6251 14.8459 3.3707
# 2 57.8645 109.8556 58.7015 -26.5476 10.3252 -12.5650
# 3 24.7320 58.7015 78.6454 -20.4593 -13.2772 6.1075
# 4 -17.6251 -26.5476 -20.4593 46.4989 4.9227 7.2754
# 5 14.8459 10.3252 -13.2772 4.9227 43.9195 -22.8593
# 6 3.3707 -12.5650 6.1075 7.2754 -22.8593 64.6038
#
#
#
# Elastic Compliance Matrix: (Units=1/GPa)
#
#
# Indices 1 2 3 4 5 6 
#
# 1 0.011648 -0.006165 0.001125 0.002436 -0.004363 -0.003731
# 2 -0.006165 0.022330 -0.015046 0.003940 -0.006397 0.003380
# 3 0.001125 -0.015046 0.026078 0.002680 0.009495 -0.002393
# 4 0.002436 0.003940 0.002680 0.027348 -0.006628 -0.005039
# 5 -0.004363 -0.006397 0.009495 -0.006628 0.035244 0.011303
# 6 -0.003731 0.003380 -0.002393 -0.005039 0.011303 0.021124
#
#
# Mechanical properties :
#
#
# Convention : Reuss Voigt Hill
#
# Bulk Modulus (GPa) = 50.28883 66.16773 58.22828
# Shear Modulus (GPa) = 26.23702 42.44547 34.34125
#
# Velocity S-wave (km/s) = 3.21812 4.09318 3.68174
# Velocity P-wave (km/s) = 5.80159 6.96108 6.40761
#
# Compressibility (1/GPa) = 0.01988513
#
# Stress axis : x y z
#
# Youngs Moduli (GPa) = 85.85021 44.78320 38.34715
#
# Poissons Ratio (x) = 0.27608 -0.04315
# Poissons Ratio (y) = 0.52924 0.57696
# Poissons Ratio (z) = -0.09661 0.67380
#
# Static dielectric constant tensor:
#      x y z
#    x 2.029790 -0.004410 0.118600 
#    y -0.004410 1.998350 -0.024510 
#    z 0.118600 -0.024510 2.106120 
# 
# From -- ./inp_files/38388.got.cif
#   From: 2010.05.17/outbox.cif.g08.bks.cpg/sg2_20_cif.got.tgz:38388.got - 2010.06.03 11:33:40.
