data_PCOD9038325
_publ_section_title
;
Structure prediction by ZEFSAII (Michael W. Deem and Ramdas Pophale) SiO2 
 PCOD9038325
Probable space group: P -1
;
_chemical_formula_sum "Si O2"
_cell_formula_units_Z 16
_cell_length_a 9.552345
_cell_length_b 14.827518
_cell_length_c 9.002356
_cell_angle_alpha 96.824013
_cell_angle_beta 72.705637
_cell_angle_gamma 46.157137
_cell_volume 774.296176
_symmetry_space_group_name_H-M "P -1"
_symmetry_group_IT_number 2
_symmetry_cell_setting 'triclinic'
loop_
_space_group_symop_operation_xyz
x,y,z
-x,-y,-z
loop_
_atom_site_type_symbol
_atom_site_label
_atom_site_fract_x
_atom_site_fract_y
_atom_site_fract_z
Si Si1 0.675070 0.179618 0.323430
Si Si2 0.903814 0.630380 0.153943
Si Si3 0.573817 0.061951 0.551900
Si Si4 0.373928 0.474158 0.605343
Si Si5 0.964538 0.565979 0.678645
Si Si6 0.093504 0.027487 0.352716
Si Si7 0.371859 0.479196 0.958174
Si Si8 0.539917 0.224781 0.040580
O O1 0.644808 0.097833 0.403119
O O2 0.464904 0.342677 0.466191
O O3 0.675342 0.173365 0.143632
O O4 0.884068 0.135120 0.325566
O O5 0.645231 0.789294 0.262830
O O6 0.935105 0.564672 0.283501
O O7 0.000000 0.500000 0.000000
O O8 0.095492 0.616763 0.077037
O O9 0.788116 0.953230 0.576717
O O10 0.500000 0.000000 0.500000
O O11 0.500000 0.500000 0.500000
O O12 0.426405 0.443411 0.758740
O O13 0.104421 0.590784 0.679831
O O14 0.698152 0.710134 0.827373
O O15 0.000000 0.500000 0.500000
O O16 0.295697 0.898018 0.155998
O O17 0.000000 0.000000 0.500000
O O18 0.500000 0.500000 0.000000
O O19 0.451471 0.356559 0.008650
#
# Coordination Sequence:
#
# PCOD9038325 Si02
#       8
#     2   2   2   2   2   2   2   2
#     4  11  22  45  64  95 137 175 224 280 339 407
#     4  11  20  40  68  92 134 173 223 281 336 399
#     4  11  23  42  67  99 132 182 226 275 340 408
#     4  12  24  42  66 100 139 172 223 283 349 403
#     4  11  21  39  68  99 129 174 217 279 350 403
#     4  10  23  41  68  92 130 180 224 273 334 401
#     4  11  24  37  62 101 131 169 225 278 337 401
#     4  11  22  41  73  93 128 179 227 276 345 401
#
# _framework density 20.663926
#
# number of rings (size 3 to 8) (size 9 to 14) (size 15 to 20)
#    0.000    1.000    3.750    4.125    1.750    3.000 
#    2.250    1.875    0.000    0.000    0.000    0.000 
#    0.000    0.000    0.000    0.000    0.000    0.000 
#
# Total GULP energy -89122.047778 kJ/mol
# GULP energy per Si atom -5570.127986 kJ/mol
# Density = 2.061689 g / cm^3
# Si number density = 20.663926 Si / 1000 Ang^3
#
#
#
# Elastic Constant Matrix: (Units=GPa)
#
#
# Indices 1 2 3 4 5 6 
#
# 1 150.6906 24.3948 52.4504 -18.1169 11.2350 -19.4114
# 2 24.3948 44.8917 22.8938 -16.7855 4.0764 -16.9078
# 3 52.4504 22.8938 135.0657 -22.9337 12.1109 -6.0862
# 4 -18.1169 -16.7855 -22.9337 38.6233 -9.9699 -0.0698
# 5 11.2350 4.0764 12.1109 -9.9699 35.8132 -1.8133
# 6 -19.4114 -16.9078 -6.0862 -0.0698 -1.8133 34.5533
#
#
#
# Elastic Compliance Matrix: (Units=1/GPa)
#
#
# Indices 1 2 3 4 5 6 
#
# 1 0.008466 -0.001198 -0.002542 0.001688 -0.001004 0.003673
# 2 -0.001198 0.035389 -0.002629 0.013776 0.001898 0.016308
# 3 -0.002542 -0.002629 0.009398 0.002899 -0.001331 -0.001123
# 4 0.001688 0.013776 0.002899 0.036337 0.007476 0.008666
# 5 -0.001004 0.001898 -0.001331 0.007476 0.030642 0.001753
# 6 0.003673 0.016308 -0.001123 0.008666 0.001753 0.038895
#
#
# Mechanical properties :
#
#
# Convention : Reuss Voigt Hill
#
# Bulk Modulus (GPa) = 24.68392 58.90289 41.79340
# Shear Modulus (GPa) = 26.97306 37.19190 32.08248
#
# Velocity S-wave (km/s) = 3.61684 4.24706 3.94456
# Velocity P-wave (km/s) = 5.42341 7.25377 6.40432
#
# Compressibility (1/GPa) = 0.04051221
#
# Stress axis : x y z
#
# Youngs Moduli (GPa) = 118.12099 28.25776 106.40839
#
# Poissons Ratio (x) = 0.03386 0.27052
# Poissons Ratio (y) = 0.14155 0.27978
# Poissons Ratio (z) = 0.30030 0.07430
#
# Static dielectric constant tensor:
#      x y z
#    x 1.804890 -0.057050 -0.076820 
#    y -0.057050 1.815680 0.083520 
#    z -0.076820 0.083520 1.867940 
# 
# From -- ./inp_files/207734.got.cif
#   From: 2010.05.17/outbox.cif.g08.bks.cpg/sg2_104_cif.got.tgz:207734.got - 2010.06.03 11:33:40.
