data_PCOD9038730
_publ_section_title
;
Structure prediction by ZEFSAII (Michael W. Deem and Ramdas Pophale) SiO2 
 PCOD9038730
Probable space group: P -1
;
_chemical_formula_sum "Si O2"
_cell_formula_units_Z 12
_cell_length_a 13.851715
_cell_length_b 13.983761
_cell_length_c 11.951926
_cell_angle_alpha 159.280501
_cell_angle_beta 141.163004
_cell_angle_gamma 38.946302
_cell_volume 500.858963
_symmetry_space_group_name_H-M "P -1"
_symmetry_group_IT_number 2
_symmetry_cell_setting 'triclinic'
loop_
_space_group_symop_operation_xyz
x,y,z
-x,-y,-z
loop_
_atom_site_type_symbol
_atom_site_label
_atom_site_fract_x
_atom_site_fract_y
_atom_site_fract_z
Si Si1 0.344107 0.326615 0.719321
Si Si2 0.565454 0.216006 0.375208
Si Si3 0.271855 0.710281 0.710046
Si Si4 0.899951 0.266536 0.638939
Si Si5 0.827799 0.178400 0.019222
Si Si6 0.493153 0.977006 0.662648
O O1 0.213978 0.602950 0.879892
O O2 0.422421 0.257595 0.835864
O O3 0.468124 0.268180 0.662802
O O4 0.268611 0.058675 0.343712
O O5 0.416366 0.471336 0.536390
O O6 0.720096 0.308698 0.569964
O O7 0.609040 0.080865 0.389152
O O8 0.500000 0.000000 0.000000
O O9 0.129844 0.764828 0.554376
O O10 0.219106 0.652921 0.723901
O O11 0.346717 0.978468 0.086430
O O12 0.000000 0.000000 0.500000
O O13 0.000000 0.500000 0.000000
O O14 0.000000 0.000000 0.000000
#
# Coordination Sequence:
#
# PCOD9038730 Si02
#       6
#     2   2   2   2   2   2
#     4  10  23  43  69 112 146 185 259 316 367 443
#     4  12  24  47  78 110 146 208 263 308 381 463
#     4  11  25  47  75 102 151 202 256 312 379 458
#     4  12  29  48  70 111 154 194 253 319 384 454
#     4  11  24  45  70 106 154 199 242 311 395 452
#     4  10  23  41  77 107 143 194 258 323 363 442
#
# _framework density 23.958839000000001
#
# number of rings (size 3 to 8) (size 9 to 14) (size 15 to 20)
#    0.000    1.000    3.333    2.000    4.667    3.333 
#    0.000    0.000    0.000    0.000    0.000    0.000 
#    0.000    0.000    0.000    0.000    0.000    0.000 
#
# Total GULP energy -67108.204379 kJ/mol
# GULP energy per Si atom -5592.350365 kJ/mol
# Density = 2.390431 g / cm^3
# Si number density = 23.958839 Si / 1000 Ang^3
#
#
#
# Elastic Constant Matrix: (Units=GPa)
#
#
# Indices 1 2 3 4 5 6 
#
# 1 86.1578 50.5214 37.4372 -3.4132 9.9517 14.4883
# 2 50.5214 202.6493 59.0978 1.3648 6.6351 14.3562
# 3 37.4372 59.0978 141.9245 -12.3312 5.1864 0.3584
# 4 -3.4132 1.3648 -12.3312 54.5398 -0.1874 -2.2095
# 5 9.9517 6.6351 5.1864 -0.1874 24.6284 6.4387
# 6 14.4883 14.3562 0.3584 -2.2095 6.4387 51.0389
#
#
#
# Elastic Compliance Matrix: (Units=1/GPa)
#
#
# Indices 1 2 3 4 5 6 
#
# 1 0.015377 -0.002679 -0.002759 0.000267 -0.004108 -0.003062
# 2 -0.002679 0.006252 -0.001967 -0.000810 0.000075 -0.001029
# 3 -0.002759 -0.001967 0.008777 0.001917 -0.000562 0.001429
# 4 0.000267 -0.000810 0.001917 0.018845 -0.000413 0.001007
# 5 -0.004108 0.000075 -0.000562 -0.000413 0.043497 -0.004356
# 6 -0.003062 -0.001029 0.001429 0.001007 -0.004356 0.021335
#
#
# Mechanical properties :
#
#
# Convention : Reuss Voigt Hill
#
# Bulk Modulus (GPa) = 64.12848 80.53827 72.33337
# Shear Modulus (GPa) = 37.28794 44.95310 41.12052
#
# Velocity S-wave (km/s) = 3.94932 4.33629 4.14732
# Velocity P-wave (km/s) = 6.90075 7.66547 7.29314
#
# Compressibility (1/GPa) = 0.01559370
#
# Stress axis : x y z
#
# Youngs Moduli (GPa) = 65.03386 159.94534 113.94006
#
# Poissons Ratio (x) = 0.42851 0.31441
# Poissons Ratio (y) = 0.17423 0.22415
# Poissons Ratio (z) = 0.17946 0.31465
#
# Static dielectric constant tensor:
#      x y z
#    x 2.024730 0.015920 0.021300 
#    y 0.015920 1.930680 0.001100 
#    z 0.021300 0.001100 1.960600 
# 
# From -- ./inp_files/455348.got.cif
#   From: 2010.05.17/outbox.cif.g08.bks.cpg/sg2_228_cif.got.tgz:455348.got - 2010.06.03 11:33:40.
