data_PCOD9038437
_publ_section_title
;
Structure prediction by ZEFSAII (Michael W. Deem and Ramdas Pophale) SiO2 
 PCOD9038437
Probable space group: P -1
;
_chemical_formula_sum "Si O2"
_cell_formula_units_Z 14
_cell_length_a 8.836719
_cell_length_b 20.754403
_cell_length_c 16.299886
_cell_angle_alpha 151.696758
_cell_angle_beta 28.744431
_cell_angle_gamma 140.119166
_cell_volume 681.492617
_symmetry_space_group_name_H-M "P -1"
_symmetry_group_IT_number 2
_symmetry_cell_setting 'triclinic'
loop_
_space_group_symop_operation_xyz
x,y,z
-x,-y,-z
loop_
_atom_site_type_symbol
_atom_site_label
_atom_site_fract_x
_atom_site_fract_y
_atom_site_fract_z
Si Si1 0.665017 0.838142 0.319111
Si Si2 0.146458 0.143258 0.570122
Si Si3 0.687627 0.567176 0.912213
Si Si4 0.430504 0.828383 0.751609
Si Si5 0.220595 0.516202 0.493082
Si Si6 0.725587 0.391591 0.008898
Si Si7 0.001710 0.049568 0.288702
O O1 0.738640 0.798253 0.332242
O O2 0.764936 0.716259 0.075209
O O3 0.004316 0.488790 0.644023
O O4 0.295706 0.872781 0.522318
O O5 0.432873 0.135192 0.361562
O O6 0.141288 0.031295 0.656142
O O7 0.000000 0.000000 0.500000
O O8 0.328736 0.672241 0.623287
O O9 0.474576 0.585272 0.952595
O O10 0.500000 0.500000 0.000000
O O11 0.117181 0.756425 0.229678
O O12 0.720102 0.854334 0.705593
O O13 0.156637 0.934641 0.027393
O O14 0.000000 0.500000 0.500000
O O15 0.515403 0.420147 0.221852
O O16 0.000000 0.500000 0.000000
#
# Coordination Sequence:
#
# PCOD9038437 Si02
#       7
#     2   2   2   2   2   2   2
#     4  11  23  41  64  97 130 169 223 266 339 392
#     4  12  25  41  67  99 134 176 225 273 327 405
#     4  11  24  44  67  97 133 172 224 283 336 401
#     4  11  21  44  68  95 133 172 225 276 336 399
#     4  10  23  41  69  96 131 176 223 274 340 402
#     4  11  23  44  70  95 134 181 221 272 342 400
#     4  10  23  41  69  94 128 177 213 280 335 391
#
# _framework density 20.543142
#
# number of rings (size 3 to 8) (size 9 to 14) (size 15 to 20)
#    0.000    1.143    4.286    1.714    4.000    0.571 
#    2.571    4.286    0.000    0.000    0.000    0.000 
#    0.000    0.000    0.000    0.000    0.000    0.000 
#
# Total GULP energy -78241.857232 kJ/mol
# GULP energy per Si atom -5588.704088 kJ/mol
# Density = 2.049639 g / cm^3
# Si number density = 20.543142 Si / 1000 Ang^3
#
#
#
# Elastic Constant Matrix: (Units=GPa)
#
#
# Indices 1 2 3 4 5 6 
#
# 1 69.5022 11.6662 25.0066 -5.8735 18.9945 -0.5612
# 2 11.6662 89.2048 24.9954 -9.8518 9.9623 0.0222
# 3 25.0066 24.9954 135.3827 -26.4573 15.0173 -14.0704
# 4 -5.8735 -9.8518 -26.4573 38.1690 -1.8365 11.0993
# 5 18.9945 9.9623 15.0173 -1.8365 30.2300 2.2728
# 6 -0.5612 0.0222 -14.0704 11.0993 2.2728 35.2592
#
#
#
# Elastic Compliance Matrix: (Units=1/GPa)
#
#
# Indices 1 2 3 4 5 6 
#
# 1 0.018017 -0.000592 -0.001950 0.000810 -0.010101 -0.000095
# 2 -0.000592 0.012265 -0.001546 0.002210 -0.002680 -0.001157
# 3 -0.001950 -0.001546 0.009603 0.005127 -0.002903 0.002375
# 4 0.000810 0.002210 0.005127 0.032771 -0.001178 -0.008183
# 5 -0.010101 -0.002680 -0.002903 -0.001178 0.041955 -0.003651
# 6 -0.000095 -0.001157 0.002375 -0.008183 -0.003651 0.032120
#
#
# Mechanical properties :
#
#
# Convention : Reuss Voigt Hill
#
# Bulk Modulus (GPa) = 31.53767 46.38069 38.95918
# Shear Modulus (GPa) = 30.21597 36.22640 33.22118
#
# Velocity S-wave (km/s) = 3.83933 4.20388 4.02573
# Velocity P-wave (km/s) = 5.91939 6.79630 6.37295
#
# Compressibility (1/GPa) = 0.03170811
#
# Stress axis : x y z
#
# Youngs Moduli (GPa) = 55.50283 81.53584 104.13597
#
# Poissons Ratio (x) = 0.04831 0.20304
# Poissons Ratio (y) = 0.03288 0.16099
# Poissons Ratio (z) = 0.10822 0.12605
#
# Static dielectric constant tensor:
#      x y z
#    x 1.729840 0.022250 0.007340 
#    y 0.022250 1.736960 -0.017550 
#    z 0.007340 -0.017550 1.737680 
# 
# From -- ./inp_files/506296.got.cif
#   From: 2010.05.17/outbox.cif.g08.bks.cpg/sg2_254_cif.got.tgz:506296.got - 2010.06.03 11:33:40.
