data_PCOD9038654
_publ_section_title
;
Structure prediction by ZEFSAII (Michael W. Deem and Ramdas Pophale) SiO2 
 PCOD9038654
Probable space group: P -1
;
_chemical_formula_sum "Si O2"
_cell_formula_units_Z 12
_cell_length_a 9.659733
_cell_length_b 10.975554
_cell_length_c 7.976304
_cell_angle_alpha 100.065984
_cell_angle_beta 132.606082
_cell_angle_gamma 64.050288
_cell_volume 550.166879
_symmetry_space_group_name_H-M "P -1"
_symmetry_group_IT_number 2
_symmetry_cell_setting 'triclinic'
loop_
_space_group_symop_operation_xyz
x,y,z
-x,-y,-z
loop_
_atom_site_type_symbol
_atom_site_label
_atom_site_fract_x
_atom_site_fract_y
_atom_site_fract_z
Si Si1 0.059706 0.105516 0.476349
Si Si2 0.414800 0.118488 0.597065
Si Si3 0.863362 0.572605 0.651537
Si Si4 0.278546 0.522879 0.152583
Si Si5 0.285154 0.608057 0.691122
Si Si6 0.251351 0.770764 0.025381
O O1 0.298738 0.076244 0.639672
O O2 0.923806 0.252683 0.488058
O O3 0.000000 0.000000 0.500000
O O4 0.963839 0.124342 0.212829
O O5 0.240457 0.263461 0.415513
O O6 0.600624 0.155457 0.814297
O O7 0.500000 0.000000 0.500000
O O8 0.769951 0.526734 0.723282
O O9 0.791683 0.509893 0.421693
O O10 0.106891 0.518881 0.880639
O O11 0.515296 0.426733 0.269947
O O12 0.242113 0.682631 0.156049
O O13 0.340608 0.648844 0.928155
#
# Coordination Sequence:
#
# PCOD9038654 Si02
#       6
#     2   2   2   2   2   2
#     4  10  26  46  65 100 129 179 221 276 332 389
#     4  12  27  44  67  97 139 180 220 269 336 403
#     4  11  24  41  69 102 136 171 225 268 339 390
#     4  11  22  41  65 107 130 174 214 278 335 393
#     4  10  23  41  72  95 135 167 223 283 321 395
#     4  10  24  42  69  96 129 171 222 273 334 382
#
# _framework density 21.811564000000001
#
# number of rings (size 3 to 8) (size 9 to 14) (size 15 to 20)
#    1.000    0.333    3.333    1.000    4.667    2.667 
#    6.000    0.000    0.000    0.000    0.000    0.000 
#    0.000    0.000    0.000    0.000    0.000    0.000 
#
# Total GULP energy -66967.060661 kJ/mol
# GULP energy per Si atom -5580.588388 kJ/mol
# Density = 2.176192 g / cm^3
# Si number density = 21.811564 Si / 1000 Ang^3
#
#
#
# Elastic Constant Matrix: (Units=GPa)
#
#
# Indices 1 2 3 4 5 6 
#
# 1 138.6947 46.3972 23.9369 17.0029 24.1360 30.4894
# 2 46.3972 123.0118 26.6674 19.6272 7.5672 13.7142
# 3 23.9369 26.6674 87.7237 33.7326 21.6596 3.0135
# 4 17.0029 19.6272 33.7326 31.5542 11.9528 4.8052
# 5 24.1360 7.5672 21.6596 11.9528 41.3081 -3.9693
# 6 30.4894 13.7142 3.0135 4.8052 -3.9693 35.2386
#
#
#
# Elastic Compliance Matrix: (Units=1/GPa)
#
#
# Indices 1 2 3 4 5 6 
#
# 1 0.011532 -0.002777 -0.000171 -0.000177 -0.007016 -0.009649
# 2 -0.002777 0.010044 -0.001074 -0.004046 0.001449 -0.000699
# 3 -0.000171 -0.001074 0.020336 -0.019352 -0.004677 0.000938
# 4 -0.000177 -0.004046 -0.019352 0.058201 -0.006356 -0.005269
# 5 -0.007016 0.001449 -0.004677 -0.006356 0.033345 0.010529
# 6 -0.009649 -0.000699 0.000938 -0.005269 0.010529 0.038823
#
#
# Mechanical properties :
#
#
# Convention : Reuss Voigt Hill
#
# Bulk Modulus (GPa) = 29.52484 60.38147 44.95316
# Shear Modulus (GPa) = 26.09408 38.44875 32.27141
#
# Velocity S-wave (km/s) = 3.46257 4.20309 3.85067
# Velocity P-wave (km/s) = 5.43613 7.16226 6.35805
#
# Compressibility (1/GPa) = 0.03386979
#
# Stress axis : x y z
#
# Youngs Moduli (GPa) = 86.71298 99.56350 49.17328
#
# Poissons Ratio (x) = 0.27650 0.00839
# Poissons Ratio (y) = 0.24081 0.05279
# Poissons Ratio (z) = 0.01480 0.10688
#
# Static dielectric constant tensor:
#      x y z
#    x 1.824850 -0.004380 -0.029340 
#    y -0.004380 1.798600 -0.003480 
#    z -0.029340 -0.003480 1.895960 
# 
# From -- ./inp_files/165236.got.cif
#   From: 2010.05.17/outbox.cif.g08.bks.cpg/sg2_83_cif.got.tgz:165236.got - 2010.06.03 11:33:40.
