data_PCOD9038095
_publ_section_title
;
Structure prediction by ZEFSAII (Michael W. Deem and Ramdas Pophale) SiO2 
 PCOD9038095
Probable space group: P -1
;
_chemical_formula_sum "Si O2"
_cell_formula_units_Z 16
_cell_length_a 10.908301
_cell_length_b 9.186335
_cell_length_c 13.676300
_cell_angle_alpha 93.558551
_cell_angle_beta 32.426446
_cell_angle_gamma 105.205663
_cell_volume 674.687967
_symmetry_space_group_name_H-M "P -1"
_symmetry_group_IT_number 2
_symmetry_cell_setting 'triclinic'
loop_
_space_group_symop_operation_xyz
x,y,z
-x,-y,-z
loop_
_atom_site_type_symbol
_atom_site_label
_atom_site_fract_x
_atom_site_fract_y
_atom_site_fract_z
Si Si1 0.743357 0.619028 0.448019
Si Si2 0.420286 0.982145 0.289250
Si Si3 0.162458 0.338189 0.030914
Si Si4 0.251390 0.141702 0.810174
Si Si5 0.442630 0.177760 0.978813
Si Si6 0.620348 0.300995 0.427564
Si Si7 0.009963 0.064605 0.608075
Si Si8 0.260123 0.695802 0.018585
O O1 0.697410 0.433663 0.468910
O O2 0.486680 0.627455 0.585454
O O3 0.858926 0.744714 0.462887
O O4 0.978417 0.684464 0.217197
O O5 0.555321 0.896478 0.256838
O O6 0.214518 0.996658 0.499380
O O7 0.380569 0.879287 0.211123
O O8 0.588404 0.159097 0.147470
O O9 0.305944 0.269858 0.010394
O O10 0.250920 0.526381 0.985845
O O11 0.863182 0.267946 0.242605
O O12 0.217970 0.292410 0.884155
O O13 0.367852 0.161433 0.626432
O O14 0.000000 0.000000 0.000000
O O15 0.606268 0.272830 0.963623
O O16 0.225637 0.024455 0.167785
O O17 0.000000 0.000000 0.500000
#
# Coordination Sequence:
#
# PCOD9038095 Si02
#       8
#     2   2   2   2   2   2   2   2
#     4  10  23  41  66  94 127 169 211 263 317 369
#     4  11  23  38  61  94 125 164 209 258 311 372
#     4  10  25  41  65  95 124 171 208 257 326 371
#     4  11  25  41  63  94 124 164 210 260 316 375
#     4  11  22  42  62  93 134 162 210 266 311 375
#     4  10  23  46  63  91 132 166 211 264 313 377
#     4  12  23  37  64  97 122 168 211 253 321 370
#     4  11  20  42  65  90 129 168 209 261 311 377
#
# _framework density 23.714668
#
# number of rings (size 3 to 8) (size 9 to 14) (size 15 to 20)
#    0.000    1.250    2.500    3.000    5.250    0.500 
#    0.000    2.500    0.000    8.250    0.000    0.000 
#    0.000    0.000    0.000    0.000    0.000    0.000 
#
# Total GULP energy -89276.408090 kJ/mol
# GULP energy per Si atom -5579.775506 kJ/mol
# Density = 2.366069 g / cm^3
# Si number density = 23.714668 Si / 1000 Ang^3
#
#
#
# Elastic Constant Matrix: (Units=GPa)
#
#
# Indices 1 2 3 4 5 6 
#
# 1 53.3440 14.3516 15.9349 4.3156 -3.0646 -7.4171
# 2 14.3516 84.4396 10.5906 4.1940 -1.6788 8.2454
# 3 15.9349 10.5906 85.7570 2.0792 -7.0647 11.1099
# 4 4.3156 4.1940 2.0792 29.7591 -1.2144 -2.3287
# 5 -3.0646 -1.6788 -7.0647 -1.2144 26.8460 -0.9285
# 6 -7.4171 8.2454 11.1099 -2.3287 -0.9285 31.5919
#
#
#
# Elastic Compliance Matrix: (Units=1/GPa)
#
#
# Indices 1 2 3 4 5 6 
#
# 1 0.022454 -0.003895 -0.004552 -0.001725 0.001314 0.007800
# 2 -0.003895 0.013044 -0.000281 -0.001590 0.000075 -0.004335
# 3 -0.004552 -0.000281 0.013526 -0.000578 0.002799 -0.005712
# 4 -0.001725 -0.001590 -0.000578 0.034385 0.001203 0.002783
# 5 0.001314 0.000075 0.002799 0.001203 0.038213 0.000516
# 6 0.007800 -0.004335 -0.005712 0.002783 0.000516 0.036846
#
#
# Mechanical properties :
#
#
# Convention : Reuss Voigt Hill
#
# Bulk Modulus (GPa) = 31.67759 33.92163 32.79961
# Shear Modulus (GPa) = 26.81762 29.81697 28.31729
#
# Velocity S-wave (km/s) = 3.36645 3.54972 3.45930
# Velocity P-wave (km/s) = 5.33830 5.57995 5.46046
#
# Compressibility (1/GPa) = 0.03156806
#
# Stress axis : x y z
#
# Youngs Moduli (GPa) = 44.53640 76.66452 73.93222
#
# Poissons Ratio (x) = 0.29863 0.33652
# Poissons Ratio (y) = 0.17348 0.02075
# Poissons Ratio (z) = 0.20272 0.02152
#
# Static dielectric constant tensor:
#      x y z
#    x 2.075780 0.025680 -0.090930 
#    y 0.025680 1.937820 -0.009740 
#    z -0.090930 -0.009740 2.102790 
# 
# From -- ./inp_files/272434.got.cif
#   From: 2010.05.17/outbox.cif.g08.bks.cpg/sg2_137_cif.got.tgz:272434.got - 2010.06.03 11:33:40.
