data_PCOD9038682
_publ_section_title
;
Structure prediction by ZEFSAII (Michael W. Deem and Ramdas Pophale) SiO2 
 PCOD9038682
Probable space group: P -1
;
_chemical_formula_sum "Si O2"
_cell_formula_units_Z 14
_cell_length_a 8.316734
_cell_length_b 16.699347
_cell_length_c 13.113516
_cell_angle_alpha 153.841206
_cell_angle_beta 140.040382
_cell_angle_gamma 50.271740
_cell_volume 507.943518
_symmetry_space_group_name_H-M "P -1"
_symmetry_group_IT_number 2
_symmetry_cell_setting 'triclinic'
loop_
_space_group_symop_operation_xyz
x,y,z
-x,-y,-z
loop_
_atom_site_type_symbol
_atom_site_label
_atom_site_fract_x
_atom_site_fract_y
_atom_site_fract_z
Si Si1 0.734803 0.059333 0.520352
Si Si2 0.086159 0.524148 0.955179
Si Si3 0.649931 0.457325 0.161721
Si Si4 0.214851 0.941362 0.232175
Si Si5 0.461915 0.016365 0.872861
Si Si6 0.295616 0.304033 0.351391
Si Si7 0.807516 0.400097 0.497377
O O1 0.884909 0.265333 0.824046
O O2 0.826473 0.981863 0.585956
O O3 0.432400 0.055267 0.397651
O O4 0.734189 0.971904 0.306066
O O5 0.366649 0.478663 0.020961
O O6 0.000000 0.500000 0.000000
O O7 0.858453 0.402630 0.644411
O O8 0.696809 0.517881 0.370682
O O9 0.899522 0.577973 0.372257
O O10 0.677900 0.248838 0.917790
O O11 0.949510 0.860574 0.958014
O O12 0.507142 0.810072 0.635894
O O13 0.650222 0.208618 0.166044
O O14 0.500000 0.000000 0.000000
O O15 0.292325 0.409678 0.363171
#
# Coordination Sequence:
#
# PCOD9038682 Si02
#       7
#     2   2   2   2   2   2   2
#     4  11  22  45  68  99 142 178 235 296 342 416
#     4  12  25  44  66  98 142 187 226 284 364 421
#     4  11  22  43  71 102 134 181 237 287 352 417
#     4  10  23  41  73 109 131 178 244 299 351 405
#     4  12  27  45  68 104 146 195 233 281 363 428
#     4  11  23  43  71 105 140 177 237 293 349 410
#     4  11  25  45  70 103 139 182 239 290 344 422
#
# _framework density 27.562118999999999
#
# number of rings (size 3 to 8) (size 9 to 14) (size 15 to 20)
#    0.000    0.857    4.286    4.714    2.000    2.857 
#    2.571    1.429    0.000    0.000    0.000    0.000 
#    0.000    0.000    0.000    0.000    0.000    0.000 
#
# Total GULP energy -78122.468893 kJ/mol
# GULP energy per Si atom -5580.176350 kJ/mol
# Density = 2.749939 g / cm^3
# Si number density = 27.562119 Si / 1000 Ang^3
#
#
#
# Elastic Constant Matrix: (Units=GPa)
#
#
# Indices 1 2 3 4 5 6 
#
# 1 75.3772 41.6447 20.8885 15.7863 -2.0586 16.5239
# 2 41.6447 108.3340 37.8404 -12.8191 -4.4119 -2.0122
# 3 20.8885 37.8404 152.6587 -20.8743 18.2288 5.2790
# 4 15.7863 -12.8191 -20.8743 56.5227 14.2252 -4.6571
# 5 -2.0586 -4.4119 18.2288 14.2252 50.5789 -6.8809
# 6 16.5239 -2.0122 5.2790 -4.6571 -6.8809 52.8535
#
#
#
# Elastic Compliance Matrix: (Units=1/GPa)
#
#
# Indices 1 2 3 4 5 6 
#
# 1 0.023256 -0.009412 -0.002426 -0.010935 0.002992 -0.007961
# 2 -0.009412 0.014181 -0.001688 0.005440 0.000503 0.004196
# 3 -0.002426 -0.001688 0.008492 0.004570 -0.004640 -0.000355
# 4 -0.010935 0.005440 0.004570 0.026135 -0.008372 0.004382
# 5 0.002992 0.000503 -0.004640 -0.008372 0.024231 0.001964
# 6 -0.007961 0.004196 -0.000355 0.004382 0.001964 0.022246
#
#
# Mechanical properties :
#
#
# Convention : Reuss Voigt Hill
#
# Bulk Modulus (GPa) = 52.98007 59.67968 56.32988
# Shear Modulus (GPa) = 32.91914 47.72412 40.32163
#
# Velocity S-wave (km/s) = 3.45970 4.16566 3.82898
# Velocity P-wave (km/s) = 5.93491 6.69602 6.32692
#
# Compressibility (1/GPa) = 0.01887502
#
# Stress axis : x y z
#
# Youngs Moduli (GPa) = 42.99959 70.51772 117.75393
#
# Poissons Ratio (x) = 0.66373 0.28571
# Poissons Ratio (y) = 0.40472 0.19882
# Poissons Ratio (z) = 0.10433 0.11907
#
# Static dielectric constant tensor:
#      x y z
#    x 2.344180 -0.041050 -0.069750 
#    y -0.041050 4.981870 -1.125840 
#    z -0.069750 -1.125840 2.463770 
# 
# From -- ./inp_files/400197.got.cif
#   From: 2010.05.17/outbox.cif.g08.bks.cpg/sg2_201_cif.got.tgz:400197.got - 2010.06.03 11:33:40.
