data_PCOD9038507
_publ_section_title
;
Structure prediction by ZEFSAII (Michael W. Deem and Ramdas Pophale) SiO2 
 PCOD9038507
Probable space group: P -1
;
_chemical_formula_sum "Si O2"
_cell_formula_units_Z 11
_cell_length_a 6.563857
_cell_length_b 12.278620
_cell_length_c 10.435876
_cell_angle_alpha 145.507498
_cell_angle_beta 69.973471
_cell_angle_gamma 122.313951
_cell_volume 393.986534
_symmetry_space_group_name_H-M "P -1"
_symmetry_group_IT_number 2
_symmetry_cell_setting 'triclinic'
loop_
_space_group_symop_operation_xyz
x,y,z
-x,-y,-z
loop_
_atom_site_type_symbol
_atom_site_label
_atom_site_fract_x
_atom_site_fract_y
_atom_site_fract_z
Si Si1 0.327314 0.926416 0.342452
Si Si2 0.722402 0.613729 0.893330
Si Si3 0.964559 0.589234 0.459209
Si Si4 0.185226 0.289508 0.751683
Si Si5 0.000000 0.000000 0.000000
Si Si6 0.524900 0.803784 0.930210
O O1 0.068880 0.726472 0.251058
O O2 0.500000 0.000000 0.500000
O O3 0.245697 0.108833 0.506224
O O4 0.430117 0.881284 0.146681
O O5 0.430853 0.506865 0.876913
O O6 0.753581 0.757792 0.898568
O O7 0.824548 0.442554 0.692557
O O8 0.834739 0.742593 0.122508
O O9 0.692892 0.414657 0.294056
O O10 0.000000 0.500000 0.500000
O O11 0.999913 0.828268 0.708023
O O12 0.267130 0.004879 0.012084
#
# Coordination Sequence:
#
# PCOD9038507 Si02
#       6
#     2   2   2   2   1   2
#     4  11  22  42  68 105 143 184 237 284 359 441
#     4  11  23  45  71 102 145 182 238 297 353 431
#     4  12  27  52  73 103 146 190 247 304 355 423
#     4  10  23  41  70 104 141 190 225 289 366 425
#     4  12  28  48  76 102 138 200 246 296 364 408
#     4  12  26  48  72 108 146 188 244 300 355 429
#
# _framework density 27.919733999999998
#
# number of rings (size 3 to 8) (size 9 to 14) (size 15 to 20)
#    0.000    0.727    5.455    1.636    0.000    4.364 
#    3.273    0.000    0.000    0.000    0.000    0.000 
#    0.000    0.000    0.000    0.000    0.000    0.000 
#
# Total GULP energy -61437.541166 kJ/mol
# GULP energy per Si atom -5585.231015 kJ/mol
# Density = 2.785619 g / cm^3
# Si number density = 27.919734 Si / 1000 Ang^3
#
#
#
# Elastic Constant Matrix: (Units=GPa)
#
#
# Indices 1 2 3 4 5 6 
#
# 1 167.5495 63.9426 85.6703 -9.4086 38.6159 57.8460
# 2 63.9426 98.0727 34.6682 -9.0543 13.8066 18.4141
# 3 85.6703 34.6682 206.2034 -13.6988 7.1395 26.1357
# 4 -9.4086 -9.0543 -13.6988 39.8029 18.2654 0.0573
# 5 38.6159 13.8066 7.1395 18.2654 74.1254 6.8079
# 6 57.8460 18.4141 26.1357 0.0573 6.8079 76.7764
#
#
#
# Elastic Compliance Matrix: (Units=1/GPa)
#
#
# Indices 1 2 3 4 5 6 
#
# 1 0.014037 -0.005260 -0.003522 0.003779 -0.006230 -0.007566
# 2 -0.005260 0.013758 -0.000070 0.002037 -0.000383 0.000720
# 3 -0.003522 -0.000070 0.006292 0.000863 0.000989 0.000440
# 4 0.003779 0.002037 0.000863 0.031322 -0.009894 -0.002775
# 5 -0.006230 -0.000383 0.000989 -0.009894 0.018895 0.002781
# 6 -0.007566 0.000720 0.000440 -0.002775 0.002781 0.018158
#
#
# Mechanical properties :
#
#
# Convention : Reuss Voigt Hill
#
# Bulk Modulus (GPa) = 61.04352 93.37644 77.20998
# Shear Modulus (GPa) = 39.80057 57.31059 48.55558
#
# Velocity S-wave (km/s) = 3.77972 4.53558 4.17479
# Velocity P-wave (km/s) = 6.39998 7.80678 7.13812
#
# Compressibility (1/GPa) = 0.01638176
#
# Stress axis : x y z
#
# Youngs Moduli (GPa) = 71.24204 72.68523 158.93680
#
# Poissons Ratio (x) = 0.38236 0.55972
# Poissons Ratio (y) = 0.37477 0.01116
# Poissons Ratio (z) = 0.25089 0.00510
#
# Static dielectric constant tensor:
#      x y z
#    x 2.403670 0.070340 0.060350 
#    y 0.070340 2.365720 0.079930 
#    z 0.060350 0.079930 2.155500 
# 
# From -- ./inp_files/21197.got.cif
#   From: 2010.05.17/outbox.cif.g08.bks.cpg/sg2_11_cif.got.tgz:21197.got - 2010.06.03 11:33:40.
