data_PCOD9038120
_publ_section_title
;
Structure prediction by ZEFSAII (Michael W. Deem and Ramdas Pophale) SiO2 
 PCOD9038120
Probable space group: P -1
;
_chemical_formula_sum "Si O2"
_cell_formula_units_Z 15
_cell_length_a 7.993067
_cell_length_b 15.341207
_cell_length_c 7.274453
_cell_angle_alpha 72.348867
_cell_angle_beta 81.773617
_cell_angle_gamma 47.096290
_cell_volume 620.071162
_symmetry_space_group_name_H-M "P -1"
_symmetry_group_IT_number 2
_symmetry_cell_setting 'triclinic'
loop_
_space_group_symop_operation_xyz
x,y,z
-x,-y,-z
loop_
_atom_site_type_symbol
_atom_site_label
_atom_site_fract_x
_atom_site_fract_y
_atom_site_fract_z
Si Si1 0.284202 0.193684 0.797979
Si Si2 0.073169 0.572764 0.890230
Si Si3 0.233397 0.992481 0.276208
Si Si4 0.139357 0.777166 0.028832
Si Si5 0.500000 0.500000 0.000000
Si Si6 0.849332 0.811439 0.589485
Si Si7 0.235160 0.420864 0.621612
Si Si8 0.276617 0.767696 0.429948
O O1 0.244541 0.191033 0.586628
O O2 0.263799 0.308686 0.771761
O O3 0.079735 0.210341 0.908230
O O4 0.554079 0.074023 0.857164
O O5 0.211403 0.509710 0.716452
O O6 0.874657 0.717196 0.783546
O O7 0.257274 0.537421 0.028995
O O8 0.000000 0.500000 0.000000
O O9 0.268812 0.057988 0.382227
O O10 0.244228 0.884895 0.417273
O O11 0.987413 0.099796 0.151804
O O12 0.356247 0.649726 0.981304
O O13 0.221516 0.783025 0.210500
O O14 0.105848 0.758012 0.552887
O O15 0.459607 0.356127 0.506490
O O16 0.000000 0.500000 0.500000
#
# Coordination Sequence:
#
# PCOD9038120 Si02
#       8
#     2   2   2   2   1   2   2   2
#     4  10  23  41  66  96 136 176 223 281 346 413
#     4  12  26  45  68 102 141 178 231 287 349 413
#     4  11  22  42  66  98 131 179 232 280 340 409
#     4  11  22  42  66  95 136 177 227 283 343 410
#     4  12  24  46  70 104 140 178 234 288 348 414
#     4  11  23  43  66  98 133 179 222 286 342 408
#     4  11  22  42  66  97 131 178 229 280 348 412
#     4  10  24  41  66  95 138 176 228 281 344 413
#
# _framework density 24.190773
#
# number of rings (size 3 to 8) (size 9 to 14) (size 15 to 20)
#    0.000    1.067    4.000    2.400    0.000    2.667 
#    0.000    1.333    0.000    0.000    0.000    0.000 
#    0.000    0.000    0.000    0.000    0.000    0.000 
#
# Total GULP energy -83627.812707 kJ/mol
# GULP energy per Si atom -5575.187514 kJ/mol
# Density = 2.413571 g / cm^3
# Si number density = 24.190773 Si / 1000 Ang^3
#
#
#
# Elastic Constant Matrix: (Units=GPa)
#
#
# Indices 1 2 3 4 5 6 
#
# 1 76.1023 9.6706 -6.8853 -12.9609 -5.0885 -1.8235
# 2 9.6706 148.9882 16.6578 -9.1155 1.9597 2.3175
# 3 -6.8853 16.6578 48.5139 -5.4865 5.9623 0.2871
# 4 -12.9609 -9.1155 -5.4865 18.3774 -1.0957 0.9577
# 5 -5.0885 1.9597 5.9623 -1.0957 32.4453 -8.5207
# 6 -1.8235 2.3175 0.2871 0.9577 -8.5207 52.2261
#
#
#
# Elastic Compliance Matrix: (Units=1/GPa)
#
#
# Indices 1 2 3 4 5 6 
#
# 1 0.015765 -0.000733 0.003529 0.011917 0.002467 0.000748
# 2 -0.000733 0.007167 -0.002276 0.002370 -0.000155 -0.000400
# 3 0.003529 -0.002276 0.023244 0.008125 -0.003468 -0.000618
# 4 0.011917 0.002370 0.008125 0.066590 0.002331 -0.000575
# 5 0.002467 -0.000155 -0.003468 0.002331 0.033382 0.005516
# 6 0.000748 -0.000400 -0.000618 -0.000575 0.005516 0.020105
#
#
# Mechanical properties :
#
#
# Convention : Reuss Voigt Hill
#
# Bulk Modulus (GPa) = 21.17858 34.72117 27.94988
# Shear Modulus (GPa) = 27.63191 37.55384 32.59288
#
# Velocity S-wave (km/s) = 3.38339 3.94433 3.67458
# Velocity P-wave (km/s) = 4.90274 5.92688 5.43897
#
# Compressibility (1/GPa) = 0.04721752
#
# Stress axis : x y z
#
# Youngs Moduli (GPa) = 63.43153 139.52434 43.02249
#
# Poissons Ratio (x) = 0.10225 -0.15183
# Poissons Ratio (y) = 0.04648 0.09790
# Poissons Ratio (z) = -0.22386 0.31749
#
# Static dielectric constant tensor:
#      x y z
#    x 1.943900 0.026470 0.025480 
#    y 0.026470 1.995260 0.060150 
#    z 0.025480 0.060150 2.010170 
# 
# From -- ./inp_files/206305.got.cif
#   From: 2010.05.17/outbox.cif.g08.bks.cpg/sg2_104_cif.got.tgz:206305.got - 2010.06.03 11:33:40.
