data_PCOD9038018
_publ_section_title
;
Structure prediction by ZEFSAII (Michael W. Deem and Ramdas Pophale) SiO2 
 PCOD9038018
Probable space group: P -1
;
_chemical_formula_sum "Si O2"
_cell_formula_units_Z 14
_cell_length_a 9.841896
_cell_length_b 5.268274
_cell_length_c 17.107145
_cell_angle_alpha 70.849593
_cell_angle_beta 50.673850
_cell_angle_gamma 63.867840
_cell_volume 614.473862
_symmetry_space_group_name_H-M "P -1"
_symmetry_group_IT_number 2
_symmetry_cell_setting 'triclinic'
loop_
_space_group_symop_operation_xyz
x,y,z
-x,-y,-z
loop_
_atom_site_type_symbol
_atom_site_label
_atom_site_fract_x
_atom_site_fract_y
_atom_site_fract_z
Si Si1 0.076685 0.429051 0.174821
Si Si2 0.790435 0.647991 0.533833
Si Si3 0.560302 0.221019 0.624544
Si Si4 0.202108 0.791617 0.963121
Si Si5 0.742864 0.366687 0.216720
Si Si6 0.474226 0.198862 0.064214
Si Si7 0.257504 0.181366 0.639712
O O1 0.265842 0.239571 0.165993
O O2 0.953447 0.299019 0.177538
O O3 0.927874 0.619262 0.270418
O O4 0.157365 0.599004 0.065953
O O5 0.692178 0.410437 0.575058
O O6 0.782372 0.811593 0.437833
O O7 0.000000 0.500000 0.500000
O O8 0.318459 0.108693 0.389876
O O9 0.392011 0.330515 0.736660
O O10 0.434776 0.279899 0.585274
O O11 0.269340 0.651605 0.869378
O O12 0.355899 0.920106 0.926597
O O13 0.000000 0.000000 0.000000
O O14 0.688117 0.124976 0.308220
O O15 0.500000 0.500000 0.000000
O O16 0.500000 0.000000 0.000000
#
# Coordination Sequence:
#
# PCOD9038018 Si02
#       7
#     2   2   2   2   2   2   2
#     4  10  23  41  65  97 140 179 227 280 346 402
#     4  12  27  47  72 103 138 181 226 288 354 413
#     4  11  25  48  72 100 138 178 231 284 348 420
#     4  11  21  41  69  98 140 185 233 280 328 405
#     4  11  23  41  72 106 132 183 238 284 341 404
#     4  10  23  42  62  91 131 181 222 274 335 389
#     4  11  24  44  73  99 136 182 230 286 344 416
#
# _framework density 22.783722000000001
#
# number of rings (size 3 to 8) (size 9 to 14) (size 15 to 20)
#    0.000    1.143    2.857    2.571    6.000    2.286 
#    0.000    0.000    0.000    0.000    0.000    0.000 
#    0.000    0.000    0.000    0.000    0.000    0.000 
#
# Total GULP energy -78163.304530 kJ/mol
# GULP energy per Si atom -5583.093181 kJ/mol
# Density = 2.273186 g / cm^3
# Si number density = 22.783722 Si / 1000 Ang^3
#
#
#
# Elastic Constant Matrix: (Units=GPa)
#
#
# Indices 1 2 3 4 5 6 
#
# 1 185.4779 60.3130 60.9592 30.8697 -42.0488 -2.2686
# 2 60.3130 114.5215 33.5586 29.1679 -18.7035 4.4622
# 3 60.9592 33.5586 61.4567 7.3793 -13.2182 -5.9866
# 4 30.8697 29.1679 7.3793 42.2784 4.2141 -8.6355
# 5 -42.0488 -18.7035 -13.2182 4.2141 46.5272 6.2437
# 6 -2.2686 4.4622 -5.9866 -8.6355 6.2437 32.0598
#
#
#
# Elastic Compliance Matrix: (Units=1/GPa)
#
#
# Indices 1 2 3 4 5 6 
#
# 1 0.012280 0.000895 -0.009793 -0.010098 0.010371 -0.005824
# 2 0.000895 0.014709 -0.006761 -0.011905 0.006927 -0.007802
# 3 -0.009793 -0.006761 0.028241 0.009308 -0.005612 0.009122
# 4 -0.010098 -0.011905 0.009308 0.042971 -0.017530 0.017669
# 5 0.010371 0.006927 -0.005612 -0.017530 0.035373 -0.012889
# 6 -0.005824 -0.007802 0.009122 0.017669 -0.012889 0.040838
#
#
# Mechanical properties :
#
#
# Convention : Reuss Voigt Hill
#
# Bulk Modulus (GPa) = 41.81911 74.56865 58.19388
# Shear Modulus (GPa) = 23.39725 37.94809 30.67267
#
# Velocity S-wave (km/s) = 3.20805 4.08558 3.67311
# Velocity P-wave (km/s) = 5.66717 7.41997 6.60199
#
# Compressibility (1/GPa) = 0.02391251
#
# Stress axis : x y z
#
# Youngs Moduli (GPa) = 81.43576 67.98515 35.40947
#
# Poissons Ratio (x) = -0.06086 0.34677
# Poissons Ratio (y) = -0.07290 0.23939
# Poissons Ratio (z) = 0.79752 0.45962
#
# Static dielectric constant tensor:
#      x y z
#    x 1.981150 -0.048180 0.003370 
#    y -0.048180 1.942960 -0.032040 
#    z 0.003370 -0.032040 1.911910 
# 
# From -- ./inp_files/134040.got.cif
#   From: 2010.05.17/outbox.cif.g08.bks.cpg/sg2_68_cif.got.tgz:134040.got - 2010.06.03 11:33:40.
