data_PCOD9038607
_publ_section_title
;
Structure prediction by ZEFSAII (Michael W. Deem and Ramdas Pophale) SiO2 
 PCOD9038607
Probable space group: P -1
;
_chemical_formula_sum "Si O2"
_cell_formula_units_Z 15
_cell_length_a 13.798579
_cell_length_b 15.966227
_cell_length_c 7.901207
_cell_angle_alpha 86.571182
_cell_angle_beta 122.456949
_cell_angle_gamma 142.072890
_cell_volume 643.959749
_symmetry_space_group_name_H-M "P -1"
_symmetry_group_IT_number 2
_symmetry_cell_setting 'triclinic'
loop_
_space_group_symop_operation_xyz
x,y,z
-x,-y,-z
loop_
_atom_site_type_symbol
_atom_site_label
_atom_site_fract_x
_atom_site_fract_y
_atom_site_fract_z
Si Si1 0.972669 0.233570 0.255478
Si Si2 0.625926 0.363583 0.359959
Si Si3 0.500000 0.000000 0.000000
Si Si4 0.609143 0.747796 0.476399
Si Si5 0.093700 0.336392 0.964134
Si Si6 0.647682 0.961410 0.422747
Si Si7 0.808956 0.326002 0.711236
Si Si8 0.918773 0.008681 0.274505
O O1 0.986573 0.149978 0.352547
O O2 0.156771 0.423213 0.497712
O O3 0.048464 0.281653 0.123496
O O4 0.683276 0.080274 0.012949
O O5 0.502463 0.307328 0.434286
O O6 0.758149 0.358906 0.509281
O O7 0.384695 0.199797 0.028411
O O8 0.428002 0.032697 0.806869
O O9 0.604427 0.834918 0.371719
O O10 0.895878 0.897529 0.719646
O O11 0.402280 0.552256 0.211334
O O12 0.948474 0.330635 0.795835
O O13 0.946336 0.173982 0.729175
O O14 0.462450 0.865087 0.420142
O O15 0.000000 0.500000 0.000000
O O16 0.000000 0.000000 0.500000
#
# Coordination Sequence:
#
# PCOD9038607 Si02
#       8
#     2   2   1   2   2   2   2   2
#     4  11  24  43  65  96 127 169 215 262 319 380
#     4  10  23  41  71  96 124 170 212 270 321 364
#     4  12  24  38  60  96 136 166 206 256 328 390
#     4  10  23  44  65  94 127 165 219 266 310 370
#     4  11  22  39  70 100 122 167 214 268 320 377
#     4  11  22  37  63  93 131 168 206 262 324 376
#     4  11  17  39  66  96 132 156 205 274 321 368
#     4  12  27  45  64  91 135 176 216 255 314 387
#
# _framework density 23.293381
#
# number of rings (size 3 to 8) (size 9 to 14) (size 15 to 20)
#    0.000    1.067    5.333    3.200    1.867    4.800 
#    0.000    1.333    0.000    0.000    0.000    0.000 
#    0.000    0.000    0.000    0.000    0.000    0.000 
#
# Total GULP energy -83725.256027 kJ/mol
# GULP energy per Si atom -5581.683735 kJ/mol
# Density = 2.324036 g / cm^3
# Si number density = 23.293381 Si / 1000 Ang^3
#
#
#
# Elastic Constant Matrix: (Units=GPa)
#
#
# Indices 1 2 3 4 5 6 
#
# 1 37.7790 17.3251 4.6692 -0.0798 11.7702 2.5134
# 2 17.3251 109.5971 38.9128 -21.6954 -18.1259 -39.7195
# 3 4.6692 38.9128 72.6464 -24.6844 -2.8233 -31.6663
# 4 -0.0798 -21.6954 -24.6844 15.9829 -12.1308 -1.7720
# 5 11.7702 -18.1259 -2.8233 -12.1308 20.6872 -6.1052
# 6 2.5134 -39.7195 -31.6663 -1.7720 -6.1052 9.2799
#
#
#
# Elastic Compliance Matrix: (Units=1/GPa)
#
#
# Indices 1 2 3 4 5 6 
#
# 1 0.026539 -0.000818 0.007913 0.008905 -0.005211 0.014584
# 2 -0.000818 0.007777 -0.011305 -0.009807 -0.002560 -0.008626
# 3 0.007913 -0.011305 0.016348 -0.001408 -0.014308 -0.004427
# 4 0.008905 -0.009807 -0.001408 0.039279 -0.003875 -0.044241
# 5 -0.005211 -0.002560 -0.014308 -0.003875 0.033990 -0.036749
# 6 0.014584 -0.008626 -0.004427 -0.044241 -0.036749 0.019158
#
#
# Mechanical properties :
#
#
# Convention : Reuss Voigt Hill
#
# Bulk Modulus (GPa) = 23.67228 37.98183 30.82705
# Shear Modulus (GPa) = 30.19482 19.79769 24.99626
#
# Velocity S-wave (km/s) = 3.60430 2.91852 3.27938
# Velocity P-wave (km/s) = 5.24462 5.26291 5.25377
#
# Compressibility (1/GPa) = 0.04224351
#
# Stress axis : x y z
#
# Youngs Moduli (GPa) = 37.68037 128.59247 61.16985
#
# Poissons Ratio (x) = 0.10523 -0.48404
# Poissons Ratio (y) = 0.03083 0.69151
# Poissons Ratio (z) = -0.29817 1.45371
#
# Static dielectric constant tensor:
#      x y z
#    x 1.887550 0.041170 -0.023520 
#    y 0.041170 1.892130 0.033960 
#    z -0.023520 0.033960 1.860870 
# 
# From -- ./inp_files/271080.got.cif
#   From: 2010.05.17/outbox.cif.g08.bks.cpg/sg2_136_cif.got.tgz:271080.got - 2010.06.03 11:33:40.
