data_PCOD9038923
_publ_section_title
;
Structure prediction by ZEFSAII (Michael W. Deem and Ramdas Pophale) SiO2 
 PCOD9038923
Probable space group: P -1
;
_chemical_formula_sum "Si O2"
_cell_formula_units_Z 16
_cell_length_a 16.062412
_cell_length_b 8.846817
_cell_length_c 21.796084
_cell_angle_alpha 58.471818
_cell_angle_beta 162.655339
_cell_angle_gamma 112.938199
_cell_volume 710.370871
_symmetry_space_group_name_H-M "P -1"
_symmetry_group_IT_number 2
_symmetry_cell_setting 'triclinic'
loop_
_space_group_symop_operation_xyz
x,y,z
-x,-y,-z
loop_
_atom_site_type_symbol
_atom_site_label
_atom_site_fract_x
_atom_site_fract_y
_atom_site_fract_z
Si Si1 0.702425 0.535578 0.188672
Si Si2 0.409995 0.235717 0.185994
Si Si3 0.152555 0.534452 0.164747
Si Si4 0.279352 0.896830 0.882229
Si Si5 0.334043 0.856351 0.404887
Si Si6 0.229161 0.910793 0.124135
Si Si7 0.087338 0.772530 0.370812
Si Si8 0.146427 0.859374 0.575791
O O1 0.918913 0.328605 0.416007
O O2 0.888483 0.649698 0.265915
O O3 0.500000 0.500000 0.000000
O O4 0.473682 0.671046 0.051983
O O5 0.659936 0.289639 0.384282
O O6 0.490611 0.238027 0.169613
O O7 0.462359 0.008474 0.278278
O O8 0.096461 0.366038 0.976113
O O9 0.417592 0.328540 0.418157
O O10 0.305941 0.683195 0.225007
O O11 0.000000 0.500000 0.000000
O O12 0.127919 0.993394 0.819353
O O13 0.022443 0.993673 0.629103
O O14 0.500000 0.000000 0.000000
O O15 0.276002 0.757378 0.445744
O O16 0.500000 0.000000 0.500000
O O17 0.995299 0.980606 0.113204
O O18 0.000000 0.000000 0.000000
O O19 0.000000 0.000000 0.500000
#
# Coordination Sequence:
#
# PCOD9038923 Si02
#       8
#     2   2   2   2   2   2   2   2
#     4  11  23  42  68  95 130 171 222 273 324 391
#     4  10  23  42  64  97 132 174 222 268 331 390
#     4  11  21  44  66  97 135 170 219 274 323 392
#     4   9  21  41  62  90 129 165 214 269 318 383
#     4  12  23  40  71  97 131 175 217 267 332 389
#     4  10  23  42  65  93 134 172 216 273 321 389
#     4  10  23  42  65  97 131 172 222 266 328 398
#     4  11  23  41  65  93 131 169 218 273 327 386
#
# _framework density 22.523446
#
# number of rings (size 3 to 8) (size 9 to 14) (size 15 to 20)
#    0.000    1.500    3.750    0.750    1.750    8.500 
#    0.000    1.250    0.000    0.000    0.000    0.000 
#    0.000    0.000    0.000    0.000    0.000    0.000 
#
# Total GULP energy -89068.315120 kJ/mol
# GULP energy per Si atom -5566.769695 kJ/mol
# Density = 2.247218 g / cm^3
# Si number density = 22.523446 Si / 1000 Ang^3
#
#
#
# Elastic Constant Matrix: (Units=GPa)
#
#
# Indices 1 2 3 4 5 6 
#
# 1 102.7064 29.2808 13.5627 -0.0305 33.2981 -0.2484
# 2 29.2808 166.3618 45.1735 -8.6884 18.1264 3.7323
# 3 13.5627 45.1735 61.6962 -6.1341 20.6054 0.2452
# 4 -0.0305 -8.6884 -6.1341 50.8969 -2.2403 9.4513
# 5 33.2981 18.1264 20.6054 -2.2403 34.4937 -6.3684
# 6 -0.2484 3.7323 0.2452 9.4513 -6.3684 26.6917
#
#
#
# Elastic Compliance Matrix: (Units=1/GPa)
#
#
# Indices 1 2 3 4 5 6 
#
# 1 0.015062 -0.001717 0.003424 0.000073 -0.016339 -0.003576
# 2 -0.001717 0.007799 -0.005452 0.000930 0.000649 -0.001231
# 3 0.003424 -0.005452 0.025013 0.002125 -0.015983 -0.004002
# 4 0.000073 0.000930 0.002125 0.021505 -0.001952 -0.008229
# 5 -0.016339 0.000649 -0.015983 -0.001952 0.056439 0.014061
# 6 -0.003576 -0.001231 -0.004002 -0.008229 0.014061 0.043909
#
#
# Mechanical properties :
#
#
# Convention : Reuss Voigt Hill
#
# Bulk Modulus (GPa) = 24.76172 56.31092 40.53632
# Shear Modulus (GPa) = 26.22201 38.59963 32.41082
#
# Velocity S-wave (km/s) = 3.41575 4.14424 3.79751
# Velocity P-wave (km/s) = 5.15501 6.92495 6.10447
#
# Compressibility (1/GPa) = 0.04038492
#
# Stress axis : x y z
#
# Youngs Moduli (GPa) = 66.39099 128.21861 39.97890
#
# Poissons Ratio (x) = 0.22009 -0.13689
# Poissons Ratio (y) = 0.11396 0.21798
# Poissons Ratio (z) = -0.22733 0.69911
#
# Static dielectric constant tensor:
#      x y z
#    x 1.845230 -0.056230 0.173830 
#    y -0.056230 1.862660 0.039050 
#    z 0.173830 0.039050 1.897760 
# 
# From -- ./inp_files/343872.got.cif
#   From: 2010.05.17/outbox.cif.g08.bks.cpg/sg2_172_cif.got.tgz:343872.got - 2010.06.03 11:33:40.
