data_PCOD9038904
_publ_section_title
;
Structure prediction by ZEFSAII (Michael W. Deem and Ramdas Pophale) SiO2 
 PCOD9038904
Probable space group: P -1
;
_chemical_formula_sum "Si O2"
_cell_formula_units_Z 15
_cell_length_a 5.328051
_cell_length_b 7.472416
_cell_length_c 16.619539
_cell_angle_alpha 115.665550
_cell_angle_beta 72.668710
_cell_angle_gamma 87.427715
_cell_volume 557.570228
_symmetry_space_group_name_H-M "P -1"
_symmetry_group_IT_number 2
_symmetry_cell_setting 'triclinic'
loop_
_space_group_symop_operation_xyz
x,y,z
-x,-y,-z
loop_
_atom_site_type_symbol
_atom_site_label
_atom_site_fract_x
_atom_site_fract_y
_atom_site_fract_z
Si Si1 0.857646 0.880258 0.104767
Si Si2 0.823288 0.605043 0.195888
Si Si3 0.352637 0.159700 0.225408
Si Si4 0.691150 0.316369 0.534351
Si Si5 0.886178 0.519927 0.397941
Si Si6 0.781616 0.169402 0.715188
Si Si7 0.000000 0.000000 0.500000
Si Si8 0.185623 0.181484 0.075123
O O1 0.921418 0.692621 0.120665
O O2 0.658501 0.068916 0.204790
O O3 0.098801 0.970680 0.063628
O O4 0.714690 0.819017 0.025543
O O5 0.503855 0.675128 0.235605
O O6 0.932463 0.366714 0.142597
O O7 0.983781 0.706108 0.267944
O O8 0.147215 0.354964 0.316435
O O9 0.367898 0.205420 0.138323
O O10 0.221709 0.974920 0.234718
O O11 0.776345 0.436881 0.474622
O O12 0.395305 0.422694 0.611162
O O13 0.967594 0.290414 0.560190
O O14 0.737210 0.080100 0.475130
O O15 0.796673 0.032875 0.608171
#
# Coordination Sequence:
#
# PCOD9038904 Si02
#       8
#     2   2   2   2   2   2   1   2
#     4  10  24  46  69 106 141 180 237 288 359 414
#     4  11  26  48  71 104 142 183 234 289 348 423
#     4  11  23  44  68  99 138 185 228 293 342 425
#     4  10  24  41  64  93 132 170 230 274 333 403
#     4  10  23  42  64  95 127 178 220 276 337 398
#     4  11  27  46  68 102 142 186 230 290 350 410
#     4  12  26  46  66 102 138 186 224 292 340 410
#     4  11  24  43  74 102 137 189 229 295 351 425
#
# _framework density 26.902441
#
# number of rings (size 3 to 8) (size 9 to 14) (size 15 to 20)
#    0.000    1.333    2.667    0.800    7.467    2.133 
#    0.000    2.000    0.000    0.000    0.000    0.000 
#    0.000    0.000    0.000    0.000    0.000    0.000 
#
# Total GULP energy -83605.246918 kJ/mol
# GULP energy per Si atom -5573.683128 kJ/mol
# Density = 2.684121 g / cm^3
# Si number density = 26.902441 Si / 1000 Ang^3
#
#
#
# Elastic Constant Matrix: (Units=GPa)
#
#
# Indices 1 2 3 4 5 6 
#
# 1 116.4361 40.8794 25.0855 12.3209 -9.6475 -11.3830
# 2 40.8794 127.3033 16.4651 -2.3050 3.1526 -11.0441
# 3 25.0855 16.4651 95.7152 9.6874 2.3840 -5.5919
# 4 12.3209 -2.3050 9.6874 59.7288 -16.1877 -9.0068
# 5 -9.6475 3.1526 2.3840 -16.1877 25.9491 0.1427
# 6 -11.3830 -11.0441 -5.5919 -9.0068 0.1427 35.2602
#
#
#
# Elastic Compliance Matrix: (Units=1/GPa)
#
#
# Indices 1 2 3 4 5 6 
#
# 1 0.010761 -0.003110 -0.002221 -0.000529 0.004242 0.001995
# 2 -0.003110 0.009177 -0.000705 0.000978 -0.001607 0.002015
# 3 -0.002221 -0.000705 0.011477 -0.002249 -0.003199 0.000321
# 4 -0.000529 0.000978 -0.002249 0.021675 0.013383 0.005261
# 5 0.004242 -0.001607 -0.003199 0.013383 0.048932 0.003579
# 6 0.001995 0.002015 0.000321 0.005261 0.003579 0.031016
#
#
# Mechanical properties :
#
#
# Convention : Reuss Voigt Hill
#
# Bulk Modulus (GPa) = 51.69481 56.03495 53.86488
# Shear Modulus (GPa) = 32.99062 41.32258 37.15660
#
# Velocity S-wave (km/s) = 3.50566 3.92346 3.72043
# Velocity P-wave (km/s) = 5.97023 6.43419 6.20655
#
# Compressibility (1/GPa) = 0.01934430
#
# Stress axis : x y z
#
# Youngs Moduli (GPa) = 92.92605 108.96321 87.13029
#
# Poissons Ratio (x) = 0.33886 0.19351
# Poissons Ratio (y) = 0.28899 0.06142
# Poissons Ratio (z) = 0.20638 0.07681
#
# Static dielectric constant tensor:
#      x y z
#    x 2.236820 0.012800 0.163710 
#    y 0.012800 2.205000 0.108280 
#    z 0.163710 0.108280 2.383470 
# 
# From -- ./inp_files/548216.got.cif
#   From: 2010.05.17/outbox.cif.g08.bks.cpg/sg2_275_cif.got.tgz:548216.got - 2010.06.03 11:33:40.
