data_PCOD9038533
_publ_section_title
;
Structure prediction by ZEFSAII (Michael W. Deem and Ramdas Pophale) SiO2 
 PCOD9038533
Probable space group: P -1
;
_chemical_formula_sum "Si O2"
_cell_formula_units_Z 15
_cell_length_a 9.430444
_cell_length_b 11.738536
_cell_length_c 8.885531
_cell_angle_alpha 51.987392
_cell_angle_beta 129.901867
_cell_angle_gamma 109.615442
_cell_volume 591.644685
_symmetry_space_group_name_H-M "P -1"
_symmetry_group_IT_number 2
_symmetry_cell_setting 'triclinic'
loop_
_space_group_symop_operation_xyz
x,y,z
-x,-y,-z
loop_
_atom_site_type_symbol
_atom_site_label
_atom_site_fract_x
_atom_site_fract_y
_atom_site_fract_z
Si Si1 0.160717 0.884432 0.262326
Si Si2 0.246607 0.545941 0.576102
Si Si3 0.083992 0.684220 0.965992
Si Si4 0.931756 0.439707 0.258665
Si Si5 0.535029 0.987980 0.808888
Si Si6 0.516290 0.239077 0.813123
Si Si7 0.886584 0.982102 0.585399
Si Si8 0.500000 0.500000 0.500000
O O1 0.180419 0.717735 0.360916
O O2 0.341061 0.967642 0.279816
O O3 0.123567 0.886433 0.412758
O O4 0.000000 0.000000 0.000000
O O5 0.241612 0.535169 0.763742
O O6 0.429014 0.514120 0.625242
O O7 0.101460 0.440146 0.493465
O O8 0.074071 0.677689 0.783225
O O9 0.997365 0.837929 0.843420
O O10 0.310044 0.656034 0.171054
O O11 0.971550 0.573327 0.068945
O O12 0.591482 0.094173 0.894138
O O13 0.322658 0.033964 0.590054
O O14 0.545474 0.824915 0.018924
O O15 0.384093 0.347935 0.535210
O O16 0.000000 0.000000 0.500000
#
# Coordination Sequence:
#
# PCOD9038533 Si02
#       8
#     2   2   2   2   2   2   2   1
#     4  12  26  47  73 104 150 187 245 305 354 434
#     4  11  24  44  67 106 134 195 238 294 358 437
#     4  11  22  45  70 107 140 186 238 302 362 434
#     4  10  23  41  70  96 143 178 245 284 357 441
#     4  11  25  45  70 107 144 191 245 293 366 432
#     4  11  24  43  70 103 146 185 238 296 364 431
#     4  12  25  42  75 104 142 190 236 305 357 429
#     4  12  24  44  70  96 152 188 236 306 354 430
#
# _framework density 25.353052999999999
#
# number of rings (size 3 to 8) (size 9 to 14) (size 15 to 20)
#    0.000    0.800    4.000    2.800    3.733    3.200 
#    0.000    0.667    0.000    0.000    0.000    0.000 
#    0.000    0.000    0.000    0.000    0.000    0.000 
#
# Total GULP energy -83508.271618 kJ/mol
# GULP energy per Si atom -5567.218108 kJ/mol
# Density = 2.529535 g / cm^3
# Si number density = 25.353053 Si / 1000 Ang^3
#
#
#
# Elastic Constant Matrix: (Units=GPa)
#
#
# Indices 1 2 3 4 5 6 
#
# 1 184.5870 31.2019 50.3514 6.8582 -16.0318 -20.6206
# 2 31.2019 77.4648 13.7424 -2.6114 -5.9105 -17.8444
# 3 50.3514 13.7424 63.7297 -5.6248 -15.1930 5.0695
# 4 6.8582 -2.6114 -5.6248 40.8783 1.9686 -12.1104
# 5 -16.0318 -5.9105 -15.1930 1.9686 57.3647 5.4536
# 6 -20.6206 -17.8444 5.0695 -12.1104 5.4536 43.0456
#
#
#
# Elastic Compliance Matrix: (Units=1/GPa)
#
#
# Indices 1 2 3 4 5 6 
#
# 1 0.007788 -0.001226 -0.006259 -0.001179 0.000089 0.003616
# 2 -0.001226 0.015597 -0.002754 0.002925 -0.000236 0.007055
# 3 -0.006259 -0.002754 0.023053 0.001762 0.004673 -0.006951
# 4 -0.001179 0.002925 0.001762 0.027636 -0.001307 0.008381
# 5 0.000089 -0.000236 0.004673 -0.001307 0.019037 -0.003385
# 6 0.003616 0.007055 -0.006951 0.008381 -0.003385 0.031494
#
#
# Mechanical properties :
#
#
# Convention : Reuss Voigt Hill
#
# Bulk Modulus (GPa) = 38.52162 57.37475 47.94819
# Shear Modulus (GPa) = 32.52343 43.62347 38.07345
#
# Velocity S-wave (km/s) = 3.58553 4.15256 3.87942
# Velocity P-wave (km/s) = 5.68933 6.75804 6.24658
#
# Compressibility (1/GPa) = 0.02595945
#
# Stress axis : x y z
#
# Youngs Moduli (GPa) = 128.40915 64.11318 43.37920
#
# Poissons Ratio (x) = 0.07862 0.27150
# Poissons Ratio (y) = 0.15747 0.11946
# Poissons Ratio (z) = 0.80370 0.17656
#
# Static dielectric constant tensor:
#      x y z
#    x 2.089700 -0.083340 0.169190 
#    y -0.083340 2.357750 -0.257800 
#    z 0.169190 -0.257800 2.540400 
# 
# From -- ./inp_files/175542.got.cif
#   From: 2010.05.17/outbox.cif.g08.bks.cpg/sg2_88_cif.got.tgz:175542.got - 2010.06.03 11:33:40.
