data_PCOD9038460
_publ_section_title
;
Structure prediction by ZEFSAII (Michael W. Deem and Ramdas Pophale) SiO2 
 PCOD9038460
Probable space group: P -1
;
_chemical_formula_sum "Si O2"
_cell_formula_units_Z 16
_cell_length_a 8.579974
_cell_length_b 10.549605
_cell_length_c 14.817605
_cell_angle_alpha 40.094268
_cell_angle_beta 84.843610
_cell_angle_gamma 60.930596
_cell_volume 653.575600
_symmetry_space_group_name_H-M "P -1"
_symmetry_group_IT_number 2
_symmetry_cell_setting 'triclinic'
loop_
_space_group_symop_operation_xyz
x,y,z
-x,-y,-z
loop_
_atom_site_type_symbol
_atom_site_label
_atom_site_fract_x
_atom_site_fract_y
_atom_site_fract_z
Si Si1 0.401084 0.772360 0.399080
Si Si2 0.158639 0.936787 0.165499
Si Si3 0.556646 0.140247 0.354053
Si Si4 0.498216 0.886683 0.836405
Si Si5 0.942161 0.700122 0.311776
Si Si6 0.990599 0.322344 0.372146
Si Si7 0.926103 0.567058 0.069885
Si Si8 0.548549 0.476055 0.297102
O O1 0.500000 0.500000 0.500000
O O2 0.181846 0.943277 0.270078
O O3 0.430426 0.728254 0.525578
O O4 0.511957 0.868801 0.301747
O O5 0.370482 0.761787 0.190726
O O6 0.084547 0.773882 0.247127
O O7 0.053964 0.233167 0.993674
O O8 0.040017 0.330367 0.261099
O O9 0.490617 0.410299 0.245297
O O10 0.500000 0.000000 0.500000
O O11 0.807989 0.937463 0.451868
O O12 0.686516 0.696274 0.998591
O O13 0.275425 0.015875 0.812999
O O14 0.525464 0.809275 0.771950
O O15 0.000000 0.500000 0.500000
O O16 0.945222 0.556363 0.303751
O O17 0.775080 0.383037 0.345537
O O18 0.000000 0.500000 0.000000
#
# Coordination Sequence:
#
# PCOD9038460 Si02
#       8
#     2   2   2   2   2   2   2   2
#     4   9  17  34  61  93 127 171 214 276 339 392
#     4  10  23  41  69  97 137 187 226 281 348 410
#     4  12  23  41  67 102 136 175 229 299 347 389
#     4  11  23  42  68  97 137 181 225 286 344 401
#     4  12  22  42  71 111 140 167 236 298 344 398
#     4  12  26  42  70 100 139 183 230 284 344 416
#     4  11  27  50  68  95 142 192 230 272 347 428
#     4  11  22  40  66 101 135 175 237 282 349 408
#
# _framework density 24.480719000000001
#
# number of rings (size 3 to 8) (size 9 to 14) (size 15 to 20)
#    0.000    1.000    2.500    6.375    1.750    3.500 
#    0.000    3.750    0.000    0.000    0.000    0.000 
#    0.000    0.000    0.000    0.000    0.000    0.000 
#
# Total GULP energy -89260.665402 kJ/mol
# GULP energy per Si atom -5578.791588 kJ/mol
# Density = 2.442500 g / cm^3
# Si number density = 24.480719 Si / 1000 Ang^3
#
#
#
# Elastic Constant Matrix: (Units=GPa)
#
#
# Indices 1 2 3 4 5 6 
#
# 1 113.2428 21.0254 9.5120 -13.8574 -9.9616 3.6717
# 2 21.0254 71.9215 6.4430 -11.8451 -2.9932 18.1770
# 3 9.5120 6.4430 59.0683 -7.0063 1.7174 5.4006
# 4 -13.8574 -11.8451 -7.0063 36.9016 10.4068 2.2430
# 5 -9.9616 -2.9932 1.7174 10.4068 27.8565 -15.9765
# 6 3.6717 18.1770 5.4006 2.2430 -15.9765 30.7475
#
#
#
# Elastic Compliance Matrix: (Units=1/GPa)
#
#
# Indices 1 2 3 4 5 6 
#
# 1 0.010023 -0.003420 -0.001667 0.000632 0.005268 0.003809
# 2 -0.003420 0.021535 0.002075 0.011869 -0.016017 -0.021875
# 3 -0.001667 0.002075 0.019019 0.007070 -0.009955 -0.010057
# 4 0.000632 0.011869 0.007070 0.042784 -0.030610 -0.027360
# 5 0.005268 -0.016017 -0.009955 -0.030610 0.079009 0.053874
# 6 0.003809 -0.021875 -0.010057 -0.027360 0.053874 0.076756
#
#
# Mechanical properties :
#
#
# Convention : Reuss Voigt Hill
#
# Bulk Modulus (GPa) = 22.44527 35.35483 28.90005
# Shear Modulus (GPa) = 18.51854 32.91794 25.71824
#
# Velocity S-wave (km/s) = 2.75335 3.67092 3.24474
# Velocity P-wave (km/s) = 4.39277 5.69568 5.08612
#
# Compressibility (1/GPa) = 0.04455283
#
# Stress axis : x y z
#
# Youngs Moduli (GPa) = 99.77182 46.43679 52.57855
#
# Poissons Ratio (x) = 0.15881 0.08767
# Poissons Ratio (y) = 0.34121 -0.10912
# Poissons Ratio (z) = 0.16635 -0.09637
#
# Static dielectric constant tensor:
#      x y z
#    x 1.799150 -0.045300 0.310520 
#    y -0.045300 2.004800 0.077730 
#    z 0.310520 0.077730 1.843870 
# 
# From -- ./inp_files/617120.got.cif
#   From: 2010.05.17/outbox.cif.g08.bks.cpg/sg2_309_cif.got.tgz:617120.got - 2010.06.03 11:33:40.
