data_PCOD9038286
_publ_section_title
;
Structure prediction by ZEFSAII (Michael W. Deem and Ramdas Pophale) SiO2 
 PCOD9038286
Probable space group: P -1
;
_chemical_formula_sum "Si O2"
_cell_formula_units_Z 11
_cell_length_a 10.338514
_cell_length_b 8.000829
_cell_length_c 15.945324
_cell_angle_alpha 56.000617
_cell_angle_beta 20.419516
_cell_angle_gamma 60.878798
_cell_volume 378.298971
_symmetry_space_group_name_H-M "P -1"
_symmetry_group_IT_number 2
_symmetry_cell_setting 'triclinic'
loop_
_space_group_symop_operation_xyz
x,y,z
-x,-y,-z
loop_
_atom_site_type_symbol
_atom_site_label
_atom_site_fract_x
_atom_site_fract_y
_atom_site_fract_z
Si Si1 0.061168 0.598842 0.763375
Si Si2 0.941961 0.067379 0.112305
Si Si3 0.896622 0.935300 0.674798
Si Si4 0.403068 0.686174 0.257432
Si Si5 0.339668 0.312040 0.494341
Si Si6 0.500000 0.500000 0.000000
O O1 0.393161 0.560996 0.633121
O O2 0.177838 0.826794 0.591235
O O3 0.866957 0.459414 0.847313
O O4 0.704341 0.611074 0.035508
O O5 0.631126 0.219916 0.277971
O O6 0.851233 0.886781 0.286138
O O7 0.000000 0.000000 0.000000
O O8 0.340851 0.185615 0.865604
O O9 0.589293 0.740500 0.903282
O O10 0.803158 0.144796 0.711242
O O11 0.000000 0.000000 0.500000
O O12 0.157659 0.491952 0.503615
#
# Coordination Sequence:
#
# PCOD9038286 Si02
#       6
#     2   2   2   2   2   1
#     4   9  20  45  66  88 136 171 213 268 327 396
#     4  10  23  41  68 100 134 173 215 265 334 398
#     4  10  23  42  64  92 129 175 220 266 322 396
#     4  11  23  42  67  98 131 169 217 278 334 377
#     4  10  23  45  67 102 133 170 216 278 330 389
#     4   8  22  40  64  86 126 174 218 250 324 386
#
# _framework density 29.077532000000001
#
# number of rings (size 3 to 8) (size 9 to 14) (size 15 to 20)
#    1.091    1.091    0.000    2.727    2.545    5.091 
#    9.818    0.909    0.000    0.000    0.000    0.000 
#    0.000    0.000    0.000    0.000    0.000    0.000 
#
# Total GULP energy -61341.378373 kJ/mol
# GULP energy per Si atom -5576.488943 kJ/mol
# Density = 2.901135 g / cm^3
# Si number density = 29.077532 Si / 1000 Ang^3
#
#
#
# Elastic Constant Matrix: (Units=GPa)
#
#
# Indices 1 2 3 4 5 6 
#
# 1 115.3022 54.0389 35.8793 -8.6499 -2.7740 7.6125
# 2 54.0389 143.0135 61.5240 -49.1385 11.9092 -21.5120
# 3 35.8793 61.5240 140.5171 -27.1051 40.5592 15.7503
# 4 -8.6499 -49.1385 -27.1051 53.7512 -4.2428 7.4575
# 5 -2.7740 11.9092 40.5592 -4.2428 53.1039 -9.1212
# 6 7.6125 -21.5120 15.7503 7.4575 -9.1212 65.0750
#
#
#
# Elastic Compliance Matrix: (Units=1/GPa)
#
#
# Indices 1 2 3 4 5 6 
#
# 1 0.011662 -0.005283 -0.001869 -0.003426 0.002622 -0.001898
# 2 -0.005283 0.015051 -0.004370 0.010030 0.001468 0.005707
# 3 -0.001869 -0.004370 0.013772 0.002700 -0.010510 -0.006342
# 4 -0.003426 0.010030 0.002700 0.028474 -0.002305 -0.000523
# 5 0.002622 0.001468 -0.010510 -0.002305 0.027661 0.006863
# 6 -0.001898 0.005707 -0.006342 -0.000523 0.006863 0.020033
#
#
# Mechanical properties :
#
#
# Convention : Reuss Voigt Hill
#
# Bulk Modulus (GPa) = 57.33643 77.96856 67.65249
# Shear Modulus (GPa) = 34.36170 50.87871 42.62021
#
# Velocity S-wave (km/s) = 3.44135 4.18755 3.83266
# Velocity P-wave (km/s) = 5.96254 7.08894 6.54999
#
# Compressibility (1/GPa) = 0.01744092
#
# Stress axis : x y z
#
# Youngs Moduli (GPa) = 85.74760 66.44156 72.60922
#
# Poissons Ratio (x) = 0.35103 0.13574
# Poissons Ratio (y) = 0.45303 0.31727
# Poissons Ratio (z) = 0.16030 0.29032
#
# Static dielectric constant tensor:
#      x y z
#    x 2.278160 -0.079220 0.019870 
#    y -0.079220 2.325670 0.089830 
#    z 0.019870 0.089830 2.301730 
# 
# From -- ./inp_files/381167.got.cif
#   From: 2010.05.17/outbox.cif.g08.bks.cpg/sg2_191_cif.got.tgz:381167.got - 2010.06.03 11:33:40.
