data_PCOD9038269
_publ_section_title
;
Structure prediction by ZEFSAII (Michael W. Deem and Ramdas Pophale) SiO2 
 PCOD9038269
Probable space group: P -1
;
_chemical_formula_sum "Si O2"
_cell_formula_units_Z 16
_cell_length_a 13.103871
_cell_length_b 8.530313
_cell_length_c 15.696212
_cell_angle_alpha 75.060527
_cell_angle_beta 153.275709
_cell_angle_gamma 116.482464
_cell_volume 661.800775
_symmetry_space_group_name_H-M "P -1"
_symmetry_group_IT_number 2
_symmetry_cell_setting 'triclinic'
loop_
_space_group_symop_operation_xyz
x,y,z
-x,-y,-z
loop_
_atom_site_type_symbol
_atom_site_label
_atom_site_fract_x
_atom_site_fract_y
_atom_site_fract_z
Si Si1 0.389011 0.165397 0.013026
Si Si2 0.684301 0.975924 0.708571
Si Si3 0.268898 0.249468 0.090193
Si Si4 0.023191 0.648205 0.611272
Si Si5 0.911415 0.748553 0.693704
Si Si6 0.043718 0.283969 0.636637
Si Si7 0.867920 0.439979 0.002912
Si Si8 0.546576 0.878084 0.355605
O O1 0.276958 0.272172 0.857823
O O2 0.168808 0.948852 0.874800
O O3 0.425726 0.248053 0.124591
O O4 0.667014 0.205887 0.181264
O O5 0.668234 0.093391 0.759555
O O6 0.500000 0.000000 0.500000
O O7 0.618023 0.782542 0.732369
O O8 0.979980 0.070283 0.884595
O O9 0.208808 0.416900 0.032534
O O10 0.905898 0.692223 0.599333
O O11 0.907645 0.670916 0.433186
O O12 0.000387 0.444872 0.623399
O O13 0.662945 0.777066 0.516074
O O14 0.938381 0.598374 0.790739
O O15 0.788176 0.080751 0.486218
O O16 0.596513 0.248292 0.813658
O O17 0.000000 0.500000 0.000000
#
# Coordination Sequence:
#
# PCOD9038269 Si02
#       8
#     2   2   2   2   2   2   2   2
#     4  11  23  43  70  98 140 178 228 279 336 406
#     4  11  23  41  68  94 130 177 225 278 338 398
#     4  11  25  42  68 100 131 178 232 273 338 408
#     4  11  23  42  69 100 138 177 229 279 336 404
#     4  11  26  42  68 103 141 181 227 279 344 402
#     4  10  23  41  67  98 133 178 231 272 340 406
#     4  12  26  45  69  98 142 179 231 284 340 405
#     4  11  25  44  66  97 140 177 225 284 337 406
#
# _framework density 24.176459999999999
#
# number of rings (size 3 to 8) (size 9 to 14) (size 15 to 20)
#    0.000    1.000    1.250    5.250    3.500    7.500 
#    0.000    0.000    0.000    0.000    0.000    0.000 
#    0.000    0.000    0.000    0.000    0.000    0.000 
#
# Total GULP energy -89646.448467 kJ/mol
# GULP energy per Si atom -5602.903029 kJ/mol
# Density = 2.412143 g / cm^3
# Si number density = 24.176460 Si / 1000 Ang^3
#
#
#
# Elastic Constant Matrix: (Units=GPa)
#
#
# Indices 1 2 3 4 5 6 
#
# 1 67.0506 19.9022 5.9242 -6.4609 -0.8956 -9.1632
# 2 19.9022 92.7699 21.7862 -29.8254 -18.2482 -9.4948
# 3 5.9242 21.7862 96.7881 -28.2929 -4.8631 17.6948
# 4 -6.4609 -29.8254 -28.2929 55.2023 4.2818 -5.6324
# 5 -0.8956 -18.2482 -4.8631 4.2818 33.3346 -2.6343
# 6 -9.1632 -9.4948 17.6948 -5.6324 -2.6343 26.0250
#
#
#
# Elastic Compliance Matrix: (Units=1/GPa)
#
#
# Indices 1 2 3 4 5 6 
#
# 1 0.016662 -0.002656 -0.001401 0.000458 -0.000806 0.005868
# 2 -0.002656 0.017278 -0.002770 0.007932 0.008743 0.009853
# 3 -0.001401 -0.002770 0.014234 0.004656 -0.000887 -0.010264
# 4 0.000458 0.007932 0.004656 0.025237 0.002233 0.005577
# 5 -0.000806 0.008743 -0.000887 0.002233 0.034942 0.007529
# 6 0.005868 0.009853 -0.010264 0.005577 0.007529 0.053033
#
#
# Mechanical properties :
#
#
# Convention : Reuss Voigt Hill
#
# Bulk Modulus (GPa) = 28.96977 39.09266 34.03121
# Shear Modulus (GPa) = 26.80293 36.84544 31.82419
#
# Velocity S-wave (km/s) = 3.33323 3.90811 3.63206
# Velocity P-wave (km/s) = 5.17905 6.04725 5.62991
#
# Compressibility (1/GPa) = 0.03451875
#
# Stress axis : x y z
#
# Youngs Moduli (GPa) = 60.01839 57.87717 70.25330
#
# Poissons Ratio (x) = 0.15373 0.09844
# Poissons Ratio (y) = 0.15942 0.19461
# Poissons Ratio (z) = 0.08410 0.16032
#
# Static dielectric constant tensor:
#      x y z
#    x 1.876800 0.059480 -0.005290 
#    y 0.059480 1.967050 0.027150 
#    z -0.005290 0.027150 1.919390 
# 
# From -- ./inp_files/515580.got.cif
#   From: 2010.05.17/outbox.cif.g08.bks.cpg/sg2_258_cif.got.tgz:515580.got - 2010.06.03 11:33:40.
