data_PCOD9038093
_publ_section_title
;
Structure prediction by ZEFSAII (Michael W. Deem and Ramdas Pophale) SiO2 
 PCOD9038093
Probable space group: P -1
;
_chemical_formula_sum "Si O2"
_cell_formula_units_Z 16
_cell_length_a 16.920841
_cell_length_b 17.612074
_cell_length_c 10.241070
_cell_angle_alpha 33.201921
_cell_angle_beta 44.944880
_cell_angle_gamma 34.575551
_cell_volume 946.663849
_symmetry_space_group_name_H-M "P -1"
_symmetry_group_IT_number 2
_symmetry_cell_setting 'triclinic'
loop_
_space_group_symop_operation_xyz
x,y,z
-x,-y,-z
loop_
_atom_site_type_symbol
_atom_site_label
_atom_site_fract_x
_atom_site_fract_y
_atom_site_fract_z
Si Si1 0.478633 0.169447 0.220762
Si Si2 0.805754 0.560452 0.717826
Si Si3 0.487756 0.215272 0.606960
Si Si4 0.667298 0.168341 0.215748
Si Si5 0.899403 0.772337 0.157683
Si Si6 0.751796 0.426621 0.715664
Si Si7 0.951907 0.879265 0.205222
Si Si8 0.383402 0.982492 0.998074
O O1 0.316502 0.328827 0.194830
O O2 0.567985 0.203660 0.160044
O O3 0.500000 0.000000 0.500000
O O4 0.537278 0.125107 0.070289
O O5 0.842235 0.682154 0.436096
O O6 0.749497 0.507890 0.740020
O O7 0.950736 0.384799 0.847215
O O8 0.588144 0.192658 0.406468
O O9 0.357582 0.416256 0.475122
O O10 0.569157 0.138416 0.757622
O O11 0.427935 0.108771 0.790417
O O12 0.807357 0.972105 0.317633
O O13 0.708555 0.299305 0.971160
O O14 0.922121 0.872558 0.096997
O O15 0.781129 0.899663 0.010212
O O16 0.912715 0.313217 0.643105
O O17 0.000000 0.000000 0.000000
#
# Coordination Sequence:
#
# PCOD9038093 Si02
#       8
#     2   2   2   2   2   2   2   2
#     4  12  18  33  54  83 102 134 187 225 255 311
#     4  10  19  29  55  82 103 130 185 225 260 304
#     4  11  22  36  53  82 111 147 171 220 277 318
#     4  11  19  33  60  80 104 142 185 221 264 316
#     4  10  17  33  53  78 106 140 171 224 268 312
#     4  10  19  35  54  83 109 136 182 225 264 318
#     4   9  19  31  55  84 106 133 180 230 263 306
#     4  11  22  36  54  78 117 140 177 220 272 324
#
# _framework density 16.901458000000002
#
# number of rings (size 3 to 8) (size 9 to 14) (size 15 to 20)
#    0.000    1.500    6.250    0.375    0.000    0.000 
#    0.000    1.875    0.000    9.750    0.000    0.000 
#    0.000    0.000    0.000    0.000    0.000    0.000 
#
# Total GULP energy -89237.201964 kJ/mol
# GULP energy per Si atom -5577.325123 kJ/mol
# Density = 1.686299 g / cm^3
# Si number density = 16.901458 Si / 1000 Ang^3
#
#
#
# Elastic Constant Matrix: (Units=GPa)
#
#
# Indices 1 2 3 4 5 6 
#
# 1 116.9445 51.5327 42.3275 -5.3295 15.0945 -10.2968
# 2 51.5327 132.6984 32.0234 -5.6363 23.9014 -27.8235
# 3 42.3275 32.0234 51.3228 -6.1950 14.9403 -4.5748
# 4 -5.3295 -5.6363 -6.1950 17.5311 -1.6425 1.1713
# 5 15.0945 23.9014 14.9403 -1.6425 32.1863 -10.3648
# 6 -10.2968 -27.8235 -4.5748 1.1713 -10.3648 38.0841
#
#
#
# Elastic Compliance Matrix: (Units=1/GPa)
#
#
# Indices 1 2 3 4 5 6 
#
# 1 0.013091 -0.002864 -0.009087 -0.000150 0.000344 0.000454
# 2 -0.002864 0.011360 -0.002991 0.000970 -0.003679 0.006135
# 3 -0.009087 -0.002991 0.032042 0.006974 -0.009162 -0.003501
# 4 -0.000150 0.000970 0.006974 0.059716 -0.001037 -0.000613
# 5 0.000344 -0.003679 -0.009162 -0.001037 0.040182 0.007272
# 6 0.000454 0.006135 -0.003501 -0.000613 0.007272 0.032440
#
#
# Mechanical properties :
#
#
# Convention : Reuss Voigt Hill
#
# Bulk Modulus (GPa) = 37.58233 61.41478 49.49855
# Shear Modulus (GPa) = 21.96978 29.23244 25.60111
#
# Velocity S-wave (km/s) = 3.60929 4.16334 3.89617
# Velocity P-wave (km/s) = 6.29712 7.71537 7.04204
#
# Compressibility (1/GPa) = 0.02660825
#
# Stress axis : x y z
#
# Youngs Moduli (GPa) = 76.38884 88.02676 31.20867
#
# Poissons Ratio (x) = 0.25211 0.28360
# Poissons Ratio (y) = 0.21878 0.09335
# Poissons Ratio (z) = 0.69417 0.26331
#
# Static dielectric constant tensor:
#      x y z
#    x 1.582500 -0.022890 -0.021780 
#    y -0.022890 1.610230 -0.019530 
#    z -0.021780 -0.019530 1.534200 
# 
# From -- ./inp_files/257102.got.cif
#   From: 2010.05.17/outbox.cif.g08.bks.cpg/sg2_129_cif.got.tgz:257102.got - 2010.06.03 11:33:40.
