data_PCOD9038037
_publ_section_title
;
Structure prediction by ZEFSAII (Michael W. Deem and Ramdas Pophale) SiO2 
 PCOD9038037
Probable space group: P -1
;
_chemical_formula_sum "Si O2"
_cell_formula_units_Z 16
_cell_length_a 11.424151
_cell_length_b 11.818398
_cell_length_c 5.766291
_cell_angle_alpha 115.253577
_cell_angle_beta 100.290540
_cell_angle_gamma 68.224921
_cell_volume 653.696675
_symmetry_space_group_name_H-M "P -1"
_symmetry_group_IT_number 2
_symmetry_cell_setting 'triclinic'
loop_
_space_group_symop_operation_xyz
x,y,z
-x,-y,-z
loop_
_atom_site_type_symbol
_atom_site_label
_atom_site_fract_x
_atom_site_fract_y
_atom_site_fract_z
Si Si1 0.576924 0.273354 0.753905
Si Si2 0.890576 0.033212 0.183607
Si Si3 0.415591 0.208423 0.033877
Si Si4 0.645133 0.039999 0.246588
Si Si5 0.060974 0.437473 0.718829
Si Si6 0.383987 0.453242 0.492574
Si Si7 0.019453 0.786597 0.324902
Si Si8 0.774124 0.403724 0.091463
O O1 0.658919 0.136296 0.540797
O O2 0.453729 0.358912 0.645209
O O3 0.518888 0.234436 0.928191
O O4 0.660813 0.368258 0.900803
O O5 0.747288 0.043104 0.088629
O O6 0.895463 0.163933 0.426752
O O7 0.927128 0.916465 0.284736
O O8 0.000000 0.000000 0.000000
O O9 0.501216 0.119168 0.190309
O O10 0.339728 0.355425 0.227319
O O11 0.345698 0.110759 0.824884
O O12 0.195064 0.459721 0.799506
O O13 0.000000 0.500000 0.500000
O O14 0.051540 0.292652 0.617790
O O15 0.000000 0.500000 0.000000
O O16 0.500000 0.500000 0.500000
O O17 0.269598 0.581039 0.642685
O O18 0.102551 0.702216 0.067839
#
# Coordination Sequence:
#
# PCOD9038037 Si02
#       8
#     2   2   2   2   2   2   2   2
#     4  11  22  41  68  94 133 177 229 282 349 424
#     4  11  25  41  70  97 136 183 239 299 352 425
#     4  10  23  41  65  99 132 173 232 280 356 414
#     4  10  23  43  67  96 131 177 226 293 348 414
#     4  10  25  46  71 103 142 188 244 295 359 437
#     4  11  24  39  61 101 133 174 228 282 344 426
#     4  10  25  45  63 103 134 183 242 287 365 429
#     4  11  23  43  70  95 136 187 223 291 361 429
#
# _framework density 24.476184
#
# number of rings (size 3 to 8) (size 9 to 14) (size 15 to 20)
#    0.000    1.500    2.500    0.750    5.250    4.000 
#    0.000    0.000    0.000    0.000    0.000    0.000 
#    0.000    0.000    0.000    0.000    0.000    0.000 
#
# Total GULP energy -89190.833859 kJ/mol
# GULP energy per Si atom -5574.427116 kJ/mol
# Density = 2.442048 g / cm^3
# Si number density = 24.476184 Si / 1000 Ang^3
#
#
#
# Elastic Constant Matrix: (Units=GPa)
#
#
# Indices 1 2 3 4 5 6 
#
# 1 117.1375 45.2303 38.6335 22.7057 6.4667 27.1078
# 2 45.2303 130.2473 50.9240 9.5228 17.1963 20.0591
# 3 38.6335 50.9240 114.4084 30.1128 -8.3798 6.5112
# 4 22.7057 9.5228 30.1128 36.7663 1.9286 7.1922
# 5 6.4667 17.1963 -8.3798 1.9286 39.5448 8.5281
# 6 27.1078 20.0591 6.5112 7.1922 8.5281 37.4765
#
#
#
# Elastic Compliance Matrix: (Units=1/GPa)
#
#
# Indices 1 2 3 4 5 6 
#
# 1 0.012339 -0.002391 -0.001523 -0.004481 0.000341 -0.006599
# 2 -0.002391 0.011590 -0.005611 0.003946 -0.005377 -0.003033
# 3 -0.001523 -0.005611 0.014814 -0.010479 0.005863 0.002208
# 4 -0.004481 0.003946 -0.010479 0.038427 -0.004336 -0.003438
# 5 0.000341 -0.005377 0.005863 -0.004336 0.029967 -0.004375
# 6 -0.006599 -0.003033 0.002208 -0.003438 -0.004375 0.034352
#
#
# Mechanical properties :
#
#
# Convention : Reuss Voigt Hill
#
# Bulk Modulus (GPa) = 50.77568 70.15208 60.46388
# Shear Modulus (GPa) = 29.92144 37.89121 33.90633
#
# Velocity S-wave (km/s) = 3.50018 3.93884 3.72597
# Velocity P-wave (km/s) = 6.09303 7.02919 6.57778
#
# Compressibility (1/GPa) = 0.01969447
#
# Stress axis : x y z
#
# Youngs Moduli (GPa) = 81.04294 86.27854 67.50179
#
# Poissons Ratio (x) = 0.20627 0.10278
# Poissons Ratio (y) = 0.19375 0.37878
# Poissons Ratio (z) = 0.12340 0.48414
#
# Static dielectric constant tensor:
#      x y z
#    x 1.977350 -0.001700 0.018290 
#    y -0.001700 2.002330 0.019490 
#    z 0.018290 0.019490 2.137770 
# 
# From -- ./inp_files/72268.got.cif
#   From: 2010.05.17/outbox.cif.g08.bks.cpg/sg2_37_cif.got.tgz:72268.got - 2010.06.03 11:33:40.
