data_PCOD9038549
_publ_section_title
;
Structure prediction by ZEFSAII (Michael W. Deem and Ramdas Pophale) SiO2 
 PCOD9038549
Probable space group: P -1
;
_chemical_formula_sum "Si O2"
_cell_formula_units_Z 12
_cell_length_a 13.002915
_cell_length_b 9.523118
_cell_length_c 13.852355
_cell_angle_alpha 128.215024
_cell_angle_beta 21.003587
_cell_angle_gamma 131.890216
_cell_volume 457.611153
_symmetry_space_group_name_H-M "P -1"
_symmetry_group_IT_number 2
_symmetry_cell_setting 'triclinic'
loop_
_space_group_symop_operation_xyz
x,y,z
-x,-y,-z
loop_
_atom_site_type_symbol
_atom_site_label
_atom_site_fract_x
_atom_site_fract_y
_atom_site_fract_z
Si Si1 0.207593 0.625757 0.455327
Si Si2 0.804000 0.730128 0.587978
Si Si3 0.826383 0.144174 0.243321
Si Si4 0.394525 0.937424 0.284354
Si Si5 0.340284 0.660521 0.711976
Si Si6 0.790780 0.199127 0.921932
O O1 0.329920 0.481872 0.345795
O O2 0.430247 0.795056 0.272587
O O3 0.000000 0.500000 0.500000
O O4 0.088112 0.843564 0.453373
O O5 0.525254 0.806730 0.854091
O O6 0.957296 0.741592 0.353946
O O7 0.943817 0.277742 0.290555
O O8 0.812569 0.285633 0.227220
O O9 0.500000 0.000000 0.500000
O O10 0.000000 0.000000 0.000000
O O11 0.398536 0.132628 0.413389
O O12 0.686667 0.000578 0.985631
O O13 0.500000 0.500000 0.500000
O O14 0.163348 0.655490 0.967055
#
# Coordination Sequence:
#
# PCOD9038549 Si02
#       6
#     2   2   2   2   2   2
#     4  10  23  47  74 107 145 197 250 307 369 450
#     4  11  22  44  68 107 138 189 238 305 360 437
#     4  12  26  50  76 108 152 200 249 311 381 446
#     4   9  21  43  69 103 141 187 243 301 363 433
#     4  10  23  44  74 104 148 193 249 300 372 445
#     4  10  23  41  70  98 144 180 239 293 365 426
#
# _framework density 26.223137000000001
#
# number of rings (size 3 to 8) (size 9 to 14) (size 15 to 20)
#    1.000    0.667    1.667    2.000    0.000    5.333 
#    6.000    7.500    0.000    0.000    0.000    0.000 
#    0.000    0.000    0.000    0.000    0.000    0.000 
#
# Total GULP energy -67136.448451 kJ/mol
# GULP energy per Si atom -5594.704038 kJ/mol
# Density = 2.616345 g / cm^3
# Si number density = 26.223137 Si / 1000 Ang^3
#
#
#
# Elastic Constant Matrix: (Units=GPa)
#
#
# Indices 1 2 3 4 5 6 
#
# 1 167.9428 58.1618 57.7978 12.1146 37.2096 -3.1611
# 2 58.1618 185.2119 56.1362 16.1396 27.3880 -42.8434
# 3 57.7978 56.1362 144.1108 13.6779 17.7316 -22.4899
# 4 12.1146 16.1396 13.6779 28.0690 5.6424 13.0412
# 5 37.2096 27.3880 17.7316 5.6424 37.2585 -3.4430
# 6 -3.1611 -42.8434 -22.4899 13.0412 -3.4430 70.5178
#
#
#
# Elastic Compliance Matrix: (Units=1/GPa)
#
#
# Indices 1 2 3 4 5 6 
#
# 1 0.008703 -0.001419 -0.002397 0.000332 -0.006707 -0.001626
# 2 -0.001419 0.008361 -0.000896 -0.005807 -0.002900 0.005663
# 3 -0.002397 -0.000896 0.009176 -0.004257 -0.000388 0.003043
# 4 0.000332 -0.005807 -0.004257 0.047844 -0.002562 -0.013844
# 5 -0.006707 -0.002900 -0.000388 -0.002562 0.036248 0.000057
# 6 -0.001626 0.005663 0.003043 -0.013844 0.000057 0.021082
#
#
# Mechanical properties :
#
#
# Convention : Reuss Voigt Hill
#
# Bulk Modulus (GPa) = 59.47221 93.49525 76.48373
# Shear Modulus (GPa) = 34.14280 48.84701 41.49491
#
# Velocity S-wave (km/s) = 3.61225 4.32063 3.98223
# Velocity P-wave (km/s) = 6.33454 7.78599 7.09746
#
# Compressibility (1/GPa) = 0.01681458
#
# Stress axis : x y z
#
# Youngs Moduli (GPa) = 114.90869 119.59968 108.97486
#
# Poissons Ratio (x) = 0.16976 0.26125
# Poissons Ratio (y) = 0.16310 0.09765
# Poissons Ratio (z) = 0.27547 0.10718
#
# Static dielectric constant tensor:
#      x y z
#    x 2.131750 0.088660 0.014340 
#    y 0.088660 2.149010 -0.016060 
#    z 0.014340 -0.016060 2.061670 
# 
# From -- ./inp_files/528859.got.cif
#   From: 2010.05.17/outbox.cif.g08.bks.cpg/sg2_265_cif.got.tgz:528859.got - 2010.06.03 11:33:40.
