data_PCOD9038926
_publ_section_title
;
Structure prediction by ZEFSAII (Michael W. Deem and Ramdas Pophale) SiO2 
 PCOD9038926
Probable space group: P -1
;
_chemical_formula_sum "Si O2"
_cell_formula_units_Z 12
_cell_length_a 8.821372
_cell_length_b 7.150172
_cell_length_c 11.751438
_cell_angle_alpha 118.324619
_cell_angle_beta 95.482865
_cell_angle_gamma 126.038198
_cell_volume 448.593006
_symmetry_space_group_name_H-M "P -1"
_symmetry_group_IT_number 2
_symmetry_cell_setting 'triclinic'
loop_
_space_group_symop_operation_xyz
x,y,z
-x,-y,-z
loop_
_atom_site_type_symbol
_atom_site_label
_atom_site_fract_x
_atom_site_fract_y
_atom_site_fract_z
Si Si1 0.086020 0.167404 0.675625
Si Si2 0.507418 0.863446 0.626434
Si Si3 0.168430 0.452371 0.121365
Si Si4 0.714156 0.699644 0.704542
Si Si5 0.755827 0.205359 0.091917
Si Si6 0.622109 0.864847 0.197424
O O1 0.141981 0.470536 0.766385
O O2 0.298706 0.245991 0.751619
O O3 0.000000 0.000000 0.500000
O O4 0.903666 0.934547 0.692491
O O5 0.561214 0.753830 0.700652
O O6 0.429990 0.640931 0.453891
O O7 0.719581 0.223344 0.721689
O O8 0.338166 0.873024 0.657139
O O9 0.192027 0.288046 0.166557
O O10 0.355173 0.591185 0.079979
O O11 0.919709 0.273870 0.027642
O O12 0.753078 0.023704 0.137104
O O13 0.500000 0.000000 0.000000
#
# Coordination Sequence:
#
# PCOD9038926 Si02
#       6
#     2   2   2   2   2   2
#     4  12  26  41  71 106 137 174 226 280 335 398
#     4   9  22  36  63  99 138 172 219 272 339 398
#     4  10  23  42  64  97 134 179 220 280 331 401
#     4  11  20  38  65  98 140 179 215 272 344 400
#     4  12  27  49  69  96 138 183 225 277 337 402
#     4  10  25  43  67 101 134 174 230 275 334 395
#
# _framework density 26.750306999999999
#
# number of rings (size 3 to 8) (size 9 to 14) (size 15 to 20)
#    1.000    0.333    3.333    1.500    9.333    2.667 
#    0.000    0.833    0.000    0.000    0.000    0.000 
#    0.000    0.000    0.000    0.000    0.000    0.000 
#
# Total GULP energy -67193.106488 kJ/mol
# GULP energy per Si atom -5599.425541 kJ/mol
# Density = 2.668942 g / cm^3
# Si number density = 26.750307 Si / 1000 Ang^3
#
#
#
# Elastic Constant Matrix: (Units=GPa)
#
#
# Indices 1 2 3 4 5 6 
#
# 1 132.8232 39.3044 17.7369 4.8666 12.6726 2.4890
# 2 39.3044 145.4551 32.9122 1.9371 -11.3304 -1.1886
# 3 17.7369 32.9122 115.6833 22.0914 -4.7978 -11.9922
# 4 4.8666 1.9371 22.0914 38.1754 -8.0352 -0.6881
# 5 12.6726 -11.3304 -4.7978 -8.0352 34.1014 7.5109
# 6 2.4890 -1.1886 -11.9922 -0.6881 7.5109 44.2189
#
#
#
# Elastic Compliance Matrix: (Units=1/GPa)
#
#
# Indices 1 2 3 4 5 6 
#
# 1 0.008876 -0.002631 -0.000474 -0.001702 -0.004655 0.000065
# 2 -0.002631 0.008396 -0.002311 0.002101 0.004140 -0.000923
# 3 -0.000474 -0.002311 0.010838 -0.006296 -0.001214 0.003012
# 4 -0.001702 0.002101 -0.006296 0.031684 0.008461 -0.002499
# 5 -0.004655 0.004140 -0.001214 0.008461 0.035544 -0.005861
# 6 0.000065 -0.000923 0.003012 -0.002499 -0.005861 0.024360
#
#
# Mechanical properties :
#
#
# Convention : Reuss Voigt Hill
#
# Bulk Modulus (GPa) = 57.86927 63.76317 60.81622
# Shear Modulus (GPa) = 36.68729 43.56634 40.12682
#
# Velocity S-wave (km/s) = 3.70736 4.04001 3.87725
# Velocity P-wave (km/s) = 6.32504 6.75651 6.54433
#
# Compressibility (1/GPa) = 0.01728033
#
# Stress axis : x y z
#
# Youngs Moduli (GPa) = 112.66696 119.11011 92.26463
#
# Poissons Ratio (x) = 0.31333 0.04370
# Poissons Ratio (y) = 0.29638 0.21318
# Poissons Ratio (z) = 0.05336 0.27521
#
# Static dielectric constant tensor:
#      x y z
#    x 2.132690 0.031040 0.029000 
#    y 0.031040 2.034140 -0.009320 
#    z 0.029000 -0.009320 2.083040 
# 
# From -- ./inp_files/246134.got.cif
#   From: 2010.05.17/outbox.cif.g08.bks.cpg/sg2_124_cif.got.tgz:246134.got - 2010.06.03 11:33:40.
