data_PCOD9038326
_publ_section_title
;
Structure prediction by ZEFSAII (Michael W. Deem and Ramdas Pophale) SiO2 
 PCOD9038326
Probable space group: P -1
;
_chemical_formula_sum "Si O2"
_cell_formula_units_Z 16
_cell_length_a 17.759297
_cell_length_b 8.732870
_cell_length_c 20.214653
_cell_angle_alpha 137.530872
_cell_angle_beta 19.501008
_cell_angle_gamma 136.410783
_cell_volume 700.769710
_symmetry_space_group_name_H-M "P -1"
_symmetry_group_IT_number 2
_symmetry_cell_setting 'triclinic'
loop_
_space_group_symop_operation_xyz
x,y,z
-x,-y,-z
loop_
_atom_site_type_symbol
_atom_site_label
_atom_site_fract_x
_atom_site_fract_y
_atom_site_fract_z
Si Si1 0.255798 0.935967 0.214417
Si Si2 0.538067 0.804817 0.310568
Si Si3 0.347485 0.715185 0.570657
Si Si4 0.543055 0.766635 0.034497
Si Si5 0.880081 0.441022 0.902319
Si Si6 0.748741 0.439419 0.160091
Si Si7 0.438631 0.004785 0.320468
Si Si8 0.964550 0.763087 0.592012
O O1 0.331995 0.852818 0.196732
O O2 0.142430 0.733662 0.196017
O O3 0.127296 0.160538 0.379879
O O4 0.500000 0.000000 0.000000
O O5 0.344894 0.696131 0.486903
O O6 0.432940 0.897584 0.362481
O O7 0.665744 0.027723 0.313018
O O8 0.714944 0.634891 0.088748
O O9 0.602380 0.652214 0.351658
O O10 0.142699 0.552958 0.722138
O O11 0.580275 0.877887 0.110272
O O12 0.500000 0.500000 0.000000
O O13 0.764165 0.814180 0.822385
O O14 0.788758 0.359616 0.025415
O O15 0.577141 0.254975 0.283384
O O16 0.000000 0.500000 0.000000
O O17 0.184649 0.942022 0.483527
O O18 0.000000 0.500000 0.500000
#
# Coordination Sequence:
#
# PCOD9038326 Si02
#       8
#     2   2   2   2   2   2   2   2
#     4  10  23  41  68  92 136 184 225 281 340 406
#     4  10  24  41  69  97 138 173 225 288 343 419
#     4  10  23  45  67 100 131 176 233 281 349 418
#     4  11  23  44  66  99 140 185 234 288 343 414
#     4  11  22  44  69  97 134 181 231 279 350 411
#     4  11  25  42  68  99 137 179 225 289 350 420
#     4  12  25  43  67 102 138 179 230 280 352 413
#     4  11  24  44  66  98 138 185 236 285 342 413
#
# _framework density 22.832037
#
# number of rings (size 3 to 8) (size 9 to 14) (size 15 to 20)
#    0.000    1.250    1.250    4.125    1.750    8.500 
#    0.000    0.000    0.000    0.000    0.000    0.000 
#    0.000    0.000    0.000    0.000    0.000    0.000 
#
# Total GULP energy -89255.942216 kJ/mol
# GULP energy per Si atom -5578.496389 kJ/mol
# Density = 2.278007 g / cm^3
# Si number density = 22.832037 Si / 1000 Ang^3
#
#
#
# Elastic Constant Matrix: (Units=GPa)
#
#
# Indices 1 2 3 4 5 6 
#
# 1 103.6637 15.9747 17.9844 9.5592 -12.6729 -24.5065
# 2 15.9747 80.0357 24.0360 6.7928 -23.0222 -8.2412
# 3 17.9844 24.0360 102.1809 -15.3491 0.5073 -14.4584
# 4 9.5592 6.7928 -15.3491 43.2503 5.5977 -1.4627
# 5 -12.6729 -23.0222 0.5073 5.5977 30.2836 7.3766
# 6 -24.5065 -8.2412 -14.4584 -1.4627 7.3766 33.5820
#
#
#
# Elastic Compliance Matrix: (Units=1/GPa)
#
#
# Indices 1 2 3 4 5 6 
#
# 1 0.012538 0.000453 -0.001885 -0.003855 0.004562 0.007279
# 2 0.000453 0.019626 -0.006146 -0.007617 0.017002 -0.001566
# 3 -0.001885 -0.006146 0.013428 0.007389 -0.008279 0.005038
# 4 -0.003855 -0.007617 0.007389 0.029659 -0.013692 0.002798
# 5 0.004562 0.017002 -0.008279 -0.013692 0.052521 -0.008196
# 6 0.007279 -0.001566 0.005038 0.002798 -0.008196 0.038797
#
#
# Mechanical properties :
#
#
# Convention : Reuss Voigt Hill
#
# Bulk Modulus (GPa) = 32.85796 44.65227 38.75512
# Shear Modulus (GPa) = 26.05922 36.61553 31.33738
#
# Velocity S-wave (km/s) = 3.38204 4.00896 3.70877
# Velocity P-wave (km/s) = 5.44733 6.40533 5.94566
#
# Compressibility (1/GPa) = 0.03043402
#
# Stress axis : x y z
#
# Youngs Moduli (GPa) = 79.75833 50.95362 74.47072
#
# Poissons Ratio (x) = -0.02306 0.14038
# Poissons Ratio (y) = -0.03610 0.45773
# Poissons Ratio (z) = 0.15035 0.31318
#
# Static dielectric constant tensor:
#      x y z
#    x 1.844410 -0.080250 0.001850 
#    y -0.080250 1.511870 -0.003830 
#    z 0.001850 -0.003830 1.840700 
# 
# From -- ./inp_files/599760.got.cif
#   From: 2010.05.17/outbox.cif.g08.bks.cpg/sg2_300_cif.got.tgz:599760.got - 2010.06.03 11:33:40.
