data_PCOD9038262
_publ_section_title
;
Structure prediction by ZEFSAII (Michael W. Deem and Ramdas Pophale) SiO2 
 PCOD9038262
Probable space group: P -1
;
_chemical_formula_sum "Si O2"
_cell_formula_units_Z 14
_cell_length_a 20.389604
_cell_length_b 8.624729
_cell_length_c 8.174499
_cell_angle_alpha 128.940638
_cell_angle_beta 51.496116
_cell_angle_gamma 152.063505
_cell_volume 514.812973
_symmetry_space_group_name_H-M "P -1"
_symmetry_group_IT_number 2
_symmetry_cell_setting 'triclinic'
loop_
_space_group_symop_operation_xyz
x,y,z
-x,-y,-z
loop_
_atom_site_type_symbol
_atom_site_label
_atom_site_fract_x
_atom_site_fract_y
_atom_site_fract_z
Si Si1 0.632549 0.254704 0.227063
Si Si2 0.795972 0.126446 0.532386
Si Si3 0.904636 0.626503 0.194721
Si Si4 0.615583 0.522568 0.930321
Si Si5 0.533613 0.452727 0.648065
Si Si6 0.975700 0.382731 0.727038
Si Si7 0.175591 0.344101 0.117638
O O1 0.747594 0.414602 0.291626
O O2 0.525296 0.216475 0.432158
O O3 0.534740 0.882545 0.079783
O O4 0.731358 0.517422 0.098471
O O5 0.878583 0.236294 0.311557
O O6 0.817172 0.403572 0.707555
O O7 0.881051 0.174616 0.575472
O O8 0.633172 0.761280 0.571052
O O9 0.976433 0.720921 0.320046
O O10 0.013328 0.960515 0.134767
O O11 0.897448 0.391424 0.969351
O O12 0.615182 0.585495 0.784172
O O13 0.739844 0.613781 0.846436
O O14 0.604245 0.691204 0.178525
#
# Coordination Sequence:
#
# PCOD9038262 Si02
#       7
#     2   2   2   2   2   2   2
#     4  12  25  45  73 102 140 179 233 285 340 408
#     4  11  23  42  66 103 139 181 223 286 339 413
#     4  11  24  44  68 106 134 181 226 288 337 412
#     4  11  26  50  68 100 140 184 230 285 338 417
#     4  11  25  45  73  96 138 185 230 280 347 401
#     4  10  23  41  67  97 147 175 227 276 353 401
#     4  12  25  43  72 100 144 177 231 283 345 404
#
# _framework density 27.194344999999998
#
# number of rings (size 3 to 8) (size 9 to 14) (size 15 to 20)
#    0.000    0.857    2.857    3.000    6.000    4.571 
#    2.571    0.000    0.000    0.000    0.000    0.000 
#    0.000    0.000    0.000    0.000    0.000    0.000 
#
# Total GULP energy -78565.303753 kJ/mol
# GULP energy per Si atom -5611.807411 kJ/mol
# Density = 2.713245 g / cm^3
# Si number density = 27.194345 Si / 1000 Ang^3
#
#
#
# Elastic Constant Matrix: (Units=GPa)
#
#
# Indices 1 2 3 4 5 6 
#
# 1 118.4464 21.7572 12.7121 6.2845 1.4065 15.0613
# 2 21.7572 115.5515 3.7852 -17.5166 9.0427 6.1983
# 3 12.7121 3.7852 106.4367 -10.2197 -18.3496 -3.8171
# 4 6.2845 -17.5166 -10.2197 32.0540 -13.3017 4.0366
# 5 1.4065 9.0427 -18.3496 -13.3017 34.9805 -7.0392
# 6 15.0613 6.1983 -3.8171 4.0366 -7.0392 41.3394
#
#
#
# Elastic Compliance Matrix: (Units=1/GPa)
#
#
# Indices 1 2 3 4 5 6 
#
# 1 0.009828 -0.002025 -0.002329 -0.004839 -0.003667 -0.003644
# 2 -0.002025 0.010037 0.000365 0.006048 -0.000299 -0.001375
# 3 -0.002329 0.000365 0.012353 0.008504 0.010288 0.002856
# 4 -0.004839 0.006048 0.008504 0.046804 0.021021 0.000651
# 5 -0.003667 -0.000299 0.010288 0.021021 0.043757 0.007729
# 6 -0.003644 -0.001375 0.002856 0.000651 0.007729 0.027240
#
#
# Mechanical properties :
#
#
# Convention : Reuss Voigt Hill
#
# Bulk Modulus (GPa) = 41.25586 46.32704 43.79145
# Shear Modulus (GPa) = 30.10608 41.82011 35.96310
#
# Velocity S-wave (km/s) = 3.33088 3.92576 3.64049
# Velocity P-wave (km/s) = 5.47692 6.13363 5.81455
#
# Compressibility (1/GPa) = 0.02423898
#
# Stress axis : x y z
#
# Youngs Moduli (GPa) = 101.74650 99.62646 80.95165
#
# Poissons Ratio (x) = 0.20179 0.18856
# Poissons Ratio (y) = 0.20608 -0.02953
# Poissons Ratio (z) = 0.23700 -0.03634
#
# Static dielectric constant tensor:
#      x y z
#    x 2.098620 -0.006560 0.032290 
#    y -0.006560 2.057180 0.009480 
#    z 0.032290 0.009480 2.101230 
# 
# From -- ./inp_files/156928.got.cif
#   From: 2010.05.17/outbox.cif.g08.bks.cpg/sg2_79_cif.got.tgz:156928.got - 2010.06.03 11:33:40.
