data_PCOD9038246
_publ_section_title
;
Structure prediction by ZEFSAII (Michael W. Deem and Ramdas Pophale) SiO2 
 PCOD9038246
Probable space group: P -1
;
_chemical_formula_sum "Si O2"
_cell_formula_units_Z 15
_cell_length_a 12.127956
_cell_length_b 9.115940
_cell_length_c 12.529245
_cell_angle_alpha 62.549146
_cell_angle_beta 38.450859
_cell_angle_gamma 51.776450
_cell_volume 675.914646
_symmetry_space_group_name_H-M "P -1"
_symmetry_group_IT_number 2
_symmetry_cell_setting 'triclinic'
loop_
_space_group_symop_operation_xyz
x,y,z
-x,-y,-z
loop_
_atom_site_type_symbol
_atom_site_label
_atom_site_fract_x
_atom_site_fract_y
_atom_site_fract_z
Si Si1 0.068920 0.573694 0.644537
Si Si2 0.681825 0.370789 0.830073
Si Si3 0.245200 0.092749 0.372826
Si Si4 0.612316 0.331090 0.655294
Si Si5 0.677623 0.041048 0.053042
Si Si6 0.183994 0.381111 0.975669
Si Si7 0.085791 0.227938 0.669719
Si Si8 0.000000 0.000000 0.000000
O O1 0.244300 0.616353 0.543286
O O2 0.177957 0.362343 0.588921
O O3 0.939493 0.741573 0.604188
O O4 0.905440 0.577058 0.851823
O O5 0.636794 0.401816 0.729902
O O6 0.876228 0.377011 0.724592
O O7 0.500000 0.500000 0.000000
O O8 0.724778 0.159367 0.890739
O O9 0.196644 0.088696 0.535651
O O10 0.301660 0.892854 0.343774
O O11 0.438390 0.127928 0.213934
O O12 0.373171 0.416054 0.795421
O O13 0.749539 0.833522 0.026503
O O14 0.798377 0.034456 0.070234
O O15 0.000000 0.500000 0.000000
O O16 0.049963 0.123117 0.831046
#
# Coordination Sequence:
#
# PCOD9038246 Si02
#       8
#     2   2   2   2   2   2   2   1
#     4  12  24  42  72 104 135 177 227 287 343 411
#     4  11  22  39  68 101 137 175 223 284 343 405
#     4  11  23  42  68 103 139 170 223 294 342 407
#     4  11  25  42  70 103 135 182 227 277 352 406
#     4  10  23  41  67  96 134 181 225 279 341 408
#     4  11  25  46  66  95 140 184 229 280 335 410
#     4  11  24  41  66  99 137 177 227 281 341 401
#     4  10  24  44  62  90 134 182 230 260 334 416
#
# _framework density 22.192150999999999
#
# number of rings (size 3 to 8) (size 9 to 14) (size 15 to 20)
#    0.000    1.067    1.333    4.800    5.600    4.267 
#    0.000    0.000    0.000    0.000    0.000    0.000 
#    0.000    0.000    0.000    0.000    0.000    0.000 
#
# Total GULP energy -83542.382739 kJ/mol
# GULP energy per Si atom -5569.492183 kJ/mol
# Density = 2.214164 g / cm^3
# Si number density = 22.192151 Si / 1000 Ang^3
#
#
#
# Elastic Constant Matrix: (Units=GPa)
#
#
# Indices 1 2 3 4 5 6 
#
# 1 82.4125 21.0905 35.0038 -5.3390 -13.3255 1.9803
# 2 21.0905 45.7843 26.8678 -4.0166 8.5838 8.2408
# 3 35.0038 26.8678 78.3460 1.1633 -11.4862 7.2325
# 4 -5.3390 -4.0166 1.1633 29.6272 1.1610 -7.5814
# 5 -13.3255 8.5838 -11.4862 1.1610 35.6231 -9.4075
# 6 1.9803 8.2408 7.2325 -7.5814 -9.4075 19.2219
#
#
#
# Elastic Compliance Matrix: (Units=1/GPa)
#
#
# Indices 1 2 3 4 5 6 
#
# 1 0.018025 -0.009022 -0.004510 0.004468 0.010062 0.010394
# 2 -0.009022 0.041310 -0.011304 -0.000888 -0.023365 -0.024313
# 3 -0.004510 -0.011304 0.019795 -0.003354 0.007597 0.000258
# 4 0.004468 -0.000888 -0.003354 0.039218 0.004505 0.018855
# 5 0.010062 -0.023365 0.007597 0.004505 0.048067 0.031424
# 6 0.010394 -0.024313 0.000258 0.018855 0.031424 0.084096
#
#
# Mechanical properties :
#
#
# Convention : Reuss Voigt Hill
#
# Bulk Modulus (GPa) = 33.94603 41.38522 37.66563
# Shear Modulus (GPa) = 16.12897 25.13317 20.63107
#
# Velocity S-wave (km/s) = 2.69882 3.36895 3.05233
# Velocity P-wave (km/s) = 5.00411 5.81568 5.42510
#
# Compressibility (1/GPa) = 0.02945852
#
# Stress axis : x y z
#
# Youngs Moduli (GPa) = 55.47812 24.20731 50.51726
#
# Poissons Ratio (x) = 0.21840 0.22784
# Poissons Ratio (y) = 0.50052 0.57104
# Poissons Ratio (z) = 0.25022 0.27363
#
# Static dielectric constant tensor:
#      x y z
#    x 1.817090 0.009320 -0.025650 
#    y 0.009320 1.867240 0.084220 
#    z -0.025650 0.084220 1.992140 
# 
# From -- ./inp_files/154209.got.cif
#   From: 2010.05.17/outbox.cif.g08.bks.cpg/sg2_78_cif.got.tgz:154209.got - 2010.06.03 11:33:40.
