data_PCOD9038070
_publ_section_title
;
Structure prediction by ZEFSAII (Michael W. Deem and Ramdas Pophale) SiO2 
 PCOD9038070
Probable space group: P -1
;
_chemical_formula_sum "Si O2"
_cell_formula_units_Z 10
_cell_length_a 4.883580
_cell_length_b 19.285995
_cell_length_c 11.374501
_cell_angle_alpha 24.894684
_cell_angle_beta 127.914277
_cell_angle_gamma 121.962234
_cell_volume 354.512852
_symmetry_space_group_name_H-M "P -1"
_symmetry_group_IT_number 2
_symmetry_cell_setting 'triclinic'
loop_
_space_group_symop_operation_xyz
x,y,z
-x,-y,-z
loop_
_atom_site_type_symbol
_atom_site_label
_atom_site_fract_x
_atom_site_fract_y
_atom_site_fract_z
Si Si1 0.789605 0.989941 0.839599
Si Si2 0.101188 0.073801 0.287324
Si Si3 0.740963 0.643884 0.433427
Si Si4 0.349992 0.427934 0.807195
Si Si5 0.732816 0.342118 0.255028
O O1 0.572949 0.167747 0.504276
O O2 0.015494 0.975429 0.800898
O O3 0.000000 0.000000 0.000000
O O4 0.608400 0.817736 0.070572
O O5 0.500000 0.000000 0.500000
O O6 0.128072 0.270649 0.989414
O O7 0.000000 0.000000 0.500000
O O8 0.097639 0.574873 0.570684
O O9 0.891559 0.677972 0.553218
O O10 0.486455 0.501950 0.610070
O O11 0.693943 0.370535 0.062373
O O12 0.500000 0.500000 0.000000
#
# Coordination Sequence:
#
# PCOD9038070 Si02
#       5
#     2   2   2   2   2
#     4  10  23  47  72 108 147 189 240 302 361 424
#     4  12  26  46  74 108 144 190 242 298 356 432
#     4  10  23  41  66 105 140 183 231 296 355 418
#     4  11  22  42  68 100 141 186 236 286 354 428
#     4   9  19  41  69 102 138 188 236 290 347 431
#
# _framework density 28.207723000000001
#
# number of rings (size 3 to 8) (size 9 to 14) (size 15 to 20)
#    0.000    1.600    2.000    1.800    0.000    3.200 
#    7.200    9.000    0.000    0.000    0.000    0.000 
#    0.000    0.000    0.000    0.000    0.000    0.000 
#
# Total GULP energy -55931.763544 kJ/mol
# GULP energy per Si atom -5593.176354 kJ/mol
# Density = 2.814352 g / cm^3
# Si number density = 28.207723 Si / 1000 Ang^3
#
#
#
# Elastic Constant Matrix: (Units=GPa)
#
#
# Indices 1 2 3 4 5 6 
#
# 1 137.6433 23.3350 67.3958 -0.5191 -47.0882 -31.0920
# 2 23.3350 102.3100 46.6374 25.7348 -25.9449 -31.9882
# 3 67.3958 46.6374 298.3252 -15.0259 -37.9284 -23.6986
# 4 -0.5191 25.7348 -15.0259 71.0192 -7.6723 -4.0287
# 5 -47.0882 -25.9449 -37.9284 -7.6723 62.4032 4.9208
# 6 -31.0920 -31.9882 -23.6986 -4.0287 4.9208 40.5257
#
#
#
# Elastic Compliance Matrix: (Units=1/GPa)
#
#
# Indices 1 2 3 4 5 6 
#
# 1 0.013102 0.003406 -0.001402 0.000216 0.009628 0.010774
# 2 0.003406 0.017104 -0.001720 -0.005007 0.006935 0.013769
# 3 -0.001402 -0.001720 0.004139 0.001592 0.000936 0.000032
# 4 0.000216 -0.005007 0.001592 0.016280 0.001159 -0.001378
# 5 0.009628 0.006935 0.000936 0.001159 0.026068 0.010358
# 6 0.010774 0.013769 0.000032 -0.001378 0.010358 0.042433
#
#
# Mechanical properties :
#
#
# Convention : Reuss Voigt Hill
#
# Bulk Modulus (GPa) = 28.64126 90.33500 59.48813
# Shear Modulus (GPa) = 38.40328 61.51697 49.96013
#
# Velocity S-wave (km/s) = 3.69378 4.67503 4.21307
# Velocity P-wave (km/s) = 5.32614 7.82532 6.69341
#
# Compressibility (1/GPa) = 0.03491467
#
# Stress axis : x y z
#
# Youngs Moduli (GPa) = 76.32305 58.46471 241.58277
#
# Poissons Ratio (x) = -0.19914 0.33862
# Poissons Ratio (y) = -0.25997 0.41557
# Poissons Ratio (z) = 0.10698 0.10057
#
# Static dielectric constant tensor:
#      x y z
#    x 2.508580 0.313120 0.301740 
#    y 0.313120 2.607640 0.230980 
#    z 0.301740 0.230980 2.518770 
# 
# From -- ./inp_files/20663.got.cif
#   From: 2010.05.17/outbox.cif.g08.bks.cpg/sg2_11_cif.got.tgz:20663.got - 2010.06.03 11:33:40.
