data_PCOD9038597
_publ_section_title
;
Structure prediction by ZEFSAII (Michael W. Deem and Ramdas Pophale) SiO2 
 PCOD9038597
Probable space group: P -1
;
_chemical_formula_sum "Si O2"
_cell_formula_units_Z 15
_cell_length_a 15.724831
_cell_length_b 7.543058
_cell_length_c 9.425799
_cell_angle_alpha 33.752429
_cell_angle_beta 108.115359
_cell_angle_gamma 105.961509
_cell_volume 590.103321
_symmetry_space_group_name_H-M "P -1"
_symmetry_group_IT_number 2
_symmetry_cell_setting 'triclinic'
loop_
_space_group_symop_operation_xyz
x,y,z
-x,-y,-z
loop_
_atom_site_type_symbol
_atom_site_label
_atom_site_fract_x
_atom_site_fract_y
_atom_site_fract_z
Si Si1 0.166509 0.771278 0.697942
Si Si2 0.533121 0.785058 0.955334
Si Si3 0.711585 0.765640 0.395888
Si Si4 0.089481 0.642961 0.021941
Si Si5 0.688513 0.370451 0.371649
Si Si6 0.596024 0.321464 0.827289
Si Si7 0.500000 0.000000 0.500000
Si Si8 0.026094 0.331994 0.478770
O O1 0.234389 0.681972 0.668000
O O2 0.080834 0.024843 0.756298
O O3 0.067430 0.777517 0.575251
O O4 0.160225 0.571899 0.977124
O O5 0.631417 0.661990 0.089002
O O6 0.537130 0.117080 0.821015
O O7 0.472405 0.536490 0.187729
O O8 0.482499 0.842043 0.749578
O O9 0.793625 0.894136 0.446634
O O10 0.726311 0.511636 0.446830
O O11 0.661277 0.072514 0.101511
O O12 0.647337 0.589731 0.590948
O O13 0.079517 0.547245 0.246073
O O14 0.000000 0.500000 0.000000
O O15 0.611966 0.093246 0.540919
O O16 0.000000 0.500000 0.500000
#
# Coordination Sequence:
#
# PCOD9038597 Si02
#       8
#     2   2   2   2   2   2   1   2
#     4  11  26  48  76 111 152 194 245 306 376 445
#     4  10  23  41  71  92 144 187 266 305 374 422
#     4  11  25  47  69 105 148 189 252 309 375 422
#     4  10  23  49  77 113 152 195 244 301 377 463
#     4  11  26  45  67 110 143 202 247 318 359 441
#     4  10  23  44  70  97 134 203 247 312 364 433
#     4  12  22  44  64 104 138 198 254 306 352 438
#     4  11  25  50  84 117 149 198 246 305 381 466
#
# _framework density 25.419277999999998
#
# number of rings (size 3 to 8) (size 9 to 14) (size 15 to 20)
#    0.000    1.333    1.333    3.200    5.600    4.800 
#    7.200    0.000    0.000    0.000    0.000    0.000 
#    0.000    0.000    0.000    0.000    0.000    0.000 
#
# Total GULP energy -83708.584325 kJ/mol
# GULP energy per Si atom -5580.572288 kJ/mol
# Density = 2.536142 g / cm^3
# Si number density = 25.419278 Si / 1000 Ang^3
#
#
#
# Elastic Constant Matrix: (Units=GPa)
#
#
# Indices 1 2 3 4 5 6 
#
# 1 159.2737 61.7413 48.3467 8.2378 -38.2216 -27.4497
# 2 61.7413 135.0678 30.6056 35.3717 -13.4938 1.8504
# 3 48.3467 30.6056 162.9877 18.4954 -33.0699 -10.2900
# 4 8.2378 35.3717 18.4954 36.1168 0.0983 -5.0831
# 5 -38.2216 -13.4938 -33.0699 0.0983 41.8871 3.1614
# 6 -27.4497 1.8504 -10.2900 -5.0831 3.1614 52.7028
#
#
#
# Elastic Compliance Matrix: (Units=1/GPa)
#
#
# Indices 1 2 3 4 5 6 
#
# 1 0.011127 -0.005235 -0.000909 0.003841 0.007307 0.005734
# 2 -0.005235 0.013014 0.000217 -0.012271 -0.000058 -0.004321
# 3 -0.000909 0.000217 0.007964 -0.004049 0.005511 0.000353
# 4 0.003841 -0.012271 -0.004049 0.041747 -0.004189 0.005919
# 5 0.007307 -0.000058 0.005511 -0.004189 0.034703 0.002398
# 6 0.005734 -0.004321 0.000353 0.005919 0.002398 0.022608
#
#
# Mechanical properties :
#
#
# Convention : Reuss Voigt Hill
#
# Bulk Modulus (GPa) = 49.37787 82.07961 65.72874
# Shear Modulus (GPa) = 33.38513 47.25038 40.31776
#
# Velocity S-wave (km/s) = 3.62799 4.31610 3.98692
# Velocity P-wave (km/s) = 6.08418 7.56298 6.86353
#
# Compressibility (1/GPa) = 0.02025199
#
# Stress axis : x y z
#
# Youngs Moduli (GPa) = 89.87491 76.83865 125.56110
#
# Poissons Ratio (x) = 0.40222 0.11410
# Poissons Ratio (y) = 0.47046 -0.02723
# Poissons Ratio (z) = 0.08167 -0.01666
#
# Static dielectric constant tensor:
#      x y z
#    x 2.066610 -0.008610 0.014360 
#    y -0.008610 1.956310 0.052460 
#    z 0.014360 0.052460 1.993760 
# 
# From -- ./inp_files/297329.got.cif
#   From: 2010.05.17/outbox.cif.g08.bks.cpg/sg2_149_cif.got.tgz:297329.got - 2010.06.03 11:33:40.
