data_PCOD9038250
_publ_section_title
;
Structure prediction by ZEFSAII (Michael W. Deem and Ramdas Pophale) SiO2 
 PCOD9038250
Probable space group: P -1
;
_chemical_formula_sum "Si O2"
_cell_formula_units_Z 16
_cell_length_a 13.724773
_cell_length_b 13.008871
_cell_length_c 14.665544
_cell_angle_alpha 51.195448
_cell_angle_beta 160.652900
_cell_angle_gamma 130.619217
_cell_volume 657.649973
_symmetry_space_group_name_H-M "P -1"
_symmetry_group_IT_number 2
_symmetry_cell_setting 'triclinic'
loop_
_space_group_symop_operation_xyz
x,y,z
-x,-y,-z
loop_
_atom_site_type_symbol
_atom_site_label
_atom_site_fract_x
_atom_site_fract_y
_atom_site_fract_z
Si Si1 0.847139 0.809525 0.677281
Si Si2 0.340016 0.281389 0.041634
Si Si3 0.831013 0.266693 0.833106
Si Si4 0.802338 0.959952 0.258908
Si Si5 0.176815 0.571800 0.753387
Si Si6 0.699085 0.151901 0.577625
Si Si7 0.403404 0.356283 0.762053
Si Si8 0.238425 0.441304 0.373952
O O1 0.487588 0.791425 0.364108
O O2 0.939391 0.696248 0.755823
O O3 0.033052 0.953075 0.727877
O O4 0.918450 0.780730 0.860278
O O5 0.598062 0.320110 0.170983
O O6 0.502191 0.234631 0.298829
O O7 0.230316 0.421795 0.875267
O O8 0.029230 0.168544 0.812068
O O9 0.788671 0.214898 0.721649
O O10 0.902477 0.429294 0.807760
O O11 0.742419 0.801928 0.275901
O O12 0.000000 0.000000 0.500000
O O13 0.500000 0.000000 0.000000
O O14 0.829750 0.572523 0.429202
O O15 0.278962 0.618474 0.920276
O O16 0.500000 0.000000 0.500000
O O17 0.393456 0.407120 0.622427
O O18 0.500000 0.500000 0.500000
#
# Coordination Sequence:
#
# PCOD9038250 Si02
#       8
#     2   2   2   2   2   2   2   2
#     4  11  24  42  66  94 137 177 230 273 337 399
#     4  11  24  47  72 102 142 178 231 295 361 410
#     4  11  24  42  66 100 131 179 226 280 333 406
#     4  12  25  44  65  92 137 184 226 278 337 401
#     4  11  25  44  73 105 135 180 235 301 348 408
#     4  12  26  45  72 102 145 184 230 284 357 432
#     4  12  25  42  69 103 138 183 239 280 347 416
#     4  10  23  41  67  96 136 177 228 277 337 398
#
# _framework density 24.329052000000001
#
# number of rings (size 3 to 8) (size 9 to 14) (size 15 to 20)
#    0.000    0.750    1.250    6.000    1.750    8.000 
#    0.000    0.000    0.000    0.000    0.000    0.000 
#    0.000    0.000    0.000    0.000    0.000    0.000 
#
# Total GULP energy -89681.009963 kJ/mol
# GULP energy per Si atom -5605.063123 kJ/mol
# Density = 2.427368 g / cm^3
# Si number density = 24.329052 Si / 1000 Ang^3
#
#
#
# Elastic Constant Matrix: (Units=GPa)
#
#
# Indices 1 2 3 4 5 6 
#
# 1 76.6160 28.4456 -0.0458 -5.2301 -10.0975 18.1534
# 2 28.4456 117.2080 8.3093 -3.2231 -8.7736 33.8230
# 3 -0.0458 8.3093 97.2199 5.9335 -10.2966 -3.6780
# 4 -5.2301 -3.2231 5.9335 36.7943 10.1928 1.6425
# 5 -10.0975 -8.7736 -10.2966 10.1928 38.6368 -1.3665
# 6 18.1534 33.8230 -3.6780 1.6425 -1.3665 33.6110
#
#
#
# Elastic Compliance Matrix: (Units=1/GPa)
#
#
# Indices 1 2 3 4 5 6 
#
# 1 0.015786 -0.001580 0.000124 0.001518 0.003157 -0.006868
# 2 -0.001580 0.012621 -0.001477 0.001298 0.001292 -0.012020
# 3 0.000124 -0.001477 0.011082 -0.003012 0.003549 0.002923
# 4 0.001518 0.001298 -0.003012 0.030485 -0.008305 -0.004283
# 5 0.003157 0.001292 0.003549 -0.008305 0.030102 -0.000987
# 6 -0.006868 -0.012020 0.002923 -0.004283 -0.000987 0.046046
#
#
# Mechanical properties :
#
#
# Convention : Reuss Voigt Hill
#
# Bulk Modulus (GPa) = 29.73987 40.49583 35.11785
# Shear Modulus (GPa) = 30.63815 38.76406 34.70111
#
# Velocity S-wave (km/s) = 3.55254 3.99598 3.78077
# Velocity P-wave (km/s) = 5.39240 6.16211 5.79006
#
# Compressibility (1/GPa) = 0.03362489
#
# Stress axis : x y z
#
# Youngs Moduli (GPa) = 63.34838 79.23376 90.23241
#
# Poissons Ratio (x) = 0.12518 -0.01122
# Poissons Ratio (y) = 0.10008 0.13323
# Poissons Ratio (z) = -0.00788 0.11699
#
# Static dielectric constant tensor:
#      x y z
#    x 1.946320 0.016760 0.054030 
#    y 0.016760 1.854150 -0.015950 
#    z 0.054030 -0.015950 1.864050 
# 
# From -- ./inp_files/534260.got.cif
#   From: 2010.05.17/outbox.cif.g08.bks.cpg/sg2_268_cif.got.tgz:534260.got - 2010.06.03 11:33:40.
