data_PCOD9038168
_publ_section_title
;
Structure prediction by ZEFSAII (Michael W. Deem and Ramdas Pophale) SiO2 
 PCOD9038168
Probable space group: P -1
;
_chemical_formula_sum "Si O2"
_cell_formula_units_Z 14
_cell_length_a 9.487988
_cell_length_b 10.324299
_cell_length_c 12.296710
_cell_angle_alpha 63.596390
_cell_angle_beta 108.062724
_cell_angle_gamma 60.986544
_cell_volume 699.390489
_symmetry_space_group_name_H-M "P -1"
_symmetry_group_IT_number 2
_symmetry_cell_setting 'triclinic'
loop_
_space_group_symop_operation_xyz
x,y,z
-x,-y,-z
loop_
_atom_site_type_symbol
_atom_site_label
_atom_site_fract_x
_atom_site_fract_y
_atom_site_fract_z
Si Si1 0.094011 0.081895 0.446657
Si Si2 0.510008 0.578631 0.360438
Si Si3 0.883402 0.945713 0.935199
Si Si4 0.426445 0.362165 0.283448
Si Si5 0.965624 0.585595 0.163826
Si Si6 0.928682 0.433153 0.421852
Si Si7 0.856093 0.396264 0.070052
O O1 0.098046 0.197677 0.500378
O O2 0.926887 0.257393 0.247676
O O3 0.342212 0.876262 0.547644
O O4 0.000000 0.000000 0.500000
O O5 0.500000 0.500000 0.500000
O O6 0.349715 0.828025 0.237334
O O7 0.432163 0.518914 0.274925
O O8 0.740913 0.472349 0.416821
O O9 0.004236 0.788680 0.919097
O O10 0.872581 0.813792 0.058699
O O11 0.000000 0.000000 0.000000
O O12 0.227126 0.421171 0.273615
O O13 0.370196 0.422806 0.118820
O O14 0.875491 0.566166 0.253424
O O15 0.905906 0.524652 0.071605
O O16 0.000000 0.500000 0.500000
#
# Coordination Sequence:
#
# PCOD9038168 Si02
#       7
#     2   2   2   2   2   2   2
#     4  11  24  43  67  99 133 177 224 274 336 398
#     4  12  24  41  69  99 131 176 224 270 338 401
#     4  11  21  38  69  97 126 177 220 271 324 392
#     4  11  21  43  71  94 131 179 223 266 335 400
#     4  10  23  44  66  99 137 171 224 279 332 398
#     4  11  26  43  63 100 140 165 219 290 329 391
#     4  10  23  41  67 100 136 168 226 279 324 402
#
# _framework density 20.017429
#
# number of rings (size 3 to 8) (size 9 to 14) (size 15 to 20)
#    0.000    1.143    4.286    3.429    0.000    5.714 
#    0.000    0.000    0.000    0.000    0.000    0.000 
#    0.000    0.000    0.000    0.000    0.000    0.000 
#
# Total GULP energy -77965.713411 kJ/mol
# GULP energy per Si atom -5568.979529 kJ/mol
# Density = 1.997187 g / cm^3
# Si number density = 20.017429 Si / 1000 Ang^3
#
#
#
# Elastic Constant Matrix: (Units=GPa)
#
#
# Indices 1 2 3 4 5 6 
#
# 1 100.5060 28.2648 39.8495 10.4320 -13.2451 12.1659
# 2 28.2648 114.9063 15.9530 8.0532 -5.1567 28.0740
# 3 39.8495 15.9530 78.9894 2.4245 -17.6781 -2.9823
# 4 10.4320 8.0532 2.4245 48.6164 6.9106 3.9462
# 5 -13.2451 -5.1567 -17.6781 6.9106 32.3768 2.2186
# 6 12.1659 28.0740 -2.9823 3.9462 2.2186 39.8241
#
#
#
# Elastic Compliance Matrix: (Units=1/GPa)
#
#
# Indices 1 2 3 4 5 6 
#
# 1 0.013847 -0.001358 -0.006121 -0.002558 0.002902 -0.003640
# 2 -0.001358 0.011232 -0.001591 -0.001031 0.001105 -0.007582
# 3 -0.006121 -0.001591 0.017759 -0.000599 0.006793 0.004002
# 4 -0.002558 -0.001031 -0.000599 0.022240 -0.006258 -0.000391
# 5 0.002902 0.001105 0.006793 -0.006258 0.037474 -0.002624
# 6 -0.003640 -0.007582 0.004002 -0.000391 -0.002624 0.032052
#
#
# Mechanical properties :
#
#
# Convention : Reuss Voigt Hill
#
# Bulk Modulus (GPa) = 40.48786 51.39291 45.94039
# Shear Modulus (GPa) = 31.06080 38.18577 34.62329
#
# Velocity S-wave (km/s) = 3.94342 4.37238 4.16343
# Velocity P-wave (km/s) = 6.40346 7.15682 6.79059
#
# Compressibility (1/GPa) = 0.02469876
#
# Stress axis : x y z
#
# Youngs Moduli (GPa) = 72.21896 89.03346 56.30963
#
# Poissons Ratio (x) = 0.12086 0.34467
# Poissons Ratio (y) = 0.09804 0.08958
# Poissons Ratio (z) = 0.44205 0.14165
#
# Static dielectric constant tensor:
#      x y z
#    x 1.543450 0.039640 0.105850 
#    y 0.039640 1.710160 0.052250 
#    z 0.105850 0.052250 1.939980 
# 
# From -- ./inp_files/381735.got.cif
#   From: 2010.05.17/outbox.cif.g08.bks.cpg/sg2_191_cif.got.tgz:381735.got - 2010.06.03 11:33:40.
