data_PCOD9038970
_publ_section_title
;
Structure prediction by ZEFSAII (Michael W. Deem and Ramdas Pophale) SiO2 
 PCOD9038970
Probable space group: P -1
;
_chemical_formula_sum "Si O2"
_cell_formula_units_Z 16
_cell_length_a 21.322325
_cell_length_b 5.230027
_cell_length_c 5.557872
_cell_angle_alpha 82.732990
_cell_angle_beta 67.550301
_cell_angle_gamma 97.224855
_cell_volume 557.885331
_symmetry_space_group_name_H-M "P -1"
_symmetry_group_IT_number 2
_symmetry_cell_setting 'triclinic'
loop_
_space_group_symop_operation_xyz
x,y,z
-x,-y,-z
loop_
_atom_site_type_symbol
_atom_site_label
_atom_site_fract_x
_atom_site_fract_y
_atom_site_fract_z
Si Si1 0.045514 0.873394 0.754073
Si Si2 0.346129 0.533726 0.019971
Si Si3 0.174075 0.094343 0.818231
Si Si4 0.417002 0.013350 0.547183
Si Si5 0.210650 0.701327 0.191151
Si Si6 0.295251 0.065483 0.370714
Si Si7 0.082549 0.341001 0.265387
Si Si8 0.549861 0.421670 0.729420
O O1 0.116123 0.878781 0.792851
O O2 0.991200 0.631317 0.744640
O O3 0.067480 0.078632 0.479922
O O4 0.000000 0.000000 0.000000
O O5 0.395863 0.773994 0.792529
O O6 0.269961 0.551246 0.031959
O O7 0.376123 0.567912 0.246357
O O8 0.339939 0.217316 0.066862
O O9 0.236566 0.217579 0.538761
O O10 0.206502 0.944173 0.996195
O O11 0.132309 0.293870 0.978990
O O12 0.346897 0.013433 0.502028
O O13 0.467597 0.872270 0.319394
O O14 0.441819 0.329196 0.495374
O O15 0.246305 0.810442 0.371823
O O16 0.131874 0.550774 0.331045
O O17 0.500000 0.500000 0.000000
#
# Coordination Sequence:
#
# PCOD9038970 Si02
#       8
#     2   2   2   2   2   2   2   2
#     4   9  20  42  63  90 129 179 234 300 363 444
#     4  11  25  43  70 100 144 186 240 289 360 434
#     4  11  22  40  65  95 132 180 232 296 371 438
#     4  11  25  46  76 105 148 196 241 300 363 427
#     4  12  23  39  65 100 130 178 235 294 360 432
#     4  11  25  43  66 102 142 183 239 301 363 438
#     4  10  23  42  65  90 131 180 235 296 368 442
#     4  11  26  47  75 111 150 194 245 299 358 428
#
# _framework density 28.679727
#
# number of rings (size 3 to 8) (size 9 to 14) (size 15 to 20)
#    0.000    1.250    2.500    2.625    1.750    6.500 
#    2.250    8.750    0.000    0.000    0.000    0.000 
#    0.000    0.000    0.000    0.000    0.000    0.000 
#
# Total GULP energy -89434.959627 kJ/mol
# GULP energy per Si atom -5589.684977 kJ/mol
# Density = 2.861445 g / cm^3
# Si number density = 28.679727 Si / 1000 Ang^3
#
#
#
# Elastic Constant Matrix: (Units=GPa)
#
#
# Indices 1 2 3 4 5 6 
#
# 1 173.9198 29.7642 9.9475 -22.1558 -0.3138 8.2218
# 2 29.7642 143.4705 38.9984 -17.5658 -4.1348 16.2520
# 3 9.9475 38.9984 105.4820 -28.3848 -23.0407 -9.6716
# 4 -22.1558 -17.5658 -28.3848 36.0376 2.3226 0.7527
# 5 -0.3138 -4.1348 -23.0407 2.3226 41.4123 -3.4982
# 6 8.2218 16.2520 -9.6716 0.7527 -3.4982 49.2973
#
#
#
# Elastic Compliance Matrix: (Units=1/GPa)
#
#
# Indices 1 2 3 4 5 6 
#
# 1 0.006427 -0.000979 0.000841 0.004141 0.000132 -0.000638
# 2 -0.000979 0.008582 -0.003422 0.001049 -0.001405 -0.003453
# 3 0.000841 -0.003422 0.015724 0.010612 0.008198 0.004493
# 4 0.004141 0.001049 0.010612 0.038896 0.003920 0.000730
# 5 0.000132 -0.001405 0.008198 0.003920 0.028689 0.004025
# 6 -0.000638 -0.003453 0.004493 0.000730 0.004025 0.022686
#
#
# Mechanical properties :
#
#
# Convention : Reuss Voigt Hill
#
# Bulk Modulus (GPa) = 42.34859 64.47695 53.41277
# Shear Modulus (GPa) = 36.76551 48.29358 42.52955
#
# Velocity S-wave (km/s) = 3.58429 4.10798 3.85504
# Velocity P-wave (km/s) = 5.65046 6.71053 6.20318
#
# Compressibility (1/GPa) = 0.02361353
#
# Stress axis : x y z
#
# Youngs Moduli (GPa) = 155.59003 116.51756 63.59567
#
# Poissons Ratio (x) = 0.11404 -0.05345
# Poissons Ratio (y) = 0.15228 0.21762
# Poissons Ratio (z) = -0.13078 0.39872
#
# Static dielectric constant tensor:
#      x y z
#    x 2.232970 0.025880 -0.075600 
#    y 0.025880 2.319470 0.140360 
#    z -0.075600 0.140360 2.447790 
# 
# From -- ./inp_files/114512.got.cif
#   From: 2010.05.17/outbox.cif.g08.bks.cpg/sg2_58_cif.got.tgz:114512.got - 2010.06.03 11:33:40.
