data_PCOD9038675
_publ_section_title
;
Structure prediction by ZEFSAII (Michael W. Deem and Ramdas Pophale) SiO2 
 PCOD9038675
Probable space group: P -1
;
_chemical_formula_sum "Si O2"
_cell_formula_units_Z 16
_cell_length_a 8.492606
_cell_length_b 16.435206
_cell_length_c 8.702270
_cell_angle_alpha 129.409577
_cell_angle_beta 75.345771
_cell_angle_gamma 70.237890
_cell_volume 676.306437
_symmetry_space_group_name_H-M "P -1"
_symmetry_group_IT_number 2
_symmetry_cell_setting 'triclinic'
loop_
_space_group_symop_operation_xyz
x,y,z
-x,-y,-z
loop_
_atom_site_type_symbol
_atom_site_label
_atom_site_fract_x
_atom_site_fract_y
_atom_site_fract_z
Si Si1 0.729118 0.509829 0.452661
Si Si2 0.020787 0.212177 0.417460
Si Si3 0.447633 0.852018 0.487292
Si Si4 0.730184 0.303679 0.358294
Si Si5 0.488892 0.760049 0.031252
Si Si6 0.604016 0.927237 0.052184
Si Si7 0.844210 0.617144 0.305505
Si Si8 0.070877 0.960381 0.199951
O O1 0.825568 0.355508 0.286287
O O2 0.524512 0.578841 0.474628
O O3 0.864041 0.539131 0.362088
O O4 0.627408 0.602874 0.744991
O O5 0.077274 0.297509 0.581866
O O6 0.776816 0.304893 0.526601
O O7 0.089168 0.078909 0.331446
O O8 0.148663 0.154664 0.154000
O O9 0.536090 0.773912 0.208833
O O10 0.595751 0.732409 0.438638
O O11 0.186244 0.950282 0.649551
O O12 0.473790 0.963162 0.661616
O O13 0.814308 0.152479 0.103614
O O14 0.561225 0.826223 0.984885
O O15 0.227835 0.856616 0.178456
O O16 0.500000 0.000000 0.000000
O O17 0.000000 0.500000 0.000000
#
# Coordination Sequence:
#
# PCOD9038675 Si02
#       8
#     2   2   2   2   2   2   2   2
#     4  10  23  48  69  93 141 179 228 272 337 408
#     4  12  23  41  72 100 132 180 225 278 341 397
#     4  12  25  42  67 103 137 177 228 280 337 398
#     4  10  23  41  73 103 129 182 229 273 333 406
#     4  11  23  42  69  99 141 177 222 281 333 405
#     4  12  21  41  67  99 136 176 220 280 337 395
#     4  12  28  48  68  98 138 180 230 280 336 405
#     4  11  23  43  70 102 140 171 227 279 340 398
#
# _framework density 23.657914999999999
#
# number of rings (size 3 to 8) (size 9 to 14) (size 15 to 20)
#    0.000    0.750    5.000    1.875    3.500    1.500 
#   11.250    1.250    0.000    0.000    0.000    0.000 
#    0.000    0.000    0.000    0.000    0.000    0.000 
#
# Total GULP energy -89365.981084 kJ/mol
# GULP energy per Si atom -5585.373818 kJ/mol
# Density = 2.360407 g / cm^3
# Si number density = 23.657915 Si / 1000 Ang^3
#
#
#
# Elastic Constant Matrix: (Units=GPa)
#
#
# Indices 1 2 3 4 5 6 
#
# 1 70.2645 13.4060 26.9170 0.4648 30.3963 -7.3961
# 2 13.4060 61.8057 26.2814 6.7843 20.7102 -4.2785
# 3 26.9170 26.2814 104.9628 -2.1123 27.7554 -1.1329
# 4 0.4648 6.7843 -2.1123 24.9506 -3.4741 13.8029
# 5 30.3963 20.7102 27.7554 -3.4741 41.3687 3.9246
# 6 -7.3961 -4.2785 -1.1329 13.8029 3.9246 38.0025
#
#
#
# Elastic Compliance Matrix: (Units=1/GPa)
#
#
# Indices 1 2 3 4 5 6 
#
# 1 0.024447 0.004556 -0.001975 -0.011082 -0.020930 0.011399
# 2 0.004556 0.024144 -0.003312 -0.014900 -0.015462 0.010515
# 3 -0.001975 -0.003312 0.012183 0.001534 -0.004893 -0.000446
# 4 -0.011082 -0.014900 0.001534 0.063854 0.022717 -0.029327
# 5 -0.020930 -0.015462 -0.004893 0.022717 0.054364 -0.019826
# 6 0.011399 0.010515 -0.000446 -0.029327 -0.019826 0.042402
#
#
# Mechanical properties :
#
#
# Convention : Reuss Voigt Hill
#
# Bulk Modulus (GPa) = 16.85977 41.13799 28.99888
# Shear Modulus (GPa) = 20.60770 32.22626 26.41698
#
# Velocity S-wave (km/s) = 2.95459 3.69477 3.34522
# Velocity P-wave (km/s) = 4.33376 5.96894 5.21582
#
# Compressibility (1/GPa) = 0.05931279
#
# Stress axis : x y z
#
# Youngs Moduli (GPa) = 40.90482 41.41782 82.08172
#
# Poissons Ratio (x) = -0.18871 0.16215
# Poissons Ratio (y) = -0.18637 0.27182
# Poissons Ratio (z) = 0.08080 0.13716
#
# Static dielectric constant tensor:
#      x y z
#    x 2.066670 -0.048450 -0.076310 
#    y -0.048450 1.930550 0.000070 
#    z -0.076310 0.000070 1.869460 
# 
# From -- ./inp_files/208953.got.cif
#   From: 2010.05.17/outbox.cif.g08.bks.cpg/sg2_105_cif.got.tgz:208953.got - 2010.06.03 11:33:40.
