data_PCOD9038836
_publ_section_title
;
Structure prediction by ZEFSAII (Michael W. Deem and Ramdas Pophale) SiO2 
 PCOD9038836
Probable space group: P -1
;
_chemical_formula_sum "Si O2"
_cell_formula_units_Z 14
_cell_length_a 14.243193
_cell_length_b 12.083685
_cell_length_c 11.169830
_cell_angle_alpha 100.527699
_cell_angle_beta 91.159864
_cell_angle_gamma 158.067033
_cell_volume 604.466320
_symmetry_space_group_name_H-M "P -1"
_symmetry_group_IT_number 2
_symmetry_cell_setting 'triclinic'
loop_
_space_group_symop_operation_xyz
x,y,z
-x,-y,-z
loop_
_atom_site_type_symbol
_atom_site_label
_atom_site_fract_x
_atom_site_fract_y
_atom_site_fract_z
Si Si1 0.037168 0.688281 0.676351
Si Si2 0.174834 0.972365 0.294671
Si Si3 0.304474 0.201142 0.844708
Si Si4 0.832645 0.820174 0.831145
Si Si5 0.755046 0.491955 0.408334
Si Si6 0.198251 0.623651 0.981945
Si Si7 0.525048 0.066847 0.718100
O O1 0.917221 0.632890 0.558784
O O2 0.753735 0.319263 0.665204
O O3 0.223323 0.980366 0.829102
O O4 0.243497 0.827416 0.652090
O O5 0.995118 0.798833 0.375674
O O6 0.993656 0.665367 0.170113
O O7 0.158593 0.052313 0.211565
O O8 0.506625 0.304394 0.386709
O O9 0.498415 0.414417 0.773167
O O10 0.500000 0.500000 0.000000
O O11 0.000867 0.922448 0.774298
O O12 0.000000 0.000000 0.000000
O O13 0.585487 0.184057 0.302895
O O14 0.297584 0.676361 0.116582
O O15 0.000000 0.500000 0.000000
O O16 0.500000 0.000000 0.000000
#
# Coordination Sequence:
#
# PCOD9038836 Si02
#       7
#     2   2   2   2   2   2   2
#     4  12  26  43  70  97 136 183 221 271 328 385
#     4  12  24  43  69  97 137 179 211 278 338 390
#     4  10  23  42  63  96 127 160 227 284 325 377
#     4  10  23  43  66  95 126 164 222 282 331 383
#     4  12  25  46  64 101 142 179 218 259 330 419
#     4  12  23  41  64 101 139 168 221 273 335 396
#     4  12  24  42  69 101 136 176 226 268 321 399
#
# _framework density 23.160924999999999
#
# number of rings (size 3 to 8) (size 9 to 14) (size 15 to 20)
#    0.000    0.571    2.857    5.143    8.000    0.000 
#    0.000    4.286    0.000    0.000    0.000    0.000 
#    0.000    0.000    0.000    0.000    0.000    0.000 
#
# Total GULP energy -78238.515455 kJ/mol
# GULP energy per Si atom -5588.465390 kJ/mol
# Density = 2.310821 g / cm^3
# Si number density = 23.160925 Si / 1000 Ang^3
#
#
#
# Elastic Constant Matrix: (Units=GPa)
#
#
# Indices 1 2 3 4 5 6 
#
# 1 114.6738 66.0761 -7.8676 9.0192 29.8565 32.6503
# 2 66.0761 186.3575 10.3946 -10.3293 22.4851 43.3857
# 3 -7.8676 10.3946 67.7563 -5.8216 20.3398 8.2321
# 4 9.0192 -10.3293 -5.8216 23.2001 -12.1905 7.1424
# 5 29.8565 22.4851 20.3398 -12.1905 33.4800 5.4468
# 6 32.6503 43.3857 8.2321 7.1424 5.4468 48.4688
#
#
#
# Elastic Compliance Matrix: (Units=1/GPa)
#
#
# Indices 1 2 3 4 5 6 
#
# 1 0.026416 -0.005504 0.013467 -0.026275 -0.036440 -0.007189
# 2 -0.005504 0.008746 -0.001835 0.009798 0.004656 -0.005777
# 3 0.013467 -0.001835 0.025215 -0.013528 -0.029988 -0.006348
# 4 -0.026275 0.009798 -0.013528 0.087405 0.058228 -0.008197
# 5 -0.036440 0.004656 -0.029988 0.058228 0.097696 0.005913
# 6 -0.007189 -0.005777 -0.006348 -0.008197 0.005913 0.032267
#
#
# Mechanical properties :
#
#
# Convention : Reuss Voigt Hill
#
# Bulk Modulus (GPa) = 13.76770 56.22152 34.99461
# Shear Modulus (GPa) = 17.25919 41.04207 29.15063
#
# Velocity S-wave (km/s) = 2.73277 4.21413 3.55154
# Velocity P-wave (km/s) = 3.98932 6.92860 5.65332
#
# Compressibility (1/GPa) = 0.07263378
#
# Stress axis : x y z
#
# Youngs Moduli (GPa) = 37.85533 114.33912 39.65865
#
# Poissons Ratio (x) = 0.62927 -0.53406
# Poissons Ratio (y) = 0.20834 0.07277
# Poissons Ratio (z) = -0.50978 0.20979
#
# Static dielectric constant tensor:
#      x y z
#    x 1.863650 -0.024800 -0.033440 
#    y -0.024800 1.880850 0.026630 
#    z -0.033440 0.026630 1.905710 
# 
# From -- ./inp_files/364556.got.cif
#   From: 2010.05.17/outbox.cif.g08.bks.cpg/sg2_183_cif.got.tgz:364556.got - 2010.06.03 11:33:40.
