data_PCOD9038521
_publ_section_title
;
Structure prediction by ZEFSAII (Michael W. Deem and Ramdas Pophale) SiO2 
 PCOD9038521
Probable space group: P -1
;
_chemical_formula_sum "Si O2"
_cell_formula_units_Z 12
_cell_length_a 5.078882
_cell_length_b 9.985633
_cell_length_c 18.040623
_cell_angle_alpha 143.410943
_cell_angle_beta 67.951942
_cell_angle_gamma 114.974170
_cell_volume 493.257922
_symmetry_space_group_name_H-M "P -1"
_symmetry_group_IT_number 2
_symmetry_cell_setting 'triclinic'
loop_
_space_group_symop_operation_xyz
x,y,z
-x,-y,-z
loop_
_atom_site_type_symbol
_atom_site_label
_atom_site_fract_x
_atom_site_fract_y
_atom_site_fract_z
Si Si1 0.942790 0.621883 0.299329
Si Si2 0.103215 0.178627 0.160240
Si Si3 0.416542 0.079594 0.463250
Si Si4 0.291275 0.739627 0.932111
Si Si5 0.225308 0.014256 0.750629
Si Si6 0.741828 0.277807 0.907401
O O1 0.697683 0.690233 0.407314
O O2 0.847492 0.525988 0.185568
O O3 0.057465 0.409145 0.227267
O O4 0.165267 0.861507 0.371232
O O5 0.456996 0.216103 0.136990
O O6 0.900096 0.153906 0.242837
O O7 0.067010 0.907121 0.019355
O O8 0.500000 0.000000 0.500000
O O9 0.649026 0.098370 0.382182
O O10 0.405169 0.771791 0.017690
O O11 0.478179 0.226445 0.852589
O O12 0.936508 0.093070 0.790167
O O13 0.000000 0.500000 0.000000
#
# Coordination Sequence:
#
# PCOD9038521 Si02
#       6
#     2   2   2   2   2   2
#     4  11  24  43  74  98 137 193 237 287 355 421
#     4  10  24  42  72 105 143 182 230 294 357 425
#     4  11  27  48  69  99 138 192 244 294 345 423
#     4  10  23  41  70 108 144 180 229 288 366 422
#     4  11  27  45  70 104 144 182 243 291 354 420
#     4  11  25  42  71 107 144 186 230 298 353 425
#
# _framework density 24.328044999999999
#
# number of rings (size 3 to 8) (size 9 to 14) (size 15 to 20)
#    0.000    1.333    0.000    3.000   21.000    0.667 
#    0.000    3.333    0.000    0.000    0.000    0.000 
#    0.000    0.000    0.000    0.000    0.000    0.000 
#
# Total GULP energy -66862.811549 kJ/mol
# GULP energy per Si atom -5571.900962 kJ/mol
# Density = 2.427267 g / cm^3
# Si number density = 24.328045 Si / 1000 Ang^3
#
#
#
# Elastic Constant Matrix: (Units=GPa)
#
#
# Indices 1 2 3 4 5 6 
#
# 1 94.2246 20.1612 44.3537 -14.9043 -7.7862 10.7940
# 2 20.1612 86.7091 42.6594 -26.7632 -12.0073 1.6532
# 3 44.3537 42.6594 175.6406 -26.4091 -22.2688 -7.3949
# 4 -14.9043 -26.7632 -26.4091 43.4530 0.9356 -8.2636
# 5 -7.7862 -12.0073 -22.2688 0.9356 31.0288 -7.8397
# 6 10.7940 1.6532 -7.3949 -8.2636 -7.8397 14.4591
#
#
#
# Elastic Compliance Matrix: (Units=1/GPa)
#
#
# Indices 1 2 3 4 5 6 
#
# 1 0.014526 -0.002079 -0.004870 -0.002412 -0.004913 -0.017140
# 2 -0.002079 0.016465 -0.000459 0.010845 0.007667 0.009791
# 3 -0.004870 -0.000459 0.010362 0.007767 0.010655 0.019204
# 4 -0.002412 0.010845 0.007767 0.040231 0.017274 0.036892
# 5 -0.004913 0.007667 0.010655 0.017274 0.052913 0.046802
# 6 -0.017140 0.009791 0.019204 0.036892 0.046802 0.137119
#
#
# Mechanical properties :
#
#
# Convention : Reuss Voigt Hill
#
# Bulk Modulus (GPa) = 37.68482 63.43586 50.56034
# Shear Modulus (GPa) = 16.93320 34.41484 25.67402
#
# Velocity S-wave (km/s) = 2.64111 3.76522 3.25210
# Velocity P-wave (km/s) = 4.98242 6.71076 5.91011
#
# Compressibility (1/GPa) = 0.02653588
#
# Stress axis : x y z
#
# Youngs Moduli (GPa) = 68.84002 60.73642 96.50581
#
# Poissons Ratio (x) = 0.12630 0.47002
# Poissons Ratio (y) = 0.14315 0.04428
# Poissons Ratio (z) = 0.33528 0.02787
#
# Static dielectric constant tensor:
#      x y z
#    x 2.029730 0.035740 0.084780 
#    y 0.035740 2.112050 0.059170 
#    z 0.084780 0.059170 1.973110 
# 
# From -- ./inp_files/583345.got.cif
#   From: 2010.05.17/outbox.cif.g08.bks.cpg/sg2_292_cif.got.tgz:583345.got - 2010.06.03 11:33:40.
