data_PCOD9038925
_publ_section_title
;
Structure prediction by ZEFSAII (Michael W. Deem and Ramdas Pophale) SiO2 
 PCOD9038925
Probable space group: P -1
;
_chemical_formula_sum "Si O2"
_cell_formula_units_Z 16
_cell_length_a 11.095484
_cell_length_b 12.159379
_cell_length_c 8.990298
_cell_angle_alpha 57.472553
_cell_angle_beta 57.429307
_cell_angle_gamma 90.397223
_cell_volume 783.252075
_symmetry_space_group_name_H-M "P -1"
_symmetry_group_IT_number 2
_symmetry_cell_setting 'triclinic'
loop_
_space_group_symop_operation_xyz
x,y,z
-x,-y,-z
loop_
_atom_site_type_symbol
_atom_site_label
_atom_site_fract_x
_atom_site_fract_y
_atom_site_fract_z
Si Si1 0.379422 0.840889 0.751960
Si Si2 0.302336 0.322966 0.648564
Si Si3 0.878976 0.331124 0.197569
Si Si4 0.409890 0.341189 0.233363
Si Si5 0.957260 0.866082 0.825971
Si Si6 0.535670 0.110917 0.030348
Si Si7 0.619140 0.350347 0.568956
Si Si8 0.776779 0.902141 0.645267
O O1 0.224556 0.748779 0.822869
O O2 0.474453 0.739203 0.765493
O O3 0.345740 0.868969 0.926378
O O4 0.500000 0.000000 0.500000
O O5 0.320576 0.327919 0.456635
O O6 0.453164 0.302629 0.628624
O O7 0.317290 0.478962 0.577214
O O8 0.145279 0.204207 0.911431
O O9 0.745186 0.313761 0.420253
O O10 0.988373 0.246421 0.209299
O O11 0.000000 0.500000 0.000000
O O12 0.289934 0.260557 0.241463
O O13 0.500000 0.500000 0.000000
O O14 0.859355 0.914952 0.738553
O O15 0.118723 0.006664 0.626391
O O16 0.367884 0.057922 0.260984
O O17 0.583290 0.265133 0.809627
O O18 0.500000 0.000000 0.000000
#
# Coordination Sequence:
#
# PCOD9038925 Si02
#       8
#     2   2   2   2   2   2   2   2
#     4  11  24  43  68 100 134 180 231 275 338 413
#     4  11  22  39  68  94 128 172 227 275 326 405
#     4  12  24  42  67  98 137 180 214 277 349 400
#     4  11  24  41  70 100 130 173 233 284 333 400
#     4  11  23  42  64  95 137 174 221 271 350 403
#     4  11  22  41  70  98 131 175 234 280 331 403
#     4  11  22  41  64  97 126 175 226 272 330 403
#     4  10  23  42  64  97 134 176 218 280 342 403
#
# _framework density 20.42765
#
# number of rings (size 3 to 8) (size 9 to 14) (size 15 to 20)
#    0.000    1.000    3.750    4.500    3.500    0.500 
#    0.000    4.375    0.000    0.000    0.000    0.000 
#    0.000    0.000    0.000    0.000    0.000    0.000 
#
# Total GULP energy -89218.859554 kJ/mol
# GULP energy per Si atom -5576.178722 kJ/mol
# Density = 2.038116 g / cm^3
# Si number density = 20.427650 Si / 1000 Ang^3
#
#
#
# Elastic Constant Matrix: (Units=GPa)
#
#
# Indices 1 2 3 4 5 6 
#
# 1 53.0565 9.6533 20.0163 2.1516 2.6987 7.0048
# 2 9.6533 76.9160 40.0029 -4.2823 -5.2855 11.0746
# 3 20.0163 40.0029 159.8087 -7.4875 -2.5278 10.7556
# 4 2.1516 -4.2823 -7.4875 47.8772 -0.1839 3.1846
# 5 2.6987 -5.2855 -2.5278 -0.1839 31.3098 0.7319
# 6 7.0048 11.0746 10.7556 3.1846 0.7319 39.6936
#
#
#
# Elastic Compliance Matrix: (Units=1/GPa)
#
#
# Indices 1 2 3 4 5 6 
#
# 1 0.020382 -0.001288 -0.002151 -0.001208 -0.002096 -0.002519
# 2 -0.001288 0.015677 -0.003442 0.001155 0.002565 -0.003354
# 3 -0.002151 -0.003442 0.007492 0.001013 0.000233 -0.000776
# 4 -0.001208 0.001155 0.001013 0.021345 0.000555 -0.002106
# 5 -0.002096 0.002565 0.000233 0.000555 0.032599 -0.001054
# 6 -0.002519 -0.003354 -0.000776 -0.002106 -0.001054 0.026972
#
#
# Mechanical properties :
#
#
# Convention : Reuss Voigt Hill
#
# Bulk Modulus (GPa) = 33.57058 47.68070 40.62564
# Shear Modulus (GPa) = 33.74781 38.45004 36.09892
#
# Velocity S-wave (km/s) = 4.06897 4.34320 4.20832
# Velocity P-wave (km/s) = 6.20846 6.96729 6.59879
#
# Compressibility (1/GPa) = 0.02978799
#
# Stress axis : x y z
#
# Youngs Moduli (GPa) = 49.06353 63.78933 133.47756
#
# Poissons Ratio (x) = 0.08217 0.28706
# Poissons Ratio (y) = 0.06320 0.45949
# Poissons Ratio (z) = 0.10552 0.21959
#
# Static dielectric constant tensor:
#      x y z
#    x 1.777500 0.027430 -0.018390 
#    y 0.027430 1.760640 -0.015960 
#    z -0.018390 -0.015960 1.740630 
# 
# From -- ./inp_files/259418.got.cif
#   From: 2010.05.17/outbox.cif.g08.bks.cpg/sg2_130_cif.got.tgz:259418.got - 2010.06.03 11:33:40.
