data_PCOD9038049
_publ_section_title
;
Structure prediction by ZEFSAII (Michael W. Deem and Ramdas Pophale) SiO2 
 PCOD9038049
Probable space group: P -1
;
_chemical_formula_sum "Si O2"
_cell_formula_units_Z 16
_cell_length_a 13.976626
_cell_length_b 8.465566
_cell_length_c 11.746718
_cell_angle_alpha 71.138986
_cell_angle_beta 29.713102
_cell_angle_gamma 80.451547
_cell_volume 632.051878
_symmetry_space_group_name_H-M "P -1"
_symmetry_group_IT_number 2
_symmetry_cell_setting 'triclinic'
loop_
_space_group_symop_operation_xyz
x,y,z
-x,-y,-z
loop_
_atom_site_type_symbol
_atom_site_label
_atom_site_fract_x
_atom_site_fract_y
_atom_site_fract_z
Si Si1 0.019324 0.157535 0.537524
Si Si2 0.730675 0.031395 0.523914
Si Si3 0.601726 0.909707 0.013209
Si Si4 0.830481 0.303176 0.894683
Si Si5 0.615189 0.559170 0.986616
Si Si6 0.279534 0.513385 0.735803
Si Si7 0.059140 0.590290 0.733499
Si Si8 0.719778 0.107601 0.270373
O O1 0.160655 0.323555 0.292147
O O2 0.872269 0.244507 0.741953
O O3 0.178564 0.102308 0.470148
O O4 0.842243 0.983612 0.728512
O O5 0.826999 0.214322 0.442261
O O6 0.790622 0.029495 0.329838
O O7 0.497387 0.030723 0.784407
O O8 0.537287 0.702637 0.106339
O O9 0.500000 0.000000 0.000000
O O10 0.639683 0.388041 0.067155
O O11 0.011701 0.459547 0.710552
O O12 0.821291 0.152977 0.032396
O O13 0.500000 0.500000 0.000000
O O14 0.500000 0.500000 0.500000
O O15 0.167182 0.495301 0.736642
O O16 0.284377 0.704393 0.725500
O O17 0.146777 0.395752 0.995090
O O18 0.500000 0.000000 0.500000
#
# Coordination Sequence:
#
# PCOD9038049 Si02
#       8
#     2   2   2   2   2   2   2   2
#     4  12  27  47  74 106 144 190 241 301 357 426
#     4  11  25  44  73 105 143 187 243 292 358 431
#     4  12  26  48  78 107 143 190 242 297 365 424
#     4  11  25  44  70 103 147 186 234 294 361 419
#     4  12  28  48  76 108 142 187 245 302 360 427
#     4   9  19  38  63  93 133 185 232 282 342 416
#     4   9  21  39  61  98 137 177 234 288 343 418
#     4  10  23  41  66 100 142 183 232 288 346 432
#
# _framework density 25.314378999999999
#
# number of rings (size 3 to 8) (size 9 to 14) (size 15 to 20)
#    0.000    1.250    1.250    3.750    5.250    8.500 
#    0.000    0.000    0.000    0.000    0.000    0.000 
#    0.000    0.000    0.000    0.000    0.000    0.000 
#
# Total GULP energy -89328.961933 kJ/mol
# GULP energy per Si atom -5583.060121 kJ/mol
# Density = 2.525676 g / cm^3
# Si number density = 25.314379 Si / 1000 Ang^3
#
#
#
# Elastic Constant Matrix: (Units=GPa)
#
#
# Indices 1 2 3 4 5 6 
#
# 1 32.3189 -36.0318 -7.3394 -29.3947 -14.0929 -3.5175
# 2 -36.0318 -1.0700 5.8701 -28.7151 -15.3984 -12.5346
# 3 -7.3394 5.8701 91.5147 -16.3478 -19.3337 -23.5897
# 4 -29.3947 -28.7151 -16.3478 23.6996 -10.0563 -22.2959
# 5 -14.0929 -15.3984 -19.3337 -10.0563 41.4426 -16.3509
# 6 -3.5175 -12.5346 -23.5897 -22.2959 -16.3509 35.9360
#
#
#
# Elastic Compliance Matrix: (Units=1/GPa)
#
#
# Indices 1 2 3 4 5 6 
#
# 1 0.012417 -0.005714 -0.004317 -0.007892 -0.006321 -0.011384
# 2 -0.005714 0.017082 -0.011645 -0.016386 -0.012068 -0.017903
# 3 -0.004317 -0.011645 0.015216 0.002019 0.005434 0.009229
# 4 -0.007892 -0.016386 0.002019 0.012895 -0.004365 0.000852
# 5 -0.006321 -0.012068 0.005434 -0.004365 0.021215 0.005684
# 6 -0.011384 -0.017903 0.009229 0.000852 0.005684 0.029641
#
#
# Mechanical properties :
#
#
# Convention : Reuss Voigt Hill
#
# Bulk Modulus (GPa) = 734.23627 5.30682 369.77154
# Shear Modulus (GPa) = 32.83556 30.89997 31.86777
#
# Velocity S-wave (km/s) = 3.60545 3.49757 3.55192
# Velocity P-wave (km/s) = 17.55019 4.29087 12.77538
#
# Compressibility (1/GPa) = 0.00136196
#
# Stress axis : x y z
#
# Youngs Moduli (GPa) = 80.53185 58.53994 65.72178
#
# Poissons Ratio (x) = 0.33449 0.28374
# Poissons Ratio (y) = 0.46015 0.76536
# Poissons Ratio (z) = 0.34769 0.68172
#
# Static dielectric constant tensor:
#      x y z
#    x 2.062810 0.017380 0.071480 
#    y 0.017380 2.007090 0.042210 
#    z 0.071480 0.042210 2.113960 
# 
# From -- ./inp_files/447058.got.cif
#   From: 2010.05.17/outbox.cif.g08.bks.cpg/sg2_224_cif.got.tgz:447058.got - 2010.06.03 11:33:40.
