data_PCOD9038090
_publ_section_title
;
Structure prediction by ZEFSAII (Michael W. Deem and Ramdas Pophale) SiO2 
 PCOD9038090
Probable space group: P -1
;
_chemical_formula_sum "Si O2"
_cell_formula_units_Z 16
_cell_length_a 19.272876
_cell_length_b 7.942490
_cell_length_c 6.499459
_cell_angle_alpha 113.262919
_cell_angle_beta 109.162022
_cell_angle_gamma 58.637482
_cell_volume 770.868792
_symmetry_space_group_name_H-M "P -1"
_symmetry_group_IT_number 2
_symmetry_cell_setting 'triclinic'
loop_
_space_group_symop_operation_xyz
x,y,z
-x,-y,-z
loop_
_atom_site_type_symbol
_atom_site_label
_atom_site_fract_x
_atom_site_fract_y
_atom_site_fract_z
Si Si1 0.093849 0.846559 0.949321
Si Si2 0.248184 0.820835 0.362590
Si Si3 0.429120 0.459008 0.308803
Si Si4 0.906529 0.568777 0.391247
Si Si5 0.836742 0.971037 0.232040
Si Si6 0.220240 0.208691 0.289286
Si Si7 0.486655 0.155941 0.876244
Si Si8 0.387866 0.161975 0.400091
O O1 0.102943 0.617792 0.816748
O O2 0.109351 0.940858 0.797206
O O3 0.167096 0.831392 0.169169
O O4 0.000000 0.000000 0.000000
O O5 0.335494 0.635408 0.303653
O O6 0.227387 0.850006 0.598502
O O7 0.257019 0.020837 0.394531
O O8 0.500000 0.500000 0.500000
O O9 0.424265 0.288014 0.368717
O O10 0.457641 0.371161 0.065127
O O11 0.880084 0.774425 0.328829
O O12 0.856571 0.622995 0.583331
O O13 0.000000 0.500000 0.500000
O O14 0.799756 0.884345 0.976715
O O15 0.290737 0.272144 0.339000
O O16 0.416981 0.155177 0.657444
O O17 0.569143 0.063413 0.772526
O O18 0.500000 0.000000 0.000000
#
# Coordination Sequence:
#
# PCOD9038090 Si02
#       8
#     2   2   2   2   2   2   2   2
#     4  11  25  45  71 101 136 176 224 277 333 407
#     4  10  25  42  64  98 135 173 222 275 336 396
#     4  11  26  40  63  97 135 171 220 277 333 394
#     4  11  25  43  69 101 135 175 223 274 336 406
#     4  10  24  45  66  98 138 178 215 279 337 390
#     4  10  24  41  68  94 128 173 225 274 325 403
#     4   9  22  41  62  87 125 164 218 268 324 389
#     4  10  23  41  66  93 123 176 224 266 340 390
#
# _framework density 20.755800000000001
#
# number of rings (size 3 to 8) (size 9 to 14) (size 15 to 20)
#    0.000    1.750    0.000    2.250   12.250    7.500 
#    0.000    0.000    0.000    0.000    0.000    0.000 
#    0.000    0.000    0.000    0.000    0.000    0.000 
#
# Total GULP energy -89262.281741 kJ/mol
# GULP energy per Si atom -5578.892609 kJ/mol
# Density = 2.070856 g / cm^3
# Si number density = 20.755800 Si / 1000 Ang^3
#
#
#
# Elastic Constant Matrix: (Units=GPa)
#
#
# Indices 1 2 3 4 5 6 
#
# 1 138.1737 34.9792 59.9191 15.0365 -4.6837 -21.2863
# 2 34.9792 68.5633 30.4077 17.2129 -5.5140 -19.1692
# 3 59.9191 30.4077 123.6155 21.9656 -23.2060 -24.6157
# 4 15.0365 17.2129 21.9656 33.2685 -1.3890 -7.0088
# 5 -4.6837 -5.5140 -23.2060 -1.3890 26.6816 4.3688
# 6 -21.2863 -19.1692 -24.6157 -7.0088 4.3688 43.0151
#
#
#
# Elastic Compliance Matrix: (Units=1/GPa)
#
#
# Indices 1 2 3 4 5 6 
#
# 1 0.010017 -0.003031 -0.004399 0.000120 -0.002918 0.001404
# 2 -0.003031 0.019979 -0.000724 -0.007231 0.001667 0.005642
# 3 -0.004399 -0.000724 0.014096 -0.005756 0.010454 0.003567
# 4 0.000120 -0.007231 -0.005756 0.037376 -0.004549 0.000095
# 5 -0.002918 0.001667 0.010454 -0.004549 0.046191 -0.000151
# 6 0.001404 0.005642 0.003567 0.000095 -0.000151 0.028529
#
#
# Mechanical properties :
#
#
# Convention : Reuss Voigt Hill
#
# Bulk Modulus (GPa) = 35.99343 64.55160 50.27251
# Shear Modulus (GPa) = 27.50915 34.26283 30.88599
#
# Velocity S-wave (km/s) = 3.64452 4.06736 3.86173
# Velocity P-wave (km/s) = 5.92360 7.29561 6.64511
#
# Compressibility (1/GPa) = 0.02778285
#
# Stress axis : x y z
#
# Youngs Moduli (GPa) = 99.83299 50.05163 70.94427
#
# Poissons Ratio (x) = 0.15172 0.31208
# Poissons Ratio (y) = 0.30263 0.05137
# Poissons Ratio (z) = 0.43916 0.03624
#
# Static dielectric constant tensor:
#      x y z
#    x 1.741110 -0.000100 -0.020650 
#    y -0.000100 1.773360 0.041100 
#    z -0.020650 0.041100 1.760250 
# 
# From -- ./inp_files/107666.got.cif
#   From: 2010.05.17/outbox.cif.g08.bks.cpg/sg2_54_cif.got.tgz:107666.got - 2010.06.03 11:33:40.
