data_PCOD9038924
_publ_section_title
;
Structure prediction by ZEFSAII (Michael W. Deem and Ramdas Pophale) SiO2 
 PCOD9038924
Probable space group: P -1
;
_chemical_formula_sum "Si O2"
_cell_formula_units_Z 16
_cell_length_a 20.961863
_cell_length_b 6.761988
_cell_length_c 7.910828
_cell_angle_alpha 120.435427
_cell_angle_beta 54.085772
_cell_angle_gamma 89.427355
_cell_volume 703.199116
_symmetry_space_group_name_H-M "P -1"
_symmetry_group_IT_number 2
_symmetry_cell_setting 'triclinic'
loop_
_space_group_symop_operation_xyz
x,y,z
-x,-y,-z
loop_
_atom_site_type_symbol
_atom_site_label
_atom_site_fract_x
_atom_site_fract_y
_atom_site_fract_z
Si Si1 0.593363 0.269620 0.294846
Si Si2 0.041833 0.338152 0.535950
Si Si3 0.433160 0.168847 0.034536
Si Si4 0.112281 0.769541 0.246244
Si Si5 0.910252 0.221553 0.307178
Si Si6 0.302568 0.453015 0.881831
Si Si7 0.283482 0.630125 0.369280
Si Si8 0.599677 0.128744 0.605243
O O1 0.500000 0.500000 0.500000
O O2 0.592476 0.021725 0.109917
O O3 0.605926 0.228272 0.454776
O O4 0.665281 0.340785 0.135640
O O5 0.959909 0.317856 0.746826
O O6 0.000000 0.500000 0.500000
O O7 0.087179 0.506218 0.613801
O O8 0.104065 0.033664 0.291161
O O9 0.497469 0.253431 0.866826
O O10 0.342336 0.412786 0.317760
O O11 0.500000 0.000000 0.000000
O O12 0.094366 0.816143 0.498078
O O13 0.207318 0.538342 0.988161
O O14 0.820265 0.230837 0.376167
O O15 0.000000 0.000000 0.000000
O O16 0.294326 0.481177 0.109874
O O17 0.368351 0.173765 0.596218
O O18 0.333252 0.811167 0.358495
#
# Coordination Sequence:
#
# PCOD9038924 Si02
#       8
#     2   2   2   2   2   2   2   2
#     4  12  23  41  68  98 132 175 225 275 334 397
#     4   9  19  40  65  90 125 165 211 270 329 387
#     4  12  24  44  69  98 140 183 222 279 336 399
#     4   9  21  40  66  96 124 172 220 267 332 404
#     4  10  23  42  64  97 133 170 218 275 337 396
#     4  11  24  43  67  98 134 177 225 275 335 402
#     4  11  25  45  67  98 137 178 226 281 337 401
#     4  12  25  45  67  99 138 176 226 278 334 399
#
# _framework density 22.753157000000002
#
# number of rings (size 3 to 8) (size 9 to 14) (size 15 to 20)
#    0.000    1.250    2.500    3.000    3.500    1.500 
#    4.500    0.000    0.000    0.000    0.000    0.000 
#    0.000    0.000    0.000    0.000    0.000    0.000 
#
# Total GULP energy -89375.366453 kJ/mol
# GULP energy per Si atom -5585.960403 kJ/mol
# Density = 2.270137 g / cm^3
# Si number density = 22.753157 Si / 1000 Ang^3
#
#
#
# Elastic Constant Matrix: (Units=GPa)
#
#
# Indices 1 2 3 4 5 6 
#
# 1 98.1614 24.3101 18.6077 7.0859 -18.3608 19.1079
# 2 24.3101 105.3613 19.2425 20.6348 -1.8839 4.7450
# 3 18.6077 19.2425 62.3336 2.5797 -21.6227 2.2714
# 4 7.0859 20.6348 2.5797 23.2290 7.1661 4.9127
# 5 -18.3608 -1.8839 -21.6227 7.1661 36.8367 3.2147
# 6 19.1079 4.7450 2.2714 4.9127 3.2147 44.8629
#
#
#
# Elastic Compliance Matrix: (Units=1/GPa)
#
#
# Indices 1 2 3 4 5 6 
#
# 1 0.013531 -0.001971 -0.000466 -0.003446 0.007537 -0.005694
# 2 -0.001971 0.012448 -0.002901 -0.010267 -0.000121 0.000803
# 3 -0.000466 -0.002901 0.021860 -0.003548 0.013243 -0.001162
# 4 -0.003446 -0.010267 -0.003548 0.058970 -0.015570 -0.002609
# 5 0.007537 -0.000121 0.013243 -0.015570 0.042152 -0.005183
# 6 -0.005694 0.000803 -0.001162 -0.002609 -0.005183 0.025346
#
#
# Mechanical properties :
#
#
# Convention : Reuss Voigt Hill
#
# Bulk Modulus (GPa) = 26.90819 43.35300 35.13060
# Shear Modulus (GPa) = 25.33314 34.56546 29.94930
#
# Velocity S-wave (km/s) = 3.34037 3.90186 3.63198
# Velocity P-wave (km/s) = 5.17003 6.27649 5.74994
#
# Compressibility (1/GPa) = 0.03716340
#
# Stress axis : x y z
#
# Youngs Moduli (GPa) = 73.90689 80.33367 45.74518
#
# Poissons Ratio (x) = 0.15831 0.02133
# Poissons Ratio (y) = 0.14565 0.13270
# Poissons Ratio (z) = 0.03446 0.23303
#
# Static dielectric constant tensor:
#      x y z
#    x 1.893540 0.018360 0.023620 
#    y 0.018360 1.895230 -0.016850 
#    z 0.023620 -0.016850 1.831020 
# 
# From -- ./inp_files/48143.got.cif
#   From: 2010.05.17/outbox.cif.g08.bks.cpg/sg2_25_cif.got.tgz:48143.got - 2010.06.03 11:33:40.
