data_PCOD9038028
_publ_section_title
;
Structure prediction by ZEFSAII (Michael W. Deem and Ramdas Pophale) SiO2 
 PCOD9038028
Probable space group: P -1
;
_chemical_formula_sum "Si O2"
_cell_formula_units_Z 14
_cell_length_a 14.646479
_cell_length_b 14.774936
_cell_length_c 9.081335
_cell_angle_alpha 50.643574
_cell_angle_beta 66.963574
_cell_angle_gamma 29.795759
_cell_volume 687.386918
_symmetry_space_group_name_H-M "P -1"
_symmetry_group_IT_number 2
_symmetry_cell_setting 'triclinic'
loop_
_space_group_symop_operation_xyz
x,y,z
-x,-y,-z
loop_
_atom_site_type_symbol
_atom_site_label
_atom_site_fract_x
_atom_site_fract_y
_atom_site_fract_z
Si Si1 0.234405 0.524140 0.643044
Si Si2 0.198911 0.224134 0.614639
Si Si3 0.489266 0.375033 0.176735
Si Si4 0.585340 0.215055 0.967481
Si Si5 0.475440 0.094232 0.765501
Si Si6 0.795875 0.248457 0.795132
Si Si7 0.189008 0.130196 0.394811
O O1 0.427776 0.341743 0.812182
O O2 0.307237 0.363112 0.634050
O O3 0.174717 0.708642 0.416259
O O4 0.042388 0.664673 0.699592
O O5 0.388562 0.103549 0.679853
O O6 0.197071 0.199354 0.467612
O O7 0.000000 0.500000 0.500000
O O8 0.231020 0.065236 0.838862
O O9 0.316678 0.550750 0.225511
O O10 0.689113 0.114062 0.390875
O O11 0.500000 0.500000 0.000000
O O12 0.468860 0.332246 0.077341
O O13 0.666913 0.262305 0.839582
O O14 0.684513 0.936894 0.743300
O O15 0.500000 0.000000 0.000000
O O16 0.000000 0.000000 0.000000
#
# Coordination Sequence:
#
# PCOD9038028 Si02
#       7
#     2   2   2   2   2   2   2
#     4  12  23  44  65 100 136 171 219 277 340 387
#     4  11  22  43  69  99 132 177 228 266 327 397
#     4   9  19  40  64  92 127 167 220 266 319 397
#     4  10  23  41  65  98 135 173 218 276 330 391
#     4  12  25  45  66  97 137 175 223 280 329 392
#     4  11  22  42  70  97 131 175 222 272 329 399
#     4  11  24  43  68  95 134 178 221 273 332 395
#
# _framework density 20.366987000000002
#
# number of rings (size 3 to 8) (size 9 to 14) (size 15 to 20)
#    0.000    1.143    4.286    3.429    0.000    0.571 
#    2.571    3.571    0.000    0.000    0.000    0.000 
#    0.000    0.000    0.000    0.000    0.000    0.000 
#
# Total GULP energy -78151.847743 kJ/mol
# GULP energy per Si atom -5582.274839 kJ/mol
# Density = 2.032063 g / cm^3
# Si number density = 20.366987 Si / 1000 Ang^3
#
#
#
# Elastic Constant Matrix: (Units=GPa)
#
#
# Indices 1 2 3 4 5 6 
#
# 1 83.5617 29.7950 27.5205 -0.4267 -1.8415 -8.7280
# 2 29.7950 107.1122 35.0039 -10.8718 -15.6814 -15.1362
# 3 27.5205 35.0039 99.9057 0.5350 -14.8962 -5.8750
# 4 -0.4267 -10.8718 0.5350 30.1453 -1.4493 -12.9526
# 5 -1.8415 -15.6814 -14.8962 -1.4493 32.1178 -1.6871
# 6 -8.7280 -15.1362 -5.8750 -12.9526 -1.6871 35.7130
#
#
#
# Elastic Compliance Matrix: (Units=1/GPa)
#
#
# Indices 1 2 3 4 5 6 
#
# 1 0.014170 -0.003076 -0.003043 -0.000334 -0.002040 0.001441
# 2 -0.003076 0.014081 -0.002708 0.008958 0.006284 0.008317
# 3 -0.003043 -0.002708 0.012430 -0.001050 0.004219 -0.000028
# 4 -0.000334 0.008958 -0.001050 0.045510 0.006992 0.020379
# 5 -0.002040 0.006284 0.004219 0.006992 0.036733 0.007130
# 6 0.001441 0.008317 -0.000028 0.020379 0.007130 0.039601
#
#
# Mechanical properties :
#
#
# Convention : Reuss Voigt Hill
#
# Bulk Modulus (GPa) = 43.42927 52.80205 48.11566
# Shear Modulus (GPa) = 26.61618 32.81258 29.71438
#
# Velocity S-wave (km/s) = 3.61893 4.01816 3.82376
# Velocity P-wave (km/s) = 6.23152 6.89269 6.57043
#
# Compressibility (1/GPa) = 0.02302595
#
# Stress axis : x y z
#
# Youngs Moduli (GPa) = 70.57082 71.01700 80.45232
#
# Poissons Ratio (x) = 0.21845 0.24484
# Poissons Ratio (y) = 0.21707 0.21789
# Poissons Ratio (z) = 0.21477 0.19233
#
# Static dielectric constant tensor:
#      x y z
#    x 1.825440 -0.012560 -0.101060 
#    y -0.012560 1.732870 0.016730 
#    z -0.101060 0.016730 1.791860 
# 
# From -- ./inp_files/187993.got.cif
#   From: 2010.05.17/outbox.cif.g08.bks.cpg/sg2_94_cif.got.tgz:187993.got - 2010.06.03 11:33:40.
