data_PCOD9038545
_publ_section_title
;
Structure prediction by ZEFSAII (Michael W. Deem and Ramdas Pophale) SiO2 
 PCOD9038545
Probable space group: P -1
;
_chemical_formula_sum "Si O2"
_cell_formula_units_Z 14
_cell_length_a 12.093808
_cell_length_b 7.832049
_cell_length_c 8.510476
_cell_angle_alpha 126.426496
_cell_angle_beta 100.538709
_cell_angle_gamma 74.651116
_cell_volume 625.130189
_symmetry_space_group_name_H-M "P -1"
_symmetry_group_IT_number 2
_symmetry_cell_setting 'triclinic'
loop_
_space_group_symop_operation_xyz
x,y,z
-x,-y,-z
loop_
_atom_site_type_symbol
_atom_site_label
_atom_site_fract_x
_atom_site_fract_y
_atom_site_fract_z
Si Si1 0.455240 0.079917 0.285015
Si Si2 0.644051 0.814412 0.017104
Si Si3 0.769117 0.916292 0.574638
Si Si4 0.001680 0.956995 0.792464
Si Si5 0.677724 0.189753 0.406045
Si Si6 0.108375 0.350155 0.025836
Si Si7 0.151228 0.514085 0.470556
O O1 0.352705 0.041792 0.345526
O O2 0.545287 0.223735 0.448557
O O3 0.539350 0.851948 0.133504
O O4 0.401233 0.194559 0.174347
O O5 0.673638 0.055838 0.170747
O O6 0.760938 0.646502 0.990092
O O7 0.813549 0.660188 0.477233
O O8 0.871650 0.016942 0.730232
O O9 0.746586 0.019505 0.454948
O O10 0.057828 0.717252 0.617685
O O11 0.081990 0.117910 0.845846
O O12 0.000000 0.000000 0.000000
O O13 0.739909 0.385747 0.500273
O O14 0.111114 0.400595 0.241858
O O15 0.000000 0.500000 0.000000
#
# Coordination Sequence:
#
# PCOD9038545 Si02
#       7
#     2   2   2   2   2   2   2
#     4   9  19  42  70  95 140 183 222 284 348 400
#     4   9  19  42  71  95 139 188 217 285 354 394
#     4  12  24  41  70 103 137 180 236 279 344 413
#     4  12  25  45  66  98 142 181 227 288 342 405
#     4  10  23  41  70  98 136 177 231 283 338 403
#     4  12  25  43  71 101 138 181 233 283 343 416
#     4  12  26  44  71 102 137 186 231 278 356 409
#
# _framework density 22.395333000000001
#
# number of rings (size 3 to 8) (size 9 to 14) (size 15 to 20)
#    0.857    0.286    4.286    1.714    2.000    1.714 
#    0.000    0.000    0.000    3.429    0.000    0.000 
#    0.000    0.000    0.000    0.000    0.000    0.000 
#
# Total GULP energy -78032.613932 kJ/mol
# GULP energy per Si atom -5573.758138 kJ/mol
# Density = 2.234436 g / cm^3
# Si number density = 22.395333 Si / 1000 Ang^3
#
#
#
# Elastic Constant Matrix: (Units=GPa)
#
#
# Indices 1 2 3 4 5 6 
#
# 1 178.3668 30.4686 45.4973 -4.2896 5.0773 -17.7630
# 2 30.4686 64.7744 27.2276 2.9611 18.6919 -15.7666
# 3 45.4973 27.2276 74.7030 9.9277 17.8556 0.7725
# 4 -4.2896 2.9611 9.9277 23.6937 -13.0458 1.0416
# 5 5.0773 18.6919 17.8556 -13.0458 46.8907 2.1147
# 6 -17.7630 -15.7666 0.7725 1.0416 2.1147 35.4204
#
#
#
# Elastic Compliance Matrix: (Units=1/GPa)
#
#
# Indices 1 2 3 4 5 6 
#
# 1 0.007680 -0.001856 -0.005655 0.005830 0.003559 0.002765
# 2 -0.001856 0.024064 -0.004221 -0.007792 -0.010436 0.010725
# 3 -0.005655 -0.004221 0.023091 -0.015903 -0.010737 -0.004110
# 4 0.005830 -0.007792 -0.015903 0.065957 0.027050 -0.003753
# 5 0.003559 -0.010436 -0.010737 0.027050 0.036969 -0.005629
# 6 0.002765 0.010725 -0.004110 -0.003753 -0.005629 0.034929
#
#
# Mechanical properties :
#
#
# Convention : Reuss Voigt Hill
#
# Bulk Modulus (GPa) = 31.87723 58.24792 45.06257
# Shear Modulus (GPa) = 22.06417 35.51100 28.78758
#
# Velocity S-wave (km/s) = 3.14222 3.98633 3.58918
# Velocity P-wave (km/s) = 5.23731 6.87410 6.11076
#
# Compressibility (1/GPa) = 0.03137036
#
# Stress axis : x y z
#
# Youngs Moduli (GPa) = 130.20483 41.55617 43.30609
#
# Poissons Ratio (x) = 0.07713 0.24490
# Poissons Ratio (y) = 0.24167 0.18281
# Poissons Ratio (z) = 0.73632 0.17542
#
# Static dielectric constant tensor:
#      x y z
#    x 1.919870 -0.005890 -0.029930 
#    y -0.005890 1.852620 0.018420 
#    z -0.029930 0.018420 1.839340 
# 
# From -- ./inp_files/241494.got.cif
#   From: 2010.05.17/outbox.cif.g08.bks.cpg/sg2_121_cif.got.tgz:241494.got - 2010.06.03 11:33:40.
