data_PCOD9038999
_publ_section_title
;
Structure prediction by ZEFSAII (Michael W. Deem and Ramdas Pophale) SiO2 
 PCOD9038999
Probable space group: P -1
;
_chemical_formula_sum "Si O2"
_cell_formula_units_Z 16
_cell_length_a 13.642009
_cell_length_b 13.197117
_cell_length_c 13.921102
_cell_angle_alpha 130.023138
_cell_angle_beta 48.186001
_cell_angle_gamma 158.824361
_cell_volume 672.628032
_symmetry_space_group_name_H-M "P -1"
_symmetry_group_IT_number 2
_symmetry_cell_setting 'triclinic'
loop_
_space_group_symop_operation_xyz
x,y,z
-x,-y,-z
loop_
_atom_site_type_symbol
_atom_site_label
_atom_site_fract_x
_atom_site_fract_y
_atom_site_fract_z
Si Si1 0.334198 0.139023 0.295458
Si Si2 0.830351 0.997850 0.958392
Si Si3 0.398986 0.195690 0.508817
Si Si4 0.343215 0.724038 0.329694
Si Si5 0.317439 0.463951 0.071428
Si Si6 0.042028 0.380021 0.885376
Si Si7 0.786770 0.316442 0.390737
Si Si8 0.181808 0.243424 0.327581
O O1 0.374524 0.212603 0.424348
O O2 0.184042 0.129133 0.336365
O O3 0.635135 0.373955 0.194024
O O4 0.138078 0.837920 0.219285
O O5 0.925682 0.194502 0.940397
O O6 0.839150 0.862265 0.818536
O O7 0.039705 0.184134 0.024823
O O8 0.511967 0.728532 0.036984
O O9 0.606681 0.256068 0.409461
O O10 0.540316 0.428599 0.629016
O O11 0.085267 0.899056 0.571849
O O12 0.286566 0.522109 0.222617
O O13 0.277762 0.697459 0.466334
O O14 0.116465 0.600701 0.338086
O O15 0.649865 0.050356 0.307022
O O16 0.500000 0.500000 0.000000
O O17 0.000000 0.500000 0.000000
#
# Coordination Sequence:
#
# PCOD9038999 Si02
#       8
#     2   2   2   2   2   2   2   2
#     4  11  23  41  63  98 134 168 224 269 329 392
#     4  11  25  44  64  99 133 173 223 271 341 392
#     4  12  23  39  67  97 124 174 224 263 327 397
#     4  10  23  44  64  90 137 158 217 274 334 387
#     4  12  26  44  70 101 130 177 226 281 332 396
#     4  11  24  44  68  95 134 183 217 272 335 402
#     4  10  23  42  65  95 124 177 206 271 337 392
#     4  11  23  40  63  92 138 171 208 277 330 394
#
# _framework density 23.787292999999998
#
# number of rings (size 3 to 8) (size 9 to 14) (size 15 to 20)
#    0.000    1.000    0.000    7.500    3.500    3.000 
#    0.000    0.000    0.000    0.000    0.000    0.000 
#    0.000    0.000    0.000    0.000    0.000    0.000 
#
# Total GULP energy -89549.249768 kJ/mol
# GULP energy per Si atom -5596.828111 kJ/mol
# Density = 2.373315 g / cm^3
# Si number density = 23.787293 Si / 1000 Ang^3
#
#
#
# Elastic Constant Matrix: (Units=GPa)
#
#
# Indices 1 2 3 4 5 6 
#
# 1 56.7575 12.7374 24.9156 14.2746 -8.7939 8.8742
# 2 12.7374 116.5318 31.5734 15.7645 7.2377 16.8354
# 3 24.9156 31.5734 87.1856 26.3754 -6.7682 11.1736
# 4 14.2746 15.7645 26.3754 45.8245 5.8764 2.4794
# 5 -8.7939 7.2377 -6.7682 5.8764 32.2764 4.7214
# 6 8.8742 16.8354 11.1736 2.4794 4.7214 31.3926
#
#
#
# Elastic Compliance Matrix: (Units=1/GPa)
#
#
# Indices 1 2 3 4 5 6 
#
# 1 0.022620 -0.000464 -0.003289 -0.005641 0.007430 -0.005647
# 2 -0.000464 0.010288 -0.002892 -0.001230 -0.002242 -0.003922
# 3 -0.003289 -0.002892 0.016794 -0.008127 0.005288 -0.003650
# 4 -0.005641 -0.001230 -0.008127 0.029605 -0.008963 0.004157
# 5 0.007430 -0.002242 0.005288 -0.008963 0.037376 -0.007693
# 6 -0.005647 -0.003922 -0.003650 0.004157 -0.007693 0.037682
#
#
# Mechanical properties :
#
#
# Convention : Reuss Voigt Hill
#
# Bulk Modulus (GPa) = 27.46443 44.32529 35.89486
# Shear Modulus (GPa) = 27.80983 34.64859 31.22921
#
# Velocity S-wave (km/s) = 3.42293 3.82068 3.62726
# Velocity P-wave (km/s) = 5.21467 6.17560 5.71536
#
# Compressibility (1/GPa) = 0.03641073
#
# Stress axis : x y z
#
# Youngs Moduli (GPa) = 44.20960 97.20001 59.54465
#
# Poissons Ratio (x) = 0.04509 0.19586
# Poissons Ratio (y) = 0.02051 0.17222
# Poissons Ratio (z) = 0.14542 0.28114
#
# Static dielectric constant tensor:
#      x y z
#    x 1.914110 -0.031710 -0.004200 
#    y -0.031710 1.871560 0.001240 
#    z -0.004200 0.001240 1.949730 
# 
# From -- ./inp_files/534032.got.cif
#   From: 2010.05.17/outbox.cif.g08.bks.cpg/sg2_268_cif.got.tgz:534032.got - 2010.06.03 11:33:40.
