data_PCOD9038293
_publ_section_title
;
Structure prediction by ZEFSAII (Michael W. Deem and Ramdas Pophale) SiO2 
 PCOD9038293
Probable space group: P -1
;
_chemical_formula_sum "Si O2"
_cell_formula_units_Z 14
_cell_length_a 7.812307
_cell_length_b 14.145555
_cell_length_c 8.916020
_cell_angle_alpha 50.174138
_cell_angle_beta 107.477224
_cell_angle_gamma 133.346044
_cell_volume 532.906885
_symmetry_space_group_name_H-M "P -1"
_symmetry_group_IT_number 2
_symmetry_cell_setting 'triclinic'
loop_
_space_group_symop_operation_xyz
x,y,z
-x,-y,-z
loop_
_atom_site_type_symbol
_atom_site_label
_atom_site_fract_x
_atom_site_fract_y
_atom_site_fract_z
Si Si1 0.474448 0.170577 0.248646
Si Si2 0.503964 0.295873 0.450985
Si Si3 0.841800 0.500037 0.607162
Si Si4 0.037163 0.664103 0.971541
Si Si5 0.439365 0.547224 0.141422
Si Si6 0.248444 0.890172 0.258758
Si Si7 0.238068 0.991131 0.841855
O O1 0.510793 0.213488 0.389005
O O2 0.301308 0.982886 0.335104
O O3 0.393527 0.263456 0.061086
O O4 0.729473 0.252679 0.155707
O O5 0.711412 0.389988 0.536746
O O6 0.513912 0.441320 0.251710
O O7 0.256292 0.136239 0.631439
O O8 0.634546 0.461342 0.698691
O O9 0.950251 0.436301 0.796751
O O10 0.030051 0.694725 0.421576
O O11 0.065699 0.810983 0.903153
O O12 0.802837 0.549255 0.923932
O O13 0.492272 0.936676 0.209562
O O14 0.202002 0.966124 0.035372
#
# Coordination Sequence:
#
# PCOD9038293 Si02
#       7
#     2   2   2   2   2   2   2
#     4  10  23  45  69  99 137 180 223 284 336 401
#     4  12  26  43  72 101 142 176 225 277 352 395
#     4  11  24  44  76  98 129 185 236 274 328 411
#     4  10  24  46  72  99 137 176 235 277 334 401
#     4  11  25  47  66 101 142 182 217 282 343 409
#     4  10  23  44  69 102 134 176 234 280 332 397
#     4  10  23  41  68 100 140 174 224 287 334 396
#
# _framework density 26.271007000000001
#
# number of rings (size 3 to 8) (size 9 to 14) (size 15 to 20)
#    0.000    1.429    0.000    6.000    8.000    2.857 
#    2.571    1.429    0.000    0.000    0.000    0.000 
#    0.000    0.000    0.000    0.000    0.000    0.000 
#
# Total GULP energy -78512.832968 kJ/mol
# GULP energy per Si atom -5608.059498 kJ/mol
# Density = 2.621121 g / cm^3
# Si number density = 26.271007 Si / 1000 Ang^3
#
#
#
# Elastic Constant Matrix: (Units=GPa)
#
#
# Indices 1 2 3 4 5 6 
#
# 1 73.7165 37.5391 27.8401 12.8208 5.5510 -15.0600
# 2 37.5391 231.4768 77.1976 2.0982 0.2678 -30.5389
# 3 27.8401 77.1976 171.1754 4.1396 -5.8687 -16.0282
# 4 12.8208 2.0982 4.1396 59.5129 -9.3779 -2.1568
# 5 5.5510 0.2678 -5.8687 -9.3779 36.7493 0.9947
# 6 -15.0600 -30.5389 -16.0282 -2.1568 0.9947 21.8786
#
#
#
# Elastic Compliance Matrix: (Units=1/GPa)
#
#
# Indices 1 2 3 4 5 6 
#
# 1 0.017596 -0.001070 -0.001558 -0.003964 -0.004162 0.009277
# 2 -0.001070 0.005959 -0.001951 0.000337 -0.000275 0.006198
# 3 -0.001558 -0.001951 0.007149 0.000178 0.001399 0.001396
# 4 -0.003964 0.000337 0.000178 0.018456 0.005349 -0.000551
# 5 -0.004162 -0.000275 0.001399 0.005349 0.029513 -0.003038
# 6 0.009277 0.006198 0.001396 -0.000551 -0.003038 0.061851
#
#
# Mechanical properties :
#
#
# Convention : Reuss Voigt Hill
#
# Bulk Modulus (GPa) = 46.40557 84.61360 65.50958
# Shear Modulus (GPa) = 31.87477 45.88096 38.87786
#
# Velocity S-wave (km/s) = 3.48703 4.18359 3.85109
# Velocity P-wave (km/s) = 5.82366 7.45751 6.69065
#
# Compressibility (1/GPa) = 0.02154914
#
# Stress axis : x y z
#
# Youngs Moduli (GPa) = 56.82951 167.81000 139.87031
#
# Poissons Ratio (x) = 0.17947 0.21788
# Poissons Ratio (y) = 0.06078 0.27285
# Poissons Ratio (z) = 0.08853 0.32735
#
# Static dielectric constant tensor:
#      x y z
#    x 2.188840 0.005370 0.032760 
#    y 0.005370 1.978620 -0.009850 
#    z 0.032760 -0.009850 2.089040 
# 
# From -- ./inp_files/267157.got.cif
#   From: 2010.05.17/outbox.cif.g08.bks.cpg/sg2_134_cif.got.tgz:267157.got - 2010.06.03 11:33:40.
