data_PCOD9038993
_publ_section_title
;
Structure prediction by ZEFSAII (Michael W. Deem and Ramdas Pophale) SiO2 
 PCOD9038993
Probable space group: P -1
;
_chemical_formula_sum "Si O2"
_cell_formula_units_Z 10
_cell_length_a 20.283177
_cell_length_b 5.101767
_cell_length_c 14.059044
_cell_angle_alpha 121.352630
_cell_angle_beta 157.912784
_cell_angle_gamma 70.423136
_cell_volume 415.301218
_symmetry_space_group_name_H-M "P -1"
_symmetry_group_IT_number 2
_symmetry_cell_setting 'triclinic'
loop_
_space_group_symop_operation_xyz
x,y,z
-x,-y,-z
loop_
_atom_site_type_symbol
_atom_site_label
_atom_site_fract_x
_atom_site_fract_y
_atom_site_fract_z
Si Si1 0.886485 0.591229 0.485824
Si Si2 0.630493 0.394704 0.272740
Si Si3 0.269558 0.235116 0.874910
Si Si4 0.273555 0.714796 0.132936
Si Si5 0.011419 0.642358 0.938800
O O1 0.729876 0.624944 0.356006
O O2 0.867334 0.717688 0.379862
O O3 0.801751 0.173804 0.290690
O O4 0.105530 0.773949 0.859463
O O5 0.815712 0.404829 0.576203
O O6 0.488938 0.466692 0.167612
O O7 0.500000 0.000000 0.000000
O O8 0.268301 0.396573 0.005672
O O9 0.500000 0.000000 0.500000
O O10 0.188225 0.655168 0.114118
O O11 0.000000 0.500000 0.000000
O O12 0.000000 0.000000 0.000000
#
# Coordination Sequence:
#
# PCOD9038993 Si02
#       5
#     2   2   2   2   2
#     4  10  23  42  65  94 132 172 212 262 324 389
#     4   9  21  40  67  96 127 170 218 263 319 388
#     4  11  22  42  66  96 129 168 215 270 322 381
#     4  11  25  43  68 100 133 172 219 272 327 383
#     4  11  26  47  67  94 134 176 217 267 328 393
#
# _framework density 24.07891
#
# number of rings (size 3 to 8) (size 9 to 14) (size 15 to 20)
#    0.000    1.600    0.000    3.000    0.000   17.600 
#    0.000    8.000    0.000    0.000    0.000    0.000 
#    0.000    0.000    0.000    0.000    0.000    0.000 
#
# Total GULP energy -55923.849382 kJ/mol
# GULP energy per Si atom -5592.384938 kJ/mol
# Density = 2.402410 g / cm^3
# Si number density = 24.078910 Si / 1000 Ang^3
#
#
#
# Elastic Constant Matrix: (Units=GPa)
#
#
# Indices 1 2 3 4 5 6 
#
# 1 218.1549 55.8472 59.2517 6.8260 22.8280 -9.6440
# 2 55.8472 115.6383 18.0460 13.2012 -4.4957 11.9374
# 3 59.2517 18.0460 174.0723 20.5599 29.9786 -3.5705
# 4 6.8260 13.2012 20.5599 20.2492 -12.6123 -2.6722
# 5 22.8280 -4.4957 29.9786 -12.6123 45.7292 -11.8433
# 6 -9.6440 11.9374 -3.5705 -2.6722 -11.8433 31.0003
#
#
#
# Elastic Compliance Matrix: (Units=1/GPa)
#
#
# Indices 1 2 3 4 5 6 
#
# 1 0.006018 -0.003089 -0.001572 0.001067 -0.001346 0.002458
# 2 -0.003089 0.011864 0.001649 -0.011607 -0.003569 -0.007703
# 3 -0.001572 0.001649 0.010806 -0.020976 -0.013717 -0.006928
# 4 0.001067 -0.011607 -0.020976 0.114499 0.051973 0.032111
# 5 -0.001346 -0.003569 -0.013717 0.051973 0.051622 0.023577
# 6 0.002458 -0.007703 -0.006928 0.032111 0.023577 0.046966
#
#
# Mechanical properties :
#
#
# Convention : Reuss Voigt Hill
#
# Bulk Modulus (GPa) = 44.12140 86.01726 65.06933
# Shear Modulus (GPa) = 19.58071 44.37710 31.97891
#
# Velocity S-wave (km/s) = 2.85474 4.29766 3.64825
# Velocity P-wave (km/s) = 5.40643 7.77349 6.69540
#
# Compressibility (1/GPa) = 0.02266474
#
# Stress axis : x y z
#
# Youngs Moduli (GPa) = 166.17575 84.29158 92.53692
#
# Poissons Ratio (x) = 0.26036 0.14545
# Poissons Ratio (y) = 0.51329 -0.15261
# Poissons Ratio (z) = 0.26120 -0.13901
#
# Static dielectric constant tensor:
#      x y z
#    x 2.011830 -0.055620 0.085530 
#    y -0.055620 1.933540 -0.038720 
#    z 0.085530 -0.038720 1.920680 
# 
# From -- ./inp_files/34700.got.cif
#   From: 2010.05.17/outbox.cif.g08.bks.cpg/sg2_18_cif.got.tgz:34700.got - 2010.06.03 11:33:40.
