data_PCOD9038600
_publ_section_title
;
Structure prediction by ZEFSAII (Michael W. Deem and Ramdas Pophale) SiO2 
 PCOD9038600
Probable space group: P -1
;
_chemical_formula_sum "Si O2"
_cell_formula_units_Z 16
_cell_length_a 14.758616
_cell_length_b 9.261904
_cell_length_c 11.388646
_cell_angle_alpha 127.838276
_cell_angle_beta 136.295101
_cell_angle_gamma 74.576207
_cell_volume 803.271338
_symmetry_space_group_name_H-M "P -1"
_symmetry_group_IT_number 2
_symmetry_cell_setting 'triclinic'
loop_
_space_group_symop_operation_xyz
x,y,z
-x,-y,-z
loop_
_atom_site_type_symbol
_atom_site_label
_atom_site_fract_x
_atom_site_fract_y
_atom_site_fract_z
Si Si1 0.158822 0.382544 0.672987
Si Si2 0.653793 0.531040 0.873400
Si Si3 0.635217 0.940085 0.075037
Si Si4 0.419651 0.148037 0.529720
Si Si5 0.268523 0.053197 0.566738
Si Si6 0.130837 0.635433 0.119395
Si Si7 0.882793 0.095622 0.966181
Si Si8 0.149854 0.750814 0.729911
O O1 0.178646 0.195075 0.538059
O O2 0.196514 0.567656 0.716240
O O3 0.994923 0.327385 0.515233
O O4 0.256115 0.432105 0.903035
O O5 0.512671 0.355523 0.674694
O O6 0.753077 0.467565 0.844405
O O7 0.618504 0.724348 0.906540
O O8 0.699658 0.949207 0.268806
O O9 0.737129 0.091531 0.159330
O O10 0.500000 0.000000 0.000000
O O11 0.399467 0.143194 0.649000
O O12 0.500000 0.000000 0.500000
O O13 0.266506 0.058069 0.286150
O O14 0.195296 0.835259 0.349222
O O15 0.095443 0.714833 0.000680
O O16 0.000000 0.500000 0.000000
O O17 0.878214 0.159070 0.127943
O O18 0.000000 0.000000 0.000000
#
# Coordination Sequence:
#
# PCOD9038600 Si02
#       8
#     2   2   2   2   2   2   2   2
#     4  10  23  41  71  93 129 177 221 269 331 402
#     4  11  24  45  67  99 127 188 223 273 341 398
#     4  11  29  42  63  98 141 173 221 279 342 395
#     4  11  21  43  73  94 131 175 235 274 319 411
#     4  10  24  43  66  96 127 177 223 265 334 397
#     4  11  24  42  70  98 134 170 227 273 335 405
#     4  11  24  44  70 102 134 177 224 284 338 391
#     4  11  23  43  67  98 138 170 222 276 338 400
#
# _framework density 19.91855
#
# number of rings (size 3 to 8) (size 9 to 14) (size 15 to 20)
#    0.000    1.250    3.750    1.500   10.500    2.000 
#    2.250    1.250    0.000    0.000    0.000    0.000 
#    0.000    0.000    0.000    0.000    0.000    0.000 
#
# Total GULP energy -89387.605644 kJ/mol
# GULP energy per Si atom -5586.725353 kJ/mol
# Density = 1.987321 g / cm^3
# Si number density = 19.918550 Si / 1000 Ang^3
#
#
#
# Elastic Constant Matrix: (Units=GPa)
#
#
# Indices 1 2 3 4 5 6 
#
# 1 134.0213 81.8970 50.9407 20.7414 18.3506 3.8384
# 2 81.8970 162.9993 54.3474 31.7263 23.1905 -18.9551
# 3 50.9407 54.3474 95.2381 17.7716 19.7640 0.4344
# 4 20.7414 31.7263 17.7716 40.0472 5.1278 2.7021
# 5 18.3506 23.1905 19.7640 5.1278 36.7734 12.9590
# 6 3.8384 -18.9551 0.4344 2.7021 12.9590 41.4326
#
#
#
# Elastic Compliance Matrix: (Units=1/GPa)
#
#
# Indices 1 2 3 4 5 6 
#
# 1 0.012158 -0.005409 -0.003459 -0.000297 0.000555 -0.003719
# 2 -0.005409 0.012590 -0.001850 -0.006111 -0.006459 0.008699
# 3 -0.003459 -0.001850 0.014998 -0.002812 -0.005170 0.001117
# 4 -0.000297 -0.006111 -0.002812 0.031194 0.003198 -0.005774
# 5 0.000555 -0.006459 -0.005170 0.003198 0.038702 -0.015266
# 6 -0.003719 0.008699 0.001117 -0.005774 -0.015266 0.033599
#
#
# Mechanical properties :
#
#
# Convention : Reuss Voigt Hill
#
# Bulk Modulus (GPa) = 54.61596 85.18098 69.89847
# Shear Modulus (GPa) = 29.27730 37.32221 33.29976
#
# Velocity S-wave (km/s) = 3.83802 4.33337 4.09320
# Velocity P-wave (km/s) = 6.86438 8.23984 7.58336
#
# Compressibility (1/GPa) = 0.01830967
#
# Stress axis : x y z
#
# Youngs Moduli (GPa) = 82.24991 79.43114 66.67367
#
# Poissons Ratio (x) = 0.42964 0.23065
# Poissons Ratio (y) = 0.44488 0.12334
# Poissons Ratio (z) = 0.28453 0.14694
#
# Static dielectric constant tensor:
#      x y z
#    x 1.721180 -0.009180 0.002540 
#    y -0.009180 1.808480 -0.020200 
#    z 0.002540 -0.020200 1.754010 
# 
# From -- ./inp_files/271643.got.cif
#   From: 2010.05.17/outbox.cif.g08.bks.cpg/sg2_136_cif.got.tgz:271643.got - 2010.06.03 11:33:40.
