data_PCOD9038796
_publ_section_title
;
Structure prediction by ZEFSAII (Michael W. Deem and Ramdas Pophale) SiO2 
 PCOD9038796
Probable space group: P -1
;
_chemical_formula_sum "Si O2"
_cell_formula_units_Z 16
_cell_length_a 8.204364
_cell_length_b 20.284353
_cell_length_c 9.191733
_cell_angle_alpha 153.365694
_cell_angle_beta 81.485550
_cell_angle_gamma 101.908569
_cell_volume 668.679249
_symmetry_space_group_name_H-M "P -1"
_symmetry_group_IT_number 2
_symmetry_cell_setting 'triclinic'
loop_
_space_group_symop_operation_xyz
x,y,z
-x,-y,-z
loop_
_atom_site_type_symbol
_atom_site_label
_atom_site_fract_x
_atom_site_fract_y
_atom_site_fract_z
Si Si1 0.844656 0.277145 0.492036
Si Si2 0.684830 0.557870 0.147839
Si Si3 0.397700 0.133914 0.802894
Si Si4 0.147098 0.990837 0.350497
Si Si5 0.682572 0.283036 0.249434
Si Si6 0.807035 0.711552 0.706864
Si Si7 0.942782 0.804544 0.448443
Si Si8 0.128314 0.408507 0.229444
O O1 0.684229 0.226013 0.305985
O O2 0.010965 0.292724 0.396762
O O3 0.901673 0.190981 0.454058
O O4 0.803806 0.433707 0.866737
O O5 0.683539 0.603570 0.406631
O O6 0.780868 0.709233 0.359624
O O7 0.500000 0.500000 0.000000
O O8 0.300943 0.117673 0.629949
O O9 0.500000 0.000000 0.500000
O O10 0.537006 0.259576 0.102788
O O11 0.257681 0.130729 0.944235
O O12 0.095357 0.037346 0.289791
O O13 0.000000 0.000000 0.500000
O O14 0.195312 0.828560 0.045293
O O15 0.744440 0.459100 0.601435
O O16 0.797355 0.656481 0.765624
O O17 0.956048 0.707606 0.108916
O O18 0.000000 0.500000 0.500000
#
# Coordination Sequence:
#
# PCOD9038796 Si02
#       8
#     2   2   2   2   2   2   2   2
#     4  11  22  42  64 100 135 177 225 279 335 410
#     4  11  23  40  64 100 143 177 217 278 353 403
#     4  10  23  42  62  97 135 177 223 281 347 398
#     4  11  23  43  66  95 132 181 231 282 338 401
#     4  11  23  37  64  91 139 175 219 280 341 396
#     4  11  21  37  67  95 133 176 224 280 334 404
#     4  11  23  40  67  96 138 174 231 279 330 410
#     4  12  20  36  66 103 126 172 231 282 336 397
#
# _framework density 23.927765999999998
#
# number of rings (size 3 to 8) (size 9 to 14) (size 15 to 20)
#    0.000    1.000    3.750    4.500    0.000    2.000 
#    0.000    2.500    0.000   13.500    0.000    0.000 
#    0.000    0.000    0.000    0.000    0.000    0.000 
#
# Total GULP energy -89102.404028 kJ/mol
# GULP energy per Si atom -5568.900252 kJ/mol
# Density = 2.387331 g / cm^3
# Si number density = 23.927766 Si / 1000 Ang^3
#
#
#
# Elastic Constant Matrix: (Units=GPa)
#
#
# Indices 1 2 3 4 5 6 
#
# 1 87.8191 25.4705 21.8095 -6.6790 13.0265 -27.6798
# 2 25.4705 101.8121 8.8623 -8.3775 4.4160 -31.7032
# 3 21.8095 8.8623 114.2031 -26.5993 -5.2870 -5.4775
# 4 -6.6790 -8.3775 -26.5993 39.0100 -7.1865 8.9650
# 5 13.0265 4.4160 -5.2870 -7.1865 62.7282 -20.7283
# 6 -27.6798 -31.7032 -5.4775 8.9650 -20.7283 32.2555
#
#
#
# Elastic Compliance Matrix: (Units=1/GPa)
#
#
# Indices 1 2 3 4 5 6 
#
# 1 0.016560 0.000855 -0.002974 -0.002463 0.001271 0.016047
# 2 0.000855 0.015313 -0.000254 -0.000186 0.004978 0.018992
# 3 -0.002974 -0.000254 0.011160 0.007821 0.001847 -0.001893
# 4 -0.002463 -0.000186 0.007821 0.032905 0.002046 -0.008798
# 5 0.001271 0.004978 0.001847 0.002046 0.022358 0.020096
# 6 0.016047 0.018992 -0.001893 -0.008798 0.020096 0.078478
#
#
# Mechanical properties :
#
#
# Convention : Reuss Voigt Hill
#
# Bulk Modulus (GPa) = 26.11732 46.23544 36.17638
# Shear Modulus (GPa) = 25.73595 43.31155 34.52375
#
# Velocity S-wave (km/s) = 3.28314 4.25914 3.80258
# Velocity P-wave (km/s) = 5.03099 6.59938 5.86782
#
# Compressibility (1/GPa) = 0.03828876
#
# Stress axis : x y z
#
# Youngs Moduli (GPa) = 60.38755 65.30490 89.60334
#
# Poissons Ratio (x) = -0.05586 0.26647
# Poissons Ratio (y) = -0.05165 0.02272
# Poissons Ratio (z) = 0.17958 0.01656
#
# Static dielectric constant tensor:
#      x y z
#    x 2.145040 -0.069490 -0.032760 
#    y -0.069490 2.018440 0.044920 
#    z -0.032760 0.044920 2.015450 
# 
# From -- ./inp_files/224365.got.cif
#   From: 2010.05.17/outbox.cif.g08.bks.cpg/sg2_113_cif.got.tgz:224365.got - 2010.06.03 11:33:40.
