data_PCOD9038206
_publ_section_title
;
Structure prediction by ZEFSAII (Michael W. Deem and Ramdas Pophale) SiO2 
 PCOD9038206
Probable space group: P -1
;
_chemical_formula_sum "Si O2"
_cell_formula_units_Z 14
_cell_length_a 9.397930
_cell_length_b 8.346687
_cell_length_c 10.591916
_cell_angle_alpha 135.988495
_cell_angle_beta 78.950440
_cell_angle_gamma 104.764069
_cell_volume 558.171520
_symmetry_space_group_name_H-M "P -1"
_symmetry_group_IT_number 2
_symmetry_cell_setting 'triclinic'
loop_
_space_group_symop_operation_xyz
x,y,z
-x,-y,-z
loop_
_atom_site_type_symbol
_atom_site_label
_atom_site_fract_x
_atom_site_fract_y
_atom_site_fract_z
Si Si1 0.687843 0.162213 0.957806
Si Si2 0.664151 0.806289 0.579540
Si Si3 0.626506 0.710250 0.895186
Si Si4 0.392784 0.810677 0.498717
Si Si5 0.065066 0.297405 0.435672
Si Si6 0.860227 0.623617 0.264825
Si Si7 0.845495 0.904302 0.189412
O O1 0.542657 0.280566 0.031323
O O2 0.810352 0.346280 0.110615
O O3 0.726934 0.069970 0.761449
O O4 0.650301 0.921677 0.907611
O O5 0.490979 0.780194 0.590264
O O6 0.758066 0.653595 0.560934
O O7 0.717082 0.732617 0.393670
O O8 0.637176 0.444822 0.704320
O O9 0.747505 0.788041 0.026381
O O10 0.500000 0.000000 0.500000
O O11 0.253132 0.921741 0.628370
O O12 0.031313 0.284878 0.585904
O O13 0.000000 0.500000 0.500000
O O14 0.000243 0.073155 0.237338
O O15 0.888993 0.716357 0.173053
#
# Coordination Sequence:
#
# PCOD9038206 Si02
#       7
#     2   2   2   2   2   2   2
#     4  11  22  42  62  95 132 168 210 270 306 386
#     4  10  23  41  67  90 129 169 216 257 323 370
#     4  11  25  36  64  99 130 166 214 256 330 368
#     4  12  23  41  66 100 130 167 210 263 322 380
#     4  10  23  45  65  92 128 172 215 260 319 379
#     4  10  23  42  67  89 130 168 212 259 321 371
#     4  12  24  41  68  96 134 164 213 266 317 382
#
# _framework density 25.081897000000001
#
# number of rings (size 3 to 8) (size 9 to 14) (size 15 to 20)
#    0.857    0.286    4.286    1.286    4.000    1.714 
#    2.571    2.143    0.000    0.000    0.000    0.000 
#    0.000    0.000    0.000    0.000    0.000    0.000 
#
# Total GULP energy -78127.088429 kJ/mol
# GULP energy per Si atom -5580.506316 kJ/mol
# Density = 2.502481 g / cm^3
# Si number density = 25.081897 Si / 1000 Ang^3
#
#
#
# Elastic Constant Matrix: (Units=GPa)
#
#
# Indices 1 2 3 4 5 6 
#
# 1 104.7809 33.6880 28.3978 3.5296 25.5376 -34.8320
# 2 33.6880 76.7922 34.7038 15.5287 8.5299 -21.8121
# 3 28.3978 34.7038 183.2231 18.1751 24.5619 -11.8552
# 4 3.5296 15.5287 18.1751 26.1199 -9.5672 2.0500
# 5 25.5376 8.5299 24.5619 -9.5672 48.6378 -8.1974
# 6 -34.8320 -21.8121 -11.8552 2.0500 -8.1974 40.0385
#
#
#
# Elastic Compliance Matrix: (Units=1/GPa)
#
#
# Indices 1 2 3 4 5 6 
#
# 1 0.015841 -0.002052 0.000035 -0.004374 -0.006900 0.011485
# 2 -0.002052 0.019732 -0.001288 -0.012217 -0.002676 0.008661
# 3 0.000035 -0.001288 0.006875 -0.005638 -0.004241 0.000785
# 4 -0.004374 -0.012217 -0.005638 0.057036 0.016539 -0.011664
# 5 -0.006900 -0.002676 -0.004241 0.016539 0.029452 -0.003533
# 6 0.011485 0.008661 0.000785 -0.011664 -0.003533 0.039792
#
#
# Mechanical properties :
#
#
# Convention : Reuss Voigt Hill
#
# Bulk Modulus (GPa) = 27.90339 62.04172 44.97256
# Shear Modulus (GPa) = 26.69749 40.82635 33.76192
#
# Velocity S-wave (km/s) = 3.26607 4.03888 3.67286
# Velocity P-wave (km/s) = 5.03707 6.82198 5.99631
#
# Compressibility (1/GPa) = 0.03583793
#
# Stress axis : x y z
#
# Youngs Moduli (GPa) = 63.12841 50.67792 145.45612
#
# Poissons Ratio (x) = 0.10400 -0.00516
# Poissons Ratio (y) = 0.12955 0.18740
# Poissons Ratio (z) = -0.00224 0.06529
#
# Static dielectric constant tensor:
#      x y z
#    x 1.991540 0.049610 -0.009760 
#    y 0.049610 2.095840 -0.052230 
#    z -0.009760 -0.052230 2.040230 
# 
# From -- ./inp_files/395558.got.cif
#   From: 2010.05.17/outbox.cif.g08.bks.cpg/sg2_198_cif.got.tgz:395558.got - 2010.06.03 11:33:40.
