data_PCOD9038530
_publ_section_title
;
Structure prediction by ZEFSAII (Michael W. Deem and Ramdas Pophale) SiO2 
 PCOD9038530
Probable space group: P -1
;
_chemical_formula_sum "Si O2"
_cell_formula_units_Z 14
_cell_length_a 16.268468
_cell_length_b 8.839553
_cell_length_c 11.346098
_cell_angle_alpha 100.538873
_cell_angle_beta 36.311059
_cell_angle_gamma 125.073692
_cell_volume 645.261147
_symmetry_space_group_name_H-M "P -1"
_symmetry_group_IT_number 2
_symmetry_cell_setting 'triclinic'
loop_
_space_group_symop_operation_xyz
x,y,z
-x,-y,-z
loop_
_atom_site_type_symbol
_atom_site_label
_atom_site_fract_x
_atom_site_fract_y
_atom_site_fract_z
Si Si1 0.229266 0.242160 0.773440
Si Si2 0.309566 0.159190 0.315601
Si Si3 0.487619 0.173390 0.882248
Si Si4 0.885921 0.312574 0.504561
Si Si5 0.777173 0.594247 0.438861
Si Si6 0.157488 0.703314 0.067509
Si Si7 0.440444 0.671165 0.708438
O O1 0.269296 0.381828 0.633213
O O2 0.293099 0.402066 0.830271
O O3 0.375394 0.216362 0.577781
O O4 0.000000 0.000000 0.000000
O O5 0.213532 0.246583 0.466626
O O6 0.463571 0.245794 0.259269
O O7 0.424346 0.236504 0.069522
O O8 0.658596 0.196221 0.737902
O O9 0.861962 0.113027 0.524233
O O10 0.599957 0.348157 0.668204
O O11 0.290344 0.918476 0.031685
O O12 0.000000 0.500000 0.500000
O O13 0.017239 0.462766 0.260586
O O14 0.990977 0.677298 0.196299
O O15 0.324263 0.732047 0.815740
#
# Coordination Sequence:
#
# PCOD9038530 Si02
#       7
#     2   2   2   2   2   2   2
#     4  10  24  47  68  96 123 164 225 273 315 381
#     4  11  21  42  66  96 134 173 215 264 310 385
#     4  11  22  42  61  97 140 168 210 260 325 390
#     4  11  21  37  64  97 130 176 222 253 308 384
#     4  10  26  41  62  98 130 170 213 265 328 380
#     4  11  23  40  64  96 137 170 204 267 324 382
#     4  10  23  41  70  96 121 172 216 261 324 374
#
# _framework density 21.696642000000001
#
# number of rings (size 3 to 8) (size 9 to 14) (size 15 to 20)
#    0.000    1.429    2.857    1.714    4.000    4.571 
#    2.571    1.429    0.000    0.000    0.000    0.000 
#    0.000    0.000    0.000    0.000    0.000    0.000 
#
# Total GULP energy -78197.058892 kJ/mol
# GULP energy per Si atom -5585.504207 kJ/mol
# Density = 2.164726 g / cm^3
# Si number density = 21.696642 Si / 1000 Ang^3
#
#
#
# Elastic Constant Matrix: (Units=GPa)
#
#
# Indices 1 2 3 4 5 6 
#
# 1 40.6503 16.9331 39.8298 5.2080 -6.6583 -4.9748
# 2 16.9331 96.2541 50.2967 -0.9087 -7.2812 5.6598
# 3 39.8298 50.2967 95.1458 9.3501 -26.1902 -6.1703
# 4 5.2080 -0.9087 9.3501 47.4884 -7.6643 -9.2794
# 5 -6.6583 -7.2812 -26.1902 -7.6643 30.1389 4.5888
# 6 -4.9748 5.6598 -6.1703 -9.2794 4.5888 35.5203
#
#
#
# Elastic Compliance Matrix: (Units=1/GPa)
#
#
# Indices 1 2 3 4 5 6 
#
# 1 0.044356 0.003089 -0.022603 -0.001420 -0.009868 0.002697
# 2 0.003089 0.015423 -0.010945 0.000782 -0.004424 -0.003150
# 3 -0.022603 -0.010945 0.031154 -0.000512 0.019093 0.001390
# 4 -0.001420 0.000782 -0.000512 0.023041 0.004525 0.005022
# 5 -0.009868 -0.004424 0.019093 0.004525 0.048036 -0.002384
# 6 0.002697 -0.003150 0.001390 0.005022 -0.002384 0.030894
#
#
# Mechanical properties :
#
#
# Convention : Reuss Voigt Hill
#
# Bulk Modulus (GPa) = 33.31655 49.57439 41.44547
# Shear Modulus (GPa) = 18.95182 30.96224 24.95703
#
# Velocity S-wave (km/s) = 2.95869 3.78173 3.39524
# Velocity P-wave (km/s) = 5.20200 6.47821 5.87486
#
# Compressibility (1/GPa) = 0.03001511
#
# Stress axis : x y z
#
# Youngs Moduli (GPa) = 22.54501 64.83832 32.09831
#
# Poissons Ratio (x) = -0.20032 0.72552
# Poissons Ratio (y) = -0.06965 0.35133
# Poissons Ratio (z) = 0.50959 0.70967
#
# Static dielectric constant tensor:
#      x y z
#    x 1.804110 0.003940 -0.007130 
#    y 0.003940 1.797980 0.024070 
#    z -0.007130 0.024070 1.818750 
# 
# From -- ./inp_files/462277.got.cif
#   From: 2010.05.17/outbox.cif.g08.bks.cpg/sg2_232_cif.got.tgz:462277.got - 2010.06.03 11:33:40.
