data_PCOD9038850
_publ_section_title
;
Structure prediction by ZEFSAII (Michael W. Deem and Ramdas Pophale) SiO2 
 PCOD9038850
Probable space group: P -1
;
_chemical_formula_sum "Si O2"
_cell_formula_units_Z 16
_cell_length_a 14.836869
_cell_length_b 5.252858
_cell_length_c 17.746979
_cell_angle_alpha 93.992487
_cell_angle_beta 29.704252
_cell_angle_gamma 105.950204
_cell_volume 616.101608
_symmetry_space_group_name_H-M "P -1"
_symmetry_group_IT_number 2
_symmetry_cell_setting 'triclinic'
loop_
_space_group_symop_operation_xyz
x,y,z
-x,-y,-z
loop_
_atom_site_type_symbol
_atom_site_label
_atom_site_fract_x
_atom_site_fract_y
_atom_site_fract_z
Si Si1 0.939378 0.442612 0.250503
Si Si2 0.311837 0.147148 0.815120
Si Si3 0.718457 0.134274 0.552727
Si Si4 0.303033 0.873954 0.266568
Si Si5 0.366064 0.552231 0.917103
Si Si6 0.016634 0.128349 0.576816
Si Si7 0.881001 0.864596 0.198158
Si Si8 0.639927 0.780031 0.946997
O O1 0.859469 0.356758 0.392286
O O2 0.838649 0.619332 0.284699
O O3 0.895158 0.149523 0.233592
O O4 0.180637 0.633125 0.068505
O O5 0.487984 0.042510 0.692240
O O6 0.365632 0.425143 0.832974
O O7 0.279785 0.208900 0.753674
O O8 0.094022 0.930058 0.002347
O O9 0.713922 0.266385 0.641688
O O10 0.807734 0.906830 0.503304
O O11 0.413146 0.211405 0.216739
O O12 0.102030 0.687032 0.361108
O O13 0.485162 0.902271 0.082763
O O14 0.301354 0.294369 0.016534
O O15 0.831942 0.934029 0.760330
O O16 0.000000 0.000000 0.500000
O O17 0.500000 0.500000 0.000000
#
# Coordination Sequence:
#
# PCOD9038850 Si02
#       8
#     2   2   2   2   2   2   2   2
#     4  11  25  44  72 108 145 181 233 295 363 418
#     4  10  23  46  73 102 137 182 241 288 350 429
#     4  11  23  42  68 102 142 178 235 289 353 420
#     4  11  24  44  69  96 139 188 237 287 339 415
#     4  11  23  41  71  97 131 185 239 283 343 417
#     4  10  23  42  63  98 139 178 222 286 351 403
#     4  10  25  48  74 105 139 187 234 296 357 424
#     4  12  23  44  67  98 129 184 238 284 341 409
#
# _framework density 25.969740999999999
#
# number of rings (size 3 to 8) (size 9 to 14) (size 15 to 20)
#    0.000    1.250    3.750    1.125    1.750    7.500 
#    0.000    9.375    0.000    0.000    0.000    0.000 
#    0.000    0.000    0.000    0.000    0.000    0.000 
#
# Total GULP energy -89186.654235 kJ/mol
# GULP energy per Si atom -5574.165890 kJ/mol
# Density = 2.591063 g / cm^3
# Si number density = 25.969741 Si / 1000 Ang^3
#
#
#
# Elastic Constant Matrix: (Units=GPa)
#
#
# Indices 1 2 3 4 5 6 
#
# 1 219.1809 55.5337 68.8110 -6.8915 -2.5156 -27.0186
# 2 55.5337 70.2132 19.4408 2.2646 6.1559 -6.5068
# 3 68.8110 19.4408 130.3818 -3.6677 8.1537 -4.6393
# 4 -6.8915 2.2646 -3.6677 26.4865 -12.0156 0.0527
# 5 -2.5156 6.1559 8.1537 -12.0156 58.9899 1.3672
# 6 -27.0186 -6.5068 -4.6393 0.0527 1.3672 40.2862
#
#
#
# Elastic Compliance Matrix: (Units=1/GPa)
#
#
# Indices 1 2 3 4 5 6 
#
# 1 0.007294 -0.004820 -0.003030 0.002648 0.001686 0.003704
# 2 -0.004820 0.018477 -0.000149 -0.004199 -0.002965 -0.000160
# 3 -0.003030 -0.000149 0.009343 -0.000119 -0.001408 -0.000933
# 4 0.002648 -0.004199 -0.000119 0.043010 0.009312 0.000712
# 5 0.001686 -0.002965 -0.001408 0.009312 0.019429 -0.000181
# 6 0.003704 -0.000160 -0.000933 0.000712 -0.000181 0.027179
#
#
# Mechanical properties :
#
#
# Convention : Reuss Voigt Hill
#
# Bulk Modulus (GPa) = 52.31723 78.59408 65.45566
# Shear Modulus (GPa) = 33.99012 43.55187 38.77100
#
# Velocity S-wave (km/s) = 3.62171 4.09959 3.86804
# Velocity P-wave (km/s) = 6.13826 7.26211 6.72371
#
# Compressibility (1/GPa) = 0.01911416
#
# Stress axis : x y z
#
# Youngs Moduli (GPa) = 137.09468 54.12199 107.03483
#
# Poissons Ratio (x) = 0.26088 0.32433
# Poissons Ratio (y) = 0.66083 0.01599
# Poissons Ratio (z) = 0.41541 0.00809
#
# Static dielectric constant tensor:
#      x y z
#    x 2.275410 -0.207140 -0.298950 
#    y -0.207140 2.040030 0.222570 
#    z -0.298950 0.222570 2.460770 
# 
# From -- ./inp_files/571695.got.cif
#   From: 2010.05.17/outbox.cif.g08.bks.cpg/sg2_286_cif.got.tgz:571695.got - 2010.06.03 11:33:40.
