data_PCOD9038515
_publ_section_title
;
Structure prediction by ZEFSAII (Michael W. Deem and Ramdas Pophale) SiO2 
 PCOD9038515
Probable space group: P -1
;
_chemical_formula_sum "Si O2"
_cell_formula_units_Z 16
_cell_length_a 7.947276
_cell_length_b 10.838392
_cell_length_c 16.163213
_cell_angle_alpha 43.295815
_cell_angle_beta 52.771917
_cell_angle_gamma 43.297311
_cell_volume 646.305382
_symmetry_space_group_name_H-M "P -1"
_symmetry_group_IT_number 2
_symmetry_cell_setting 'triclinic'
loop_
_space_group_symop_operation_xyz
x,y,z
-x,-y,-z
loop_
_atom_site_type_symbol
_atom_site_label
_atom_site_fract_x
_atom_site_fract_y
_atom_site_fract_z
Si Si1 0.069886 0.761330 0.496945
Si Si2 0.388837 0.578337 0.084025
Si Si3 0.915277 0.555708 0.240435
Si Si4 0.351989 0.522013 0.776030
Si Si5 0.736273 0.991448 0.147297
Si Si6 0.345246 0.985072 0.362093
Si Si7 0.423105 0.225460 0.453500
Si Si8 0.889281 0.291435 0.682258
O O1 0.192634 0.529886 0.614979
O O2 0.224867 0.873360 0.405368
O O3 0.018013 0.765219 0.412387
O O4 0.848828 0.871197 0.578505
O O5 0.597151 0.504254 0.128802
O O6 0.195979 0.503496 0.195596
O O7 0.249228 0.829972 0.992981
O O8 0.500000 0.500000 0.000000
O O9 0.868579 0.480182 0.203234
O O10 0.766066 0.807852 0.168550
O O11 0.350652 0.735284 0.650612
O O12 0.610660 0.332846 0.751296
O O13 0.462598 0.087793 0.222081
O O14 0.935095 0.878511 0.218557
O O15 0.577120 0.806991 0.433230
O O16 0.191678 0.465554 0.388490
O O17 0.500000 0.000000 0.500000
#
# Coordination Sequence:
#
# PCOD9038515 Si02
#       8
#     2   2   2   2   2   2   2   2
#     4  11  24  45  68 114 150 195 241 306 381 455
#     4  12  29  52  73 105 149 194 262 315 366 441
#     4  12  24  48  79 102 150 193 250 311 372 447
#     4  10  25  48  76 108 144 197 250 305 377 440
#     4  12  27  45  74 110 142 204 254 306 371 435
#     4  11  25  41  70 105 155 188 242 309 372 445
#     4  10  23  41  70 106 146 189 237 306 373 444
#     4  10  24  44  73 109 153 190 248 302 379 452
#
# _framework density 24.7561
#
# number of rings (size 3 to 8) (size 9 to 14) (size 15 to 20)
#    0.750    0.250    2.500    2.625    7.000    3.500 
#    2.250    0.000    0.000    0.000    0.000    0.000 
#    0.000    0.000    0.000    0.000    0.000    0.000 
#
# Total GULP energy -89313.098818 kJ/mol
# GULP energy per Si atom -5582.068676 kJ/mol
# Density = 2.469975 g / cm^3
# Si number density = 24.756100 Si / 1000 Ang^3
#
#
#
# Elastic Constant Matrix: (Units=GPa)
#
#
# Indices 1 2 3 4 5 6 
#
# 1 160.6495 28.3458 45.9648 -6.6114 16.9015 32.8400
# 2 28.3458 101.8073 22.7720 -2.0384 1.1493 30.5973
# 3 45.9648 22.7720 106.6665 -1.3696 13.8008 23.3693
# 4 -6.6114 -2.0384 -1.3696 52.7353 5.1975 -3.0953
# 5 16.9015 1.1493 13.8008 5.1975 41.1676 6.3916
# 6 32.8400 30.5973 23.3693 -3.0953 6.3916 36.0813
#
#
#
# Elastic Compliance Matrix: (Units=1/GPa)
#
#
# Indices 1 2 3 4 5 6 
#
# 1 0.008215 -0.000090 -0.002017 0.000829 -0.001916 -0.005684
# 2 -0.000090 0.013299 -0.000575 -0.000327 0.001629 -0.011141
# 3 -0.002017 -0.000575 0.011734 -0.000026 -0.002331 -0.004866
# 4 0.000829 -0.000327 -0.000026 0.019457 -0.003050 0.001749
# 5 -0.001916 0.001629 -0.002331 -0.003050 0.026682 -0.003116
# 6 -0.005684 -0.011141 -0.004866 0.001749 -0.003116 0.046190
#
#
# Mechanical properties :
#
#
# Convention : Reuss Voigt Hill
#
# Bulk Modulus (GPa) = 35.86032 62.58764 49.22398
# Shear Modulus (GPa) = 35.65408 44.13288 39.89348
#
# Velocity S-wave (km/s) = 3.79913 4.22679 4.01866
# Velocity P-wave (km/s) = 5.81046 7.01125 6.43891
#
# Compressibility (1/GPa) = 0.02788598
#
# Stress axis : x y z
#
# Youngs Moduli (GPa) = 121.72249 75.19196 85.22045
#
# Poissons Ratio (x) = 0.00674 0.17190
# Poissons Ratio (y) = 0.01090 0.04899
# Poissons Ratio (z) = 0.24553 0.04322
#
# Static dielectric constant tensor:
#      x y z
#    x 2.091050 -0.111880 -0.039800 
#    y -0.111880 2.100300 0.031480 
#    z -0.039800 0.031480 1.975830 
# 
# From -- ./inp_files/558498.got.cif
#   From: 2010.05.17/outbox.cif.g08.bks.cpg/sg2_280_cif.got.tgz:558498.got - 2010.06.03 11:33:40.
