data_PCOD9038015
_publ_section_title
;
Structure prediction by ZEFSAII (Michael W. Deem and Ramdas Pophale) SiO2 
 PCOD9038015
Probable space group: P -1
;
_chemical_formula_sum "Si O2"
_cell_formula_units_Z 12
_cell_length_a 15.109737
_cell_length_b 8.870375
_cell_length_c 12.244320
_cell_angle_alpha 128.059146
_cell_angle_beta 150.310014
_cell_angle_gamma 36.692406
_cell_volume 467.558319
_symmetry_space_group_name_H-M "P -1"
_symmetry_group_IT_number 2
_symmetry_cell_setting 'triclinic'
loop_
_space_group_symop_operation_xyz
x,y,z
-x,-y,-z
loop_
_atom_site_type_symbol
_atom_site_label
_atom_site_fract_x
_atom_site_fract_y
_atom_site_fract_z
Si Si1 0.230307 0.638784 0.818041
Si Si2 0.634077 0.301292 0.657355
Si Si3 0.515813 0.058711 0.288433
Si Si4 0.054019 0.561753 0.927431
Si Si5 0.841590 0.724240 0.304117
Si Si6 0.371454 0.872198 0.209276
O O1 0.189460 0.468843 0.764154
O O2 0.039008 0.737644 0.561150
O O3 0.500000 0.500000 0.000000
O O4 0.190065 0.853895 0.947735
O O5 0.500000 0.500000 0.500000
O O6 0.694233 0.060643 0.551929
O O7 0.509901 0.322299 0.647070
O O8 0.820270 0.323937 0.909279
O O9 0.599081 0.991853 0.221360
O O10 0.531415 0.846712 0.273010
O O11 0.237276 0.339324 0.115919
O O12 0.082735 0.384856 0.784960
O O13 0.781642 0.833570 0.779465
#
# Coordination Sequence:
#
# PCOD9038015 Si02
#       6
#     2   2   2   2   2   2
#     4  11  24  43  70 106 136 186 245 289 350 425
#     4  10  23  41  65  97 136 184 236 287 349 417
#     4  11  24  43  68 104 143 184 234 292 351 423
#     4  11  24  43  68 103 142 186 234 288 353 422
#     4  11  24  43  72 100 142 189 235 289 357 416
#     4  12  23  42  69 100 141 183 240 290 350 419
#
# _framework density 25.665247000000001
#
# number of rings (size 3 to 8) (size 9 to 14) (size 15 to 20)
#    0.000    1.000    3.333    3.000    4.667    1.333 
#    0.000    0.833    0.000    0.000    0.000    1.167 
#    0.000    0.000    0.000    0.000    0.000    0.000 
#
# Total GULP energy -66813.201478 kJ/mol
# GULP energy per Si atom -5567.766790 kJ/mol
# Density = 2.560683 g / cm^3
# Si number density = 25.665247 Si / 1000 Ang^3
#
#
#
# Elastic Constant Matrix: (Units=GPa)
#
#
# Indices 1 2 3 4 5 6 
#
# 1 109.0436 21.7410 42.8062 -6.4444 -3.8455 11.2105
# 2 21.7410 77.9358 37.1568 7.8808 -1.4643 -9.6484
# 3 42.8062 37.1568 140.3432 41.7772 0.9322 -4.2542
# 4 -6.4444 7.8808 41.7772 54.2396 -5.2544 3.1303
# 5 -3.8455 -1.4643 0.9322 -5.2544 41.7836 10.8323
# 6 11.2105 -9.6484 -4.2542 3.1303 10.8323 43.4990
#
#
#
# Elastic Compliance Matrix: (Units=1/GPa)
#
#
# Indices 1 2 3 4 5 6 
#
# 1 0.012943 -0.002291 -0.005579 0.006850 0.003595 -0.005778
# 2 -0.002291 0.015490 -0.003169 -0.000371 -0.000657 0.003907
# 3 -0.005579 -0.003169 0.012987 -0.010720 -0.003188 0.003570
# 4 0.006850 -0.000371 -0.010720 0.028528 0.006122 -0.006474
# 5 0.003595 -0.000657 -0.003188 0.006122 0.027318 -0.008627
# 6 -0.005778 0.003907 0.003570 -0.006474 -0.008627 0.028308
#
#
# Mechanical properties :
#
#
# Convention : Reuss Voigt Hill
#
# Bulk Modulus (GPa) = 51.70339 58.97007 55.33673
# Shear Modulus (GPa) = 32.44648 42.94568 37.69608
#
# Velocity S-wave (km/s) = 3.55944 4.09504 3.83660
# Velocity P-wave (km/s) = 6.08949 6.73688 6.42135
#
# Compressibility (1/GPa) = 0.01934109
#
# Stress axis : x y z
#
# Youngs Moduli (GPa) = 77.26071 64.55843 77.00173
#
# Poissons Ratio (x) = 0.14790 0.42961
# Poissons Ratio (y) = 0.17701 0.24402
# Poissons Ratio (z) = 0.43106 0.20459
#
# Static dielectric constant tensor:
#      x y z
#    x 2.093700 -0.039910 -0.000770 
#    y -0.039910 2.115430 -0.024000 
#    z -0.000770 -0.024000 2.077920 
# 
# From -- ./inp_files/448263.got.cif
#   From: 2010.05.17/outbox.cif.g08.bks.cpg/sg2_225_cif.got.tgz:448263.got - 2010.06.03 11:33:40.
