data_PCOD9038371
_publ_section_title
;
Structure prediction by ZEFSAII (Michael W. Deem and Ramdas Pophale) SiO2 
 PCOD9038371
Probable space group: P -1
;
_chemical_formula_sum "Si O2"
_cell_formula_units_Z 14
_cell_length_a 11.094365
_cell_length_b 7.586641
_cell_length_c 11.387368
_cell_angle_alpha 95.682262
_cell_angle_beta 77.827979
_cell_angle_gamma 140.047941
_cell_volume 598.635851
_symmetry_space_group_name_H-M "P -1"
_symmetry_group_IT_number 2
_symmetry_cell_setting 'triclinic'
loop_
_space_group_symop_operation_xyz
x,y,z
-x,-y,-z
loop_
_atom_site_type_symbol
_atom_site_label
_atom_site_fract_x
_atom_site_fract_y
_atom_site_fract_z
Si Si1 0.627978 0.974750 0.829529
Si Si2 0.459467 0.161627 0.557521
Si Si3 0.103809 0.839017 0.001791
Si Si4 0.126084 0.795825 0.435769
Si Si5 0.797009 0.621029 0.366445
Si Si6 0.258110 0.338587 0.865444
Si Si7 0.680018 0.140374 0.208496
O O1 0.476943 0.645234 0.838598
O O2 0.480567 0.977666 0.860755
O O3 0.737961 0.117123 0.692704
O O4 0.784116 0.109846 0.904926
O O5 0.634380 0.463834 0.487829
O O6 0.500000 0.000000 0.500000
O O7 0.267713 0.012122 0.522542
O O8 0.421059 0.109841 0.699771
O O9 0.134048 0.731525 0.884935
O O10 0.220313 0.135586 0.946084
O O11 0.890047 0.672438 0.059286
O O12 0.000000 0.500000 0.500000
O O13 0.991665 0.796011 0.406357
O O14 0.802812 0.760161 0.264677
O O15 0.740404 0.374982 0.291693
#
# Coordination Sequence:
#
# PCOD9038371 Si02
#       7
#     2   2   2   2   2   2   2
#     4  11  21  37  59  85 112 145 192 230 279 330
#     4  10  17  33  53  83 114 137 184 224 279 330
#     4  11  23  39  57  82 116 151 190 223 284 328
#     4  12  18  31  60  86 108 147 181 231 279 330
#     4  10  19  35  57  83 110 145 189 227 279 327
#     4  10  22  40  58  79 111 159 189 225 267 345
#     4  10  20  36  56  88 117 138 181 244 279 324
#
# _framework density 23.386503999999999
#
# number of rings (size 3 to 8) (size 9 to 14) (size 15 to 20)
#    0.000    1.429    8.571    0.857    0.000    2.286 
#    2.571    0.714    0.000    0.857    0.000    0.000 
#    0.000    0.000    0.000    0.000    0.000    0.000 
#
# Total GULP energy -78252.220268 kJ/mol
# GULP energy per Si atom -5589.444305 kJ/mol
# Density = 2.333328 g / cm^3
# Si number density = 23.386504 Si / 1000 Ang^3
#
#
#
# Elastic Constant Matrix: (Units=GPa)
#
#
# Indices 1 2 3 4 5 6 
#
# 1 95.7127 39.3851 40.9281 7.9116 16.8451 17.7919
# 2 39.3851 68.6711 33.4972 -24.2212 -3.1143 18.7618
# 3 40.9281 33.4972 129.2804 -24.8296 20.2615 0.0856
# 4 7.9116 -24.2212 -24.8296 36.1498 2.8392 4.0360
# 5 16.8451 -3.1143 20.2615 2.8392 34.0727 2.9737
# 6 17.7919 18.7618 0.0856 4.0360 2.9737 38.8315
#
#
#
# Elastic Compliance Matrix: (Units=1/GPa)
#
#
# Indices 1 2 3 4 5 6 
#
# 1 0.023561 -0.019156 -0.005169 -0.021007 -0.008690 0.001320
# 2 -0.019156 0.042419 -0.000480 0.033118 0.012278 -0.016100
# 3 -0.005169 -0.000480 0.012195 0.009407 -0.005701 0.002032
# 4 -0.021007 0.033118 0.009407 0.062080 0.003792 -0.013140
# 5 -0.008690 0.012278 -0.005701 0.003792 0.038301 -0.005265
# 6 0.001320 -0.016100 0.002032 -0.013140 -0.005265 0.034691
#
#
# Mechanical properties :
#
#
# Convention : Reuss Voigt Hill
#
# Bulk Modulus (GPa) = 35.00672 57.92055 46.46364
# Shear Modulus (GPa) = 18.35680 33.80106 26.07893
#
# Velocity S-wave (km/s) = 2.80470 3.80586 3.34297
# Velocity P-wave (km/s) = 5.04874 6.64328 5.90013
#
# Compressibility (1/GPa) = 0.02856594
#
# Stress axis : x y z
#
# Youngs Moduli (GPa) = 42.44245 23.57418 82.00268
#
# Poissons Ratio (x) = 0.45158 0.42389
# Poissons Ratio (y) = 0.81302 0.03933
# Poissons Ratio (z) = 0.21940 0.01131
#
# Static dielectric constant tensor:
#      x y z
#    x 1.938490 -0.069220 -0.020350 
#    y -0.069220 1.898580 -0.004860 
#    z -0.020350 -0.004860 1.906660 
# 
# From -- ./inp_files/414925.got.cif
#   From: 2010.05.17/outbox.cif.g08.bks.cpg/sg2_208_cif.got.tgz:414925.got - 2010.06.03 11:33:40.
