data_PCOD9038467
_publ_section_title
;
Structure prediction by ZEFSAII (Michael W. Deem and Ramdas Pophale) SiO2 
 PCOD9038467
Probable space group: P -1
;
_chemical_formula_sum "Si O2"
_cell_formula_units_Z 14
_cell_length_a 8.893603
_cell_length_b 17.290271
_cell_length_c 12.621800
_cell_angle_alpha 149.053411
_cell_angle_beta 127.455242
_cell_angle_gamma 43.567722
_cell_volume 687.405963
_symmetry_space_group_name_H-M "P -1"
_symmetry_group_IT_number 2
_symmetry_cell_setting 'triclinic'
loop_
_space_group_symop_operation_xyz
x,y,z
-x,-y,-z
loop_
_atom_site_type_symbol
_atom_site_label
_atom_site_fract_x
_atom_site_fract_y
_atom_site_fract_z
Si Si1 0.556141 0.408312 0.581085
Si Si2 0.445089 0.847669 0.278284
Si Si3 0.709633 0.009997 0.848757
Si Si4 0.186687 0.518720 0.040749
Si Si5 0.817511 0.267203 0.314076
Si Si6 0.412597 0.949911 0.800026
Si Si7 0.055237 0.866109 0.269676
O O1 0.662729 0.453990 0.777483
O O2 0.732546 0.338498 0.478640
O O3 0.334115 0.572689 0.638759
O O4 0.515163 0.251258 0.405348
O O5 0.357437 0.879731 0.157840
O O6 0.262002 0.853113 0.282863
O O7 0.500000 0.000000 0.500000
O O8 0.660232 0.662239 0.163829
O O9 0.512002 0.991635 0.788668
O O10 0.765192 0.114505 0.082860
O O11 0.923656 0.824827 0.700310
O O12 0.095600 0.683805 0.118793
O O13 0.000000 0.500000 0.000000
O O14 0.151883 0.056091 0.805243
O O15 0.500000 0.000000 0.000000
O O16 0.000000 0.000000 0.500000
#
# Coordination Sequence:
#
# PCOD9038467 Si02
#       7
#     2   2   2   2   2   2   2
#     4  11  23  44  69  98 141 177 230 287 346 417
#     4  12  27  47  71 101 139 186 240 296 350 417
#     4  11  23  43  68 100 136 180 231 279 351 414
#     4  12  26  45  72 104 138 186 237 290 356 419
#     4  10  23  41  69  98 134 183 225 281 344 418
#     4  12  25  43  71 104 140 180 230 287 351 416
#     4  12  26  47  73 101 142 187 237 293 352 424
#
# _framework density 20.366422
#
# number of rings (size 3 to 8) (size 9 to 14) (size 15 to 20)
#    0.000    0.571    4.286    3.857    4.000    0.571 
#    0.000    0.000    0.000    0.000    0.000    0.000 
#    0.000    0.000    0.000    0.000    0.000    0.000 
#
# Total GULP energy -78340.818388 kJ/mol
# GULP energy per Si atom -5595.772742 kJ/mol
# Density = 2.032007 g / cm^3
# Si number density = 20.366422 Si / 1000 Ang^3
#
#
#
# Elastic Constant Matrix: (Units=GPa)
#
#
# Indices 1 2 3 4 5 6 
#
# 1 145.3154 28.3831 23.6890 28.4600 10.8169 -4.6587
# 2 28.3831 95.7001 31.4134 29.3016 2.5982 -0.8797
# 3 23.6890 31.4134 97.7364 18.9155 12.2718 -1.0062
# 4 28.4600 29.3016 18.9155 44.9092 -0.5941 -2.6343
# 5 10.8169 2.5982 12.2718 -0.5941 30.7115 4.3467
# 6 -4.6587 -0.8797 -1.0062 -2.6343 4.3467 36.1010
#
#
#
# Elastic Compliance Matrix: (Units=1/GPa)
#
#
# Indices 1 2 3 4 5 6 
#
# 1 0.008244 -0.000832 -0.000499 -0.004448 -0.002868 0.001050
# 2 -0.000832 0.013875 -0.002864 -0.007341 0.000179 -0.000406
# 3 -0.000499 -0.002864 0.012468 -0.003097 -0.004702 0.000554
# 4 -0.004448 -0.007341 -0.003097 0.031289 0.003892 0.000975
# 5 -0.002868 0.000179 -0.004702 0.003892 0.036157 -0.004566
# 6 0.001050 -0.000406 0.000554 0.000975 -0.004566 0.028462
#
#
# Mechanical properties :
#
#
# Convention : Reuss Voigt Hill
#
# Bulk Modulus (GPa) = 38.17087 56.19142 47.18115
# Shear Modulus (GPa) = 33.87147 39.36208 36.61677
#
# Velocity S-wave (km/s) = 4.08254 4.40101 4.24476
# Velocity P-wave (km/s) = 6.40356 7.31268 6.87317
#
# Compressibility (1/GPa) = 0.02619799
#
# Stress axis : x y z
#
# Youngs Moduli (GPa) = 121.30523 72.07097 80.20240
#
# Poissons Ratio (x) = 0.05995 0.04002
# Poissons Ratio (y) = 0.10091 0.22969
# Poissons Ratio (z) = 0.06052 0.20640
#
# Static dielectric constant tensor:
#      x y z
#    x 1.725320 -0.004040 -0.011110 
#    y -0.004040 1.720430 -0.010830 
#    z -0.011110 -0.010830 1.726660 
# 
# From -- ./inp_files/159068.got.cif
#   From: 2010.05.17/outbox.cif.g08.bks.cpg/sg2_80_cif.got.tgz:159068.got - 2010.06.03 11:33:40.
