data_PCOD9038685
_publ_section_title
;
Structure prediction by ZEFSAII (Michael W. Deem and Ramdas Pophale) SiO2 
 PCOD9038685
Probable space group: P -1
;
_chemical_formula_sum "Si O2"
_cell_formula_units_Z 16
_cell_length_a 8.318448
_cell_length_b 18.655205
_cell_length_c 11.507274
_cell_angle_alpha 38.235780
_cell_angle_beta 39.532982
_cell_angle_gamma 39.944031
_cell_volume 642.145470
_symmetry_space_group_name_H-M "P -1"
_symmetry_group_IT_number 2
_symmetry_cell_setting 'triclinic'
loop_
_space_group_symop_operation_xyz
x,y,z
-x,-y,-z
loop_
_atom_site_type_symbol
_atom_site_label
_atom_site_fract_x
_atom_site_fract_y
_atom_site_fract_z
Si Si1 0.015517 0.859365 0.157992
Si Si2 0.647770 0.531057 0.491578
Si Si3 0.117794 0.645114 0.763051
Si Si4 0.173624 0.262406 0.954866
Si Si5 0.886498 0.677483 0.609774
Si Si6 0.016828 0.060752 0.581395
Si Si7 0.733347 0.197336 0.132941
Si Si8 0.428435 0.986407 0.231090
O O1 0.994643 0.787247 0.377717
O O2 0.732150 0.885143 0.213678
O O3 0.262093 0.774351 0.042846
O O4 0.000000 0.000000 0.000000
O O5 0.500000 0.500000 0.500000
O O6 0.441095 0.553718 0.685712
O O7 0.958333 0.423472 0.448638
O O8 0.679564 0.661336 0.289102
O O9 0.054524 0.792126 0.580811
O O10 0.988548 0.654932 0.948773
O O11 0.974949 0.615714 0.766881
O O12 0.398289 0.128898 0.047077
O O13 0.953749 0.232083 0.038232
O O14 0.558150 0.737306 0.724066
O O15 0.234149 0.997398 0.435861
O O16 0.727472 0.049027 0.739879
O O17 0.172784 0.955882 0.724795
#
# Coordination Sequence:
#
# PCOD9038685 Si02
#       8
#     2   2   2   2   2   2   2   2
#     4  12  27  39  66 101 140 174 212 263 337 403
#     4  10  25  44  67  95 130 175 224 271 319 390
#     4  10  23  41  73  93 128 177 218 274 321 386
#     4  10  24  43  69  99 125 172 230 266 323 389
#     4  11  26  45  62  97 139 170 218 270 331 391
#     4   9  18  38  65  95 129 165 211 268 325 376
#     4  11  25  41  67 100 135 174 210 277 331 385
#     4   9  20  37  64  97 131 163 213 267 319 390
#
# _framework density 24.916473
#
# number of rings (size 3 to 8) (size 9 to 14) (size 15 to 20)
#    0.000    1.750    1.250    1.500   10.500    5.500 
#    0.000    1.250    0.000    0.000    0.000    0.000 
#    0.000    0.000    0.000    0.000    0.000    0.000 
#
# Total GULP energy -89406.615201 kJ/mol
# GULP energy per Si atom -5587.913450 kJ/mol
# Density = 2.485976 g / cm^3
# Si number density = 24.916473 Si / 1000 Ang^3
#
#
#
# Elastic Constant Matrix: (Units=GPa)
#
#
# Indices 1 2 3 4 5 6 
#
# 1 22.4274 12.8144 14.9553 7.6458 8.2058 -2.9157
# 2 12.8144 112.3420 18.3734 31.5803 -0.4051 1.6740
# 3 14.9553 18.3734 77.3648 14.8924 1.8181 9.0667
# 4 7.6458 31.5803 14.8924 47.2210 15.7276 -3.6530
# 5 8.2058 -0.4051 1.8181 15.7276 24.9878 7.5165
# 6 -2.9157 1.6740 9.0667 -3.6530 7.5165 24.4249
#
#
#
# Elastic Compliance Matrix: (Units=1/GPa)
#
#
# Indices 1 2 3 4 5 6 
#
# 1 0.080241 -0.012428 -0.019552 0.020505 -0.048796 0.035771
# 2 -0.012428 0.014241 0.002736 -0.014757 0.016652 -0.010807
# 3 -0.019552 0.002736 0.020033 -0.012306 0.017965 -0.017327
# 4 0.020505 -0.014757 -0.012306 0.049180 -0.045909 0.029511
# 5 -0.048796 0.016652 0.017965 -0.045909 0.099257 -0.051046
# 6 0.035771 -0.010807 -0.017327 0.029511 -0.051046 0.072507
#
#
# Mechanical properties :
#
#
# Convention : Reuss Voigt Hill
#
# Bulk Modulus (GPa) = 17.84885 33.82447 25.83666
# Shear Modulus (GPa) = 12.11760 30.39282 21.25521
#
# Velocity S-wave (km/s) = 2.20768 3.49634 2.92389
# Velocity P-wave (km/s) = 3.69831 5.46843 4.66804
#
# Compressibility (1/GPa) = 0.05602601
#
# Stress axis : x y z
#
# Youngs Moduli (GPa) = 12.46249 70.22066 49.91805
#
# Poissons Ratio (x) = 0.87271 0.97601
# Poissons Ratio (y) = 0.15488 -0.13658
# Poissons Ratio (z) = 0.24367 -0.19213
#
# Static dielectric constant tensor:
#      x y z
#    x 2.008670 0.027050 -0.002240 
#    y 0.027050 1.997870 -0.016870 
#    z -0.002240 -0.016870 1.975330 
# 
# From -- ./inp_files/404673.got.cif
#   From: 2010.05.17/outbox.cif.g08.bks.cpg/sg2_203_cif.got.tgz:404673.got - 2010.06.03 11:33:40.
