data_PCOD9038697
_publ_section_title
;
Structure prediction by ZEFSAII (Michael W. Deem and Ramdas Pophale) SiO2 
 PCOD9038697
Probable space group: P -1
;
_chemical_formula_sum "Si O2"
_cell_formula_units_Z 13
_cell_length_a 7.944715
_cell_length_b 11.886750
_cell_length_c 10.677976
_cell_angle_alpha 50.097518
_cell_angle_beta 131.476660
_cell_angle_gamma 94.207577
_cell_volume 458.570138
_symmetry_space_group_name_H-M "P -1"
_symmetry_group_IT_number 2
_symmetry_cell_setting 'triclinic'
loop_
_space_group_symop_operation_xyz
x,y,z
-x,-y,-z
loop_
_atom_site_type_symbol
_atom_site_label
_atom_site_fract_x
_atom_site_fract_y
_atom_site_fract_z
Si Si1 0.203739 0.659692 0.184069
Si Si2 0.509891 0.906711 0.272807
Si Si3 0.046968 0.190569 0.641410
Si Si4 0.315769 0.901422 0.612469
Si Si5 0.178315 0.417701 0.020928
Si Si6 0.539380 0.411277 0.910085
Si Si7 0.000000 0.000000 0.000000
O O1 0.500000 0.500000 0.500000
O O2 0.286387 0.664877 0.078133
O O3 0.009615 0.866382 0.992156
O O4 0.029241 0.579809 0.176299
O O5 0.671546 0.946544 0.422316
O O6 0.716873 0.819502 0.317468
O O7 0.361090 0.829264 0.319800
O O8 0.197271 0.073841 0.928958
O O9 0.941879 0.093137 0.575290
O O10 0.778160 0.397881 0.396804
O O11 0.552193 0.795525 0.697863
O O12 0.439266 0.750397 0.894254
O O13 0.291331 0.533585 0.965411
O O14 0.000000 0.500000 0.000000
#
# Coordination Sequence:
#
# PCOD9038697 Si02
#       7
#     2   2   2   2   2   2   1
#     4  11  24  44  70 101 145 188 236 291 359 428
#     4  11  25  44  68  99 149 177 239 295 352 437
#     4  10  23  44  68 102 139 183 228 300 357 419
#     4  11  22  44  70 105 140 181 238 299 357 424
#     4   9  19  40  65  93 138 179 227 293 343 422
#     4  10  23  41  74 103 133 184 243 289 363 424
#     4  12  26  46  66 102 144 188 234 294 356 430
#
# _framework density 28.348991000000002
#
# number of rings (size 3 to 8) (size 9 to 14) (size 15 to 20)
#    0.000    1.538    1.538    3.231    4.308    3.077 
#    0.000    3.846    0.000    0.000    0.000    0.000 
#    0.000    0.000    0.000    0.000    0.000    0.000 
#
# Total GULP energy -72595.974294 kJ/mol
# GULP energy per Si atom -5584.305715 kJ/mol
# Density = 2.828447 g / cm^3
# Si number density = 28.348991 Si / 1000 Ang^3
#
#
#
# Elastic Constant Matrix: (Units=GPa)
#
#
# Indices 1 2 3 4 5 6 
#
# 1 140.4171 45.0286 45.5021 -5.3150 22.4381 -17.8061
# 2 45.0286 118.1829 33.0103 -18.6413 14.2916 -16.2957
# 3 45.5021 33.0103 132.6832 -0.6914 17.5856 -0.8991
# 4 -5.3150 -18.6413 -0.6914 45.7849 0.4209 12.4123
# 5 22.4381 14.2916 17.5856 0.4209 66.1115 0.9641
# 6 -17.8061 -16.2957 -0.8991 12.4123 0.9641 49.1933
#
#
#
# Elastic Compliance Matrix: (Units=1/GPa)
#
#
# Indices 1 2 3 4 5 6 
#
# 1 0.009279 -0.002367 -0.002305 -0.000644 -0.002060 0.002735
# 2 -0.002367 0.010791 -0.001692 0.003616 -0.001128 0.001796
# 3 -0.002305 -0.001692 0.008897 -0.000519 -0.001199 -0.001078
# 4 -0.000644 0.003616 -0.000519 0.024661 -0.000506 -0.005257
# 5 -0.002060 -0.001128 -0.001199 -0.000506 0.016411 -0.001336
# 6 0.002735 0.001796 -0.001078 -0.005257 -0.001336 0.023246
#
#
# Mechanical properties :
#
#
# Convention : Reuss Voigt Hill
#
# Bulk Modulus (GPa) = 61.58203 70.92946 66.25575
# Shear Modulus (GPa) = 44.87258 50.06741 47.46999
#
# Velocity S-wave (km/s) = 3.98284 4.20707 4.09649
# Velocity P-wave (km/s) = 6.55139 6.97665 6.76736
#
# Compressibility (1/GPa) = 0.01623850
#
# Stress axis : x y z
#
# Youngs Moduli (GPa) = 107.76595 92.67385 112.39417
#
# Poissons Ratio (x) = 0.21935 0.25908
# Poissons Ratio (y) = 0.25507 0.19021
# Poissons Ratio (z) = 0.24841 0.15683
#
# Static dielectric constant tensor:
#      x y z
#    x -3.339510 -1.281020 -0.277190 
#    y -1.281020 1.924430 -0.058170 
#    z -0.277190 -0.058170 2.415730 
# 
# From -- ./inp_files/263756.got.cif
#   From: 2010.05.17/outbox.cif.g08.bks.cpg/sg2_132_cif.got.tgz:263756.got - 2010.06.03 11:33:40.
