data_PCOD9038698
_publ_section_title
;
Structure prediction by ZEFSAII (Michael W. Deem and Ramdas Pophale) SiO2 
 PCOD9038698
Probable space group: P -1
;
_chemical_formula_sum "Si O2"
_cell_formula_units_Z 16
_cell_length_a 18.067120
_cell_length_b 11.264589
_cell_length_c 9.307304
_cell_angle_alpha 140.958718
_cell_angle_beta 92.928523
_cell_angle_gamma 57.668689
_cell_volume 734.984949
_symmetry_space_group_name_H-M "P -1"
_symmetry_group_IT_number 2
_symmetry_cell_setting 'triclinic'
loop_
_space_group_symop_operation_xyz
x,y,z
-x,-y,-z
loop_
_atom_site_type_symbol
_atom_site_label
_atom_site_fract_x
_atom_site_fract_y
_atom_site_fract_z
Si Si1 0.896156 0.291653 0.371431
Si Si2 0.251446 0.068585 0.176727
Si Si3 0.930541 0.050616 0.674733
Si Si4 0.517616 0.186433 0.682181
Si Si5 0.528524 0.497129 0.757418
Si Si6 0.782864 0.713201 0.334434
Si Si7 0.868549 0.841930 0.283973
Si Si8 0.758276 0.190843 0.317331
O O1 0.817171 0.620585 0.612213
O O2 0.796045 0.332588 0.436625
O O3 0.972299 0.203334 0.435782
O O4 0.000000 0.000000 0.000000
O O5 0.193351 0.189970 0.443324
O O6 0.396654 0.795879 0.954228
O O7 0.226104 0.937299 0.955504
O O8 0.851752 0.045607 0.587118
O O9 0.856346 0.375026 0.034601
O O10 0.000000 0.000000 0.500000
O O11 0.518191 0.304410 0.643836
O O12 0.500000 0.000000 0.500000
O O13 0.645569 0.939512 0.538731
O O14 0.439328 0.450573 0.043359
O O15 0.630909 0.365583 0.532884
O O16 0.793123 0.807366 0.277153
O O17 0.851098 0.939911 0.212841
O O18 0.000000 0.500000 0.000000
#
# Coordination Sequence:
#
# PCOD9038698 Si02
#       8
#     2   2   2   2   2   2   2   2
#     4  12  27  47  66 106 145 188 243 283 355 424
#     4  11  27  45  71  98 145 191 231 290 354 424
#     4  12  24  42  68 100 138 175 238 293 341 413
#     4  10  23  41  74 103 140 178 229 295 353 415
#     4  10  24  47  67 110 139 180 242 282 356 425
#     4  11  24  43  66 102 135 184 230 284 358 413
#     4  12  24  42  70 100 134 181 232 292 348 409
#     4  12  26  45  72 101 143 188 233 296 349 418
#
# _framework density 21.769152999999999
#
# number of rings (size 3 to 8) (size 9 to 14) (size 15 to 20)
#    0.000    0.750    5.000    1.125    3.500    4.000 
#    0.000    0.000    0.000    0.000    0.000    0.000 
#    0.000    0.000    0.000    0.000    0.000    0.000 
#
# Total GULP energy -89188.761101 kJ/mol
# GULP energy per Si atom -5574.297569 kJ/mol
# Density = 2.171961 g / cm^3
# Si number density = 21.769153 Si / 1000 Ang^3
#
#
#
# Elastic Constant Matrix: (Units=GPa)
#
#
# Indices 1 2 3 4 5 6 
#
# 1 53.6838 -3.9976 -6.6249 10.9001 10.7668 -1.7878
# 2 -3.9976 96.8417 8.0533 19.3190 -2.1765 -10.6311
# 3 -6.6249 8.0533 56.5647 9.7036 -0.8405 -9.1622
# 4 10.9001 19.3190 9.7036 36.2830 -0.8292 8.0255
# 5 10.7668 -2.1765 -0.8405 -0.8292 19.5288 -4.0818
# 6 -1.7878 -10.6311 -9.1622 8.0255 -4.0818 34.0583
#
#
#
# Elastic Compliance Matrix: (Units=1/GPa)
#
#
# Indices 1 2 3 4 5 6 
#
# 1 0.024548 0.003214 0.005062 -0.011819 -0.012425 0.004949
# 2 0.003214 0.013100 0.001351 -0.009840 0.000799 0.007036
# 3 0.005062 0.001351 0.021161 -0.009821 -0.000338 0.008654
# 4 -0.011819 -0.009840 -0.009821 0.042586 0.003470 -0.015953
# 5 -0.012425 0.000799 -0.000338 0.003470 0.059495 0.005819
# 6 0.004949 0.007036 0.008654 -0.015953 0.005819 0.038602
#
#
# Mechanical properties :
#
#
# Convention : Reuss Voigt Hill
#
# Bulk Modulus (GPa) = 12.81014 22.43907 17.62461
# Shear Modulus (GPa) = 24.24149 31.95130 28.09639
#
# Velocity S-wave (km/s) = 3.34064 3.83526 3.59646
# Velocity P-wave (km/s) = 4.55820 5.47196 5.03585
#
# Compressibility (1/GPa) = 0.07806315
#
# Stress axis : x y z
#
# Youngs Moduli (GPa) = 40.73615 76.33744 47.25696
#
# Poissons Ratio (x) = -0.24537 -0.23922
# Poissons Ratio (y) = -0.13094 -0.06384
# Poissons Ratio (z) = -0.20621 -0.10312
#
# Static dielectric constant tensor:
#      x y z
#    x 1.709680 0.028860 0.104800 
#    y 0.028860 1.759810 -0.070970 
#    z 0.104800 -0.070970 2.048210 
# 
# From -- ./inp_files/333913.got.cif
#   From: 2010.05.17/outbox.cif.g08.bks.cpg/sg2_167_cif.got.tgz:333913.got - 2010.06.03 11:33:40.
