data_PCOD9038188
_publ_section_title
;
Structure prediction by ZEFSAII (Michael W. Deem and Ramdas Pophale) SiO2 
 PCOD9038188
Probable space group: P -1
;
_chemical_formula_sum "Si O2"
_cell_formula_units_Z 10
_cell_length_a 9.457519
_cell_length_b 10.968522
_cell_length_c 5.021714
_cell_angle_alpha 83.265659
_cell_angle_beta 116.576722
_cell_angle_gamma 63.747296
_cell_volume 384.222740
_symmetry_space_group_name_H-M "P -1"
_symmetry_group_IT_number 2
_symmetry_cell_setting 'triclinic'
loop_
_space_group_symop_operation_xyz
x,y,z
-x,-y,-z
loop_
_atom_site_type_symbol
_atom_site_label
_atom_site_fract_x
_atom_site_fract_y
_atom_site_fract_z
Si Si1 0.823656 0.815445 0.269205
Si Si2 0.890684 0.469640 0.136700
Si Si3 0.510682 0.775849 0.918984
Si Si4 0.388856 0.601622 0.135749
Si Si5 0.841068 0.977827 0.741949
O O1 0.872439 0.901996 0.496804
O O2 0.974777 0.638653 0.484771
O O3 0.617656 0.842413 0.133814
O O4 0.820608 0.875959 0.960757
O O5 0.694383 0.623629 0.998996
O O6 0.815002 0.369915 0.997398
O O7 0.000000 0.500000 0.000000
O O8 0.361362 0.869816 0.536290
O O9 0.399774 0.740183 0.048375
O O10 0.500000 0.500000 0.500000
O O11 0.500000 0.500000 0.000000
O O12 0.000000 0.000000 0.000000
#
# Coordination Sequence:
#
# PCOD9038188 Si02
#       5
#     2   2   2   2   2
#     4  12  26  46  73 109 149 194 245 307 373 441
#     4  11  24  45  75 112 152 195 246 306 371 444
#     4  11  25  48  77 111 150 199 250 307 371 446
#     4  10  23  41  67 103 143 189 240 296 359 429
#     4  12  28  50  74 107 149 197 249 308 373 444
#
# _framework density 26.026571000000001
#
# number of rings (size 3 to 8) (size 9 to 14) (size 15 to 20)
#    0.000    0.800    0.000    6.000    0.000   14.400 
#    0.000    0.000    0.000    0.000    0.000    0.000 
#    0.000    0.000    0.000    0.000    0.000    0.000 
#
# Total GULP energy -55931.806200 kJ/mol
# GULP energy per Si atom -5593.180620 kJ/mol
# Density = 2.596733 g / cm^3
# Si number density = 26.026571 Si / 1000 Ang^3
#
#
#
# Elastic Constant Matrix: (Units=GPa)
#
#
# Indices 1 2 3 4 5 6 
#
# 1 151.8043 40.0270 61.6665 -30.6816 11.4073 31.3467
# 2 40.0270 117.4838 54.5581 -34.3873 10.1271 -10.8031
# 3 61.6665 54.5581 220.9973 -46.1461 9.2210 -1.8992
# 4 -30.6816 -34.3873 -46.1461 67.9360 5.6544 -4.8046
# 5 11.4073 10.1271 9.2210 5.6544 72.0864 4.1788
# 6 31.3467 -10.8031 -1.8992 -4.8046 4.1788 45.4275
#
#
#
# Elastic Compliance Matrix: (Units=1/GPa)
#
#
# Indices 1 2 3 4 5 6 
#
# 1 0.009899 -0.002742 -0.001837 0.001367 -0.000627 -0.007358
# 2 -0.002742 0.011944 -0.001107 0.004580 -0.001771 0.005333
# 3 -0.001837 -0.001107 0.005937 0.002809 -0.000627 0.001607
# 4 0.001367 0.004580 0.002809 0.019995 -0.002941 0.002649
# 5 -0.000627 -0.001771 -0.000627 -0.002941 0.014628 -0.001671
# 6 -0.007358 0.005333 0.001607 0.002649 -0.001671 0.028859
#
#
# Mechanical properties :
#
#
# Convention : Reuss Voigt Hill
#
# Bulk Modulus (GPa) = 60.94802 89.19872 75.07337
# Shear Modulus (GPa) = 46.25125 59.35890 52.80508
#
# Velocity S-wave (km/s) = 4.22011 4.78085 4.50921
# Velocity P-wave (km/s) = 6.87126 8.05121 7.48453
#
# Compressibility (1/GPa) = 0.01640742
#
# Stress axis : x y z
#
# Youngs Moduli (GPa) = 101.01668 83.72520 168.42501
#
# Poissons Ratio (x) = 0.22958 0.30940
# Poissons Ratio (y) = 0.27700 0.18653
# Poissons Ratio (z) = 0.18557 0.09273
#
# Static dielectric constant tensor:
#      x y z
#    x 2.023330 -0.017430 0.166590 
#    y -0.017430 2.400860 -0.176470 
#    z 0.166590 -0.176470 2.466740 
# 
# From -- ./inp_files/24278.got.cif
#   From: 2010.05.17/outbox.cif.g08.bks.cpg/sg2_13_cif.got.tgz:24278.got - 2010.06.03 11:33:40.
