data_PCOD9038193
_publ_section_title
;
Structure prediction by ZEFSAII (Michael W. Deem and Ramdas Pophale) SiO2 
 PCOD9038193
Probable space group: P -1
;
_chemical_formula_sum "Si O2"
_cell_formula_units_Z 15
_cell_length_a 8.622522
_cell_length_b 10.367263
_cell_length_c 7.967047
_cell_angle_alpha 63.448761
_cell_angle_beta 72.204740
_cell_angle_gamma 93.065836
_cell_volume 591.296982
_symmetry_space_group_name_H-M "P -1"
_symmetry_group_IT_number 2
_symmetry_cell_setting 'triclinic'
loop_
_space_group_symop_operation_xyz
x,y,z
-x,-y,-z
loop_
_atom_site_type_symbol
_atom_site_label
_atom_site_fract_x
_atom_site_fract_y
_atom_site_fract_z
Si Si1 0.524478 0.108516 0.086318
Si Si2 0.835534 0.375523 0.776069
Si Si3 0.569566 0.829826 0.392584
Si Si4 0.124096 0.250480 0.856264
Si Si5 0.747915 0.861087 0.633758
Si Si6 0.322229 0.548793 0.552668
Si Si7 0.062404 0.824125 0.708600
Si Si8 0.000000 0.500000 0.000000
O O1 0.352785 0.155925 0.151166
O O2 0.558707 0.999229 0.284322
O O3 0.669460 0.251306 0.940480
O O4 0.500000 0.000000 0.000000
O O5 0.787854 0.455494 0.577835
O O6 0.894336 0.476034 0.861402
O O7 0.979599 0.280510 0.763070
O O8 0.727426 0.810472 0.237884
O O9 0.620916 0.780205 0.584951
O O10 0.395278 0.721375 0.464911
O O11 0.211694 0.422206 0.787234
O O12 0.026978 0.155636 0.095023
O O13 0.919664 0.813044 0.622790
O O14 0.799991 0.033067 0.465028
O O15 0.500000 0.500000 0.500000
O O16 0.099948 0.666138 0.814683
#
# Coordination Sequence:
#
# PCOD9038193 Si02
#       8
#     2   2   2   2   2   2   2   1
#     4  12  25  45  71 102 140 188 234 294 361 429
#     4  11  24  44  70 108 137 191 239 290 360 418
#     4  11  23  43  70 104 140 187 235 294 357 422
#     4  10  23  43  70  99 144 183 237 286 354 428
#     4  11  26  44  71 102 144 182 243 297 358 424
#     4  10  23  41  67 105 144 184 238 292 356 422
#     4  10  24  46  67 104 141 190 234 296 358 419
#     4  10  24  44  72 100 148 180 244 290 350 418
#
# _framework density 25.367963
#
# number of rings (size 3 to 8) (size 9 to 14) (size 15 to 20)
#    0.000    1.333    1.333    3.200    5.600    8.533 
#    0.000    1.333    0.000    0.000    0.000    0.000 
#    0.000    0.000    0.000    0.000    0.000    0.000 
#
# Total GULP energy -83631.835612 kJ/mol
# GULP energy per Si atom -5575.455707 kJ/mol
# Density = 2.531022 g / cm^3
# Si number density = 25.367963 Si / 1000 Ang^3
#
#
#
# Elastic Constant Matrix: (Units=GPa)
#
#
# Indices 1 2 3 4 5 6 
#
# 1 99.6141 2.8833 20.1550 6.8696 5.3575 22.3429
# 2 2.8833 54.2880 14.4777 4.5056 -0.4534 16.2268
# 3 20.1550 14.4777 108.5631 -19.7433 -15.2788 15.1940
# 4 6.8696 4.5056 -19.7433 50.0146 11.1588 11.2870
# 5 5.3575 -0.4534 -15.2788 11.1588 58.5915 3.4010
# 6 22.3429 16.2268 15.1940 11.2870 3.4010 45.8695
#
#
#
# Elastic Compliance Matrix: (Units=1/GPa)
#
#
# Indices 1 2 3 4 5 6 
#
# 1 0.011708 0.001562 -0.002002 -0.001120 -0.001063 -0.005238
# 2 0.001562 0.021225 -0.002379 -0.001479 0.000096 -0.007124
# 3 -0.002002 -0.002379 0.011716 0.005383 0.002402 -0.003567
# 4 -0.001120 -0.001479 0.005383 0.024505 -0.002793 -0.006537
# 5 -0.001063 0.000096 0.002402 -0.002793 0.018381 -0.000987
# 6 -0.005238 -0.007124 -0.003567 -0.006537 -0.000987 0.029736
#
#
# Mechanical properties :
#
#
# Convention : Reuss Voigt Hill
#
# Bulk Modulus (GPa) = 25.63397 37.49971 31.56684
# Shear Modulus (GPa) = 36.78840 45.89172 41.34006
#
# Velocity S-wave (km/s) = 3.81227 4.25790 4.04123
# Velocity P-wave (km/s) = 5.43182 6.24398 5.85201
#
# Compressibility (1/GPa) = 0.03901074
#
# Stress axis : x y z
#
# Youngs Moduli (GPa) = 85.41289 47.11474 85.35020
#
# Poissons Ratio (x) = -0.07358 0.17088
# Poissons Ratio (y) = -0.13339 0.20303
# Poissons Ratio (z) = 0.17101 0.11208
#
# Static dielectric constant tensor:
#      x y z
#    x 1.952140 0.054020 0.082650 
#    y 0.054020 1.993420 0.118260 
#    z 0.082650 0.118260 2.089410 
# 
# From -- ./inp_files/175069.got.cif
#   From: 2010.05.17/outbox.cif.g08.bks.cpg/sg2_88_cif.got.tgz:175069.got - 2010.06.03 11:33:40.
