data_PCOD9038384
_publ_section_title
;
Structure prediction by ZEFSAII (Michael W. Deem and Ramdas Pophale) SiO2 
 PCOD9038384
Probable space group: P -1
;
_chemical_formula_sum "Si O2"
_cell_formula_units_Z 16
_cell_length_a 9.020817
_cell_length_b 19.596665
_cell_length_c 10.874703
_cell_angle_alpha 47.852605
_cell_angle_beta 30.223989
_cell_angle_gamma 64.074592
_cell_volume 663.023738
_symmetry_space_group_name_H-M "P -1"
_symmetry_group_IT_number 2
_symmetry_cell_setting 'triclinic'
loop_
_space_group_symop_operation_xyz
x,y,z
-x,-y,-z
loop_
_atom_site_type_symbol
_atom_site_label
_atom_site_fract_x
_atom_site_fract_y
_atom_site_fract_z
Si Si1 0.376837 0.048743 0.143242
Si Si2 0.967262 0.590048 0.492919
Si Si3 0.849908 0.622657 0.801435
Si Si4 0.388676 0.532661 0.664242
Si Si5 0.705645 0.757250 0.427756
Si Si6 0.573776 0.766325 0.763923
Si Si7 0.539718 0.254842 0.644348
Si Si8 0.409035 0.925845 0.770595
O O1 0.553278 0.040903 0.154616
O O2 0.433787 0.162032 0.924289
O O3 0.000000 0.000000 0.500000
O O4 0.500000 0.000000 0.000000
O O5 0.000000 0.500000 0.500000
O O6 0.911670 0.565277 0.707776
O O7 0.734998 0.647849 0.543306
O O8 0.301547 0.682203 0.133715
O O9 0.833639 0.718926 0.629247
O O10 0.093193 0.683333 0.659985
O O11 0.565677 0.536515 0.178131
O O12 0.500000 0.500000 0.500000
O O13 0.571440 0.651587 0.383107
O O14 0.000000 0.500000 0.000000
O O15 0.483254 0.766918 0.686498
O O16 0.558018 0.779045 0.382755
O O17 0.054436 0.844054 0.095990
O O18 0.650480 0.868572 0.651661
O O19 0.500000 0.000000 0.500000
#
# Coordination Sequence:
#
# PCOD9038384 Si02
#       8
#     2   2   2   2   2   2   2   2
#     4  12  30  50  80 116 148 198 253 315 386 450
#     4  10  23  41  68  99 142 192 248 301 364 445
#     4  10  24  44  69 104 143 199 245 300 383 437
#     4  10  25  42  69 107 148 197 243 300 374 442
#     4  10  24  44  67 105 137 197 239 302 377 443
#     4  10  23  42  71  96 141 188 243 298 373 444
#     4  11  25  47  71 105 155 190 251 315 373 447
#     4  11  26  49  76 104 142 192 246 311 377 450
#
# _framework density 24.131865999999999
#
# number of rings (size 3 to 8) (size 9 to 14) (size 15 to 20)
#    0.000    1.500    0.000    3.000   14.000    2.500 
#    6.750    0.000    0.000    0.000    0.000    0.000 
#    0.000    0.000    0.000    0.000    0.000    0.000 
#
# Total GULP energy -89068.584023 kJ/mol
# GULP energy per Si atom -5566.786501 kJ/mol
# Density = 2.407694 g / cm^3
# Si number density = 24.131866 Si / 1000 Ang^3
#
#
#
# Elastic Constant Matrix: (Units=GPa)
#
#
# Indices 1 2 3 4 5 6 
#
# 1 132.3344 33.9073 44.0162 0.2616 25.4905 30.0316
# 2 33.9073 128.2399 65.3975 3.6484 22.9148 18.7251
# 3 44.0162 65.3975 156.2611 -14.1326 41.4977 10.0475
# 4 0.2616 3.6484 -14.1326 48.4612 4.0880 12.1570
# 5 25.4905 22.9148 41.4977 4.0880 43.1334 3.7333
# 6 30.0316 18.7251 10.0475 12.1570 3.7333 31.5841
#
#
#
# Elastic Compliance Matrix: (Units=1/GPa)
#
#
# Indices 1 2 3 4 5 6 
#
# 1 0.011333 -0.000155 -0.000783 0.002904 -0.005190 -0.010940
# 2 -0.000155 0.010740 -0.003823 -0.000649 -0.001478 -0.004579
# 3 -0.000783 -0.003823 0.010913 0.004478 -0.008326 -0.001200
# 4 0.002904 -0.000649 0.004478 0.025803 -0.007008 -0.012905
# 5 -0.005190 -0.001478 -0.008326 -0.007008 0.035105 0.007009
# 6 -0.010940 -0.004579 -0.001200 -0.012905 0.007009 0.049299
#
#
# Mechanical properties :
#
#
# Convention : Reuss Voigt Hill
#
# Bulk Modulus (GPa) = 42.61726 78.16418 60.39072
# Shear Modulus (GPa) = 31.14572 42.87005 37.00788
#
# Velocity S-wave (km/s) = 3.59645 4.21942 3.92033
# Velocity P-wave (km/s) = 5.91139 7.49658 6.75067
#
# Compressibility (1/GPa) = 0.02346467
#
# Stress axis : x y z
#
# Youngs Moduli (GPa) = 88.23427 93.11405 91.63057
#
# Poissons Ratio (x) = 0.01444 0.07175
# Poissons Ratio (y) = 0.01369 0.35027
# Poissons Ratio (z) = 0.06909 0.35594
#
# Static dielectric constant tensor:
#      x y z
#    x 2.135440 -0.103860 -0.052970 
#    y -0.103860 2.110540 0.081810 
#    z -0.052970 0.081810 1.951000 
# 
# From -- ./inp_files/216941.got.cif
#   From: 2010.05.17/outbox.cif.g08.bks.cpg/sg2_109_cif.got.tgz:216941.got - 2010.06.03 11:33:40.
