data_PCOD9038976
_publ_section_title
;
Structure prediction by ZEFSAII (Michael W. Deem and Ramdas Pophale) SiO2 
 PCOD9038976
Probable space group: P -1
;
_chemical_formula_sum "Si O2"
_cell_formula_units_Z 14
_cell_length_a 5.232043
_cell_length_b 14.610415
_cell_length_c 11.293358
_cell_angle_alpha 83.884968
_cell_angle_beta 44.105288
_cell_angle_gamma 96.311288
_cell_volume 575.328039
_symmetry_space_group_name_H-M "P -1"
_symmetry_group_IT_number 2
_symmetry_cell_setting 'triclinic'
loop_
_space_group_symop_operation_xyz
x,y,z
-x,-y,-z
loop_
_atom_site_type_symbol
_atom_site_label
_atom_site_fract_x
_atom_site_fract_y
_atom_site_fract_z
Si Si1 0.309865 0.655744 0.916965
Si Si2 0.784723 0.476585 0.248422
Si Si3 0.180088 0.939057 0.355894
Si Si4 0.811411 0.017931 0.286377
Si Si5 0.033772 0.737140 0.355717
Si Si6 0.210668 0.229567 0.051698
Si Si7 0.694321 0.389331 0.524230
O O1 0.370045 0.609751 0.778153
O O2 0.649948 0.717898 0.876015
O O3 0.012077 0.715566 0.968945
O O4 0.109880 0.562504 0.073651
O O5 0.932171 0.437787 0.323892
O O6 0.449627 0.525592 0.382006
O O7 0.958018 0.828673 0.433823
O O8 0.602211 0.949739 0.260969
O O9 0.000000 0.000000 0.500000
O O10 0.162560 0.987494 0.229485
O O11 0.938535 0.125917 0.186281
O O12 0.500000 0.000000 0.500000
O O13 0.145216 0.668385 0.424475
O O14 0.678637 0.682207 0.402409
O O15 0.400900 0.773414 0.143556
#
# Coordination Sequence:
#
# PCOD9038976 Si02
#       7
#     2   2   2   2   2   2   2
#     4  11  25  43  68  99 136 176 223 268 328 383
#     4  10  24  44  68  98 136 178 222 274 320 388
#     4  10  23  42  65  92 128 166 215 272 327 393
#     4  10  23  42  65  92 128 166 215 272 327 393
#     4  12  24  43  67  97 135 174 220 271 332 393
#     4  12  24  43  67  97 135 174 220 271 332 393
#     4  11  25  43  68  99 136 176 223 268 328 383
#
# _framework density 24.333946000000001
#
# number of rings (size 3 to 8) (size 9 to 14) (size 15 to 20)
#    0.000    1.143    2.857    1.714    0.000   16.000 
#    0.000    0.000    0.000    0.000    0.000    0.000 
#    0.000    0.000    0.000    0.000    0.000    0.000 
#
# Total GULP energy -78394.601357 kJ/mol
# GULP energy per Si atom -5599.614383 kJ/mol
# Density = 2.427856 g / cm^3
# Si number density = 24.333946 Si / 1000 Ang^3
#
#
#
# Elastic Constant Matrix: (Units=GPa)
#
#
# Indices 1 2 3 4 5 6 
#
# 1 117.4273 19.1871 6.4639 -6.6186 9.2604 20.9715
# 2 19.1871 119.0916 13.9354 -3.4000 3.3375 9.0416
# 3 6.4639 13.9354 86.7943 -20.2588 7.9913 -1.8819
# 4 -6.6186 -3.4000 -20.2588 33.6918 4.9536 -3.4041
# 5 9.2604 3.3375 7.9913 4.9536 23.4747 -0.1518
# 6 20.9715 9.0416 -1.8819 -3.4041 -0.1518 34.6274
#
#
#
# Elastic Compliance Matrix: (Units=1/GPa)
#
#
# Indices 1 2 3 4 5 6 
#
# 1 0.010154 -0.001043 0.000174 0.002065 -0.004389 -0.005684
# 2 -0.001043 0.008868 -0.001427 -0.000304 -0.000311 -0.001793
# 3 0.000174 -0.001427 0.014758 0.009995 -0.006986 0.002021
# 4 0.002065 -0.000304 0.009995 0.038171 -0.012209 0.003071
# 5 -0.004389 -0.000311 -0.006986 -0.012209 0.049338 0.001376
# 6 -0.005684 -0.001793 0.002021 0.003071 0.001376 0.033207
#
#
# Mechanical properties :
#
#
# Convention : Reuss Voigt Hill
#
# Bulk Modulus (GPa) = 34.26018 44.72065 39.49042
# Shear Modulus (GPa) = 29.61760 37.27390 33.44575
#
# Velocity S-wave (km/s) = 3.49253 3.91802 3.71138
# Velocity P-wave (km/s) = 5.51121 6.23584 5.88469
#
# Compressibility (1/GPa) = 0.02918840
#
# Stress axis : x y z
#
# Youngs Moduli (GPa) = 98.47902 112.76401 67.76112
#
# Poissons Ratio (x) = 0.11760 -0.01180
# Poissons Ratio (y) = 0.10270 0.09671
# Poissons Ratio (z) = -0.01715 0.16094
#
# Static dielectric constant tensor:
#      x y z
#    x 1.981400 0.013280 -0.009540 
#    y 0.013280 1.916110 0.044130 
#    z -0.009540 0.044130 1.935720 
# 
# From -- ./inp_files/367714.got.cif
#   From: 2010.05.17/outbox.cif.g08.bks.cpg/sg2_184_cif.got.tgz:367714.got - 2010.06.03 11:33:40.
