data_PCOD9038420
_publ_section_title
;
Structure prediction by ZEFSAII (Michael W. Deem and Ramdas Pophale) SiO2 
 PCOD9038420
Probable space group: P -1
;
_chemical_formula_sum "Si O2"
_cell_formula_units_Z 16
_cell_length_a 12.750176
_cell_length_b 8.167651
_cell_length_c 11.371124
_cell_angle_alpha 54.981338
_cell_angle_beta 133.953812
_cell_angle_gamma 118.558336
_cell_volume 691.740094
_symmetry_space_group_name_H-M "P -1"
_symmetry_group_IT_number 2
_symmetry_cell_setting 'triclinic'
loop_
_space_group_symop_operation_xyz
x,y,z
-x,-y,-z
loop_
_atom_site_type_symbol
_atom_site_label
_atom_site_fract_x
_atom_site_fract_y
_atom_site_fract_z
Si Si1 0.655826 0.978600 0.691308
Si Si2 0.049937 0.586059 0.632087
Si Si3 0.862601 0.874841 0.280753
Si Si4 0.318654 0.879942 0.799505
Si Si5 0.432446 0.384317 0.881416
Si Si6 0.424250 0.420923 0.298491
Si Si7 0.035597 0.853318 0.193137
Si Si8 0.535973 0.193792 0.702809
O O1 0.684023 0.749436 0.783506
O O2 0.500000 0.000000 0.500000
O O3 0.787797 0.124624 0.676671
O O4 0.634574 0.037827 0.785986
O O5 0.212258 0.709059 0.716469
O O6 0.000000 0.500000 0.500000
O O7 0.942262 0.757179 0.492260
O O8 0.025814 0.383428 0.774161
O O9 0.731773 0.717700 0.189535
O O10 0.974569 0.928194 0.238507
O O11 0.781814 0.045953 0.207097
O O12 0.393012 0.070674 0.702995
O O13 0.460533 0.783083 0.990558
O O14 0.447263 0.521808 0.720418
O O15 0.500000 0.500000 0.000000
O O16 0.479364 0.314311 0.499485
O O17 0.378981 0.631668 0.221422
O O18 0.000000 0.000000 0.000000
#
# Coordination Sequence:
#
# PCOD9038420 Si02
#       8
#     2   2   2   2   2   2   2   2
#     4  10  24  41  71  98 138 184 239 290 357 430
#     4  10  25  46  71  99 143 192 240 289 366 438
#     4  11  26  47  69 103 148 189 236 300 367 436
#     4  12  25  46  74 109 143 187 244 302 366 434
#     4  12  25  43  74 105 149 188 243 301 363 436
#     4  10  23  41  69 107 140 182 242 297 364 421
#     4  11  27  47  68 101 144 186 239 295 365 429
#     4  10  23  43  72 105 140 181 246 302 353 428
#
# _framework density 23.130075000000001
#
# number of rings (size 3 to 8) (size 9 to 14) (size 15 to 20)
#    0.000    1.250    1.250    3.000   15.750    0.000 
#    2.250    0.625    0.000    0.000    0.000    0.000 
#    0.000    0.000    0.000    0.000    0.000    0.000 
#
# Total GULP energy -89381.094986 kJ/mol
# GULP energy per Si atom -5586.318437 kJ/mol
# Density = 2.307743 g / cm^3
# Si number density = 23.130075 Si / 1000 Ang^3
#
#
#
# Elastic Constant Matrix: (Units=GPa)
#
#
# Indices 1 2 3 4 5 6 
#
# 1 133.6761 44.9164 35.1227 -4.6068 -3.2841 0.2956
# 2 44.9164 153.8282 18.8437 -2.4551 -4.1082 -7.7782
# 3 35.1227 18.8437 111.4256 -21.2260 -1.7375 19.5168
# 4 -4.6068 -2.4551 -21.2260 32.6487 9.4795 4.8171
# 5 -3.2841 -4.1082 -1.7375 9.4795 41.5604 0.1079
# 6 0.2956 -7.7782 19.5168 4.8171 0.1079 50.0207
#
#
#
# Elastic Compliance Matrix: (Units=1/GPa)
#
#
# Indices 1 2 3 4 5 6 
#
# 1 0.008932 -0.002232 -0.002750 -0.000980 0.000592 0.000766
# 2 -0.002232 0.007359 -0.000972 -0.000834 0.000696 0.001615
# 3 -0.002750 -0.000972 0.012802 0.009297 -0.001883 -0.006021
# 4 -0.000980 -0.000834 0.009297 0.040183 -0.008917 -0.007602
# 5 0.000592 0.000696 -0.001883 -0.008917 0.026128 0.001642
# 6 0.000766 0.001615 -0.006021 -0.007602 0.001642 0.023316
#
#
# Mechanical properties :
#
#
# Convention : Reuss Voigt Hill
#
# Bulk Modulus (GPa) = 58.18921 66.29951 62.24436
# Shear Modulus (GPa) = 36.66862 44.84908 40.75885
#
# Velocity S-wave (km/s) = 3.98593 4.40818 4.20236
# Velocity P-wave (km/s) = 6.81143 7.39157 7.10742
#
# Compressibility (1/GPa) = 0.01718532
#
# Stress axis : x y z
#
# Youngs Moduli (GPa) = 111.95153 135.89509 78.11290
#
# Poissons Ratio (x) = 0.30338 0.21479
# Poissons Ratio (y) = 0.24993 0.07590
# Poissons Ratio (z) = 0.30783 0.13205
#
# Static dielectric constant tensor:
#      x y z
#    x 1.872540 -0.069800 0.000600 
#    y -0.069800 1.946800 -0.041500 
#    z 0.000600 -0.041500 1.923830 
# 
# From -- ./inp_files/419019.got.cif
#   From: 2010.05.17/outbox.cif.g08.bks.cpg/sg2_210_cif.got.tgz:419019.got - 2010.06.03 11:33:40.
