data_PCOD9038692
_publ_section_title
;
Structure prediction by ZEFSAII (Michael W. Deem and Ramdas Pophale) SiO2 
 PCOD9038692
Probable space group: P -1
;
_chemical_formula_sum "Si O2"
_cell_formula_units_Z 12
_cell_length_a 11.526761
_cell_length_b 8.523689
_cell_length_c 8.222003
_cell_angle_alpha 127.655047
_cell_angle_beta 56.239725
_cell_angle_gamma 128.708265
_cell_volume 478.938378
_symmetry_space_group_name_H-M "P -1"
_symmetry_group_IT_number 2
_symmetry_cell_setting 'triclinic'
loop_
_space_group_symop_operation_xyz
x,y,z
-x,-y,-z
loop_
_atom_site_type_symbol
_atom_site_label
_atom_site_fract_x
_atom_site_fract_y
_atom_site_fract_z
Si Si1 0.314366 0.361149 0.057388
Si Si2 0.515849 0.846842 0.619077
Si Si3 0.952671 0.580103 0.836511
Si Si4 0.256556 0.907072 0.672923
Si Si5 0.951189 0.767882 0.301341
Si Si6 0.641852 0.650711 0.625650
O O1 0.216653 0.481874 0.140459
O O2 0.273553 0.295731 0.234935
O O3 0.500000 0.500000 0.000000
O O4 0.257293 0.136974 0.861570
O O5 0.358411 0.862752 0.706729
O O6 0.571746 0.820591 0.738591
O O7 0.483627 0.602399 0.424834
O O8 0.646529 0.039288 0.535519
O O9 0.086172 0.713664 0.686990
O O10 0.975120 0.372530 0.751354
O O11 0.983368 0.745094 0.072352
O O12 0.766072 0.655605 0.399509
O O13 0.000000 0.000000 0.500000
#
# Coordination Sequence:
#
# PCOD9038692 Si02
#       6
#     2   2   2   2   2   2
#     4  12  26  42  68 107 145 189 239 295 362 428
#     4  10  23  41  73  97 138 188 234 294 349 425
#     4  11  26  47  73 106 151 186 242 305 351 433
#     4  11  22  46  70 104 139 188 241 297 362 414
#     4  11  25  47  75 107 143 195 240 296 368 422
#     4  11  23  44  66 100 142 185 237 289 355 425
#
# _framework density 25.055415
#
# number of rings (size 3 to 8) (size 9 to 14) (size 15 to 20)
#    0.000    1.000    3.333    2.500    2.333    4.000 
#    3.000    0.000    0.000    0.000    0.000    0.000 
#    0.000    0.000    0.000    0.000    0.000    0.000 
#
# Total GULP energy -67172.461651 kJ/mol
# GULP energy per Si atom -5597.705138 kJ/mol
# Density = 2.499839 g / cm^3
# Si number density = 25.055415 Si / 1000 Ang^3
#
#
#
# Elastic Constant Matrix: (Units=GPa)
#
#
# Indices 1 2 3 4 5 6 
#
# 1 178.7287 56.0702 26.9163 11.8024 -40.6309 -10.8296
# 2 56.0702 111.0231 38.5748 4.7316 -12.8518 6.4398
# 3 26.9163 38.5748 66.2468 14.1028 -11.8325 6.8129
# 4 11.8024 4.7316 14.1028 41.7858 1.3236 -10.3627
# 5 -40.6309 -12.8518 -11.8325 1.3236 37.6304 2.8747
# 6 -10.8296 6.4398 6.8129 -10.3627 2.8747 34.5277
#
#
#
# Elastic Compliance Matrix: (Units=1/GPa)
#
#
# Indices 1 2 3 4 5 6 
#
# 1 0.008834 -0.003608 0.000161 -0.001866 0.008257 0.002165
# 2 -0.003608 0.012944 -0.006424 0.001329 -0.001407 -0.001762
# 3 0.000161 -0.006424 0.022253 -0.008544 0.005750 -0.006185
# 4 -0.001866 0.001329 -0.008544 0.029951 -0.006091 0.010349
# 5 0.008257 -0.001407 0.005750 -0.006091 0.037277 -0.003214
# 6 0.002165 -0.001762 -0.006185 0.010349 -0.003214 0.034564
#
#
# Mechanical properties :
#
#
# Convention : Reuss Voigt Hill
#
# Bulk Modulus (GPa) = 41.17220 66.56904 53.87062
# Shear Modulus (GPa) = 28.79170 38.41793 33.60482
#
# Velocity S-wave (km/s) = 3.39355 3.92001 3.66624
# Velocity P-wave (km/s) = 5.64119 6.86404 6.28244
#
# Compressibility (1/GPa) = 0.02428823
#
# Stress axis : x y z
#
# Youngs Moduli (GPa) = 113.19753 77.25646 44.93875
#
# Poissons Ratio (x) = 0.27871 -0.00722
# Poissons Ratio (y) = 0.40837 0.28870
# Poissons Ratio (z) = -0.01819 0.49632
#
# Static dielectric constant tensor:
#      x y z
#    x 2.037460 -0.000940 0.040440 
#    y -0.000940 1.991500 -0.014300 
#    z 0.040440 -0.014300 2.056690 
# 
# From -- ./inp_files/207611.got.cif
#   From: 2010.05.17/outbox.cif.g08.bks.cpg/sg2_104_cif.got.tgz:207611.got - 2010.06.03 11:33:40.
