data_PCOD9038739
_publ_section_title
;
Structure prediction by ZEFSAII (Michael W. Deem and Ramdas Pophale) SiO2 
 PCOD9038739
Probable space group: P -1
;
_chemical_formula_sum "Si O2"
_cell_formula_units_Z 10
_cell_length_a 7.965541
_cell_length_b 11.994212
_cell_length_c 6.871283
_cell_angle_alpha 39.400205
_cell_angle_beta 71.425663
_cell_angle_gamma 70.006747
_cell_volume 389.952259
_symmetry_space_group_name_H-M "P -1"
_symmetry_group_IT_number 2
_symmetry_cell_setting 'triclinic'
loop_
_space_group_symop_operation_xyz
x,y,z
-x,-y,-z
loop_
_atom_site_type_symbol
_atom_site_label
_atom_site_fract_x
_atom_site_fract_y
_atom_site_fract_z
Si Si1 0.781697 0.182844 0.286703
Si Si2 0.980147 0.765142 0.202652
Si Si3 0.669878 0.942496 0.335040
Si Si4 0.342038 0.419546 0.343115
Si Si5 0.670856 0.245934 0.668784
O O1 0.688395 0.033173 0.412912
O O2 0.769345 0.167361 0.541939
O O3 0.697401 0.389392 0.996865
O O4 0.970550 0.173330 0.113927
O O5 0.840063 0.626382 0.430700
O O6 0.173557 0.704372 0.316464
O O7 0.865750 0.902175 0.211528
O O8 0.614857 0.749041 0.595960
O O9 0.577833 0.098917 0.016085
O O10 0.511156 0.395825 0.454923
#
# Coordination Sequence:
#
# PCOD9038739 Si02
#       5
#     2   2   2   2   2
#     4  11  21  40  66  86 121 160 194 250 298 340
#     4   9  23  42  59  90 123 151 206 241 287 371
#     4   9  23  42  59  90 123 151 206 241 287 371
#     4  10  23  42  60  89 125 154 198 248 293 356
#     4  11  21  40  66  86 121 160 194 250 298 340
#
# _framework density 25.644162999999999
#
# number of rings (size 3 to 8) (size 9 to 14) (size 15 to 20)
#    1.200    0.800    0.000    4.200    0.000    8.000 
#    0.000    8.000    0.000    0.000    0.000    0.000 
#    0.000    0.000    0.000    0.000    0.000    0.000 
#
# Total GULP energy -55826.354502 kJ/mol
# GULP energy per Si atom -5582.635450 kJ/mol
# Density = 2.558580 g / cm^3
# Si number density = 25.644163 Si / 1000 Ang^3
#
#
#
# Elastic Constant Matrix: (Units=GPa)
#
#
# Indices 1 2 3 4 5 6 
#
# 1 88.1458 10.6263 12.7524 9.0886 -12.3165 -5.9059
# 2 10.6263 168.0831 43.3740 16.3782 -9.7433 17.6032
# 3 12.7524 43.3740 80.8244 17.4117 -9.1054 -1.6885
# 4 9.0886 16.3782 17.4117 64.3364 -12.2081 4.7438
# 5 -12.3165 -9.7433 -9.1054 -12.2081 46.2386 -7.3882
# 6 -5.9059 17.6032 -1.6885 4.7438 -7.3882 47.4179
#
#
#
# Elastic Compliance Matrix: (Units=1/GPa)
#
#
# Indices 1 2 3 4 5 6 
#
# 1 0.012228 -0.000457 -0.001100 -0.000896 0.003063 0.002220
# 2 -0.000457 0.007310 -0.003783 -0.000549 0.000075 -0.002839
# 3 -0.001100 -0.003783 0.015433 -0.002938 0.001549 0.002352
# 4 -0.000896 -0.000549 -0.002938 0.017349 0.003454 -0.001210
# 5 0.003063 0.000075 0.001549 0.003454 0.024290 0.003848
# 6 0.002220 -0.002839 0.002352 -0.001210 0.003848 0.023224
#
#
# Mechanical properties :
#
#
# Convention : Reuss Voigt Hill
#
# Bulk Modulus (GPa) = 41.16774 52.28429 46.72601
# Shear Modulus (GPa) = 42.15464 49.61864 45.88664
#
# Velocity S-wave (km/s) = 4.05882 4.40351 4.23467
# Velocity P-wave (km/s) = 6.16876 6.80347 6.49387
#
# Compressibility (1/GPa) = 0.02429087
#
# Stress axis : x y z
#
# Youngs Moduli (GPa) = 81.77879 136.80422 64.79712
#
# Poissons Ratio (x) = 0.06252 0.07125
# Poissons Ratio (y) = 0.03737 0.24514
# Poissons Ratio (z) = 0.08993 0.51756
#
# Static dielectric constant tensor:
#      x y z
#    x 2.091140 -0.065290 -0.029820 
#    y -0.065290 2.116860 -0.054240 
#    z -0.029820 -0.054240 1.971710 
# 
# From -- ./inp_files/22851.got.cif
#   From: 2010.05.17/outbox.cif.g08.bks.cpg/sg2_12_cif.got.tgz:22851.got - 2010.06.03 11:33:40.
