data_PCOD9038820
_publ_section_title
;
Structure prediction by ZEFSAII (Michael W. Deem and Ramdas Pophale) SiO2 
 PCOD9038820
Probable space group: P -1
;
_chemical_formula_sum "Si O2"
_cell_formula_units_Z 13
_cell_length_a 11.757308
_cell_length_b 10.955173
_cell_length_c 9.536165
_cell_angle_alpha 116.548787
_cell_angle_beta 82.644339
_cell_angle_gamma 43.910890
_cell_volume 524.556241
_symmetry_space_group_name_H-M "P -1"
_symmetry_group_IT_number 2
_symmetry_cell_setting 'triclinic'
loop_
_space_group_symop_operation_xyz
x,y,z
-x,-y,-z
loop_
_atom_site_type_symbol
_atom_site_label
_atom_site_fract_x
_atom_site_fract_y
_atom_site_fract_z
Si Si1 0.000000 0.000000 0.000000
Si Si2 0.301166 0.845443 0.086178
Si Si3 0.737591 0.662126 0.263301
Si Si4 0.530315 0.793057 0.821437
Si Si5 0.753406 0.178778 0.622744
Si Si6 0.438204 0.405479 0.563308
Si Si7 0.194199 0.374272 0.083797
O O1 0.909918 0.023253 0.878137
O O2 0.723394 0.292804 0.248160
O O3 0.267596 0.902312 0.285072
O O4 0.333621 0.946617 0.041936
O O5 0.547024 0.505477 0.851708
O O6 0.712834 0.546473 0.292500
O O7 0.961075 0.523074 0.200943
O O8 0.500000 0.000000 0.500000
O O9 0.783748 0.581960 0.050405
O O10 0.552734 0.664810 0.626774
O O11 0.767951 0.568812 0.759237
O O12 0.425941 0.035665 0.888534
O O13 0.684148 0.173884 0.487926
O O14 0.000000 0.000000 0.500000
#
# Coordination Sequence:
#
# PCOD9038820 Si02
#       7
#     1   2   2   2   2   2   2
#     4  10  24  42  66  96 134 172 226 284 324 390
#     4  10  23  42  63  93 129 172 219 277 331 390
#     4  11  22  45  69 100 134 183 221 270 339 406
#     4  11  23  43  67 102 132 178 222 282 339 390
#     4  10  24  43  64  91 130 179 222 268 330 405
#     4  11  24  43  70  98 135 181 225 275 340 397
#     4  10  24  44  68  99 140 171 224 280 332 399
#
# _framework density 24.782851999999998
#
# number of rings (size 3 to 8) (size 9 to 14) (size 15 to 20)
#    0.000    1.538    1.538    1.846    4.308    3.077 
#    5.538    0.000    0.000    0.000    0.000    0.000 
#    0.000    0.000    0.000    0.000    0.000    0.000 
#
# Total GULP energy -72537.100465 kJ/mol
# GULP energy per Si atom -5579.776959 kJ/mol
# Density = 2.472645 g / cm^3
# Si number density = 24.782852 Si / 1000 Ang^3
#
#
#
# Elastic Constant Matrix: (Units=GPa)
#
#
# Indices 1 2 3 4 5 6 
#
# 1 121.0140 69.0134 40.5411 -33.7549 -21.8504 -39.7147
# 2 69.0134 127.7982 51.3408 -39.3235 -12.5445 -47.1732
# 3 40.5411 51.3408 65.8834 -12.9627 3.0530 -26.9542
# 4 -33.7549 -39.3235 -12.9627 47.2556 -5.0427 -1.1819
# 5 -21.8504 -12.5445 3.0530 -5.0427 39.7881 -3.6252
# 6 -39.7147 -47.1732 -26.9542 -1.1819 -3.6252 67.8895
#
#
#
# Elastic Compliance Matrix: (Units=1/GPa)
#
#
# Indices 1 2 3 4 5 6 
#
# 1 0.021222 0.003937 -0.007867 0.018427 0.017043 0.013258
# 2 0.003937 0.024290 -0.011219 0.021936 0.014910 0.015905
# 3 -0.007867 -0.011219 0.026429 -0.008974 -0.011265 -0.002662
# 4 0.018427 0.021936 -0.008974 0.053595 0.026779 0.024822
# 5 0.017043 0.014910 -0.011265 0.026779 0.045159 0.018735
# 6 0.013258 0.015905 -0.002662 0.024822 0.018735 0.033912
#
#
# Mechanical properties :
#
#
# Convention : Reuss Voigt Hill
#
# Bulk Modulus (GPa) = 24.01374 70.72070 47.36722
# Shear Modulus (GPa) = 20.09753 41.23999 30.66876
#
# Velocity S-wave (km/s) = 2.85080 4.08371 3.52163
# Velocity P-wave (km/s) = 4.53285 7.12977 5.97413
#
# Compressibility (1/GPa) = 0.04164282
#
# Stress axis : x y z
#
# Youngs Moduli (GPa) = 47.12081 41.16877 37.83724
#
# Poissons Ratio (x) = -0.16207 0.29766
# Poissons Ratio (y) = -0.18550 0.42450
# Poissons Ratio (z) = 0.37070 0.46187
#
# Static dielectric constant tensor:
#      x y z
#    x 2.017830 0.049560 0.053690 
#    y 0.049560 2.032940 -0.004380 
#    z 0.053690 -0.004380 1.980110 
# 
# From -- ./inp_files/26595.got.cif
#   From: 2010.05.17/outbox.cif.g08.bks.cpg/sg2_14_cif.got.tgz:26595.got - 2010.06.03 11:33:40.
