data_PCOD9038258
_publ_section_title
;
Structure prediction by ZEFSAII (Michael W. Deem and Ramdas Pophale) SiO2 
 PCOD9038258
Probable space group: P -1
;
_chemical_formula_sum "Si O2"
_cell_formula_units_Z 14
_cell_length_a 10.761293
_cell_length_b 12.528853
_cell_length_c 12.071057
_cell_angle_alpha 42.385271
_cell_angle_beta 34.239495
_cell_angle_gamma 32.364922
_cell_volume 485.772686
_symmetry_space_group_name_H-M "P -1"
_symmetry_group_IT_number 2
_symmetry_cell_setting 'triclinic'
loop_
_space_group_symop_operation_xyz
x,y,z
-x,-y,-z
loop_
_atom_site_type_symbol
_atom_site_label
_atom_site_fract_x
_atom_site_fract_y
_atom_site_fract_z
Si Si1 0.495685 0.907410 0.746962
Si Si2 0.961876 0.537323 0.367240
Si Si3 0.252812 0.114544 0.999783
Si Si4 0.804844 0.060497 0.441228
Si Si5 0.446864 0.339928 0.689485
Si Si6 0.773548 0.273942 0.942669
Si Si7 0.305923 0.646598 0.317260
O O1 0.773750 0.673483 0.716567
O O2 0.393653 0.974883 0.895551
O O3 0.594038 0.041750 0.537051
O O4 0.279528 0.883945 0.860432
O O5 0.987164 0.714700 0.195111
O O6 0.000000 0.500000 0.500000
O O7 0.695395 0.543810 0.528585
O O8 0.196274 0.327179 0.860511
O O9 0.968025 0.143360 0.212745
O O10 0.500000 0.000000 0.000000
O O11 0.677198 0.150949 0.586076
O O12 0.062342 0.822914 0.440330
O O13 0.500000 0.500000 0.500000
O O14 0.444010 0.365535 0.805477
O O15 0.775768 0.276033 0.806370
O O16 0.500000 0.500000 0.000000
#
# Coordination Sequence:
#
# PCOD9038258 Si02
#       7
#     2   2   2   2   2   2   2
#     4   9  17  27  47  77 107 131 169 223 271 320
#     4   8  16  25  46  76 111 134 171 226 283 308
#     4  11  20  33  55  81 104 143 190 225 269 326
#     4  10  20  33  56  78 105 146 189 224 269 327
#     4  11  24  37  53  82 117 148 181 223 275 332
#     4   9  15  28  48  85 113 131 174 236 281 310
#     4  10  17  33  53  81 113 144 179 228 270 321
#
# _framework density 28.820065
#
# number of rings (size 3 to 8) (size 9 to 14) (size 15 to 20)
#    0.000    2.286    2.857    0.429    4.000    0.571 
#    0.000    0.000    0.000    0.000    0.000   86.000 
#    0.000    0.000    0.000    0.000    0.000    0.000 
#
# Total GULP energy -78132.545617 kJ/mol
# GULP energy per Si atom -5580.896116 kJ/mol
# Density = 2.875447 g / cm^3
# Si number density = 28.820065 Si / 1000 Ang^3
#
#
#
# Elastic Constant Matrix: (Units=GPa)
#
#
# Indices 1 2 3 4 5 6 
#
# 1 127.0008 56.7334 72.3646 -3.8008 -21.7253 42.2736
# 2 56.7334 166.9602 82.6954 -23.7686 -14.2021 50.7399
# 3 72.3646 82.6954 225.9183 -49.2435 -54.9681 35.1637
# 4 -3.8008 -23.7686 -49.2435 94.4270 23.5392 -20.6203
# 5 -21.7253 -14.2021 -54.9681 23.5392 69.5129 -20.6228
# 6 42.2736 50.7399 35.1637 -20.6203 -20.6228 51.5194
#
#
#
# Elastic Compliance Matrix: (Units=1/GPa)
#
#
# Indices 1 2 3 4 5 6 
#
# 1 0.012914 -0.000374 -0.003338 -0.003280 -0.000360 -0.009407
# 2 -0.000374 0.009938 -0.002912 -0.000216 -0.002910 -0.008745
# 3 -0.003338 -0.002912 0.007761 0.002757 0.004522 0.003223
# 4 -0.003280 -0.000216 0.002757 0.013535 -0.001773 0.005730
# 5 -0.000360 -0.002910 0.004522 -0.001773 0.020047 0.007391
# 6 -0.009407 -0.008745 0.003223 0.005730 0.007391 0.038794
#
#
# Mechanical properties :
#
#
# Convention : Reuss Voigt Hill
#
# Bulk Modulus (GPa) = 57.58527 104.82958 81.20743
# Shear Modulus (GPa) = 40.97502 63.63091 52.30297
#
# Velocity S-wave (km/s) = 3.77471 4.70389 4.26468
# Velocity P-wave (km/s) = 6.24678 8.12126 7.24490
#
# Compressibility (1/GPa) = 0.01736555
#
# Stress axis : x y z
#
# Youngs Moduli (GPa) = 77.43237 100.62242 128.85060
#
# Poissons Ratio (x) = 0.03759 0.43013
# Poissons Ratio (y) = 0.02893 0.37524
# Poissons Ratio (z) = 0.25848 0.29304
#
# Static dielectric constant tensor:
#      x y z
#    x 2.090160 -0.189330 -0.091700 
#    y -0.189330 2.219480 -0.032240 
#    z -0.091700 -0.032240 2.400850 
# 
# From -- ./inp_files/493921.got.cif
#   From: 2010.05.17/outbox.cif.g08.bks.cpg/sg2_247_cif.got.tgz:493921.got - 2010.06.03 11:33:40.
