data_PCOD9038027
_publ_section_title
;
Structure prediction by ZEFSAII (Michael W. Deem and Ramdas Pophale) SiO2 
 PCOD9038027
Probable space group: P -1
;
_chemical_formula_sum "Si O2"
_cell_formula_units_Z 16
_cell_length_a 12.318244
_cell_length_b 20.103527
_cell_length_c 8.912057
_cell_angle_alpha 144.068580
_cell_angle_beta 143.220046
_cell_angle_gamma 34.267378
_cell_volume 668.708128
_symmetry_space_group_name_H-M "P -1"
_symmetry_group_IT_number 2
_symmetry_cell_setting 'triclinic'
loop_
_space_group_symop_operation_xyz
x,y,z
-x,-y,-z
loop_
_atom_site_type_symbol
_atom_site_label
_atom_site_fract_x
_atom_site_fract_y
_atom_site_fract_z
Si Si1 0.285823 0.576677 0.310471
Si Si2 0.004251 0.250433 0.433391
Si Si3 0.126375 0.401307 0.662721
Si Si4 0.510756 0.087919 0.037965
Si Si5 0.721022 0.245033 0.860362
Si Si6 0.142979 0.838339 0.460746
Si Si7 0.771223 0.982073 0.548213
Si Si8 0.709233 0.637928 0.548394
O O1 0.500000 0.500000 0.500000
O O2 0.097094 0.655850 0.364517
O O3 0.278190 0.692285 0.412897
O O4 0.244098 0.477511 0.985906
O O5 0.170575 0.282677 0.603013
O O6 0.096220 0.099767 0.310504
O O7 0.825462 0.287596 0.179208
O O8 0.176240 0.354832 0.461975
O O9 0.878092 0.509538 0.586947
O O10 0.726967 0.085582 0.244574
O O11 0.358660 0.237355 0.194801
O O12 0.417633 0.047851 0.724491
O O13 0.500000 0.000000 0.000000
O O14 0.875163 0.181141 0.771661
O O15 0.502462 0.349806 0.732128
O O16 0.689046 0.133968 0.705096
O O17 0.930727 0.910868 0.453998
#
# Coordination Sequence:
#
# PCOD9038027 Si02
#       8
#     2   2   2   2   2   2   2   2
#     4  11  25  44  65  93 135 177 220 274 341 407
#     4  11  26  40  68  95 136 175 220 279 344 397
#     4  11  25  43  66  98 135 176 222 281 334 399
#     4  11  22  41  70 103 129 174 229 276 330 403
#     4  11  23  43  67  99 129 179 225 273 336 398
#     4  10  24  40  70  98 132 177 223 279 334 400
#     4  11  23  45  66  99 142 174 223 282 340 407
#     4  10  23  41  65  98 135 166 228 279 325 395
#
# _framework density 23.926734
#
# number of rings (size 3 to 8) (size 9 to 14) (size 15 to 20)
#    0.000    1.250    2.500    3.375   10.500    0.500 
#    0.000    0.625    0.000    0.000    0.000    0.000 
#    0.000    0.000    0.000    0.000    0.000    0.000 
#
# Total GULP energy -89502.062021 kJ/mol
# GULP energy per Si atom -5593.878876 kJ/mol
# Density = 2.387228 g / cm^3
# Si number density = 23.926734 Si / 1000 Ang^3
#
#
#
# Elastic Constant Matrix: (Units=GPa)
#
#
# Indices 1 2 3 4 5 6 
#
# 1 61.4624 12.9673 14.5070 10.8397 13.5663 18.4212
# 2 12.9673 97.0345 13.1549 -7.4837 11.6911 18.9695
# 3 14.5070 13.1549 91.9929 -0.4640 10.4236 12.3845
# 4 10.8397 -7.4837 -0.4640 27.1675 5.2552 3.0757
# 5 13.5663 11.6911 10.4236 5.2552 16.1266 5.8298
# 6 18.4212 18.9695 12.3845 3.0757 5.8298 38.9589
#
#
#
# Elastic Compliance Matrix: (Units=1/GPa)
#
#
# Indices 1 2 3 4 5 6 
#
# 1 0.022975 -0.000144 -0.000988 -0.005640 -0.013869 -0.007958
# 2 -0.000144 0.012952 -0.000031 0.006023 -0.009290 -0.005314
# 3 -0.000988 -0.000031 0.012154 0.002196 -0.006801 -0.002537
# 4 -0.005640 0.006023 0.002196 0.043817 -0.014506 -0.002253
# 5 -0.013869 -0.009290 -0.006801 -0.014506 0.089156 0.001047
# 6 -0.007958 -0.005314 -0.002537 -0.002253 0.001047 0.032846
#
#
# Mechanical properties :
#
#
# Convention : Reuss Voigt Hill
#
# Bulk Modulus (GPa) = 21.85613 36.86092 29.35853
# Shear Modulus (GPa) = 21.60040 30.44130 26.02085
#
# Velocity S-wave (km/s) = 3.00788 3.57076 3.30134
# Velocity P-wave (km/s) = 4.60625 5.69558 5.17963
#
# Compressibility (1/GPa) = 0.04575375
#
# Stress axis : x y z
#
# Youngs Moduli (GPa) = 43.52558 77.20989 82.27867
#
# Poissons Ratio (x) = 0.01115 0.08129
# Poissons Ratio (y) = 0.00629 0.00255
# Poissons Ratio (z) = 0.04300 0.00239
#
# Static dielectric constant tensor:
#      x y z
#    x 1.932630 -0.008550 0.020120 
#    y -0.008550 1.954140 -0.024740 
#    z 0.020120 -0.024740 1.896670 
# 
# From -- ./inp_files/280195.got.cif
#   From: 2010.05.17/outbox.cif.g08.bks.cpg/sg2_141_cif.got.tgz:280195.got - 2010.06.03 11:33:40.
