data_PCOD9038941
_publ_section_title
;
Structure prediction by ZEFSAII (Michael W. Deem and Ramdas Pophale) SiO2 
 PCOD9038941
Probable space group: P -1
;
_chemical_formula_sum "Si O2"
_cell_formula_units_Z 13
_cell_length_a 8.615026
_cell_length_b 11.761542
_cell_length_c 9.762680
_cell_angle_alpha 82.611861
_cell_angle_beta 139.583132
_cell_angle_gamma 118.413129
_cell_volume 514.555310
_symmetry_space_group_name_H-M "P -1"
_symmetry_group_IT_number 2
_symmetry_cell_setting 'triclinic'
loop_
_space_group_symop_operation_xyz
x,y,z
-x,-y,-z
loop_
_atom_site_type_symbol
_atom_site_label
_atom_site_fract_x
_atom_site_fract_y
_atom_site_fract_z
Si Si1 0.737937 0.968669 0.998037
Si Si2 0.000000 0.500000 0.000000
Si Si3 0.593019 0.867272 0.624974
Si Si4 0.772356 0.596658 0.271766
Si Si5 0.758527 0.215556 0.855913
Si Si6 0.262859 0.152848 0.715916
Si Si7 0.242183 0.559237 0.453245
O O1 0.779508 0.115608 0.985993
O O2 0.551140 0.882312 0.753540
O O3 0.067112 0.009313 0.199602
O O4 0.613108 0.883735 0.066344
O O5 0.025567 0.373956 0.980650
O O6 0.900338 0.514884 0.774876
O O7 0.382132 0.863116 0.370105
O O8 0.537267 0.715302 0.596904
O O9 0.828413 0.747992 0.307716
O O10 0.719677 0.530359 0.398062
O O11 0.034560 0.595851 0.382360
O O12 0.500000 0.500000 0.000000
O O13 0.522295 0.237803 0.763902
O O14 0.000000 0.000000 0.500000
#
# Coordination Sequence:
#
# PCOD9038941 Si02
#       7
#     2   1   2   2   2   2   2
#     4  11  24  42  67  95 137 179 223 275 352 403
#     4  10  24  42  68 102 128 176 230 280 344 400
#     4  10  23  42  65 100 127 175 230 281 337 411
#     4  11  25  47  71 100 139 184 239 279 345 416
#     4  11  24  44  66  96 137 177 227 281 344 400
#     4  12  26  43  67 102 138 180 229 280 337 413
#     4  10  24  45  74  98 137 181 227 293 342 403
#
# _framework density 25.264536
#
# number of rings (size 3 to 8) (size 9 to 14) (size 15 to 20)
#    0.000    1.231    1.538    2.769    4.308    9.846 
#    0.000    5.385    0.000    0.000    0.000    0.000 
#    0.000    0.000    0.000    0.000    0.000    0.000 
#
# Total GULP energy -72521.972920 kJ/mol
# GULP energy per Si atom -5578.613302 kJ/mol
# Density = 2.520703 g / cm^3
# Si number density = 25.264536 Si / 1000 Ang^3
#
#
#
# Elastic Constant Matrix: (Units=GPa)
#
#
# Indices 1 2 3 4 5 6 
#
# 1 73.4738 9.8219 59.6184 -8.6253 -20.7435 0.7296
# 2 9.8219 139.7641 68.1306 -28.3320 -20.8754 -16.2940
# 3 59.6184 68.1306 134.0008 -10.9939 -40.2412 -1.3269
# 4 -8.6253 -28.3320 -10.9939 52.7751 10.7002 -15.7721
# 5 -20.7435 -20.8754 -40.2412 10.7002 47.8772 -11.4818
# 6 0.7296 -16.2940 -1.3269 -15.7721 -11.4818 38.6048
#
#
#
# Elastic Compliance Matrix: (Units=1/GPa)
#
#
# Indices 1 2 3 4 5 6 
#
# 1 0.024817 0.006939 -0.013258 0.006071 0.002533 0.005237
# 2 0.006939 0.014498 -0.008923 0.009699 0.002125 0.010276
# 3 -0.013258 -0.008923 0.019665 -0.005184 0.007390 -0.002759
# 4 0.006071 0.009699 -0.005184 0.028735 -0.000208 0.015479
# 5 0.002533 0.002125 0.007390 -0.000208 0.031672 0.010438
# 6 0.005237 0.010276 -0.002759 0.015479 0.010438 0.039475
#
#
# Mechanical properties :
#
#
# Convention : Reuss Voigt Hill
#
# Bulk Modulus (GPa) = 35.09470 69.15339 52.12405
# Shear Modulus (GPa) = 25.14503 41.82926 33.48714
#
# Velocity S-wave (km/s) = 3.15821 4.07338 3.64464
# Velocity P-wave (km/s) = 5.21729 7.03949 6.19575
#
# Compressibility (1/GPa) = 0.02849433
#
# Stress axis : x y z
#
# Youngs Moduli (GPa) = 40.29535 68.97322 50.85176
#
# Poissons Ratio (x) = -0.47858 0.67422
# Poissons Ratio (y) = -0.27959 0.45375
# Poissons Ratio (z) = 0.53426 0.61545
#
# Static dielectric constant tensor:
#      x y z
#    x 1.986670 0.008690 0.054810 
#    y 0.008690 2.004270 0.065640 
#    z 0.054810 0.065640 2.038890 
# 
# From -- ./inp_files/26940.got.cif
#   From: 2010.05.17/outbox.cif.g08.bks.cpg/sg2_14_cif.got.tgz:26940.got - 2010.06.03 11:33:40.
