data_PCOD9038857
_publ_section_title
;
Structure prediction by ZEFSAII (Michael W. Deem and Ramdas Pophale) SiO2 
 PCOD9038857
Probable space group: P -1
;
_chemical_formula_sum "Si O2"
_cell_formula_units_Z 16
_cell_length_a 9.778750
_cell_length_b 8.374087
_cell_length_c 16.712005
_cell_angle_alpha 147.027896
_cell_angle_beta 90.534747
_cell_angle_gamma 97.824189
_cell_volume 718.223260
_symmetry_space_group_name_H-M "P -1"
_symmetry_group_IT_number 2
_symmetry_cell_setting 'triclinic'
loop_
_space_group_symop_operation_xyz
x,y,z
-x,-y,-z
loop_
_atom_site_type_symbol
_atom_site_label
_atom_site_fract_x
_atom_site_fract_y
_atom_site_fract_z
Si Si1 0.285057 0.692754 0.859918
Si Si2 0.532814 0.839328 0.176185
Si Si3 0.559006 0.769320 0.797731
Si Si4 0.917044 0.991981 0.078830
Si Si5 0.196624 0.082816 0.695717
Si Si6 0.338709 0.803970 0.437796
Si Si7 0.051862 0.860511 0.177313
Si Si8 0.271498 0.697675 0.215893
O O1 0.413295 0.621057 0.781814
O O2 0.226384 0.430621 0.812751
O O3 0.169411 0.756679 0.825684
O O4 0.347241 0.996415 0.039768
O O5 0.696216 0.947206 0.245613
O O6 0.437196 0.796270 0.237076
O O7 0.483519 0.049341 0.200096
O O8 0.500000 0.500000 0.000000
O O9 0.637615 0.517813 0.670121
O O10 0.028651 0.027956 0.166476
O O11 0.802110 0.661935 0.948760
O O12 0.000000 0.000000 0.000000
O O13 0.042746 0.024150 0.708825
O O14 0.245400 0.916772 0.550935
O O15 0.255592 0.766364 0.337177
O O16 0.500000 0.000000 0.500000
O O17 0.199476 0.878625 0.228849
O O18 0.000000 0.500000 0.000000
#
# Coordination Sequence:
#
# PCOD9038857 Si02
#       8
#     2   2   2   2   2   2   2   2
#     4  11  20  37  63  99 124 170 227 275 327 389
#     4  12  22  37  67 102 133 172 229 289 331 384
#     4  11  23  36  66  96 134 172 224 274 335 390
#     4  11  23  39  68  99 132 166 227 284 337 395
#     4  12  24  42  69  96 138 180 221 278 339 401
#     4  12  24  46  63 100 142 182 222 271 339 411
#     4  10  23  42  64 100 131 171 223 279 339 390
#     4  11  23  42  66  94 138 180 216 279 340 398
#
# _framework density 22.277197000000001
#
# number of rings (size 3 to 8) (size 9 to 14) (size 15 to 20)
#    0.000    0.750    5.000    4.500    1.750    1.000 
#    0.000    0.000    0.000    2.250    0.000    0.000 
#    0.000    0.000    0.000    0.000    0.000    0.000 
#
# Total GULP energy -89461.359503 kJ/mol
# GULP energy per Si atom -5591.334969 kJ/mol
# Density = 2.222649 g / cm^3
# Si number density = 22.277197 Si / 1000 Ang^3
#
#
#
# Elastic Constant Matrix: (Units=GPa)
#
#
# Indices 1 2 3 4 5 6 
#
# 1 59.6139 15.8291 8.9684 6.2462 -17.1280 -13.9892
# 2 15.8291 121.5764 5.3863 -1.9523 -3.5972 -27.5363
# 3 8.9684 5.3863 56.3294 -13.7225 -23.6890 -8.4969
# 4 6.2462 -1.9523 -13.7225 30.6105 0.5050 -4.4623
# 5 -17.1280 -3.5972 -23.6890 0.5050 27.1505 -6.9155
# 6 -13.9892 -27.5363 -8.4969 -4.4623 -6.9155 50.6224
#
#
#
# Elastic Compliance Matrix: (Units=1/GPa)
#
#
# Indices 1 2 3 4 5 6 
#
# 1 0.026500 -0.000128 0.009823 0.000388 0.028534 0.012835
# 2 -0.000128 0.009899 0.003348 0.003080 0.005874 0.006985
# 3 0.009823 0.003348 0.045936 0.021034 0.051720 0.021166
# 4 0.000388 0.003080 0.021034 0.043623 0.021267 0.012064
# 5 0.028534 0.005874 0.051720 0.021267 0.109668 0.036618
# 6 0.012835 0.006985 0.021166 0.012064 0.036618 0.036719
#
#
# Mechanical properties :
#
#
# Convention : Reuss Voigt Hill
#
# Bulk Modulus (GPa) = 9.22326 33.09859 21.16092
# Shear Modulus (GPa) = 17.70542 35.49907 26.60225
#
# Velocity S-wave (km/s) = 2.82224 3.99622 3.45939
# Velocity P-wave (km/s) = 3.84308 6.01522 5.04738
#
# Compressibility (1/GPa) = 0.10842153
#
# Stress axis : x y z
#
# Youngs Moduli (GPa) = 37.73582 101.02101 21.76933
#
# Poissons Ratio (x) = 0.01294 -0.21385
# Poissons Ratio (y) = 0.00483 -0.07288
# Poissons Ratio (z) = -0.37069 -0.33820
#
# Static dielectric constant tensor:
#      x y z
#    x 1.826760 0.023580 0.005940 
#    y 0.023580 1.803840 -0.003940 
#    z 0.005940 -0.003940 1.830280 
# 
# From -- ./inp_files/206958.got.cif
#   From: 2010.05.17/outbox.cif.g08.bks.cpg/sg2_104_cif.got.tgz:206958.got - 2010.06.03 11:33:40.
