data_PCOD9038741
_publ_section_title
;
Structure prediction by ZEFSAII (Michael W. Deem and Ramdas Pophale) SiO2 
 PCOD9038741
Probable space group: P -1
;
_chemical_formula_sum "Si O2"
_cell_formula_units_Z 14
_cell_length_a 12.579970
_cell_length_b 16.162910
_cell_length_c 12.538701
_cell_angle_alpha 26.425404
_cell_angle_beta 144.009166
_cell_angle_gamma 133.686889
_cell_volume 661.145127
_symmetry_space_group_name_H-M "P -1"
_symmetry_group_IT_number 2
_symmetry_cell_setting 'triclinic'
loop_
_space_group_symop_operation_xyz
x,y,z
-x,-y,-z
loop_
_atom_site_type_symbol
_atom_site_label
_atom_site_fract_x
_atom_site_fract_y
_atom_site_fract_z
Si Si1 0.561072 0.248650 0.752908
Si Si2 0.596978 0.290966 0.287548
Si Si3 0.721832 0.417482 0.864159
Si Si4 0.300474 0.067321 0.892621
Si Si5 0.982488 0.617710 0.686348
Si Si6 0.010692 0.356438 0.576119
Si Si7 0.397179 0.115385 0.148341
O O1 0.688763 0.240226 0.970429
O O2 0.473876 0.460477 0.417620
O O3 0.386390 0.150760 0.760763
O O4 0.663101 0.151936 0.846647
O O5 0.813814 0.284999 0.486665
O O6 0.528484 0.239753 0.173377
O O7 0.551112 0.105329 0.527942
O O8 0.500000 0.500000 0.000000
O O9 0.848588 0.518597 0.768244
O O10 0.825039 0.403126 0.075599
O O11 0.095370 0.161852 0.630098
O O12 0.399229 0.126940 0.009303
O O13 0.970299 0.550629 0.632793
O O14 0.000000 0.500000 0.500000
O O15 0.188342 0.199861 0.914114
#
# Coordination Sequence:
#
# PCOD9038741 Si02
#       7
#     2   2   2   2   2   2   2
#     4   9  18  33  57  82 113 150 186 238 292 346
#     4  11  23  41  65  89 117 163 204 256 304 359
#     4   9  18  35  54  86 113 147 197 234 285 358
#     4   9  19  36  54  80 115 151 184 242 295 348
#     4   9  20  35  55  80 118 150 191 241 288 354
#     4  11  22  40  62  89 125 166 202 253 308 361
#     4  10  23  42  60  90 125 156 209 251 302 368
#
# _framework density 21.175381000000002
#
# number of rings (size 3 to 8) (size 9 to 14) (size 15 to 20)
#    0.000    2.286    1.429    0.429    2.000    2.857 
#    2.571    0.000    0.000    0.000    0.000    0.000 
#    0.000    0.000    0.000    0.000    0.000    0.000 
#
# Total GULP energy -77943.165859 kJ/mol
# GULP energy per Si atom -5567.368990 kJ/mol
# Density = 2.112719 g / cm^3
# Si number density = 21.175381 Si / 1000 Ang^3
#
#
#
# Elastic Constant Matrix: (Units=GPa)
#
#
# Indices 1 2 3 4 5 6 
#
# 1 67.2876 32.8804 35.8130 -7.7059 7.3594 -22.4888
# 2 32.8804 120.7872 54.7792 3.6390 16.9888 -20.4076
# 3 35.8130 54.7792 78.8906 4.8303 7.5988 -24.1618
# 4 -7.7059 3.6390 4.8303 33.2611 -4.4128 4.3690
# 5 7.3594 16.9888 7.5988 -4.4128 23.4744 -0.1719
# 6 -22.4888 -20.4076 -24.1618 4.3690 -0.1719 39.8319
#
#
#
# Elastic Compliance Matrix: (Units=1/GPa)
#
#
# Indices 1 2 3 4 5 6 
#
# 1 0.022648 -0.001519 -0.007102 0.005153 -0.002681 0.007124
# 2 -0.001519 0.013335 -0.007211 -0.001952 -0.007194 0.001783
# 3 -0.007102 -0.007211 0.023536 -0.005364 -0.001129 0.007156
# 4 0.005153 -0.001952 -0.005364 0.033959 0.007881 -0.005035
# 5 -0.002681 -0.007194 -0.001129 0.007881 0.050446 -0.006531
# 6 0.007124 0.001783 0.007156 -0.005035 -0.006531 0.034906
#
#
# Mechanical properties :
#
#
# Convention : Reuss Voigt Hill
#
# Bulk Modulus (GPa) = 35.90059 57.10119 46.50089
# Shear Modulus (GPa) = 22.75019 28.87966 25.81492
#
# Velocity S-wave (km/s) = 3.28131 3.69702 3.49535
# Velocity P-wave (km/s) = 5.59882 6.72668 6.18850
#
# Compressibility (1/GPa) = 0.02785470
#
# Stress axis : x y z
#
# Youngs Moduli (GPa) = 44.15384 74.99154 42.48826
#
# Poissons Ratio (x) = 0.11389 0.30176
# Poissons Ratio (y) = 0.06706 0.30639
# Poissons Ratio (z) = 0.31359 0.54078
#
# Static dielectric constant tensor:
#      x y z
#    x 1.806410 0.011330 -0.030760 
#    y 0.011330 1.791210 -0.046460 
#    z -0.030760 -0.046460 1.846350 
# 
# From -- ./inp_files/351545.got.cif
#   From: 2010.05.17/outbox.cif.g08.bks.cpg/sg2_176_cif.got.tgz:351545.got - 2010.06.03 11:33:40.
