data_PCOD9038866
_publ_section_title
;
Structure prediction by ZEFSAII (Michael W. Deem and Ramdas Pophale) SiO2 
 PCOD9038866
Probable space group: P -1
;
_chemical_formula_sum "Si O2"
_cell_formula_units_Z 14
_cell_length_a 7.250848
_cell_length_b 9.329925
_cell_length_c 14.932734
_cell_angle_alpha 59.511012
_cell_angle_beta 47.441563
_cell_angle_gamma 46.990934
_cell_volume 542.128880
_symmetry_space_group_name_H-M "P -1"
_symmetry_group_IT_number 2
_symmetry_cell_setting 'triclinic'
loop_
_space_group_symop_operation_xyz
x,y,z
-x,-y,-z
loop_
_atom_site_type_symbol
_atom_site_label
_atom_site_fract_x
_atom_site_fract_y
_atom_site_fract_z
Si Si1 0.449252 0.576567 0.597888
Si Si2 0.685662 0.546466 0.131053
Si Si3 0.513568 0.246099 0.219357
Si Si4 0.929539 0.024383 0.618085
Si Si5 0.554335 0.930620 0.857675
Si Si6 0.156199 0.983371 0.112144
Si Si7 0.239642 0.226442 0.491203
O O1 0.500000 0.500000 0.500000
O O2 0.362597 0.475550 0.738687
O O3 0.713256 0.619065 0.518569
O O4 0.174176 0.801019 0.634617
O O5 0.606892 0.399665 0.157267
O O6 0.217975 0.102081 0.128523
O O7 0.000000 0.500000 0.000000
O O8 0.283997 0.265203 0.361758
O O9 0.823751 0.038181 0.201533
O O10 0.399657 0.250892 0.156303
O O11 0.966095 0.194266 0.594506
O O12 0.611543 0.058002 0.729289
O O13 0.000000 0.000000 0.500000
O O14 0.583260 0.237760 0.880574
O O15 0.236834 0.034456 0.974332
O O16 0.500000 0.000000 0.500000
#
# Coordination Sequence:
#
# PCOD9038866 Si02
#       7
#     2   2   2   2   2   2   2
#     4  10  23  42  64 101 136 168 230 287 334 412
#     4  11  24  45  70  98 141 180 225 284 343 406
#     4  11  23  45  67  99 138 176 231 282 333 415
#     4  11  21  40  70  92 128 181 222 271 344 405
#     4  11  23  43  69 101 133 177 234 277 337 412
#     4  11  24  42  70 101 135 179 225 284 340 400
#     4   9  19  39  65  91 130 177 221 274 335 404
#
# _framework density 25.824116
#
# number of rings (size 3 to 8) (size 9 to 14) (size 15 to 20)
#    0.000    1.429    1.429    5.571    2.000    0.571 
#    0.000   10.714    0.000    0.000    0.000    0.000 
#    0.000    0.000    0.000    0.000    0.000    0.000 
#
# Total GULP energy -78127.668937 kJ/mol
# GULP energy per Si atom -5580.547781 kJ/mol
# Density = 2.576534 g / cm^3
# Si number density = 25.824116 Si / 1000 Ang^3
#
#
#
# Elastic Constant Matrix: (Units=GPa)
#
#
# Indices 1 2 3 4 5 6 
#
# 1 96.3914 56.4061 46.6225 9.4292 -13.8227 20.6753
# 2 56.4061 143.6287 64.9527 2.5306 -3.9029 21.4326
# 3 46.6225 64.9527 189.9994 22.6640 -14.1979 8.7004
# 4 9.4292 2.5306 22.6640 39.6899 7.6761 9.9360
# 5 -13.8227 -3.9029 -14.1979 7.6761 40.2863 10.1639
# 6 20.6753 21.4326 8.7004 9.9360 10.1639 60.0375
#
#
#
# Elastic Compliance Matrix: (Units=1/GPa)
#
#
# Indices 1 2 3 4 5 6 
#
# 1 0.015845 -0.004829 -0.001246 -0.002900 0.006119 -0.004108
# 2 -0.004829 0.010250 -0.002700 0.002810 -0.001701 -0.001782
# 3 -0.001246 -0.002700 0.007156 -0.004259 0.002483 0.000640
# 4 -0.002900 0.002810 -0.004259 0.030327 -0.007198 -0.003188
# 5 0.006119 -0.001701 0.002483 -0.007198 0.030473 -0.005827
# 6 -0.004108 -0.001782 0.000640 -0.003188 -0.005827 0.020128
#
#
# Mechanical properties :
#
#
# Convention : Reuss Voigt Hill
#
# Bulk Modulus (GPa) = 63.68812 85.10912 74.39862
# Shear Modulus (GPa) = 36.50615 45.47197 40.98906
#
# Velocity S-wave (km/s) = 3.76393 4.20078 3.98834
# Velocity P-wave (km/s) = 6.60343 7.52047 7.07682
#
# Compressibility (1/GPa) = 0.01570151
#
# Stress axis : x y z
#
# Youngs Moduli (GPa) = 63.11128 97.56199 139.74092
#
# Poissons Ratio (x) = 0.47111 0.17413
# Poissons Ratio (y) = 0.30475 0.37728
# Poissons Ratio (z) = 0.07864 0.26340
#
# Static dielectric constant tensor:
#      x y z
#    x 2.203600 -0.152490 0.060230 
#    y -0.152490 2.158310 -0.031180 
#    z 0.060230 -0.031180 2.163960 
# 
# From -- ./inp_files/492429.got.cif
#   From: 2010.05.17/outbox.cif.g08.bks.cpg/sg2_247_cif.got.tgz:492429.got - 2010.06.03 11:33:40.
