data_PCOD9038024
_publ_section_title
;
Structure prediction by ZEFSAII (Michael W. Deem and Ramdas Pophale) SiO2 
 PCOD9038024
Probable space group: P -1
;
_chemical_formula_sum "Si O2"
_cell_formula_units_Z 14
_cell_length_a 18.104840
_cell_length_b 13.845973
_cell_length_c 5.325436
_cell_angle_alpha 59.974949
_cell_angle_beta 120.412060
_cell_angle_gamma 145.655819
_cell_volume 640.130323
_symmetry_space_group_name_H-M "P -1"
_symmetry_group_IT_number 2
_symmetry_cell_setting 'triclinic'
loop_
_space_group_symop_operation_xyz
x,y,z
-x,-y,-z
loop_
_atom_site_type_symbol
_atom_site_label
_atom_site_fract_x
_atom_site_fract_y
_atom_site_fract_z
Si Si1 0.490201 0.301865 0.780166
Si Si2 0.545338 0.953155 0.449546
Si Si3 0.659565 0.280283 0.976962
Si Si4 0.156122 0.124807 0.100653
Si Si5 0.326191 0.334641 0.634185
Si Si6 0.085393 0.590113 0.780370
Si Si7 0.247448 0.971488 0.457277
O O1 0.592788 0.303454 0.020188
O O2 0.423829 0.323409 0.830922
O O3 0.576307 0.466330 0.526988
O O4 0.365369 0.120859 0.659615
O O5 0.416323 0.768243 0.347979
O O6 0.664488 0.988810 0.676078
O O7 0.500000 0.000000 0.500000
O O8 0.617284 0.109634 0.174414
O O9 0.815846 0.418928 0.046801
O O10 0.229637 0.223041 0.367003
O O11 0.168333 0.004545 0.227535
O O12 0.240123 0.261858 0.834469
O O13 0.000000 0.000000 0.000000
O O14 0.000000 0.500000 0.500000
O O15 0.155197 0.781117 0.645932
O O16 0.000000 0.500000 0.000000
#
# Coordination Sequence:
#
# PCOD9038024 Si02
#       7
#     2   2   2   2   2   2   2
#     4   9  20  41  65  95 125 163 211 278 331 370
#     4   9  18  34  61  90 116 150 206 266 313 374
#     4   9  20  37  57  88 121 160 205 256 321 373
#     4  11  24  43  65  93 133 176 213 251 313 392
#     4  10  23  41  65  98 131 160 216 273 316 371
#     4  11  26  43  60  89 130 170 214 258 308 387
#     4   9  22  41  63  93 123 168 211 264 324 374
#
# _framework density 21.870545
#
# number of rings (size 3 to 8) (size 9 to 14) (size 15 to 20)
#    0.000    2.286    0.000    1.286    6.000    9.714 
#    2.571    0.000    0.000    0.000    0.000    0.000 
#    0.000    0.000    0.000    0.000    0.000    0.000 
#
# Total GULP energy -77997.152306 kJ/mol
# GULP energy per Si atom -5571.225165 kJ/mol
# Density = 2.182077 g / cm^3
# Si number density = 21.870545 Si / 1000 Ang^3
#
#
#
# Elastic Constant Matrix: (Units=GPa)
#
#
# Indices 1 2 3 4 5 6 
#
# 1 140.3363 53.3521 52.9408 21.9612 25.7296 30.4545
# 2 53.3521 114.0490 46.9968 -10.6105 8.4460 10.5442
# 3 52.9408 46.9968 91.3706 -0.4334 -0.2732 16.3769
# 4 21.9612 -10.6105 -0.4334 23.1601 -1.7703 11.9550
# 5 25.7296 8.4460 -0.2732 -1.7703 47.7827 -0.7609
# 6 30.4545 10.5442 16.3769 11.9550 -0.7609 45.6112
#
#
#
# Elastic Compliance Matrix: (Units=1/GPa)
#
#
# Indices 1 2 3 4 5 6 
#
# 1 0.016855 -0.006067 -0.006208 -0.017968 -0.008753 -0.003059
# 2 -0.006067 0.014319 -0.003535 0.013056 0.001177 -0.001392
# 3 -0.006208 -0.003535 0.016882 0.006290 0.004255 -0.002677
# 4 -0.017968 0.013056 0.006290 0.073458 0.009928 -0.012367
# 5 -0.008753 0.001177 0.004255 0.009928 0.025855 0.001874
# 6 -0.003059 -0.001392 -0.002677 -0.012367 0.001874 0.028523
#
#
# Mechanical properties :
#
#
# Convention : Reuss Voigt Hill
#
# Bulk Modulus (GPa) = 60.84341 72.48173 66.66257
# Shear Modulus (GPa) = 23.47524 36.14189 29.80857
#
# Velocity S-wave (km/s) = 3.27979 4.06955 3.69583
# Velocity P-wave (km/s) = 6.49791 7.43605 6.98276
#
# Compressibility (1/GPa) = 0.01643563
#
# Stress axis : x y z
#
# Youngs Moduli (GPa) = 59.33037 69.83688 59.23429
#
# Poissons Ratio (x) = 0.42370 0.36775
# Poissons Ratio (y) = 0.35996 0.20938
# Poissons Ratio (z) = 0.36835 0.24686
#
# Static dielectric constant tensor:
#      x y z
#    x 1.974790 -0.011510 0.062650 
#    y -0.011510 1.849750 -0.063540 
#    z 0.062650 -0.063540 2.015690 
# 
# From -- ./inp_files/52945.got.cif
#   From: 2010.05.17/outbox.cif.g08.bks.cpg/sg2_27_cif.got.tgz:52945.got - 2010.06.03 11:33:40.
