data_PCOD9038740
_publ_section_title
;
Structure prediction by ZEFSAII (Michael W. Deem and Ramdas Pophale) SiO2 
 PCOD9038740
Probable space group: P -1
;
_chemical_formula_sum "Si O2"
_cell_formula_units_Z 16
_cell_length_a 16.403955
_cell_length_b 8.350179
_cell_length_c 13.040669
_cell_angle_alpha 76.205137
_cell_angle_beta 43.480639
_cell_angle_gamma 110.563517
_cell_volume 740.210850
_symmetry_space_group_name_H-M "P -1"
_symmetry_group_IT_number 2
_symmetry_cell_setting 'triclinic'
loop_
_space_group_symop_operation_xyz
x,y,z
-x,-y,-z
loop_
_atom_site_type_symbol
_atom_site_label
_atom_site_fract_x
_atom_site_fract_y
_atom_site_fract_z
Si Si1 0.386352 0.800562 0.434722
Si Si2 0.348211 0.419917 0.790175
Si Si3 0.515836 0.753288 0.781626
Si Si4 0.820249 0.598585 0.722856
Si Si5 0.756086 0.913731 0.733047
Si Si6 0.552660 0.220728 0.853364
Si Si7 0.061607 0.253285 0.939471
Si Si8 0.674027 0.919784 0.268287
O O1 0.413491 0.770280 0.297931
O O2 0.219296 0.510631 0.683365
O O3 0.575812 0.972665 0.302783
O O4 0.360717 0.968708 0.426774
O O5 0.428166 0.534895 0.812126
O O6 0.165860 0.334847 0.940436
O O7 0.519852 0.668951 0.522539
O O8 0.301696 0.183709 0.832389
O O9 0.639917 0.805209 0.749608
O O10 0.336129 0.645294 0.019280
O O11 0.799269 0.770731 0.737264
O O12 0.744754 0.491958 0.692897
O O13 0.035964 0.775844 0.512027
O O14 0.620908 0.846452 0.951748
O O15 0.500000 0.000000 0.000000
O O16 0.000000 0.000000 0.000000
O O17 0.870138 0.149394 0.115987
#
# Coordination Sequence:
#
# PCOD9038740 Si02
#       8
#     2   2   2   2   2   2   2   2
#     4  11  23  37  61  92 119 163 202 240 312 359
#     4   9  20  38  63  83 115 157 198 252 304 357
#     4  11  22  40  59  90 127 160 198 251 308 361
#     4  10  23  42  60  89 125 163 209 247 298 363
#     4  10  23  42  61  88 126 163 205 252 296 362
#     4  11  21  41  62  90 129 163 195 253 304 359
#     4   9  20  42  58  87 121 147 205 255 292 360
#     4   9  20  38  60  87 114 153 204 251 297 359
#
# _framework density 21.615462999999998
#
# number of rings (size 3 to 8) (size 9 to 14) (size 15 to 20)
#    0.000    2.000    2.500    2.250    3.500    5.500 
#    6.750    1.250    0.000    0.000    0.000    0.000 
#    0.000    0.000    0.000    0.000    0.000    0.000 
#
# Total GULP energy -89302.455566 kJ/mol
# GULP energy per Si atom -5581.403473 kJ/mol
# Density = 2.156626 g / cm^3
# Si number density = 21.615463 Si / 1000 Ang^3
#
#
#
# Elastic Constant Matrix: (Units=GPa)
#
#
# Indices 1 2 3 4 5 6 
#
# 1 49.1031 -0.0112 40.6251 2.1843 -11.3229 0.1061
# 2 -0.0112 46.0824 10.9057 1.4017 -2.6112 5.6914
# 3 40.6251 10.9057 59.3661 -21.7304 -16.8196 14.1368
# 4 2.1843 1.4017 -21.7304 20.8467 1.4770 7.9153
# 5 -11.3229 -2.6112 -16.8196 1.4770 38.8084 -17.7196
# 6 0.1061 5.6914 14.1368 7.9153 -17.7196 24.8473
#
#
#
# Elastic Compliance Matrix: (Units=1/GPa)
#
#
# Indices 1 2 3 4 5 6 
#
# 1 -0.007969 -0.004379 0.029569 0.046347 -0.008181 -0.036385
# 2 -0.004379 0.021907 0.003701 0.007981 -0.004312 -0.012723
# 3 0.029569 0.003701 -0.027805 -0.050622 0.019119 0.044606
# 4 0.046347 0.007981 -0.050622 -0.028698 0.014252 0.046081
# 5 -0.008181 -0.004312 0.019119 0.014252 0.035976 0.011261
# 6 -0.036385 -0.012723 0.044606 0.046081 0.011261 0.011288
#
#
# Mechanical properties :
#
#
# Convention : Reuss Voigt Hill
#
# Bulk Modulus (GPa) = 22.77070 28.62120 25.69595
# Shear Modulus (GPa) = -130.05453 23.76927 -53.14263
#
# Velocity S-wave (km/s) = -7.76518 3.31968 -4.96375
# Velocity P-wave (km/s) = 8.35703 5.28806 4.57583
#
# Compressibility (1/GPa) = 0.04391608
#
# Stress axis : x y z
#
# Youngs Moduli (GPa) = -125.48191 45.64649 -35.96482
#
# Poissons Ratio (x) = 0.19990 1.06345
# Poissons Ratio (y) = -0.54952 0.13312
# Poissons Ratio (z) = 3.71041 -0.16896
#
# Static dielectric constant tensor:
#      x y z
#    x 1.788000 -0.017450 -0.006500 
#    y -0.017450 1.859190 -0.024650 
#    z -0.006500 -0.024650 1.818920 
# 
# From -- ./inp_files/399143.got.cif
#   From: 2010.05.17/outbox.cif.g08.bks.cpg/sg2_200_cif.got.tgz:399143.got - 2010.06.03 11:33:40.
