data_PCOD9038016
_publ_section_title
;
Structure prediction by ZEFSAII (Michael W. Deem and Ramdas Pophale) SiO2 
 PCOD9038016
Probable space group: P -1
;
_chemical_formula_sum "Si O2"
_cell_formula_units_Z 16
_cell_length_a 8.874277
_cell_length_b 21.123225
_cell_length_c 5.127171
_cell_angle_alpha 56.192050
_cell_angle_beta 62.926762
_cell_angle_gamma 53.675003
_cell_volume 631.986460
_symmetry_space_group_name_H-M "P -1"
_symmetry_group_IT_number 2
_symmetry_cell_setting 'triclinic'
loop_
_space_group_symop_operation_xyz
x,y,z
-x,-y,-z
loop_
_atom_site_type_symbol
_atom_site_label
_atom_site_fract_x
_atom_site_fract_y
_atom_site_fract_z
Si Si1 0.747053 0.850538 0.006630
Si Si2 0.886190 0.493529 0.353062
Si Si3 0.989968 0.687154 0.537517
Si Si4 0.627195 0.676272 0.030358
Si Si5 0.711995 0.951590 0.321799
Si Si6 0.143547 0.939438 0.747347
Si Si7 0.429106 0.809403 0.476657
Si Si8 0.792119 0.221019 0.647171
O O1 0.890567 0.762976 0.233288
O O2 0.708395 0.922665 0.094435
O O3 0.559286 0.837846 0.137717
O O4 0.807838 0.872226 0.632873
O O5 0.000000 0.500000 0.500000
O O6 0.898506 0.400915 0.509995
O O7 0.687096 0.578701 0.285108
O O8 0.000000 0.500000 0.000000
O O9 0.824040 0.684833 0.859029
O O10 0.131229 0.710992 0.534433
O O11 0.557341 0.714401 0.708385
O O12 0.435253 0.733819 0.206695
O O13 0.500000 0.000000 0.500000
O O14 0.815695 0.010261 0.163688
O O15 0.353086 0.883969 0.582792
O O16 0.104326 0.862791 0.063360
O O17 0.000000 0.000000 0.500000
O O18 0.231858 0.812269 0.536413
#
# Coordination Sequence:
#
# PCOD9038016 Si02
#       8
#     2   2   2   2   2   2   2   2
#     4  11  25  41  69  95 136 182 236 288 353 414
#     4  10  23  45  75 110 142 183 238 289 352 428
#     4  10  24  45  71 105 136 187 232 286 353 429
#     4   9  23  45  70  99 140 182 225 292 348 418
#     4  12  24  42  64  96 127 182 240 287 342 422
#     4  11  25  41  61  93 140 181 234 301 352 406
#     4  10  23  41  65  97 137 183 233 292 352 421
#     4  11  24  45  68 101 141 184 238 286 361 420
#
# _framework density 25.317001000000001
#
# number of rings (size 3 to 8) (size 9 to 14) (size 15 to 20)
#    0.000    1.500    1.250    1.875   12.250    2.000 
#    9.000    0.625    0.000    0.000    0.000    0.000 
#    0.000    0.000    0.000    0.000    0.000    0.000 
#
# Total GULP energy -89471.110607 kJ/mol
# GULP energy per Si atom -5591.944413 kJ/mol
# Density = 2.525938 g / cm^3
# Si number density = 25.317001 Si / 1000 Ang^3
#
#
#
# Elastic Constant Matrix: (Units=GPa)
#
#
# Indices 1 2 3 4 5 6 
#
# 1 162.2846 55.7294 35.2413 -15.1927 -10.2571 28.1620
# 2 55.7294 137.2573 35.6401 -32.0369 6.4282 13.7883
# 3 35.2413 35.6401 95.4042 -11.2764 6.5348 12.3321
# 4 -15.1927 -32.0369 -11.2764 48.0838 -1.0732 5.6169
# 5 -10.2571 6.4282 6.5348 -1.0732 46.5566 -4.9796
# 6 28.1620 13.7883 12.3321 5.6169 -4.9796 48.5503
#
#
#
# Elastic Compliance Matrix: (Units=1/GPa)
#
#
# Indices 1 2 3 4 5 6 
#
# 1 0.008190 -0.002372 -0.001689 0.001072 0.002012 -0.003565
# 2 -0.002372 0.010414 -0.001941 0.005923 -0.001761 -0.001954
# 3 -0.001689 -0.001941 0.012372 0.001259 -0.002022 -0.001965
# 4 0.001072 0.005923 0.001259 0.026028 -0.000769 -0.005714
# 5 0.002012 -0.001761 -0.002022 -0.000769 0.022674 0.002261
# 6 -0.003565 -0.001954 -0.001965 -0.005714 0.002261 0.024612
#
#
# Mechanical properties :
#
#
# Convention : Reuss Voigt Hill
#
# Bulk Modulus (GPa) = 52.71202 72.01863 62.36532
# Shear Modulus (GPa) = 40.77717 46.52715 43.65216
#
# Velocity S-wave (km/s) = 4.01766 4.29159 4.15688
# Velocity P-wave (km/s) = 6.51062 7.28460 6.90846
#
# Compressibility (1/GPa) = 0.01897101
#
# Stress axis : x y z
#
# Youngs Moduli (GPa) = 122.10255 96.02484 80.82809
#
# Poissons Ratio (x) = 0.22781 0.13654
# Poissons Ratio (y) = 0.28968 0.15687
# Poissons Ratio (z) = 0.20626 0.18636
#
# Static dielectric constant tensor:
#      x y z
#    x 2.104690 0.021450 0.063210 
#    y 0.021450 2.163060 0.056420 
#    z 0.063210 0.056420 2.051980 
# 
# From -- ./inp_files/52192.got.cif
#   From: 2010.05.17/outbox.cif.g08.bks.cpg/sg2_27_cif.got.tgz:52192.got - 2010.06.03 11:33:40.
