data_PCOD9038513
_publ_section_title
;
Structure prediction by ZEFSAII (Michael W. Deem and Ramdas Pophale) SiO2 
 PCOD9038513
Probable space group: P -1
;
_chemical_formula_sum "Si O2"
_cell_formula_units_Z 12
_cell_length_a 9.840346
_cell_length_b 11.019712
_cell_length_c 5.085230
_cell_angle_alpha 88.291175
_cell_angle_beta 108.427440
_cell_angle_gamma 102.163686
_cell_volume 511.008801
_symmetry_space_group_name_H-M "P -1"
_symmetry_group_IT_number 2
_symmetry_cell_setting 'triclinic'
loop_
_space_group_symop_operation_xyz
x,y,z
-x,-y,-z
loop_
_atom_site_type_symbol
_atom_site_label
_atom_site_fract_x
_atom_site_fract_y
_atom_site_fract_z
Si Si1 0.103616 0.025560 0.811547
Si Si2 0.707338 0.321015 0.443902
Si Si3 0.830406 0.221307 0.016575
Si Si4 0.211321 0.309779 0.752012
Si Si5 0.922317 0.573169 0.734197
Si Si6 0.594199 0.628882 0.649045
O O1 0.181701 0.168439 0.834352
O O2 0.196971 0.919490 0.892009
O O3 0.000000 0.000000 0.500000
O O4 0.000000 0.000000 0.000000
O O5 0.762503 0.301191 0.186024
O O6 0.783021 0.458672 0.589406
O O7 0.531445 0.300429 0.343466
O O8 0.760771 0.230459 0.689975
O O9 0.003699 0.287408 0.112609
O O10 0.076614 0.371708 0.572622
O O11 0.303986 0.314740 0.536240
O O12 0.303259 0.386179 0.039575
O O13 0.000000 0.500000 0.000000
O O14 0.500000 0.500000 0.500000
#
# Coordination Sequence:
#
# PCOD9038513 Si02
#       6
#     2   2   2   2   2   2
#     4  12  25  46  72 102 143 183 235 288 349 424
#     4  11  24  42  67  98 143 180 230 281 352 407
#     4  11  24  43  66 102 138 181 225 291 349 410
#     4  12  26  44  74 106 140 184 244 283 351 420
#     4  10  23  41  70 106 145 174 227 293 364 414
#     4  12  26  46  70 103 143 191 235 288 342 426
#
# _framework density 23.482959999999999
#
# number of rings (size 3 to 8) (size 9 to 14) (size 15 to 20)
#    0.000    0.667    3.333    4.000    2.333    1.333 
#    0.000    5.000    0.000    0.000    0.000    0.000 
#    0.000    0.000    0.000    0.000    0.000    0.000 
#
# Total GULP energy -66867.540377 kJ/mol
# GULP energy per Si atom -5572.295031 kJ/mol
# Density = 2.342951 g / cm^3
# Si number density = 23.482960 Si / 1000 Ang^3
#
#
#
# Elastic Constant Matrix: (Units=GPa)
#
#
# Indices 1 2 3 4 5 6 
#
# 1 95.5760 13.7982 22.7655 1.0651 -18.3482 -1.6008
# 2 13.7982 111.9855 43.2261 -26.2752 2.2238 -3.1195
# 3 22.7655 43.2261 155.9522 -13.8737 5.8212 4.6268
# 4 1.0651 -26.2752 -13.8737 45.7068 -0.4304 -7.2626
# 5 -18.3482 2.2238 5.8212 -0.4304 38.8407 1.4212
# 6 -1.6008 -3.1195 4.6268 -7.2626 1.4212 16.4247
#
#
#
# Elastic Compliance Matrix: (Units=1/GPa)
#
#
# Indices 1 2 3 4 5 6 
#
# 1 0.012271 -0.001271 -0.001806 -0.001462 0.006114 0.000288
# 2 -0.001271 0.011953 -0.002642 0.007059 -0.001034 0.006101
# 3 -0.001806 -0.002642 0.007584 0.000415 -0.001743 -0.002480
# 4 -0.001462 0.007059 0.000415 0.028259 -0.001345 0.013693
# 5 0.006114 -0.001034 -0.001743 -0.001345 0.029021 -0.002215
# 6 0.000288 0.006101 -0.002480 0.013693 -0.002215 0.069016
#
#
# Mechanical properties :
#
#
# Convention : Reuss Voigt Hill
#
# Bulk Modulus (GPa) = 49.09218 58.12147 53.60683
# Shear Modulus (GPa) = 28.35564 39.10935 33.73250
#
# Velocity S-wave (km/s) = 3.47868 4.08540 3.79419
# Velocity P-wave (km/s) = 6.08981 6.85990 6.48629
#
# Compressibility (1/GPa) = 0.02036984
#
# Stress axis : x y z
#
# Youngs Moduli (GPa) = 81.49099 83.66245 131.86314
#
# Poissons Ratio (x) = 0.10636 0.23811
# Poissons Ratio (y) = 0.10360 0.34837
# Poissons Ratio (z) = 0.14715 0.22103
#
# Static dielectric constant tensor:
#      x y z
#    x 2.291390 -0.104900 0.020950 
#    y -0.104900 1.938780 -0.008090 
#    z 0.020950 -0.008090 1.846910 
# 
# From -- ./inp_files/59271.got.cif
#   From: 2010.05.17/outbox.cif.g08.bks.cpg/sg2_30_cif.got.tgz:59271.got - 2010.06.03 11:33:40.
