data_PCOD9038594
_publ_section_title
;
Structure prediction by ZEFSAII (Michael W. Deem and Ramdas Pophale) SiO2 
 PCOD9038594
Probable space group: P -1
;
_chemical_formula_sum "Si O2"
_cell_formula_units_Z 16
_cell_length_a 16.037065
_cell_length_b 8.683306
_cell_length_c 9.146174
_cell_angle_alpha 125.808194
_cell_angle_beta 106.150211
_cell_angle_gamma 105.540957
_cell_volume 826.721030
_symmetry_space_group_name_H-M "P -1"
_symmetry_group_IT_number 2
_symmetry_cell_setting 'triclinic'
loop_
_space_group_symop_operation_xyz
x,y,z
-x,-y,-z
loop_
_atom_site_type_symbol
_atom_site_label
_atom_site_fract_x
_atom_site_fract_y
_atom_site_fract_z
Si Si1 0.037785 0.758762 0.697442
Si Si2 0.586958 0.732961 0.090722
Si Si3 0.212003 0.976608 0.140220
Si Si4 0.175909 0.120872 0.723999
Si Si5 0.566769 0.744151 0.742853
Si Si6 0.249125 0.584336 0.959763
Si Si7 0.847425 0.775848 0.530980
Si Si8 0.515546 0.055651 0.708951
O O1 0.000000 0.500000 0.500000
O O2 0.941031 0.786220 0.664713
O O3 0.114103 0.921178 0.696031
O O4 0.104996 0.850712 0.928083
O O5 0.705440 0.804992 0.200706
O O6 0.576086 0.923527 0.266831
O O7 0.500000 0.500000 0.000000
O O8 0.557371 0.720301 0.899088
O O9 0.311541 0.128121 0.168381
O O10 0.211393 0.144404 0.351731
O O11 0.224352 0.772918 0.086276
O O12 0.190168 0.360200 0.908063
O O13 0.118761 0.063712 0.507379
O O14 0.500000 0.500000 0.500000
O O15 0.527366 0.889123 0.727435
O O16 0.216704 0.472657 0.718596
O O17 0.372359 0.707496 0.096740
O O18 0.500000 0.000000 0.500000
#
# Coordination Sequence:
#
# PCOD9038594 Si02
#       8
#     2   2   2   2   2   2   2   2
#     4  12  22  45  69  97 136 174 224 285 342 391
#     4  12  22  42  68  95 136 179 219 271 341 399
#     4  11  23  44  68 100 132 174 229 278 338 405
#     4  10  23  42  67  96 133 175 221 274 339 402
#     4  11  26  41  64 101 141 172 226 280 337 410
#     4   9  22  42  67  92 137 170 221 273 335 394
#     4  10  23  41  71  92 128 180 222 275 338 397
#     4  11  24  40  69  97 136 177 224 275 340 410
#
# _framework density 19.353567000000002
#
# number of rings (size 3 to 8) (size 9 to 14) (size 15 to 20)
#    0.750    0.500    3.750    1.875    7.000    0.000 
#    2.250    3.750    0.000    0.000    0.000    0.000 
#    0.000    0.000    0.000    0.000    0.000    0.000 
#
# Total GULP energy -89207.879341 kJ/mol
# GULP energy per Si atom -5575.492459 kJ/mol
# Density = 1.930952 g / cm^3
# Si number density = 19.353567 Si / 1000 Ang^3
#
#
#
# Elastic Constant Matrix: (Units=GPa)
#
#
# Indices 1 2 3 4 5 6 
#
# 1 98.3635 27.8906 32.6831 6.4324 -13.8401 -15.2317
# 2 27.8906 112.0390 18.7070 12.0136 -10.5282 4.4787
# 3 32.6831 18.7070 72.4731 6.9866 -6.7584 -3.1966
# 4 6.4324 12.0136 6.9866 32.3798 0.2608 4.0761
# 5 -13.8401 -10.5282 -6.7584 0.2608 37.0389 -1.0930
# 6 -15.2317 4.4787 -3.1966 4.0761 -1.0930 25.2603
#
#
#
# Elastic Compliance Matrix: (Units=1/GPa)
#
#
# Indices 1 2 3 4 5 6 
#
# 1 0.014693 -0.002585 -0.004967 -0.002080 0.004135 0.009204
# 2 -0.002585 0.010341 -0.001222 -0.002690 0.001680 -0.003040
# 3 -0.004967 -0.001222 0.016622 -0.002116 0.000836 -0.000297
# 4 -0.002080 -0.002690 -0.002116 0.033597 -0.002359 -0.006568
# 5 0.004135 0.001680 0.000836 -0.002359 0.029307 0.003950
# 6 0.009204 -0.003040 -0.000297 -0.006568 0.003950 0.046870
#
#
# Mechanical properties :
#
#
# Convention : Reuss Voigt Hill
#
# Bulk Modulus (GPa) = 41.47694 49.04855 45.26274
# Shear Modulus (GPa) = 28.24668 32.50879 30.37774
#
# Velocity S-wave (km/s) = 3.82450 4.10290 3.96614
# Velocity P-wave (km/s) = 6.40157 6.91690 6.66421
#
# Compressibility (1/GPa) = 0.02410978
#
# Stress axis : x y z
#
# Youngs Moduli (GPa) = 68.06157 96.70546 60.16045
#
# Poissons Ratio (x) = 0.24994 0.29880
# Poissons Ratio (y) = 0.17591 0.07350
# Poissons Ratio (z) = 0.33804 0.11814
#
# Static dielectric constant tensor:
#      x y z
#    x 1.677400 -0.014590 -0.005770 
#    y -0.014590 1.623390 0.018450 
#    z -0.005770 0.018450 1.676570 
# 
# From -- ./inp_files/296819.got.cif
#   From: 2010.05.17/outbox.cif.g08.bks.cpg/sg2_149_cif.got.tgz:296819.got - 2010.06.03 11:33:40.
