data_PCOD9038352
_publ_section_title
;
Structure prediction by ZEFSAII (Michael W. Deem and Ramdas Pophale) SiO2 
 PCOD9038352
Probable space group: P -1
;
_chemical_formula_sum "Si O2"
_cell_formula_units_Z 16
_cell_length_a 10.923159
_cell_length_b 7.988203
_cell_length_c 9.175766
_cell_angle_alpha 72.555618
_cell_angle_beta 109.820885
_cell_angle_gamma 118.097332
_cell_volume 654.910836
_symmetry_space_group_name_H-M "P -1"
_symmetry_group_IT_number 2
_symmetry_cell_setting 'triclinic'
loop_
_space_group_symop_operation_xyz
x,y,z
-x,-y,-z
loop_
_atom_site_type_symbol
_atom_site_label
_atom_site_fract_x
_atom_site_fract_y
_atom_site_fract_z
Si Si1 0.534517 0.690965 0.735350
Si Si2 0.653388 0.875736 0.426311
Si Si3 0.946295 0.142616 0.528435
Si Si4 0.422729 0.956370 0.138567
Si Si5 0.859975 0.311618 0.039727
Si Si6 0.957408 0.903658 0.852934
Si Si7 0.278203 0.432834 0.994156
Si Si8 0.758098 0.611835 0.339383
O O1 0.615640 0.781193 0.595586
O O2 0.572327 0.527942 0.876182
O O3 0.367594 0.599662 0.651573
O O4 0.572791 0.852849 0.832134
O O5 0.514412 0.882406 0.298241
O O6 0.703788 0.742260 0.381770
O O7 0.785280 0.087743 0.427260
O O8 0.083589 0.345257 0.546601
O O9 0.926169 0.051927 0.704161
O O10 0.000000 0.000000 0.500000
O O11 0.259286 0.802559 0.098127
O O12 0.500000 0.000000 0.000000
O O13 0.924922 0.161060 0.153382
O O14 0.769718 0.391623 0.084867
O O15 0.000000 0.500000 0.000000
O O16 0.822672 0.709342 0.886906
O O17 0.000000 0.000000 0.000000
O O18 0.243112 0.335775 0.846287
#
# Coordination Sequence:
#
# PCOD9038352 Si02
#       8
#     2   2   2   2   2   2   2   2
#     4  12  24  43  69  96 138 182 221 278 341 395
#     4  11  25  45  67  97 135 180 227 272 342 401
#     4  10  23  41  68  96 133 175 226 273 334 397
#     4  12  26  45  68 101 133 176 224 280 334 404
#     4  10  25  41  67 102 132 166 223 278 324 396
#     4  11  20  40  71  97 130 178 222 275 333 392
#     4  11  21  41  67  99 132 176 227 272 334 396
#     4  11  23  41  67  99 129 180 226 276 328 399
#
# _framework density 24.430807000000001
#
# number of rings (size 3 to 8) (size 9 to 14) (size 15 to 20)
#    0.000    1.000    2.500    4.125    3.500    0.000 
#    2.250    0.625    0.000    0.000    0.000    0.000 
#    0.000    0.000    0.000    0.000    0.000    0.000 
#
# Total GULP energy -89354.804634 kJ/mol
# GULP energy per Si atom -5584.675290 kJ/mol
# Density = 2.437520 g / cm^3
# Si number density = 24.430807 Si / 1000 Ang^3
#
#
#
# Elastic Constant Matrix: (Units=GPa)
#
#
# Indices 1 2 3 4 5 6 
#
# 1 98.7714 53.5495 46.5984 8.8612 7.0259 18.9519
# 2 53.5495 91.3392 28.6138 33.1367 11.0341 26.2796
# 3 46.5984 28.6138 115.5386 8.0989 -11.9438 4.7083
# 4 8.8612 33.1367 8.0989 37.3582 5.1879 13.6051
# 5 7.0259 11.0341 -11.9438 5.1879 42.4573 17.0904
# 6 18.9519 26.2796 4.7083 13.6051 17.0904 55.1202
#
#
#
# Elastic Compliance Matrix: (Units=1/GPa)
#
#
# Indices 1 2 3 4 5 6 
#
# 1 0.018520 -0.011185 -0.005346 0.007632 -0.001832 -0.001894
# 2 -0.011185 0.025459 -0.000505 -0.018438 -0.001332 -0.003285
# 3 -0.005346 -0.000505 0.011485 -0.001414 0.004385 0.000088
# 4 0.007632 -0.018438 -0.001414 0.043226 -0.000442 -0.004245
# 5 -0.001832 -0.001332 0.004385 -0.000442 0.028665 -0.007888
# 6 -0.001894 -0.003285 0.000088 -0.004245 -0.007888 0.023845
#
#
# Mechanical properties :
#
#
# Convention : Reuss Voigt Hill
#
# Bulk Modulus (GPa) = 46.74947 62.57475 54.66211
# Shear Modulus (GPa) = 25.98670 38.77964 32.38317
#
# Velocity S-wave (km/s) = 3.26496 3.98845 3.64470
# Velocity P-wave (km/s) = 5.77843 6.84682 6.33519
#
# Compressibility (1/GPa) = 0.02139062
#
# Stress axis : x y z
#
# Youngs Moduli (GPa) = 53.99591 39.27809 87.06718
#
# Poissons Ratio (x) = 0.43934 0.46550
# Poissons Ratio (y) = 0.60396 0.04400
# Poissons Ratio (z) = 0.28868 0.01985
#
# Static dielectric constant tensor:
#      x y z
#    x 2.110110 0.057700 0.002200 
#    y 0.057700 1.996030 -0.021560 
#    z 0.002200 -0.021560 1.978350 
# 
# From -- ./inp_files/239206.got.cif
#   From: 2010.05.17/outbox.cif.g08.bks.cpg/sg2_120_cif.got.tgz:239206.got - 2010.06.03 11:33:40.
