data_PCOD9038023
_publ_section_title
;
Structure prediction by ZEFSAII (Michael W. Deem and Ramdas Pophale) SiO2 
 PCOD9038023
Probable space group: P -1
;
_chemical_formula_sum "Si O2"
_cell_formula_units_Z 16
_cell_length_a 9.258713
_cell_length_b 11.206574
_cell_length_c 12.414923
_cell_angle_alpha 92.453224
_cell_angle_beta 143.929907
_cell_angle_gamma 83.762453
_cell_volume 751.708327
_symmetry_space_group_name_H-M "P -1"
_symmetry_group_IT_number 2
_symmetry_cell_setting 'triclinic'
loop_
_space_group_symop_operation_xyz
x,y,z
-x,-y,-z
loop_
_atom_site_type_symbol
_atom_site_label
_atom_site_fract_x
_atom_site_fract_y
_atom_site_fract_z
Si Si1 0.211809 0.027504 0.955930
Si Si2 0.826670 0.683547 0.358065
Si Si3 0.773042 0.964963 0.288934
Si Si4 0.156211 0.745299 0.180664
Si Si5 0.624354 0.432252 0.970983
Si Si6 0.714129 0.707872 0.518553
Si Si7 0.963122 0.214893 0.117677
Si Si8 0.921114 0.448179 0.703596
O O1 0.191331 0.006503 0.814321
O O2 0.026630 0.144102 0.878990
O O3 0.120920 0.913812 0.955645
O O4 0.500589 0.031511 0.157870
O O5 0.757129 0.820917 0.281267
O O6 0.605508 0.599391 0.238989
O O7 0.897983 0.702644 0.525856
O O8 0.994097 0.615574 0.362227
O O9 0.000000 0.000000 0.500000
O O10 0.437842 0.762023 0.322466
O O11 0.184987 0.644280 0.285498
O O12 0.036193 0.716942 0.992954
O O13 0.500000 0.500000 0.000000
O O14 0.762975 0.299258 0.070892
O O15 0.843478 0.512538 0.085912
O O16 0.748877 0.571424 0.578666
O O17 0.792249 0.789631 0.665773
#
# Coordination Sequence:
#
# PCOD9038023 Si02
#       8
#     2   2   2   2   2   2   2   2
#     4  11  24  42  67  96 134 178 220 273 332 398
#     4  11  19  44  65  96 133 169 221 280 329 393
#     4  11  23  40  69 100 135 168 220 278 333 392
#     4  12  24  44  65  95 140 176 217 283 327 396
#     4   9  19  36  67  91 124 170 215 267 325 387
#     4  11  24  40  68  94 131 179 223 272 331 395
#     4  11  23  42  65  96 132 177 225 264 339 396
#     4  10  23  41  65  98 130 175 226 270 338 387
#
# _framework density 21.284849000000001
#
# number of rings (size 3 to 8) (size 9 to 14) (size 15 to 20)
#    0.000    1.250    3.750    1.875    0.000    3.500 
#    2.250    0.000    0.000    0.000    0.000    0.000 
#    0.000    0.000    0.000    0.000    0.000    0.000 
#
# Total GULP energy -89139.877298 kJ/mol
# GULP energy per Si atom -5571.242331 kJ/mol
# Density = 2.123640 g / cm^3
# Si number density = 21.284849 Si / 1000 Ang^3
#
#
#
# Elastic Constant Matrix: (Units=GPa)
#
#
# Indices 1 2 3 4 5 6 
#
# 1 78.9157 30.9087 40.8511 -3.9076 -5.9428 -9.0704
# 2 30.9087 62.1147 -1.8734 -12.0178 7.9551 -2.3237
# 3 40.8511 -1.8734 92.7916 10.2260 -13.8918 -7.4951
# 4 -3.9076 -12.0178 10.2260 24.1819 3.2671 -8.6317
# 5 -5.9428 7.9551 -13.8918 3.2671 22.7915 -8.6162
# 6 -9.0704 -2.3237 -7.4951 -8.6317 -8.6162 21.5988
#
#
#
# Elastic Compliance Matrix: (Units=1/GPa)
#
#
# Indices 1 2 3 4 5 6 
#
# 1 0.024405 -0.012204 -0.009368 0.004584 0.008359 0.010851
# 2 -0.012204 0.025919 0.002556 0.010748 -0.013114 -0.002386
# 3 -0.009368 0.002556 0.017514 -0.007834 0.009649 0.003137
# 4 0.004584 0.010748 -0.007834 0.059276 -0.007932 0.020888
# 5 0.008359 -0.013114 0.009649 -0.007932 0.068904 0.029765
# 6 0.010851 -0.002386 0.003137 0.020888 0.029765 0.071909
#
#
# Mechanical properties :
#
#
# Convention : Reuss Voigt Hill
#
# Bulk Modulus (GPa) = 33.55148 41.51053 37.53100
# Shear Modulus (GPa) = 15.82810 24.64349 20.23579
#
# Velocity S-wave (km/s) = 2.72992 3.40633 3.08671
# Velocity P-wave (km/s) = 5.07286 5.91739 5.51133
#
# Compressibility (1/GPa) = 0.02980495
#
# Stress axis : x y z
#
# Youngs Moduli (GPa) = 40.97591 38.58179 57.09775
#
# Poissons Ratio (x) = 0.47085 0.53487
# Poissons Ratio (y) = 0.50007 -0.14591
# Poissons Ratio (z) = 0.38385 -0.09860
#
# Static dielectric constant tensor:
#      x y z
#    x 1.785920 0.013950 0.012710 
#    y 0.013950 1.756690 0.037010 
#    z 0.012710 0.037010 1.841610 
# 
# From -- ./inp_files/346478.got.cif
#   From: 2010.05.17/outbox.cif.g08.bks.cpg/sg2_174_cif.got.tgz:346478.got - 2010.06.03 11:33:40.
