data_PCOD9038778
_publ_section_title
;
Structure prediction by ZEFSAII (Michael W. Deem and Ramdas Pophale) SiO2 
 PCOD9038778
Probable space group: P -1
;
_chemical_formula_sum "Si O2"
_cell_formula_units_Z 16
_cell_length_a 9.590284
_cell_length_b 8.826669
_cell_length_c 11.615381
_cell_angle_alpha 99.494281
_cell_angle_beta 89.131127
_cell_angle_gamma 48.541704
_cell_volume 716.425280
_symmetry_space_group_name_H-M "P -1"
_symmetry_group_IT_number 2
_symmetry_cell_setting 'triclinic'
loop_
_space_group_symop_operation_xyz
x,y,z
-x,-y,-z
loop_
_atom_site_type_symbol
_atom_site_label
_atom_site_fract_x
_atom_site_fract_y
_atom_site_fract_z
Si Si1 0.279013 0.780343 0.927569
Si Si2 0.195987 0.992280 0.345285
Si Si3 0.170157 0.438254 0.182011
Si Si4 0.629511 0.765356 0.302070
Si Si5 0.428227 0.979992 0.878508
Si Si6 0.307677 0.645314 0.157568
Si Si7 0.961047 0.301873 0.177279
Si Si8 0.922933 0.689655 0.438825
O O1 0.283275 0.949477 0.901165
O O2 0.473402 0.558437 0.850544
O O3 0.105050 0.801069 0.900223
O O4 0.304323 0.759065 0.061990
O O5 0.089085 0.137874 0.475946
O O6 0.096757 0.153490 0.260943
O O7 0.414298 0.879031 0.335469
O O8 0.207168 0.806149 0.284320
O O9 0.376742 0.236466 0.198990
O O10 0.207694 0.558137 0.117390
O O11 0.068223 0.364119 0.121882
O O12 0.049120 0.584389 0.310116
O O13 0.770385 0.517310 0.257752
O O14 0.714992 0.800604 0.409382
O O15 0.644696 0.845662 0.191248
O O16 0.500000 0.000000 0.000000
O O17 0.000000 0.500000 0.500000
#
# Coordination Sequence:
#
# PCOD9038778 Si02
#       8
#     2   2   2   2   2   2   2   2
#     4  10  23  42  66  98 136 177 220 280 334 398
#     4  12  22  42  70  97 132 182 226 270 340 399
#     4  10  23  42  62 101 133 168 224 281 321 401
#     4  11  22  42  69 101 135 176 224 273 341 391
#     4  11  23  43  71  98 140 180 223 267 339 409
#     4  10  23  42  66  95 136 179 222 275 340 396
#     4  11  23  40  68 101 132 173 229 273 328 409
#     4  11  22  42  68  99 133 174 229 285 327 395
#
# _framework density 22.333106000000001
#
# number of rings (size 3 to 8) (size 9 to 14) (size 15 to 20)
#    0.000    1.250    5.000    1.125    3.500    3.500 
#    2.250    0.000    0.000    3.750    0.000    0.000 
#    0.000    0.000    0.000    0.000    0.000    0.000 
#
# Total GULP energy -89412.254209 kJ/mol
# GULP energy per Si atom -5588.265888 kJ/mol
# Density = 2.228228 g / cm^3
# Si number density = 22.333106 Si / 1000 Ang^3
#
#
#
# Elastic Constant Matrix: (Units=GPa)
#
#
# Indices 1 2 3 4 5 6 
#
# 1 134.6066 18.3748 19.7182 5.6640 10.3219 4.8863
# 2 18.3748 93.9294 24.8923 17.2995 4.3049 -19.0443
# 3 19.7182 24.8923 50.0865 17.5553 15.9481 3.0760
# 4 5.6640 17.2995 17.5553 39.0523 2.2310 7.6351
# 5 10.3219 4.3049 15.9481 2.2310 34.8353 4.7950
# 6 4.8863 -19.0443 3.0760 7.6351 4.7950 31.3414
#
#
#
# Elastic Compliance Matrix: (Units=1/GPa)
#
#
# Indices 1 2 3 4 5 6 
#
# 1 0.008085 -0.001517 -0.002372 0.001020 -0.000904 -0.002060
# 2 -0.001517 0.016240 -0.005807 -0.006768 -0.000165 0.012349
# 3 -0.002372 -0.005807 0.031245 -0.010065 -0.011972 -0.001942
# 4 0.001020 -0.006768 -0.010065 0.035173 0.004618 -0.012559
# 5 -0.000904 -0.000165 -0.011972 0.004618 0.034902 -0.005249
# 6 -0.002060 0.012349 -0.001942 -0.012559 -0.005249 0.043784
#
#
# Mechanical properties :
#
#
# Convention : Reuss Voigt Hill
#
# Bulk Modulus (GPa) = 27.64245 44.95478 36.29862
# Shear Modulus (GPa) = 24.89036 35.42159 30.15597
#
# Velocity S-wave (km/s) = 3.34204 3.98685 3.67860
# Velocity P-wave (km/s) = 5.22461 6.43166 5.85930
#
# Compressibility (1/GPa) = 0.03617624
#
# Stress axis : x y z
#
# Youngs Moduli (GPa) = 123.68915 61.57691 32.00557
#
# Poissons Ratio (x) = 0.09341 0.07592
# Poissons Ratio (y) = 0.18763 0.18587
# Poissons Ratio (z) = 0.29341 0.35760
#
# Static dielectric constant tensor:
#      x y z
#    x 1.850950 0.021010 0.020920 
#    y 0.021010 1.849350 0.057770 
#    z 0.020920 0.057770 1.813140 
# 
# From -- ./inp_files/382637.got.cif
#   From: 2010.05.17/outbox.cif.g08.bks.cpg/sg2_192_cif.got.tgz:382637.got - 2010.06.03 11:33:40.
