data_PCOD9038032
_publ_section_title
;
Structure prediction by ZEFSAII (Michael W. Deem and Ramdas Pophale) SiO2 
 PCOD9038032
Probable space group: P -1
;
_chemical_formula_sum "Si O2"
_cell_formula_units_Z 14
_cell_length_a 7.242603
_cell_length_b 8.299783
_cell_length_c 16.187111
_cell_angle_alpha 97.781183
_cell_angle_beta 136.950162
_cell_angle_gamma 80.389994
_cell_volume 654.779593
_symmetry_space_group_name_H-M "P -1"
_symmetry_group_IT_number 2
_symmetry_cell_setting 'triclinic'
loop_
_space_group_symop_operation_xyz
x,y,z
-x,-y,-z
loop_
_atom_site_type_symbol
_atom_site_label
_atom_site_fract_x
_atom_site_fract_y
_atom_site_fract_z
Si Si1 0.486317 0.810083 0.647853
Si Si2 0.507457 0.331803 0.740975
Si Si3 0.015101 0.939943 0.774087
Si Si4 0.993313 0.806161 0.357591
Si Si5 0.067429 0.131461 0.961886
Si Si6 0.332936 0.539436 0.364677
Si Si7 0.412905 0.705872 0.795056
O O1 0.240072 0.819435 0.503179
O O2 0.670410 0.635295 0.690144
O O3 0.367938 0.804479 0.700424
O O4 0.706422 0.930868 0.703690
O O5 0.798704 0.252070 0.861884
O O6 0.520945 0.355834 0.647997
O O7 0.435136 0.513233 0.768624
O O8 0.279683 0.216526 0.684314
O O9 0.177792 0.769754 0.786938
O O10 0.016543 0.050510 0.701311
O O11 0.152241 0.027673 0.900379
O O12 0.063051 0.643182 0.313581
O O13 0.305081 0.237108 0.075524
O O14 0.000000 0.000000 0.000000
O O15 0.500000 0.500000 0.500000
#
# Coordination Sequence:
#
# PCOD9038032 Si02
#       7
#     2   2   2   2   2   2   2
#     4  10  23  41  65  98 137 172 217 273 325 395
#     4  11  24  44  68 100 133 173 221 272 328 392
#     4  12  24  43  67  99 134 173 222 273 332 388
#     4  11  23  40  68 101 134 175 218 268 336 393
#     4  12  24  47  70  93 136 173 223 278 326 385
#     4   9  20  40  65  93 134 173 217 263 324 386
#     4  11  25  44  67  99 129 176 221 271 329 389
#
# _framework density 21.381239000000001
#
# number of rings (size 3 to 8) (size 9 to 14) (size 15 to 20)
#    0.000    1.143    2.857    3.000    0.000    8.000 
#    0.000    1.429    0.000    0.000    0.000    0.000 
#    0.000    0.000    0.000    0.000    0.000    0.000 
#
# Total GULP energy -78226.104766 kJ/mol
# GULP energy per Si atom -5587.578912 kJ/mol
# Density = 2.133257 g / cm^3
# Si number density = 21.381239 Si / 1000 Ang^3
#
#
#
# Elastic Constant Matrix: (Units=GPa)
#
#
# Indices 1 2 3 4 5 6 
#
# 1 86.4759 24.3610 14.1603 -2.0227 -2.2792 -6.6762
# 2 24.3610 70.6440 16.8429 -13.1730 -8.8040 0.5715
# 3 14.1603 16.8429 59.9207 2.8887 -7.8216 -1.5785
# 4 -2.0227 -13.1730 2.8887 31.0544 4.3730 4.3091
# 5 -2.2792 -8.8040 -7.8216 4.3730 25.0976 7.7001
# 6 -6.6762 0.5715 -1.5785 4.3091 7.7001 43.1206
#
#
#
# Elastic Compliance Matrix: (Units=1/GPa)
#
#
# Indices 1 2 3 4 5 6 
#
# 1 0.013278 -0.004507 -0.001963 -0.000981 -0.001559 0.002420
# 2 -0.004507 0.018690 -0.004066 0.007769 0.004338 -0.002645
# 3 -0.001963 -0.004066 0.019176 -0.004356 0.005140 -0.000031
# 4 -0.000981 0.007769 -0.004356 0.036885 -0.004116 -0.003365
# 5 -0.001559 0.004338 0.005140 -0.004116 0.045970 -0.007908
# 6 0.002420 -0.002645 -0.000031 -0.003365 -0.007908 0.025348
#
#
# Mechanical properties :
#
#
# Convention : Reuss Voigt Hill
#
# Bulk Modulus (GPa) = 33.25614 36.41877 34.83746
# Shear Modulus (GPa) = 26.25448 30.63296 28.44372
#
# Velocity S-wave (km/s) = 3.50797 3.78921 3.65130
# Velocity P-wave (km/s) = 5.65645 6.01782 5.83993
#
# Compressibility (1/GPa) = 0.03006964
#
# Stress axis : x y z
#
# Youngs Moduli (GPa) = 75.31259 53.50445 52.14919
#
# Poissons Ratio (x) = 0.24117 0.10238
# Poissons Ratio (y) = 0.33947 0.21206
# Poissons Ratio (z) = 0.14786 0.21757
#
# Static dielectric constant tensor:
#      x y z
#    x 1.853450 -0.033830 -0.014410 
#    y -0.033830 1.820360 0.006780 
#    z -0.014410 0.006780 1.725010 
# 
# From -- ./inp_files/26802.got.cif
#   From: 2010.05.17/outbox.cif.g08.bks.cpg/sg2_14_cif.got.tgz:26802.got - 2010.06.03 11:33:40.
