data_PCOD9038003
_publ_section_title
;
Structure prediction by ZEFSAII (Michael W. Deem and Ramdas Pophale) SiO2 
 PCOD9038003
Probable space group: P -1
;
_chemical_formula_sum "Si O2"
_cell_formula_units_Z 14
_cell_length_a 12.228516
_cell_length_b 8.631206
_cell_length_c 9.411903
_cell_angle_alpha 106.440104
_cell_angle_beta 133.763941
_cell_angle_gamma 75.480780
_cell_volume 685.927090
_symmetry_space_group_name_H-M "P -1"
_symmetry_group_IT_number 2
_symmetry_cell_setting 'triclinic'
loop_
_space_group_symop_operation_xyz
x,y,z
-x,-y,-z
loop_
_atom_site_type_symbol
_atom_site_label
_atom_site_fract_x
_atom_site_fract_y
_atom_site_fract_z
Si Si1 0.935153 0.827633 0.361662
Si Si2 0.349613 0.976315 0.946930
Si Si3 0.621017 0.455881 0.877250
Si Si4 0.502602 0.864152 0.348842
Si Si5 0.967483 0.513410 0.140696
Si Si6 0.823756 0.681981 0.513484
Si Si7 0.346853 0.631387 0.787538
O O1 0.011136 0.685145 0.291612
O O2 0.904785 0.744629 0.463761
O O3 0.775233 0.878052 0.152018
O O4 0.000000 0.000000 0.500000
O O5 0.283144 0.815936 0.778024
O O6 0.405129 0.939014 0.147229
O O7 0.500000 0.000000 0.000000
O O8 0.569974 0.300159 0.706926
O O9 0.490508 0.602916 0.803185
O O10 0.788323 0.499803 0.003721
O O11 0.611703 0.395549 0.016517
O O12 0.676141 0.803974 0.446289
O O13 0.500000 0.000000 0.500000
O O14 0.059538 0.363960 0.266581
O O15 0.000000 0.500000 0.000000
O O16 0.758707 0.510503 0.375253
#
# Coordination Sequence:
#
# PCOD9038003 Si02
#       7
#     2   2   2   2   2   2   2
#     4  12  26  42  68 101 131 174 225 276 329 396
#     4  11  21  39  66  98 129 158 220 281 323 382
#     4   9  19  39  68  91 122 173 220 264 322 390
#     4  10  23  41  65  96 131 172 214 273 337 383
#     4  12  27  44  64  97 140 179 219 269 341 405
#     4  11  23  45  67  92 131 177 226 270 326 409
#     4   9  18  39  70  94 116 168 227 271 317 381
#
# _framework density 20.410332
#
# number of rings (size 3 to 8) (size 9 to 14) (size 15 to 20)
#    0.000    1.429    2.857    3.000    6.000    1.143 
#    2.571    2.857    0.000    0.000    0.000    0.000 
#    0.000    0.000    0.000    0.000    0.000    0.000 
#
# Total GULP energy -78107.804062 kJ/mol
# GULP energy per Si atom -5579.128862 kJ/mol
# Density = 2.036388 g / cm^3
# Si number density = 20.410332 Si / 1000 Ang^3
#
#
#
# Elastic Constant Matrix: (Units=GPa)
#
#
# Indices 1 2 3 4 5 6 
#
# 1 63.9151 41.2963 52.0172 8.2311 -4.1839 4.6584
# 2 41.2963 108.4712 61.8950 -2.6887 -15.4139 -17.1572
# 3 52.0172 61.8950 103.1363 2.7960 -14.8665 -8.5697
# 4 8.2311 -2.6887 2.7960 52.9465 -0.4473 3.0376
# 5 -4.1839 -15.4139 -14.8665 -0.4473 28.6308 3.9109
# 6 4.6584 -17.1572 -8.5697 3.0376 3.9109 23.0296
#
#
#
# Elastic Compliance Matrix: (Units=1/GPa)
#
#
# Indices 1 2 3 4 5 6 
#
# 1 0.033949 -0.008324 -0.014090 -0.004019 -0.004577 -0.017005
# 2 -0.008324 0.017729 -0.004881 0.001791 0.004164 0.012132
# 3 -0.014090 -0.004881 0.020997 0.000533 0.005399 0.006040
# 4 -0.004019 0.001791 0.000533 0.019607 0.001016 -0.000413
# 5 -0.004577 0.004164 0.005399 0.001016 0.039428 -0.000792
# 6 -0.017005 0.012132 0.006040 -0.000413 -0.000792 0.058337
#
#
# Mechanical properties :
#
#
# Convention : Reuss Voigt Hill
#
# Bulk Modulus (GPa) = 55.30002 65.10442 60.20222
# Shear Modulus (GPa) = 19.94677 28.94231 24.44454
#
# Velocity S-wave (km/s) = 3.12955 3.76975 3.46447
# Velocity P-wave (km/s) = 6.34127 7.13548 6.75007
#
# Compressibility (1/GPa) = 0.01808317
#
# Stress axis : x y z
#
# Youngs Moduli (GPa) = 29.45594 56.40587 47.62473
#
# Poissons Ratio (x) = 0.46954 0.67105
# Poissons Ratio (y) = 0.24520 0.23247
# Poissons Ratio (z) = 0.41504 0.27533
#
# Static dielectric constant tensor:
#      x y z
#    x 1.707010 -0.000060 0.039180 
#    y -0.000060 1.801550 -0.043270 
#    z 0.039180 -0.043270 1.827020 
# 
# From -- ./inp_files/186804.got.cif
#   From: 2010.05.17/outbox.cif.g08.bks.cpg/sg2_94_cif.got.tgz:186804.got - 2010.06.03 11:33:40.
