data_PCOD9038805
_publ_section_title
;
Structure prediction by ZEFSAII (Michael W. Deem and Ramdas Pophale) SiO2 
 PCOD9038805
Probable space group: P -1
;
_chemical_formula_sum "Si O2"
_cell_formula_units_Z 14
_cell_length_a 8.163284
_cell_length_b 11.352723
_cell_length_c 18.011486
_cell_angle_alpha 34.780774
_cell_angle_beta 44.011021
_cell_angle_gamma 64.840473
_cell_volume 601.081952
_symmetry_space_group_name_H-M "P -1"
_symmetry_group_IT_number 2
_symmetry_cell_setting 'triclinic'
loop_
_space_group_symop_operation_xyz
x,y,z
-x,-y,-z
loop_
_atom_site_type_symbol
_atom_site_label
_atom_site_fract_x
_atom_site_fract_y
_atom_site_fract_z
Si Si1 0.515788 0.539679 0.247768
Si Si2 0.871856 0.248158 0.759166
Si Si3 0.422410 0.613112 0.398824
Si Si4 0.904830 0.943436 0.346634
Si Si5 0.108989 0.724462 0.933121
Si Si6 0.711070 0.142539 0.025195
Si Si7 0.343222 0.369498 0.046038
O O1 0.387954 0.718225 0.186738
O O2 0.544881 0.542159 0.325498
O O3 0.797711 0.622382 0.078834
O O4 0.307593 0.284858 0.429387
O O5 0.871194 0.153413 0.891798
O O6 0.113406 0.493598 0.552524
O O7 0.929916 0.120499 0.737123
O O8 0.500000 0.500000 0.500000
O O9 0.520103 0.880437 0.233504
O O10 0.093313 0.124831 0.250330
O O11 0.776280 0.069354 0.269562
O O12 0.161269 0.787183 0.971314
O O13 0.226535 0.545705 0.968661
O O14 0.563130 0.303955 0.971715
O O15 0.500000 0.500000 0.000000
#
# Coordination Sequence:
#
# PCOD9038805 Si02
#       7
#     2   2   2   2   2   2   2
#     4  11  23  38  61  94 124 158 204 249 306 369
#     4  11  23  38  64  96 124 159 200 249 311 370
#     4  11  22  38  62  94 127 157 199 251 306 368
#     4  11  22  41  64  89 125 160 199 255 308 357
#     4  11  24  40  62  91 123 165 209 247 295 361
#     4  11  22  41  64  90 127 163 198 251 308 355
#     4  10  23  42  63  87 120 164 211 251 296 360
#
# _framework density 23.291333999999999
#
# number of rings (size 3 to 8) (size 9 to 14) (size 15 to 20)
#    0.000    1.143    0.000    8.143    0.000    4.000 
#    0.000    1.429    0.000   15.429    0.000    0.000 
#    0.000    0.000    0.000    0.000    0.000    0.000 
#
# Total GULP energy -78205.336875 kJ/mol
# GULP energy per Si atom -5586.095491 kJ/mol
# Density = 2.323832 g / cm^3
# Si number density = 23.291334 Si / 1000 Ang^3
#
#
#
# Elastic Constant Matrix: (Units=GPa)
#
#
# Indices 1 2 3 4 5 6 
#
# 1 77.6068 44.4612 27.4932 -14.5885 -13.5942 2.9819
# 2 44.4612 86.9611 39.7576 -27.5923 -6.9728 -6.4014
# 3 27.4932 39.7576 97.1096 -26.0828 -5.4159 3.3799
# 4 -14.5885 -27.5923 -26.0828 34.1437 4.2083 -1.3933
# 5 -13.5942 -6.9728 -5.4159 4.2083 34.1286 -6.1139
# 6 2.9819 -6.4014 3.3799 -1.3933 -6.1139 59.2960
#
#
#
# Elastic Compliance Matrix: (Units=1/GPa)
#
#
# Indices 1 2 3 4 5 6 
#
# 1 0.019604 -0.009260 -0.001713 -0.001154 0.005547 -0.001343
# 2 -0.009260 0.021442 -0.003341 0.011026 -0.000630 0.003165
# 3 -0.001713 -0.003341 0.014150 0.007363 -0.000194 -0.000928
# 4 -0.001154 0.011026 0.007363 0.043660 -0.002129 0.001635
# 5 0.005547 -0.000630 -0.000194 -0.002129 0.032138 0.002928
# 6 -0.001343 0.003165 -0.000928 0.001635 0.002928 0.017667
#
#
# Mechanical properties :
#
#
# Convention : Reuss Voigt Hill
#
# Bulk Modulus (GPa) = 37.63929 53.90018 45.76973
# Shear Modulus (GPa) = 26.86103 35.51135 31.18619
#
# Velocity S-wave (km/s) = 3.39966 3.90892 3.66315
# Velocity P-wave (km/s) = 5.62188 6.60037 6.13068
#
# Compressibility (1/GPa) = 0.02656798
#
# Stress axis : x y z
#
# Youngs Moduli (GPa) = 51.01088 46.63686 70.67359
#
# Poissons Ratio (x) = 0.43187 0.12105
# Poissons Ratio (y) = 0.47237 0.23610
# Poissons Ratio (z) = 0.08737 0.15580
#
# Static dielectric constant tensor:
#      x y z
#    x 1.967200 0.007650 -0.010880 
#    y 0.007650 1.879050 0.003690 
#    z -0.010880 0.003690 1.870110 
# 
# From -- ./inp_files/259766.got.cif
#   From: 2010.05.17/outbox.cif.g08.bks.cpg/sg2_130_cif.got.tgz:259766.got - 2010.06.03 11:33:40.
