data_PCOD9038117
_publ_section_title
;
Structure prediction by ZEFSAII (Michael W. Deem and Ramdas Pophale) SiO2 
 PCOD9038117
Probable space group: P -1
;
_chemical_formula_sum "Si O2"
_cell_formula_units_Z 16
_cell_length_a 6.552323
_cell_length_b 14.836875
_cell_length_c 12.404629
_cell_angle_alpha 46.899481
_cell_angle_beta 82.730098
_cell_angle_gamma 66.816510
_cell_volume 790.974465
_symmetry_space_group_name_H-M "P -1"
_symmetry_group_IT_number 2
_symmetry_cell_setting 'triclinic'
loop_
_space_group_symop_operation_xyz
x,y,z
-x,-y,-z
loop_
_atom_site_type_symbol
_atom_site_label
_atom_site_fract_x
_atom_site_fract_y
_atom_site_fract_z
Si Si1 0.920427 0.373165 0.854816
Si Si2 0.810550 0.211264 0.353515
Si Si3 0.635059 0.902920 0.908644
Si Si4 0.554519 0.358790 0.052459
Si Si5 0.318541 0.019150 0.400850
Si Si6 0.260627 0.910447 0.083888
Si Si7 0.409870 0.598843 0.325655
Si Si8 0.791540 0.498181 0.200622
O O1 0.798168 0.410441 0.717714
O O2 0.970907 0.497480 0.793359
O O3 0.747760 0.341531 0.967271
O O4 0.155321 0.238408 0.954840
O O5 0.656891 0.244803 0.228150
O O6 0.794044 0.353021 0.288479
O O7 0.072062 0.126126 0.372404
O O8 0.718729 0.118889 0.503246
O O9 0.627934 0.930867 0.758579
O O10 0.669766 0.019178 0.879898
O O11 0.406522 0.903275 0.972681
O O12 0.500000 0.500000 0.000000
O O13 0.323489 0.391683 0.977566
O O14 0.500000 0.000000 0.500000
O O15 0.318022 0.755969 0.235434
O O16 0.000000 0.000000 0.000000
O O17 0.500000 0.500000 0.500000
O O18 0.622365 0.555643 0.265310
#
# Coordination Sequence:
#
# PCOD9038117 Si02
#       8
#     2   2   2   2   2   2   2   2
#     4  11  21  41  68  96 125 175 221 277 327 408
#     4  10  23  42  61 100 134 179 211 273 339 387
#     4  11  24  44  70  98 127 177 239 273 335 412
#     4   9  20  37  64  90 127 168 215 262 320 396
#     4  11  26  42  66  97 139 178 227 274 332 402
#     4  11  24  46  74  97 130 180 232 282 342 407
#     4  11  25  43  66 100 137 170 220 291 346 396
#     4  10  23  41  66  96 130 171 219 271 339 404
#
# _framework density 20.228211000000002
#
# number of rings (size 3 to 8) (size 9 to 14) (size 15 to 20)
#    0.000    1.500    3.750    0.000    3.500    7.500 
#    0.000    0.000    0.000    0.000    0.000    0.000 
#    0.000    0.000    0.000    0.000    0.000    0.000 
#
# Total GULP energy -89337.936993 kJ/mol
# GULP energy per Si atom -5583.621062 kJ/mol
# Density = 2.018217 g / cm^3
# Si number density = 20.228211 Si / 1000 Ang^3
#
#
#
# Elastic Constant Matrix: (Units=GPa)
#
#
# Indices 1 2 3 4 5 6 
#
# 1 85.4674 31.4405 51.2816 -4.3936 8.8479 8.9558
# 2 31.4405 75.6445 44.9121 -12.5263 1.8453 7.4035
# 3 51.2816 44.9121 151.1464 0.7093 15.2097 4.5286
# 4 -4.3936 -12.5263 0.7093 35.1644 3.6942 -2.4679
# 5 8.8479 1.8453 15.2097 3.6942 23.8303 -4.3138
# 6 8.9558 7.4035 4.5286 -2.4679 -4.3138 38.9247
#
#
#
# Elastic Compliance Matrix: (Units=1/GPa)
#
#
# Indices 1 2 3 4 5 6 
#
# 1 0.016216 -0.003915 -0.003861 0.000917 -0.003923 -0.002914
# 2 -0.003915 0.018498 -0.004307 0.005912 0.001570 -0.001568
# 3 -0.003861 -0.004307 0.009626 -0.001779 -0.004097 0.000021
# 4 0.000917 0.005912 -0.001779 0.031185 -0.004432 0.000357
# 5 -0.003923 0.001570 -0.004097 -0.004432 0.047702 0.006086
# 6 -0.002914 -0.001568 0.000021 0.000357 0.006086 0.027354
#
#
# Mechanical properties :
#
#
# Convention : Reuss Voigt Hill
#
# Bulk Modulus (GPa) = 49.56777 63.05853 56.31315
# Shear Modulus (GPa) = 27.55255 31.89213 29.72234
#
# Velocity S-wave (km/s) = 3.69465 3.97497 3.83737
# Velocity P-wave (km/s) = 6.53896 7.23246 6.89443
#
# Compressibility (1/GPa) = 0.02017440
#
# Stress axis : x y z
#
# Youngs Moduli (GPa) = 61.66930 54.05886 103.88721
#
# Poissons Ratio (x) = 0.21163 0.40107
# Poissons Ratio (y) = 0.24143 0.44746
# Poissons Ratio (z) = 0.23808 0.23284
#
# Static dielectric constant tensor:
#      x y z
#    x 1.711760 0.048350 -0.004700 
#    y 0.048350 1.733150 -0.002120 
#    z -0.004700 -0.002120 1.718070 
# 
# From -- ./inp_files/84256.got.cif
#   From: 2010.05.17/outbox.cif.g08.bks.cpg/sg2_43_cif.got.tgz:84256.got - 2010.06.03 11:33:40.
