data_PCOD9038265
_publ_section_title
;
Structure prediction by ZEFSAII (Michael W. Deem and Ramdas Pophale) SiO2 
 PCOD9038265
Probable space group: P -1
;
_chemical_formula_sum "Si O2"
_cell_formula_units_Z 12
_cell_length_a 6.959129
_cell_length_b 8.705982
_cell_length_c 15.936820
_cell_angle_alpha 45.662133
_cell_angle_beta 75.251846
_cell_angle_gamma 53.824403
_cell_volume 536.183738
_symmetry_space_group_name_H-M "P -1"
_symmetry_group_IT_number 2
_symmetry_cell_setting 'triclinic'
loop_
_space_group_symop_operation_xyz
x,y,z
-x,-y,-z
loop_
_atom_site_type_symbol
_atom_site_label
_atom_site_fract_x
_atom_site_fract_y
_atom_site_fract_z
Si Si1 0.518533 0.990226 0.644020
Si Si2 0.620341 0.337094 0.134282
Si Si3 0.118946 0.760869 0.257507
Si Si4 0.105425 0.265667 0.445488
Si Si5 0.516138 0.745742 0.123694
Si Si6 0.581433 0.602902 0.356294
O O1 0.553695 0.732888 0.778467
O O2 0.731831 0.909041 0.585173
O O3 0.270298 0.131062 0.561350
O O4 0.487548 0.177145 0.651098
O O5 0.650915 0.511367 0.130040
O O6 0.500000 0.500000 0.000000
O O7 0.879724 0.051064 0.197456
O O8 0.059453 0.550993 0.331298
O O9 0.252194 0.798753 0.151041
O O10 0.338655 0.619746 0.356973
O O11 0.838795 0.328873 0.457272
O O12 0.634818 0.663956 0.234187
O O13 0.500000 0.000000 0.000000
#
# Coordination Sequence:
#
# PCOD9038265 Si02
#       6
#     2   2   2   2   2   2
#     4  11  23  43  70 101 130 179 223 268 334 396
#     4  12  25  44  70  98 134 178 223 273 335 395
#     4  10  25  43  66 101 130 176 221 268 337 390
#     4  11  23  45  69  97 140 172 220 276 330 393
#     4  10  24  44  61  98 134 171 226 269 324 394
#     4  10  23  41  67  98 131 175 217 276 324 387
#
# _framework density 22.380386999999999
#
# number of rings (size 3 to 8) (size 9 to 14) (size 15 to 20)
#    1.000    0.333    3.333    1.500    2.333    3.333 
#    0.000    2.500    0.000    0.000    0.000    0.000 
#    0.000    0.000    0.000    0.000    0.000    0.000 
#
# Total GULP energy -67070.427225 kJ/mol
# GULP energy per Si atom -5589.202269 kJ/mol
# Density = 2.232945 g / cm^3
# Si number density = 22.380387 Si / 1000 Ang^3
#
#
#
# Elastic Constant Matrix: (Units=GPa)
#
#
# Indices 1 2 3 4 5 6 
#
# 1 93.9837 48.7320 36.5718 -3.9552 15.4222 5.6592
# 2 48.7320 162.7670 52.4558 0.5003 22.5013 17.1931
# 3 36.5718 52.4558 110.2260 14.2706 -8.8736 10.5746
# 4 -3.9552 0.5003 14.2706 32.7809 4.3660 6.7691
# 5 15.4222 22.5013 -8.8736 4.3660 35.6513 -2.7768
# 6 5.6592 17.1931 10.5746 6.7691 -2.7768 34.0039
#
#
#
# Elastic Compliance Matrix: (Units=1/GPa)
#
#
# Indices 1 2 3 4 5 6 
#
# 1 0.015206 -0.001519 -0.005513 0.005675 -0.007827 -0.001817
# 2 -0.001519 0.009585 -0.004689 0.003610 -0.007348 -0.004454
# 3 -0.005513 -0.004689 0.014970 -0.008722 0.010232 0.001205
# 4 0.005675 0.003610 -0.008722 0.038364 -0.012280 -0.008697
# 5 -0.007827 -0.007348 0.010232 -0.012280 0.040716 0.007606
# 6 -0.001817 -0.004454 0.001205 -0.008697 0.007606 0.033941
#
#
# Mechanical properties :
#
#
# Convention : Reuss Voigt Hill
#
# Bulk Modulus (GPa) = 61.27866 71.38846 66.33356
# Shear Modulus (GPa) = 27.52339 35.76837 31.64588
#
# Velocity S-wave (km/s) = 3.51065 4.00209 3.76440
# Velocity P-wave (km/s) = 6.62366 7.30224 6.97121
#
# Compressibility (1/GPa) = 0.01631889
#
# Stress axis : x y z
#
# Youngs Moduli (GPa) = 65.76434 104.32903 66.79957
#
# Poissons Ratio (x) = 0.15852 0.36824
# Poissons Ratio (y) = 0.09992 0.31322
# Poissons Ratio (z) = 0.36254 0.48920
#
# Static dielectric constant tensor:
#      x y z
#    x 1.864420 -0.023790 0.005430 
#    y -0.023790 1.811500 0.022090 
#    z 0.005430 0.022090 1.816330 
# 
# From -- ./inp_files/448139.got.cif
#   From: 2010.05.17/outbox.cif.g08.bks.cpg/sg2_225_cif.got.tgz:448139.got - 2010.06.03 11:33:40.
