data_PCOD9038951
_publ_section_title
;
Structure prediction by ZEFSAII (Michael W. Deem and Ramdas Pophale) SiO2 
 PCOD9038951
Probable space group: P -1
;
_chemical_formula_sum "Si O2"
_cell_formula_units_Z 14
_cell_length_a 7.567213
_cell_length_b 8.227476
_cell_length_c 17.507028
_cell_angle_alpha 46.343119
_cell_angle_beta 125.960562
_cell_angle_gamma 127.394329
_cell_volume 599.153078
_symmetry_space_group_name_H-M "P -1"
_symmetry_group_IT_number 2
_symmetry_cell_setting 'triclinic'
loop_
_space_group_symop_operation_xyz
x,y,z
-x,-y,-z
loop_
_atom_site_type_symbol
_atom_site_label
_atom_site_fract_x
_atom_site_fract_y
_atom_site_fract_z
Si Si1 0.138749 0.492158 0.716694
Si Si2 0.174578 0.394953 0.290033
Si Si3 0.331426 0.004266 0.525646
Si Si4 0.288758 0.096042 0.929395
Si Si5 0.478387 0.223903 0.088945
Si Si6 0.031418 0.717455 0.881335
Si Si7 0.631178 0.186782 0.688776
O O1 0.321128 0.358714 0.820065
O O2 0.056128 0.553438 0.758721
O O3 0.215480 0.730087 0.609965
O O4 0.580987 0.930701 0.799284
O O5 0.172209 0.150281 0.407697
O O6 0.373163 0.621818 0.307010
O O7 0.163949 0.355155 0.209895
O O8 0.459758 0.146094 0.587388
O O9 0.500000 0.000000 0.500000
O O10 0.276931 0.096403 0.017322
O O11 0.892171 0.310874 0.682451
O O12 0.066758 0.930133 0.880953
O O13 0.500000 0.000000 0.000000
O O14 0.500000 0.500000 0.000000
O O15 0.722017 0.212899 0.122454
O O16 0.000000 0.500000 0.000000
#
# Coordination Sequence:
#
# PCOD9038951 Si02
#       7
#     2   2   2   2   2   2   2
#     4  10  25  46  72  95 138 181 234 274 351 414
#     4  10  24  45  70  98 135 186 230 273 344 414
#     4  12  26  45  70 103 137 172 235 297 344 399
#     4  10  23  42  65 102 137 175 224 284 343 402
#     4  11  23  41  69  95 137 185 226 277 341 413
#     4  11  24  39  66 101 139 174 227 285 341 402
#     4  10  25  44  70  97 137 181 235 277 343 417
#
# _framework density 23.366316000000001
#
# number of rings (size 3 to 8) (size 9 to 14) (size 15 to 20)
#    0.857    0.571    0.000    4.286    4.000    5.714 
#    0.000    0.000    0.000    0.000    0.000    0.000 
#    0.000    0.000    0.000    0.000    0.000    0.000 
#
# Total GULP energy -78128.987902 kJ/mol
# GULP energy per Si atom -5580.641993 kJ/mol
# Density = 2.331313 g / cm^3
# Si number density = 23.366316 Si / 1000 Ang^3
#
#
#
# Elastic Constant Matrix: (Units=GPa)
#
#
# Indices 1 2 3 4 5 6 
#
# 1 40.9641 15.9719 16.9260 12.1102 -3.6263 12.6771
# 2 15.9719 111.0021 62.9277 6.7185 -19.5712 -5.8463
# 3 16.9260 62.9277 159.0486 -2.3407 -20.8464 -8.0337
# 4 12.1102 6.7185 -2.3407 44.5739 -13.7200 -9.2617
# 5 -3.6263 -19.5712 -20.8464 -13.7200 42.4075 -2.4793
# 6 12.6771 -5.8463 -8.0337 -9.2617 -2.4793 36.2070
#
#
#
# Elastic Compliance Matrix: (Units=1/GPa)
#
#
# Indices 1 2 3 4 5 6 
#
# 1 0.038308 -0.004260 -0.004608 -0.016413 -0.007425 -0.019830
# 2 -0.004260 0.012622 -0.003829 0.000977 0.004082 0.003210
# 3 -0.004608 -0.003829 0.009109 0.004466 0.004021 0.004434
# 4 -0.016413 0.000977 0.004466 0.034566 0.013400 0.016655
# 5 -0.007425 0.004082 0.004021 0.013400 0.031712 0.009750
# 6 -0.019830 0.003210 0.004434 0.016655 0.009750 0.040992
#
#
# Mechanical properties :
#
#
# Convention : Reuss Voigt Hill
#
# Bulk Modulus (GPa) = 28.86305 55.85178 42.35741
# Shear Modulus (GPa) = 24.47951 38.98363 31.73157
#
# Velocity S-wave (km/s) = 3.24024 4.08900 3.68911
# Velocity P-wave (km/s) = 5.13596 6.80057 6.02602
#
# Compressibility (1/GPa) = 0.03464637
#
# Stress axis : x y z
#
# Youngs Moduli (GPa) = 26.10408 79.22547 109.77645
#
# Poissons Ratio (x) = 0.33751 0.50581
# Poissons Ratio (y) = 0.11121 0.42034
# Poissons Ratio (z) = 0.12028 0.30336
#
# Static dielectric constant tensor:
#      x y z
#    x 1.901560 -0.042890 0.040770 
#    y -0.042890 1.970720 0.021120 
#    z 0.040770 0.021120 1.870350 
# 
# From -- ./inp_files/586636.got.cif
#   From: 2010.05.17/outbox.cif.g08.bks.cpg/sg2_294_cif.got.tgz:586636.got - 2010.06.03 11:33:40.
