data_PCOD9038446
_publ_section_title
;
Structure prediction by ZEFSAII (Michael W. Deem and Ramdas Pophale) SiO2 
 PCOD9038446
Probable space group: P -1
;
_chemical_formula_sum "Si O2"
_cell_formula_units_Z 16
_cell_length_a 8.122651
_cell_length_b 20.144723
_cell_length_c 12.188248
_cell_angle_alpha 38.830169
_cell_angle_beta 107.877057
_cell_angle_gamma 136.243946
_cell_volume 698.478311
_symmetry_space_group_name_H-M "P -1"
_symmetry_group_IT_number 2
_symmetry_cell_setting 'triclinic'
loop_
_space_group_symop_operation_xyz
x,y,z
-x,-y,-z
loop_
_atom_site_type_symbol
_atom_site_label
_atom_site_fract_x
_atom_site_fract_y
_atom_site_fract_z
Si Si1 0.631479 0.449024 0.604024
Si Si2 0.386218 0.117267 0.973030
Si Si3 0.829255 0.186584 0.364632
Si Si4 0.866733 0.890229 0.501756
Si Si5 0.050621 0.361916 0.787779
Si Si6 0.822024 0.209678 0.583487
Si Si7 0.780093 0.007723 0.146268
Si Si8 0.696899 0.505183 0.090094
O O1 0.500000 0.500000 0.500000
O O2 0.397199 0.243206 0.854784
O O3 0.762267 0.485936 0.462612
O O4 0.901354 0.597188 0.551955
O O5 0.291338 0.071213 0.886162
O O6 0.730472 0.254681 0.878875
O O7 0.194183 0.927104 0.230372
O O8 0.826555 0.231914 0.426913
O O9 0.993971 0.154693 0.438389
O O10 0.500000 0.000000 0.500000
O O11 0.004507 0.347551 0.108215
O O12 0.913591 0.991419 0.280002
O O13 0.516562 0.700847 0.690553
O O14 0.000000 0.000000 0.500000
O O15 0.219816 0.434079 0.844373
O O16 0.977589 0.210271 0.920164
O O17 0.530070 0.106631 0.717091
O O18 0.500000 0.500000 0.000000
#
# Coordination Sequence:
#
# PCOD9038446 Si02
#       8
#     2   2   2   2   2   2   2   2
#     4  12  27  39  65 103 137 175 219 282 345 402
#     4  11  23  44  68  98 131 183 226 269 345 411
#     4  11  24  47  67  96 142 177 225 294 346 398
#     4  11  24  43  69 100 129 183 238 278 338 410
#     4  11  21  44  70  96 132 176 229 278 335 411
#     4  11  24  45  66 100 138 172 224 285 347 397
#     4  11  21  42  72  96 132 178 228 280 332 418
#     4  10  23  41  69  96 130 183 231 277 331 410
#
# _framework density 22.906939999999999
#
# number of rings (size 3 to 8) (size 9 to 14) (size 15 to 20)
#    0.000    1.000    2.500    5.625    7.000    1.500 
#    2.250    1.250    0.000    0.000    0.000    0.000 
#    0.000    0.000    0.000    0.000    0.000    0.000 
#
# Total GULP energy -89579.956122 kJ/mol
# GULP energy per Si atom -5598.747258 kJ/mol
# Density = 2.285480 g / cm^3
# Si number density = 22.906940 Si / 1000 Ang^3
#
#
#
# Elastic Constant Matrix: (Units=GPa)
#
#
# Indices 1 2 3 4 5 6 
#
# 1 59.2534 14.6860 13.8741 -8.7134 8.0864 0.3840
# 2 14.6860 184.4733 45.4547 -3.7057 -10.9736 -9.8882
# 3 13.8741 45.4547 113.9970 -15.4444 0.3032 -12.4959
# 4 -8.7134 -3.7057 -15.4444 36.9981 -3.0156 3.2691
# 5 8.0864 -10.9736 0.3032 -3.0156 43.0618 1.6456
# 6 0.3840 -9.8882 -12.4959 3.2691 1.6456 29.5663
#
#
#
# Elastic Compliance Matrix: (Units=1/GPa)
#
#
# Indices 1 2 3 4 5 6 
#
# 1 0.018541 -0.001350 -0.001397 0.003492 -0.003515 -0.001473
# 2 -0.001350 0.006246 -0.002291 -0.000602 0.001777 0.001106
# 3 -0.001397 -0.002291 0.010716 0.003592 -0.000275 0.003399
# 4 0.003492 -0.000602 0.003592 0.029580 0.001316 -0.002072
# 5 -0.003515 0.001777 -0.000275 0.001316 0.024467 -0.000984
# 6 -0.001473 0.001106 0.003399 -0.002072 -0.000984 0.035932
#
#
# Mechanical properties :
#
#
# Convention : Reuss Voigt Hill
#
# Bulk Modulus (GPa) = 39.32986 56.19482 47.76234
# Shear Modulus (GPa) = 34.71415 40.83915 37.77665
#
# Velocity S-wave (km/s) = 3.89709 4.22694 4.06536
# Velocity P-wave (km/s) = 6.12017 6.95756 6.55226
#
# Compressibility (1/GPa) = 0.02542597
#
# Stress axis : x y z
#
# Youngs Moduli (GPa) = 53.93422 160.10983 93.32057
#
# Poissons Ratio (x) = 0.21609 0.13041
# Poissons Ratio (y) = 0.07279 0.21381
# Poissons Ratio (z) = 0.07537 0.36684
#
# Static dielectric constant tensor:
#      x y z
#    x 1.907680 0.021190 -0.009740 
#    y 0.021190 1.778950 -0.018900 
#    z -0.009740 -0.018900 1.922550 
# 
# From -- ./inp_files/352370.got.cif
#   From: 2010.05.17/outbox.cif.g08.bks.cpg/sg2_177_cif.got.tgz:352370.got - 2010.06.03 11:33:40.
