data_PCOD9038640
_publ_section_title
;
Structure prediction by ZEFSAII (Michael W. Deem and Ramdas Pophale) SiO2 
 PCOD9038640
Probable space group: P -1
;
_chemical_formula_sum "Si O2"
_cell_formula_units_Z 12
_cell_length_a 5.343705
_cell_length_b 16.207656
_cell_length_c 9.173780
_cell_angle_alpha 127.628910
_cell_angle_beta 83.850553
_cell_angle_gamma 120.485431
_cell_volume 517.817006
_symmetry_space_group_name_H-M "P -1"
_symmetry_group_IT_number 2
_symmetry_cell_setting 'triclinic'
loop_
_space_group_symop_operation_xyz
x,y,z
-x,-y,-z
loop_
_atom_site_type_symbol
_atom_site_label
_atom_site_fract_x
_atom_site_fract_y
_atom_site_fract_z
Si Si1 0.639186 0.716189 0.381163
Si Si2 0.676027 0.240884 0.038109
Si Si3 0.060127 0.636454 0.147688
Si Si4 0.075676 0.977429 0.745264
Si Si5 0.842897 0.103973 0.049251
Si Si6 0.369418 0.584735 0.569171
O O1 0.371807 0.711633 0.303199
O O2 0.494413 0.654912 0.481685
O O3 0.785477 0.642748 0.233033
O O4 0.925198 0.862888 0.521118
O O5 0.862456 0.228156 0.141737
O O6 0.538710 0.312645 0.196913
O O7 0.876932 0.313813 0.966872
O O8 0.421440 0.097412 0.849246
O O9 0.000000 0.500000 0.000000
O O10 0.995909 0.901420 0.822604
O O11 0.911930 0.050087 0.846916
O O12 0.500000 0.000000 0.000000
O O13 0.500000 0.500000 0.500000
O O14 0.000000 0.500000 0.500000
#
# Coordination Sequence:
#
# PCOD9038640 Si02
#       6
#     2   2   2   2   2   2
#     4  12  27  48  75 105 148 186 243 303 361 430
#     4  11  26  44  76 102 148 191 245 295 367 434
#     4  12  29  51  71 102 152 198 235 296 366 433
#     4  10  23  41  72 106 144 182 241 305 372 414
#     4   9  19  39  66 104 142 180 229 296 365 416
#     4  12  27  46  75 109 138 191 255 297 345 426
#
# _framework density 23.174209000000001
#
# number of rings (size 3 to 8) (size 9 to 14) (size 15 to 20)
#    0.000    1.000    0.000    6.500   14.000    1.333 
#    0.000    0.000    0.000    0.000    0.000    0.000 
#    0.000    0.000    0.000    0.000    0.000    0.000 
#
# Total GULP energy -67012.045877 kJ/mol
# GULP energy per Si atom -5584.337156 kJ/mol
# Density = 2.312146 g / cm^3
# Si number density = 23.174209 Si / 1000 Ang^3
#
#
#
# Elastic Constant Matrix: (Units=GPa)
#
#
# Indices 1 2 3 4 5 6 
#
# 1 109.0893 17.1685 7.7150 0.9486 -19.0787 -0.4266
# 2 17.1685 111.5762 20.7774 -1.4941 -8.3677 8.5577
# 3 7.7150 20.7774 58.3444 9.4176 -3.9602 9.4352
# 4 0.9486 -1.4941 9.4176 40.4663 9.8930 -4.8421
# 5 -19.0787 -8.3677 -3.9602 9.8930 34.9730 1.0988
# 6 -0.4266 8.5577 9.4352 -4.8421 1.0988 41.3008
#
#
#
# Elastic Compliance Matrix: (Units=1/GPa)
#
#
# Indices 1 2 3 4 5 6 
#
# 1 0.010401 -0.001130 -0.000327 -0.001625 0.005824 0.000071
# 2 -0.001130 0.009935 -0.003205 0.000680 0.001246 -0.001291
# 3 -0.000327 -0.003205 0.020324 -0.006213 0.003265 -0.004798
# 4 -0.001625 0.000680 -0.006213 0.029221 -0.009849 0.004950
# 5 0.005824 0.001246 0.003265 -0.009849 0.035320 -0.003038
# 6 0.000071 -0.001291 -0.004798 0.004950 -0.003038 0.026238
#
#
# Mechanical properties :
#
#
# Convention : Reuss Voigt Hill
#
# Bulk Modulus (GPa) = 31.91149 41.14794 36.52971
# Shear Modulus (GPa) = 33.06717 38.90463 35.98590
#
# Velocity S-wave (km/s) = 3.78152 4.10175 3.94489
# Velocity P-wave (km/s) = 5.73295 6.34247 6.04540
#
# Compressibility (1/GPa) = 0.03133668
#
# Stress axis : x y z
#
# Youngs Moduli (GPa) = 96.14739 100.65687 49.20188
#
# Poissons Ratio (x) = 0.11374 0.01608
# Poissons Ratio (y) = 0.10864 0.15769
# Poissons Ratio (z) = 0.03142 0.32259
#
# Static dielectric constant tensor:
#      x y z
#    x 2.219620 0.037710 0.315940 
#    y 0.037710 1.854180 0.065240 
#    z 0.315940 0.065240 2.232820 
# 
# From -- ./inp_files/135910.got.cif
#   From: 2010.05.17/outbox.cif.g08.bks.cpg/sg2_68_cif.got.tgz:135910.got - 2010.06.03 11:33:40.
