data_PCOD9038105
_publ_section_title
;
Structure prediction by ZEFSAII (Michael W. Deem and Ramdas Pophale) SiO2 
 PCOD9038105
Probable space group: P -1
;
_chemical_formula_sum "Si O2"
_cell_formula_units_Z 14
_cell_length_a 14.971750
_cell_length_b 6.282007
_cell_length_c 24.038964
_cell_angle_alpha 68.398712
_cell_angle_beta 160.868248
_cell_angle_gamma 102.992427
_cell_volume 630.349259
_symmetry_space_group_name_H-M "P -1"
_symmetry_group_IT_number 2
_symmetry_cell_setting 'triclinic'
loop_
_space_group_symop_operation_xyz
x,y,z
-x,-y,-z
loop_
_atom_site_type_symbol
_atom_site_label
_atom_site_fract_x
_atom_site_fract_y
_atom_site_fract_z
Si Si1 0.848192 0.894710 0.659009
Si Si2 0.807434 0.893760 0.511462
Si Si3 0.283405 0.791868 0.343926
Si Si4 0.694868 0.637866 0.839548
Si Si5 0.226317 0.095206 0.684947
Si Si6 0.191132 0.348373 0.966322
Si Si7 0.147788 0.492664 0.503189
O O1 0.934485 0.913157 0.644660
O O2 0.501233 0.930617 0.446735
O O3 0.036436 0.615998 0.819383
O O4 0.857175 0.095862 0.689613
O O5 0.870791 0.615098 0.557414
O O6 0.456322 0.062790 0.286127
O O7 0.956327 0.008946 0.542196
O O8 0.500000 0.500000 0.500000
O O9 0.029223 0.797241 0.151646
O O10 0.435923 0.557887 0.671820
O O11 0.742660 0.595076 0.937569
O O12 0.000000 0.500000 0.000000
O O13 0.206001 0.272977 0.603904
O O14 0.158642 0.283022 0.679683
O O15 0.516641 0.842658 0.874385
#
# Coordination Sequence:
#
# PCOD9038105 Si02
#       7
#     2   2   2   2   2   2   2
#     4  10  24  41  66  93 128 172 210 259 330 376
#     4  11  24  43  65  95 132 167 215 265 315 382
#     4   9  22  42  64  88 131 174 208 254 325 385
#     4  11  27  39  65 103 128 160 220 265 316 388
#     4  10  23  41  66  95 125 173 221 255 319 384
#     4  11  24  41  66  95 131 166 214 265 315 382
#     4  10  23  42  68  90 133 174 203 269 328 367
#
# _framework density 22.209909
#
# number of rings (size 3 to 8) (size 9 to 14) (size 15 to 20)
#    0.000    1.714    1.429    0.429   14.000    4.571 
#    0.000    1.429    0.000    0.000    0.000    0.000 
#    0.000    0.000    0.000    0.000    0.000    0.000 
#
# Total GULP energy -78125.485677 kJ/mol
# GULP energy per Si atom -5580.391834 kJ/mol
# Density = 2.215936 g / cm^3
# Si number density = 22.209909 Si / 1000 Ang^3
#
#
#
# Elastic Constant Matrix: (Units=GPa)
#
#
# Indices 1 2 3 4 5 6 
#
# 1 79.3259 28.4849 32.0149 -17.6804 2.1047 -12.7461
# 2 28.4849 92.2378 18.5741 -15.7825 11.9917 -28.5328
# 3 32.0149 18.5741 89.4523 -32.4455 19.3517 -15.0125
# 4 -17.6804 -15.7825 -32.4455 36.0133 -8.2720 11.3276
# 5 2.1047 11.9917 19.3517 -8.2720 32.8608 -6.3480
# 6 -12.7461 -28.5328 -15.0125 11.3276 -6.3480 28.1378
#
#
#
# Elastic Compliance Matrix: (Units=1/GPa)
#
#
# Indices 1 2 3 4 5 6 
#
# 1 0.016632 -0.004004 -0.004909 0.002714 0.004103 0.000688
# 2 -0.004004 0.017120 0.001770 0.001547 -0.003742 0.015025
# 3 -0.004909 0.001770 0.019593 0.013281 -0.007970 0.002880
# 4 0.002714 0.001547 0.013281 0.044441 0.001130 -0.007752
# 5 0.004103 -0.003742 -0.007970 0.001130 0.036834 0.001667
# 6 0.000688 0.015025 0.002880 -0.007752 0.001667 0.056120
#
#
# Mechanical properties :
#
#
# Convention : Reuss Voigt Hill
#
# Bulk Modulus (GPa) = 25.60154 46.57374 36.08764
# Shear Modulus (GPa) = 22.93088 31.53185 27.23136
#
# Velocity S-wave (km/s) = 3.21668 3.77200 3.50536
# Velocity P-wave (km/s) = 5.03469 6.32345 5.71551
#
# Compressibility (1/GPa) = 0.03906015
#
# Stress axis : x y z
#
# Youngs Moduli (GPa) = 60.12616 58.40981 51.03750
#
# Poissons Ratio (x) = 0.23387 0.25053
# Poissons Ratio (y) = 0.24074 -0.09034
# Poissons Ratio (z) = 0.29515 -0.10339
#
# Static dielectric constant tensor:
#      x y z
#    x 1.864460 -0.010830 0.025850 
#    y -0.010830 1.892670 -0.010580 
#    z 0.025850 -0.010580 1.818100 
# 
# From -- ./inp_files/97486.got.cif
#   From: 2010.05.17/outbox.cif.g08.bks.cpg/sg2_49_cif.got.tgz:97486.got - 2010.06.03 11:33:40.
