data_PCOD9038336
_publ_section_title
;
Structure prediction by ZEFSAII (Michael W. Deem and Ramdas Pophale) SiO2 
 PCOD9038336
Probable space group: P -1
;
_chemical_formula_sum "Si O2"
_cell_formula_units_Z 14
_cell_length_a 12.313405
_cell_length_b 5.499289
_cell_length_c 11.355865
_cell_angle_alpha 83.371541
_cell_angle_beta 127.721023
_cell_angle_gamma 86.837971
_cell_volume 596.390319
_symmetry_space_group_name_H-M "P -1"
_symmetry_group_IT_number 2
_symmetry_cell_setting 'triclinic'
loop_
_space_group_symop_operation_xyz
x,y,z
-x,-y,-z
loop_
_atom_site_type_symbol
_atom_site_label
_atom_site_fract_x
_atom_site_fract_y
_atom_site_fract_z
Si Si1 0.459785 0.583234 0.100599
Si Si2 0.219182 0.869679 0.209772
Si Si3 0.418592 0.078915 0.166882
Si Si4 0.064811 0.087618 0.656589
Si Si5 0.867421 0.466480 0.656411
Si Si6 0.299688 0.208657 0.649033
Si Si7 0.043410 0.757794 0.884098
O O1 0.394810 0.874329 0.061720
O O2 0.602344 0.586301 0.268690
O O3 0.374534 0.369629 0.098189
O O4 0.500000 0.500000 0.000000
O O5 0.346865 0.991291 0.240256
O O6 0.242496 0.664490 0.338165
O O7 0.156892 0.753257 0.059953
O O8 0.095331 0.072090 0.166946
O O9 0.586075 0.030841 0.286747
O O10 0.205082 0.177185 0.700468
O O11 0.948827 0.302451 0.618115
O O12 0.086604 0.882987 0.785381
O O13 0.000000 0.000000 0.500000
O O14 0.793813 0.714054 0.530869
O O15 0.989812 0.507001 0.825719
#
# Coordination Sequence:
#
# PCOD9038336 Si02
#       7
#     2   2   2   2   2   2   2
#     4  10  24  43  66  98 138 180 222 276 339 406
#     4  10  24  43  66  96 134 177 235 275 342 399
#     4  10  25  43  68 100 133 178 225 278 338 403
#     4  11  23  39  65 101 134 174 222 282 346 406
#     4  11  23  42  65  98 131 182 221 290 331 410
#     4  10  25  39  66  99 135 172 228 275 348 400
#     4  10  23  41  68  94 134 175 230 283 337 403
#
# _framework density 23.474561000000001
#
# number of rings (size 3 to 8) (size 9 to 14) (size 15 to 20)
#    0.857    0.857    1.429    1.286    6.000    1.714 
#    0.000    1.429    0.000    0.000    0.000    0.000 
#    0.000    0.000    0.000    0.000    0.000    0.000 
#
# Total GULP energy -78170.996015 kJ/mol
# GULP energy per Si atom -5583.642573 kJ/mol
# Density = 2.342113 g / cm^3
# Si number density = 23.474561 Si / 1000 Ang^3
#
#
#
# Elastic Constant Matrix: (Units=GPa)
#
#
# Indices 1 2 3 4 5 6 
#
# 1 80.2107 25.6529 28.7030 -0.7217 -30.9674 5.4147
# 2 25.6529 108.1171 14.2499 13.2368 -14.7627 3.1838
# 3 28.7030 14.2499 69.2292 9.1139 -14.2956 -5.6308
# 4 -0.7217 13.2368 9.1139 34.6018 4.1324 -6.4501
# 5 -30.9674 -14.7627 -14.2956 4.1324 31.7904 -3.8812
# 6 5.4147 3.1838 -5.6308 -6.4501 -3.8812 18.2542
#
#
#
# Elastic Compliance Matrix: (Units=1/GPa)
#
#
# Indices 1 2 3 4 5 6 
#
# 1 0.022184 -0.001964 -0.005432 -0.000266 0.017773 -0.004229
# 2 -0.001964 0.010896 -0.000273 -0.004997 0.003374 -0.002450
# 3 -0.005432 -0.000273 0.018779 -0.004195 0.004415 0.006908
# 4 -0.000266 -0.004997 -0.004195 0.034753 -0.007727 0.010293
# 5 0.017773 0.003374 0.004415 -0.007727 0.053841 0.004219
# 6 -0.004229 -0.002450 0.006908 0.010293 0.004219 0.063129
#
#
# Mechanical properties :
#
#
# Convention : Reuss Voigt Hill
#
# Bulk Modulus (GPa) = 27.38188 43.86320 35.62254
# Shear Modulus (GPa) = 21.63628 29.52600 25.58114
#
# Velocity S-wave (km/s) = 3.03923 3.55038 3.30470
# Velocity P-wave (km/s) = 4.89956 5.96095 5.45612
#
# Compressibility (1/GPa) = 0.03652050
#
# Stress axis : x y z
#
# Youngs Moduli (GPa) = 45.07748 91.77792 53.25094
#
# Poissons Ratio (x) = 0.18022 0.28927
# Poissons Ratio (y) = 0.08852 0.01455
# Poissons Ratio (z) = 0.24487 0.02508
#
# Static dielectric constant tensor:
#      x y z
#    x 1.909250 0.039500 0.040380 
#    y 0.039500 1.956630 0.031550 
#    z 0.040380 0.031550 1.884860 
# 
# From -- ./inp_files/369747.got.cif
#   From: 2010.05.17/outbox.cif.g08.bks.cpg/sg2_185_cif.got.tgz:369747.got - 2010.06.03 11:33:40.
