data_PCOD9038589
_publ_section_title
;
Structure prediction by ZEFSAII (Michael W. Deem and Ramdas Pophale) SiO2 
 PCOD9038589
Probable space group: P -1
;
_chemical_formula_sum "Si O2"
_cell_formula_units_Z 14
_cell_length_a 17.012964
_cell_length_b 8.332969
_cell_length_c 10.085416
_cell_angle_alpha 144.258122
_cell_angle_beta 126.686175
_cell_angle_gamma 39.809972
_cell_volume 533.426593
_symmetry_space_group_name_H-M "P -1"
_symmetry_group_IT_number 2
_symmetry_cell_setting 'triclinic'
loop_
_space_group_symop_operation_xyz
x,y,z
-x,-y,-z
loop_
_atom_site_type_symbol
_atom_site_label
_atom_site_fract_x
_atom_site_fract_y
_atom_site_fract_z
Si Si1 0.342761 0.009911 0.869364
Si Si2 0.835631 0.595421 0.686359
Si Si3 0.088714 0.568434 0.069689
Si Si4 0.360987 0.654650 0.927186
Si Si5 0.052420 0.189829 0.442259
Si Si6 0.620896 0.911072 0.488219
Si Si7 0.652060 0.346894 0.628401
O O1 0.356527 0.785954 0.860349
O O2 0.387271 0.759069 0.616726
O O3 0.194625 0.288680 0.893374
O O4 0.379246 0.271787 0.120799
O O5 0.842663 0.438883 0.730505
O O6 0.737739 0.634753 0.512489
O O7 0.971579 0.372654 0.615473
O O8 0.761457 0.001580 0.906957
O O9 0.015653 0.946790 0.193922
O O10 0.000000 0.500000 0.000000
O O11 0.359098 0.347928 0.777364
O O12 0.500000 0.500000 0.000000
O O13 0.000000 0.500000 0.500000
O O14 0.199413 0.938778 0.413624
O O15 0.500000 0.000000 0.500000
O O16 0.613732 0.225001 0.634831
#
# Coordination Sequence:
#
# PCOD9038589 Si02
#       7
#     2   2   2   2   2   2   2
#     4  10  26  47  78 106 157 191 248 309 382 434
#     4  11  24  44  71 104 150 187 252 296 377 437
#     4  10  23  41  71 108 144 198 243 300 369 458
#     4  11  26  46  77 106 143 201 257 306 362 449
#     4  11  23  41  71 108 148 190 240 306 378 435
#     4  12  27  47  78 103 147 199 256 309 369 447
#     4  11  26  51  73 114 153 195 244 314 380 451
#
# _framework density 26.245411000000001
#
# number of rings (size 3 to 8) (size 9 to 14) (size 15 to 20)
#    0.000    1.143    2.857    1.286   12.000    0.000 
#    0.000    7.143    3.143    0.000    0.000    0.000 
#    0.000    0.000    0.000    0.000    0.000    0.000 
#
# Total GULP energy -78019.141546 kJ/mol
# GULP energy per Si atom -5572.795825 kJ/mol
# Density = 2.618568 g / cm^3
# Si number density = 26.245411 Si / 1000 Ang^3
#
#
#
# Elastic Constant Matrix: (Units=GPa)
#
#
# Indices 1 2 3 4 5 6 
#
# 1 134.3730 23.8704 70.3490 24.4722 -8.7777 -13.0695
# 2 23.8704 85.8724 31.3071 12.7947 5.6945 -8.0520
# 3 70.3490 31.3071 143.4111 24.1590 7.1577 -1.1218
# 4 24.4722 12.7947 24.1590 48.2761 -4.5495 -2.3820
# 5 -8.7777 5.6945 7.1577 -4.5495 64.4112 18.4420
# 6 -13.0695 -8.0520 -1.1218 -2.3820 18.4420 41.5461
#
#
#
# Elastic Compliance Matrix: (Units=1/GPa)
#
#
# Indices 1 2 3 4 5 6 
#
# 1 0.010872 -0.000731 -0.004758 -0.002704 0.001176 0.002473
# 2 -0.000731 0.013355 -0.002060 -0.002182 -0.002095 0.003108
# 3 -0.004758 -0.002060 0.010215 -0.002346 -0.001449 -0.001112
# 4 -0.002704 -0.002182 -0.002346 0.023985 0.002026 -0.000861
# 5 0.001176 -0.002095 -0.001449 0.002026 0.018516 -0.008178
# 6 0.002473 0.003108 -0.001112 -0.000861 -0.008178 0.029001
#
#
# Mechanical properties :
#
#
# Convention : Reuss Voigt Hill
#
# Bulk Modulus (GPa) = 51.69353 68.30106 59.99729
# Shear Modulus (GPa) = 39.21819 46.72201 42.97010
#
# Velocity S-wave (km/s) = 3.86980 4.22382 4.05067
# Velocity P-wave (km/s) = 6.30127 7.06173 6.69231
#
# Compressibility (1/GPa) = 0.01934478
#
# Stress axis : x y z
#
# Youngs Moduli (GPa) = 91.97589 74.87833 97.89208
#
# Poissons Ratio (x) = 0.05473 0.46573
# Poissons Ratio (y) = 0.06723 0.20170
# Poissons Ratio (z) = 0.43759 0.15428
#
# Static dielectric constant tensor:
#      x y z
#    x 2.015760 -0.025350 -0.025050 
#    y -0.025350 2.040150 -0.117840 
#    z -0.025050 -0.117840 2.426140 
# 
# From -- ./inp_files/462627.got.cif
#   From: 2010.05.17/outbox.cif.g08.bks.cpg/sg2_232_cif.got.tgz:462627.got - 2010.06.03 11:33:40.
