data_PCOD9038826
_publ_section_title
;
Structure prediction by ZEFSAII (Michael W. Deem and Ramdas Pophale) SiO2 
 PCOD9038826
Probable space group: P -1
;
_chemical_formula_sum "Si O2"
_cell_formula_units_Z 15
_cell_length_a 20.420878
_cell_length_b 24.338407
_cell_length_c 9.549942
_cell_angle_alpha 146.148702
_cell_angle_beta 138.071843
_cell_angle_gamma 16.060557
_cell_volume 684.923206
_symmetry_space_group_name_H-M "P -1"
_symmetry_group_IT_number 2
_symmetry_cell_setting 'triclinic'
loop_
_space_group_symop_operation_xyz
x,y,z
-x,-y,-z
loop_
_atom_site_type_symbol
_atom_site_label
_atom_site_fract_x
_atom_site_fract_y
_atom_site_fract_z
Si Si1 0.430662 0.265807 0.101400
Si Si2 0.000000 0.000000 0.000000
Si Si3 0.810544 0.554450 0.341527
Si Si4 0.724335 0.431877 0.314258
Si Si5 0.385342 0.102129 0.808774
Si Si6 0.904131 0.754055 0.130500
Si Si7 0.581215 0.237400 0.738516
Si Si8 0.111097 0.237675 0.420963
O O1 0.458930 0.342791 0.389331
O O2 0.169897 0.512280 0.122928
O O3 0.409629 0.195985 0.031692
O O4 0.652239 0.031021 0.850995
O O5 0.233611 0.864151 0.097404
O O6 0.162414 0.771623 0.873153
O O7 0.612507 0.647029 0.231380
O O8 0.936553 0.445548 0.463029
O O9 0.648583 0.800646 0.567570
O O10 0.020065 0.337201 0.100161
O O11 0.581491 0.556194 0.202296
O O12 0.949816 0.302064 0.374798
O O13 0.265514 0.171440 0.906794
O O14 0.209491 0.225743 0.663533
O O15 0.755407 0.993904 0.423169
#
# Coordination Sequence:
#
# PCOD9038826 Si02
#       8
#     2   1   2   2   2   2   2   2
#     4  12  23  39  67  91 131 173 213 258 311 366
#     4  12  22  44  72  94 118 160 206 268 330 380
#     4  10  23  42  63  94 132 170 212 254 308 377
#     4  11  24  44  65  94 125 164 209 264 319 382
#     4  11  23  40  61  95 132 175 217 255 302 363
#     4  11  21  41  67  91 132 172 211 256 309 368
#     4  10  23  44  66  94 127 160 209 260 322 381
#     4  11  23  42  64  93 132 173 210 259 311 365
#
# _framework density 21.900265000000001
#
# number of rings (size 3 to 8) (size 9 to 14) (size 15 to 20)
#    0.000    1.067    4.000    2.800    0.000    0.533 
#    2.400    6.667    0.000    4.800    0.000    0.000 
#    0.000    0.000    0.000    0.000    0.000    0.000 
#
# Total GULP energy -83812.819596 kJ/mol
# GULP energy per Si atom -5587.521306 kJ/mol
# Density = 2.185042 g / cm^3
# Si number density = 21.900265 Si / 1000 Ang^3
#
#
#
# Elastic Constant Matrix: (Units=GPa)
#
#
# Indices 1 2 3 4 5 6 
#
# 1 93.9777 33.5471 49.4453 4.8021 9.8896 8.2259
# 2 33.5471 115.8302 11.9152 -2.3946 17.6728 -2.1439
# 3 49.4453 11.9152 22.7235 10.8871 -11.3928 -5.8176
# 4 4.8021 -2.3946 10.8871 33.6215 3.4990 7.9821
# 5 9.8896 17.6728 -11.3928 3.4990 34.8813 16.5257
# 6 8.2259 -2.1439 -5.8176 7.9821 16.5257 38.8093
#
#
#
# Elastic Compliance Matrix: (Units=1/GPa)
#
#
# Indices 1 2 3 4 5 6 
#
# 1 -0.009102 -0.004054 0.037724 -0.013670 0.016922 0.002966
# 2 -0.004054 0.010709 0.000896 0.000728 -0.005934 0.003962
# 3 0.037724 0.000896 -0.066722 0.021693 -0.030693 -0.009340
# 4 -0.013670 0.000728 0.021693 0.024417 0.009508 -0.002881
# 5 0.016922 -0.005934 -0.030693 0.009508 0.026131 -0.021598
# 6 0.002966 0.003962 -0.009340 -0.002881 -0.021598 0.033746
#
#
# Mechanical properties :
#
#
# Convention : Reuss Voigt Hill
#
# Bulk Modulus (GPa) = 248.88739 46.92742 147.90741
# Shear Modulus (GPa) = -102.84897 30.63734 -36.10582
#
# Velocity S-wave (km/s) = -6.86035 3.74431 -4.06476
# Velocity P-wave (km/s) = 7.15123 6.33778 6.75676
#
# Compressibility (1/GPa) = 0.00401788
#
# Stress axis : x y z
#
# Youngs Moduli (GPa) = -109.86428 93.37955 -14.98747
#
# Poissons Ratio (x) = 0.37856 0.56539
# Poissons Ratio (y) = -0.44539 0.01343
# Poissons Ratio (z) = 4.14455 -0.08371
#
# Static dielectric constant tensor:
#      x y z
#    x 1.778880 0.010080 -0.027980 
#    y 0.010080 1.830750 -0.003710 
#    z -0.027980 -0.003710 1.796280 
# 
# From -- ./inp_files/313975.got.cif
#   From: 2010.05.17/outbox.cif.g08.bks.cpg/sg2_157_cif.got.tgz:313975.got - 2010.06.03 11:33:40.
