data_PCOD9038359
_publ_section_title
;
Structure prediction by ZEFSAII (Michael W. Deem and Ramdas Pophale) SiO2 
 PCOD9038359
Probable space group: P -1
;
_chemical_formula_sum "Si O2"
_cell_formula_units_Z 16
_cell_length_a 13.836475
_cell_length_b 7.647462
_cell_length_c 8.243258
_cell_angle_alpha 124.606555
_cell_angle_beta 66.598424
_cell_angle_gamma 124.187985
_cell_volume 589.952163
_symmetry_space_group_name_H-M "P -1"
_symmetry_group_IT_number 2
_symmetry_cell_setting 'triclinic'
loop_
_space_group_symop_operation_xyz
x,y,z
-x,-y,-z
loop_
_atom_site_type_symbol
_atom_site_label
_atom_site_fract_x
_atom_site_fract_y
_atom_site_fract_z
Si Si1 0.411637 0.165519 0.267630
Si Si2 0.332075 0.477353 0.700373
Si Si3 0.386659 0.812277 0.385137
Si Si4 0.836352 0.420800 0.365768
Si Si5 0.264539 0.382103 0.039849
Si Si6 0.034706 0.897898 0.582507
Si Si7 0.923009 0.115124 0.966421
Si Si8 0.190704 0.784625 0.199120
O O1 0.375087 0.361804 0.466069
O O2 0.549514 0.285932 0.204600
O O3 0.386630 0.971432 0.320123
O O4 0.305438 0.986018 0.133915
O O5 0.222354 0.508504 0.713321
O O6 0.305272 0.334194 0.811405
O O7 0.278198 0.736280 0.538109
O O8 0.369663 0.562453 0.183630
O O9 0.500000 0.000000 0.500000
O O10 0.924148 0.641120 0.529183
O O11 0.912797 0.284379 0.198153
O O12 0.182822 0.143768 0.060776
O O13 0.202536 0.550293 0.116481
O O14 0.031067 0.055287 0.819374
O O15 0.150307 0.879893 0.436725
O O16 0.000000 0.000000 0.500000
O O17 0.907082 0.242709 0.881836
#
# Coordination Sequence:
#
# PCOD9038359 Si02
#       8
#     2   2   2   2   2   2   2   2
#     4  10  23  41  68  96 143 181 230 286 349 415
#     4  11  22  41  68 102 137 181 232 283 354 416
#     4  11  23  42  67 101 140 185 228 288 345 417
#     4  12  23  44  73 102 142 184 235 288 349 417
#     4  11  24  43  69 103 142 178 236 286 350 418
#     4  10  23  44  72 102 139 188 234 289 351 409
#     4  11  23  44  71 100 142 180 236 285 353 405
#     4  10  23  44  68  98 139 184 226 292 350 404
#
# _framework density 27.120843000000001
#
# number of rings (size 3 to 8) (size 9 to 14) (size 15 to 20)
#    0.000    1.250    3.750    2.250    0.000    5.500 
#    2.250    2.500    0.000    0.000    0.000    0.000 
#    0.000    0.000    0.000    0.000    0.000    0.000 
#
# Total GULP energy -89468.069024 kJ/mol
# GULP energy per Si atom -5591.754314 kJ/mol
# Density = 2.705911 g / cm^3
# Si number density = 27.120843 Si / 1000 Ang^3
#
#
#
# Elastic Constant Matrix: (Units=GPa)
#
#
# Indices 1 2 3 4 5 6 
#
# 1 87.4469 31.5508 26.7485 18.5719 6.0252 14.4597
# 2 31.5508 136.6329 17.7237 6.2790 8.0164 23.9419
# 3 26.7485 17.7237 130.3098 11.3091 -13.7780 5.7961
# 4 18.5719 6.2790 11.3091 43.0345 -2.1068 2.2892
# 5 6.0252 8.0164 -13.7780 -2.1068 37.7578 -3.2514
# 6 14.4597 23.9419 5.7961 2.2892 -3.2514 52.8066
#
#
#
# Elastic Compliance Matrix: (Units=1/GPa)
#
#
# Indices 1 2 3 4 5 6 
#
# 1 0.014831 -0.002165 -0.002510 -0.005442 -0.003365 -0.002775
# 2 -0.002165 0.008634 -0.000796 -0.000039 -0.002070 -0.003360
# 3 -0.002510 -0.000796 0.008759 -0.000938 0.003744 0.000358
# 4 -0.005442 -0.000039 -0.000938 0.025905 0.002033 0.000613
# 5 -0.003365 -0.002070 0.003744 0.002033 0.029213 0.003159
# 6 -0.002775 -0.003360 0.000358 0.000613 0.003159 0.021349
#
#
# Mechanical properties :
#
#
# Convention : Reuss Voigt Hill
#
# Bulk Modulus (GPa) = 46.98859 56.27060 51.62959
# Shear Modulus (GPa) = 39.45495 45.27756 42.36626
#
# Velocity S-wave (km/s) = 3.81830 4.09035 3.95667
# Velocity P-wave (km/s) = 6.06650 6.56515 6.32074
#
# Compressibility (1/GPa) = 0.02128176
#
# Stress axis : x y z
#
# Youngs Moduli (GPa) = 67.42609 115.81971 114.17019
#
# Poissons Ratio (x) = 0.25079 0.28656
# Poissons Ratio (y) = 0.14600 0.09086
# Poissons Ratio (z) = 0.16924 0.09218
#
# Static dielectric constant tensor:
#      x y z
#    x 84.302270 36.241340 17.736290 
#    y 36.241340 18.054040 7.812780 
#    z 17.736290 7.812780 5.996770 
# 
# From -- ./inp_files/241074.got.cif
#   From: 2010.05.17/outbox.cif.g08.bks.cpg/sg2_121_cif.got.tgz:241074.got - 2010.06.03 11:33:40.
