data_PCOD9038175
_publ_section_title
;
Structure prediction by ZEFSAII (Michael W. Deem and Ramdas Pophale) SiO2 
 PCOD9038175
Probable space group: P -1
;
_chemical_formula_sum "Si O2"
_cell_formula_units_Z 16
_cell_length_a 7.761738
_cell_length_b 11.665351
_cell_length_c 12.383141
_cell_angle_alpha 97.879440
_cell_angle_beta 37.643536
_cell_angle_gamma 87.246928
_cell_volume 655.198048
_symmetry_space_group_name_H-M "P -1"
_symmetry_group_IT_number 2
_symmetry_cell_setting 'triclinic'
loop_
_space_group_symop_operation_xyz
x,y,z
-x,-y,-z
loop_
_atom_site_type_symbol
_atom_site_label
_atom_site_fract_x
_atom_site_fract_y
_atom_site_fract_z
Si Si1 0.944965 0.522303 0.866727
Si Si2 0.697261 0.375322 0.131430
Si Si3 0.862183 0.601303 0.454790
Si Si4 0.366398 0.934497 0.148777
Si Si5 0.975285 0.872375 0.955345
Si Si6 0.636550 0.278394 0.782161
Si Si7 0.483957 0.155520 0.446414
Si Si8 0.711819 0.069385 0.544220
O O1 0.201069 0.538333 0.820323
O O2 0.056634 0.505922 0.686286
O O3 0.801839 0.418506 0.971251
O O4 0.687160 0.641317 0.027827
O O5 0.354811 0.394415 0.335272
O O6 0.879511 0.238572 0.051900
O O7 0.693990 0.713637 0.479629
O O8 0.163517 0.633863 0.333583
O O9 0.289572 0.806508 0.158347
O O10 0.059165 0.022082 0.345240
O O11 0.641012 0.896456 0.089900
O O12 0.500000 0.000000 0.000000
O O13 0.181588 0.848202 0.745705
O O14 0.000000 0.000000 0.000000
O O15 0.694982 0.182428 0.644097
O O16 0.489839 0.122393 0.563758
O O17 0.376995 0.057886 0.414468
#
# Coordination Sequence:
#
# PCOD9038175 Si02
#       8
#     2   2   2   2   2   2   2   2
#     4  11  25  48  73 101 143 187 241 289 349 422
#     4  10  25  45  73 108 134 190 239 288 353 415
#     4  11  25  46  72 101 142 181 239 295 349 419
#     4  12  24  43  63 103 141 181 226 283 357 417
#     4  11  23  41  70 103 140 178 232 290 346 425
#     4  12  26  46  68 102 140 188 231 295 358 414
#     4  10  23  41  67 101 133 186 227 284 355 415
#     4  11  24  43  67  97 143 180 229 285 353 422
#
# _framework density 24.420096999999998
#
# number of rings (size 3 to 8) (size 9 to 14) (size 15 to 20)
#    0.000    1.000    3.750    1.875    7.000    2.500 
#    2.250    0.000    0.000    0.000    0.000    0.000 
#    0.000    0.000    0.000    0.000    0.000    0.000 
#
# Total GULP energy -89261.983556 kJ/mol
# GULP energy per Si atom -5578.873972 kJ/mol
# Density = 2.436452 g / cm^3
# Si number density = 24.420097 Si / 1000 Ang^3
#
#
#
# Elastic Constant Matrix: (Units=GPa)
#
#
# Indices 1 2 3 4 5 6 
#
# 1 34.4098 11.9198 8.1532 7.5438 -6.3954 3.8230
# 2 11.9198 109.2198 12.5206 8.7265 11.1667 -13.0401
# 3 8.1532 12.5206 95.7276 9.4621 -17.1884 8.8169
# 4 7.5438 8.7265 9.4621 43.6878 2.2405 -1.0175
# 5 -6.3954 11.1667 -17.1884 2.2405 22.0452 -7.0638
# 6 3.8230 -13.0401 8.8169 -1.0175 -7.0638 35.3134
#
#
#
# Elastic Compliance Matrix: (Units=1/GPa)
#
#
# Indices 1 2 3 4 5 6 
#
# 1 0.034705 -0.005158 0.000940 -0.005909 0.012897 -0.003487
# 2 -0.005158 0.011362 -0.002850 -0.000251 -0.008227 0.003813
# 3 0.000940 -0.002850 0.013363 -0.003141 0.011739 -0.002233
# 4 -0.005909 -0.000251 -0.003141 0.024983 -0.006323 0.000786
# 5 0.012897 -0.008227 0.011739 -0.006323 0.064801 0.005415
# 6 -0.003487 0.003813 -0.002233 0.000786 0.005415 0.031767
#
#
# Mechanical properties :
#
#
# Convention : Reuss Voigt Hill
#
# Bulk Modulus (GPa) = 22.07856 33.83827 27.95842
# Shear Modulus (GPa) = 23.78506 33.99350 28.88928
#
# Velocity S-wave (km/s) = 3.12428 3.73504 3.44323
# Velocity P-wave (km/s) = 4.69846 5.69978 5.22317
#
# Compressibility (1/GPa) = 0.04529281
#
# Stress axis : x y z
#
# Youngs Moduli (GPa) = 28.81394 88.01339 74.83308
#
# Poissons Ratio (x) = 0.45399 -0.07032
# Poissons Ratio (y) = 0.14863 0.21330
# Poissons Ratio (z) = -0.02708 0.25086
#
# Static dielectric constant tensor:
#      x y z
#    x 2.134730 0.054830 0.106240 
#    y 0.054830 2.153480 -0.048430 
#    z 0.106240 -0.048430 2.075640 
# 
# From -- ./inp_files/500439.got.cif
#   From: 2010.05.17/outbox.cif.g08.bks.cpg/sg2_251_cif.got.tgz:500439.got - 2010.06.03 11:33:40.
