data_PCOD9038746
_publ_section_title
;
Structure prediction by ZEFSAII (Michael W. Deem and Ramdas Pophale) SiO2 
 PCOD9038746
Probable space group: P -1
;
_chemical_formula_sum "Si O2"
_cell_formula_units_Z 14
_cell_length_a 14.554095
_cell_length_b 9.961646
_cell_length_c 6.886309
_cell_angle_alpha 46.988412
_cell_angle_beta 57.575032
_cell_angle_gamma 53.143055
_cell_volume 570.198853
_symmetry_space_group_name_H-M "P -1"
_symmetry_group_IT_number 2
_symmetry_cell_setting 'triclinic'
loop_
_space_group_symop_operation_xyz
x,y,z
-x,-y,-z
loop_
_atom_site_type_symbol
_atom_site_label
_atom_site_fract_x
_atom_site_fract_y
_atom_site_fract_z
Si Si1 0.836968 0.581632 0.539920
Si Si2 0.290868 0.395322 0.981899
Si Si3 0.943859 0.175466 0.669917
Si Si4 0.217410 0.028969 0.006163
Si Si5 0.577712 0.894835 0.196836
Si Si6 0.851100 0.162369 0.384150
Si Si7 0.428704 0.358724 0.218431
O O1 0.808790 0.640590 0.739374
O O2 0.936963 0.367953 0.602369
O O3 0.712241 0.557508 0.650037
O O4 0.846717 0.753916 0.226218
O O5 0.407959 0.312406 0.064844
O O6 0.319840 0.286919 0.852167
O O7 0.246715 0.633324 0.776782
O O8 0.923866 0.222939 0.412626
O O9 0.832928 0.115605 0.902895
O O10 0.058538 0.974062 0.740755
O O11 0.197673 0.980938 0.299530
O O12 0.353966 0.989241 0.880061
O O13 0.517896 0.808214 0.513389
O O14 0.500000 0.000000 0.000000
O O15 0.500000 0.500000 0.000000
#
# Coordination Sequence:
#
# PCOD9038746 Si02
#       7
#     2   2   2   2   2   2   2
#     4   9  20  40  58  90 130 160 201 266 302 362
#     4  10  23  42  60  92 129 160 211 257 312 378
#     4   9  19  38  67  89 125 167 215 250 313 369
#     4   9  20  40  61  93 126 164 207 263 305 367
#     4  11  24  42  64  91 125 166 208 257 315 376
#     4   9  19  38  63  95 119 167 214 253 309 376
#     4   9  22  40  61  90 121 165 203 260 311 360
#
# _framework density 24.552837
#
# number of rings (size 3 to 8) (size 9 to 14) (size 15 to 20)
#    1.714    0.857    0.000    1.714    2.000    3.429 
#    7.714    0.714    0.000    0.000    0.000    0.000 
#    0.000    0.000    0.000    0.000    0.000    0.000 
#
# Total GULP energy -78018.210180 kJ/mol
# GULP energy per Si atom -5572.729299 kJ/mol
# Density = 2.449695 g / cm^3
# Si number density = 24.552837 Si / 1000 Ang^3
#
#
#
# Elastic Constant Matrix: (Units=GPa)
#
#
# Indices 1 2 3 4 5 6 
#
# 1 71.2794 15.3997 40.0182 5.8361 25.6388 3.7841
# 2 15.3997 114.7157 28.6260 -8.7376 15.1191 6.5594
# 3 40.0182 28.6260 166.0594 -6.4403 12.7132 -4.2118
# 4 5.8361 -8.7376 -6.4403 28.1145 -3.0755 9.2030
# 5 25.6388 15.1191 12.7132 -3.0755 40.2485 1.5481
# 6 3.7841 6.5594 -4.2118 9.2030 1.5481 29.2412
#
#
#
# Elastic Compliance Matrix: (Units=1/GPa)
#
#
# Indices 1 2 3 4 5 6 
#
# 1 0.021879 -0.000645 -0.004465 -0.007021 -0.012804 -0.000442
# 2 -0.000645 0.009938 -0.001307 0.003759 -0.002492 -0.003385
# 3 -0.004465 -0.001307 0.007344 0.001909 0.001112 0.001269
# 4 -0.007021 0.003759 0.001909 0.043840 0.006338 -0.013793
# 5 -0.012804 -0.002492 0.001112 0.006338 0.034126 -0.001425
# 6 -0.000442 -0.003385 0.001269 -0.013793 -0.001425 0.039614
#
#
# Mechanical properties :
#
#
# Convention : Reuss Voigt Hill
#
# Bulk Modulus (GPa) = 37.98188 57.79358 47.88773
# Shear Modulus (GPa) = 28.03460 37.38821 32.71140
#
# Velocity S-wave (km/s) = 3.38273 3.90650 3.65401
# Velocity P-wave (km/s) = 5.54619 6.62851 6.11136
#
# Compressibility (1/GPa) = 0.02632834
#
# Stress axis : x y z
#
# Youngs Moduli (GPa) = 45.70565 100.62135 136.16079
#
# Poissons Ratio (x) = 0.06489 0.60791
# Poissons Ratio (y) = 0.02948 0.17797
# Poissons Ratio (z) = 0.20406 0.13152
#
# Static dielectric constant tensor:
#      x y z
#    x 2.002530 -0.083030 0.009040 
#    y -0.083030 2.068650 -0.005010 
#    z 0.009040 -0.005010 1.930190 
# 
# From -- ./inp_files/332633.got.cif
#   From: 2010.05.17/outbox.cif.g08.bks.cpg/sg2_167_cif.got.tgz:332633.got - 2010.06.03 11:33:40.
