data_PCOD9038154
_publ_section_title
;
Structure prediction by ZEFSAII (Michael W. Deem and Ramdas Pophale) SiO2 
 PCOD9038154
Probable space group: P -1
;
_chemical_formula_sum "Si O2"
_cell_formula_units_Z 14
_cell_length_a 8.095783
_cell_length_b 11.814908
_cell_length_c 10.602984
_cell_angle_alpha 77.058484
_cell_angle_beta 98.151590
_cell_angle_gamma 143.849521
_cell_volume 581.733064
_symmetry_space_group_name_H-M "P -1"
_symmetry_group_IT_number 2
_symmetry_cell_setting 'triclinic'
loop_
_space_group_symop_operation_xyz
x,y,z
-x,-y,-z
loop_
_atom_site_type_symbol
_atom_site_label
_atom_site_fract_x
_atom_site_fract_y
_atom_site_fract_z
Si Si1 0.651912 0.416169 0.568008
Si Si2 0.736634 0.323841 0.191207
Si Si3 0.909365 0.167275 0.158334
Si Si4 0.313355 0.783153 0.514926
Si Si5 0.746406 0.948817 0.972979
Si Si6 0.606540 0.595494 0.686136
Si Si7 0.090687 0.346367 0.876872
O O1 0.611522 0.256139 0.585552
O O2 0.608394 0.459785 0.682308
O O3 0.455581 0.368743 0.456165
O O4 0.979869 0.622066 0.515044
O O5 0.642075 0.266199 0.340185
O O6 0.979643 0.556593 0.154361
O O7 0.801285 0.228336 0.184314
O O8 0.509773 0.242007 0.086543
O O9 0.091627 0.205227 0.272864
O O10 0.125216 0.324268 0.030144
O O11 0.693554 0.970091 0.102244
O O12 0.500000 0.000000 0.500000
O O13 0.852773 0.122662 0.863767
O O14 0.000000 0.000000 0.000000
O O15 0.359936 0.480041 0.786621
#
# Coordination Sequence:
#
# PCOD9038154 Si02
#       7
#     2   2   2   2   2   2   2
#     4  10  24  44  68  91 129 172 221 265 327 372
#     4  12  22  45  65  92 137 166 216 273 315 390
#     4  10  23  41  66  99 129 172 213 260 326 392
#     4  11  25  44  67  96 126 171 224 270 320 377
#     4  10  25  40  63  99 131 167 212 259 325 389
#     4  11  20  43  69  92 129 175 212 270 319 386
#     4  10  24  40  68  92 134 171 210 260 331 383
#
# _framework density 24.066019000000001
#
# number of rings (size 3 to 8) (size 9 to 14) (size 15 to 20)
#    0.857    0.571    2.857    2.143    4.000    0.000 
#    2.571    2.857    0.000    0.000    0.000    0.000 
#    0.000    0.000    0.000    0.000    0.000    0.000 
#
# Total GULP energy -78184.882280 kJ/mol
# GULP energy per Si atom -5584.634449 kJ/mol
# Density = 2.401124 g / cm^3
# Si number density = 24.066019 Si / 1000 Ang^3
#
#
#
# Elastic Constant Matrix: (Units=GPa)
#
#
# Indices 1 2 3 4 5 6 
#
# 1 90.0017 22.0072 10.9951 14.7424 -11.0937 -14.2491
# 2 22.0072 108.0479 11.6668 5.6690 14.6237 -20.9676
# 3 10.9951 11.6668 71.1976 26.4165 6.4857 6.7935
# 4 14.7424 5.6690 26.4165 25.7962 -1.1159 3.8150
# 5 -11.0937 14.6237 6.4857 -1.1159 33.1284 11.6072
# 6 -14.2491 -20.9676 6.7935 3.8150 11.6072 38.9850
#
#
#
# Elastic Compliance Matrix: (Units=1/GPa)
#
#
# Indices 1 2 3 4 5 6 
#
# 1 0.014051 -0.002417 0.000686 -0.008508 0.004195 0.003300
# 2 -0.002417 0.013153 -0.000890 -0.002432 -0.009858 0.009519
# 3 0.000686 -0.000890 0.023673 -0.024555 -0.004640 -0.000569
# 4 -0.008508 -0.002432 -0.024555 0.071129 0.008837 -0.009730
# 5 0.004195 -0.009858 -0.004640 0.008837 0.042971 -0.016619
# 6 0.003300 0.009519 -0.000569 -0.009730 -0.016619 0.037976
#
#
# Mechanical properties :
#
#
# Convention : Reuss Voigt Hill
#
# Bulk Modulus (GPa) = 21.91325 39.84280 30.87803
# Shear Modulus (GPa) = 22.38074 34.55378 28.46726
#
# Velocity S-wave (km/s) = 3.05285 3.79329 3.44304
# Velocity P-wave (km/s) = 4.64239 5.98139 5.35391
#
# Compressibility (1/GPa) = 0.04563449
#
# Stress axis : x y z
#
# Youngs Moduli (GPa) = 71.16788 76.03070 42.24224
#
# Poissons Ratio (x) = 0.18377 -0.02897
# Poissons Ratio (y) = 0.17202 0.03759
# Poissons Ratio (z) = -0.04881 0.06766
#
# Static dielectric constant tensor:
#      x y z
#    x 1.952650 -0.035260 0.001440 
#    y -0.035260 1.926730 0.006370 
#    z 0.001440 0.006370 1.908370 
# 
# From -- ./inp_files/387349.got.cif
#   From: 2010.05.17/outbox.cif.g08.bks.cpg/sg2_194_cif.got.tgz:387349.got - 2010.06.03 11:33:40.
