data_PCOD9038949
_publ_section_title
;
Structure prediction by ZEFSAII (Michael W. Deem and Ramdas Pophale) SiO2 
 PCOD9038949
Probable space group: P -1
;
_chemical_formula_sum "Si O2"
_cell_formula_units_Z 12
_cell_length_a 11.218152
_cell_length_b 9.646142
_cell_length_c 5.060799
_cell_angle_alpha 80.233344
_cell_angle_beta 97.646672
_cell_angle_gamma 59.377020
_cell_volume 448.611562
_symmetry_space_group_name_H-M "P -1"
_symmetry_group_IT_number 2
_symmetry_cell_setting 'triclinic'
loop_
_space_group_symop_operation_xyz
x,y,z
-x,-y,-z
loop_
_atom_site_type_symbol
_atom_site_label
_atom_site_fract_x
_atom_site_fract_y
_atom_site_fract_z
Si Si1 0.319856 0.741203 0.713552
Si Si2 0.379867 0.864435 0.182047
Si Si3 0.031825 0.337942 0.401409
Si Si4 0.251070 0.479811 0.987794
Si Si5 0.325767 0.258063 0.573234
Si Si6 0.084597 0.050564 0.822941
O O1 0.364409 0.749118 0.428806
O O2 0.311573 0.587956 0.860852
O O3 0.163727 0.909668 0.665374
O O4 0.414766 0.770420 0.940571
O O5 0.506523 0.884890 0.307015
O O6 0.221413 0.025587 0.033303
O O7 0.204122 0.226542 0.454599
O O8 0.994323 0.230713 0.609919
O O9 0.000000 0.500000 0.500000
O O10 0.923709 0.399780 0.104536
O O11 0.285082 0.340031 0.824559
O O12 0.307471 0.397027 0.314495
O O13 0.000000 0.000000 0.000000
#
# Coordination Sequence:
#
# PCOD9038949 Si02
#       6
#     2   2   2   2   2   2
#     4  10  23  42  66 102 130 175 225 273 334 388
#     4  10  23  42  65 102 133 177 219 273 337 391
#     4  10  24  45  69 101 132 180 223 275 332 398
#     4  11  23  41  70  96 139 176 226 272 331 388
#     4  11  24  43  65  99 139 178 219 273 327 406
#     4  10  24  45  70  99 134 173 226 280 330 397
#
# _framework density 26.749199999999998
#
# number of rings (size 3 to 8) (size 9 to 14) (size 15 to 20)
#    1.000    0.667    0.000    3.500    4.667    7.333 
#    6.000    0.833    0.000    0.000    0.000    0.000 
#    0.000    0.000    0.000    0.000    0.000    0.000 
#
# Total GULP energy -67199.050366 kJ/mol
# GULP energy per Si atom -5599.920864 kJ/mol
# Density = 2.668832 g / cm^3
# Si number density = 26.749200 Si / 1000 Ang^3
#
#
#
# Elastic Constant Matrix: (Units=GPa)
#
#
# Indices 1 2 3 4 5 6 
#
# 1 87.9715 15.1860 35.4422 -9.3174 29.1416 -15.1768
# 2 15.1860 57.9232 20.7367 -2.1432 0.2693 11.5704
# 3 35.4422 20.7367 125.0208 -12.2627 1.7325 -7.8640
# 4 -9.3174 -2.1432 -12.2627 31.1217 3.4327 0.3661
# 5 29.1416 0.2693 1.7325 3.4327 65.7395 -13.2435
# 6 -15.1768 11.5704 -7.8640 0.3661 -13.2435 36.5478
#
#
#
# Elastic Compliance Matrix: (Units=1/GPa)
#
#
# Indices 1 2 3 4 5 6 
#
# 1 0.016911 -0.004111 -0.003288 0.004147 -0.006563 0.005197
# 2 -0.004111 0.021191 -0.003002 -0.000852 0.000038 -0.009039
# 3 -0.003288 -0.003002 0.009790 0.002471 0.001530 0.002221
# 4 0.004147 -0.000852 0.002471 0.034667 -0.003529 0.000897
# 5 -0.006563 0.000038 0.001530 -0.003529 0.019187 0.004580
# 6 0.005197 -0.009039 0.002221 0.000897 0.004580 0.034510
#
#
# Mechanical properties :
#
#
# Convention : Reuss Voigt Hill
#
# Bulk Modulus (GPa) = 36.91374 45.96060 41.43717
# Shear Modulus (GPa) = 30.10463 39.98519 35.04491
#
# Velocity S-wave (km/s) = 3.35840 3.87048 3.62350
# Velocity P-wave (km/s) = 5.37293 6.09865 5.74725
#
# Compressibility (1/GPa) = 0.02709018
#
# Stress axis : x y z
#
# Youngs Moduli (GPa) = 59.13205 47.19049 102.14933
#
# Poissons Ratio (x) = 0.19399 0.33584
# Poissons Ratio (y) = 0.24308 0.30667
# Poissons Ratio (z) = 0.19441 0.14167
#
# Static dielectric constant tensor:
#      x y z
#    x 2.158700 -0.072520 0.064160 
#    y -0.072520 2.068180 -0.034850 
#    z 0.064160 -0.034850 2.021240 
# 
# From -- ./inp_files/69229.got.cif
#   From: 2010.05.17/outbox.cif.g08.bks.cpg/sg2_35_cif.got.tgz:69229.got - 2010.06.03 11:33:40.
