data_PCOD9038947
_publ_section_title
;
Structure prediction by ZEFSAII (Michael W. Deem and Ramdas Pophale) SiO2 
 PCOD9038947
Probable space group: P -1
;
_chemical_formula_sum "Si O2"
_cell_formula_units_Z 16
_cell_length_a 10.847790
_cell_length_b 9.964534
_cell_length_c 8.545316
_cell_angle_alpha 97.623717
_cell_angle_beta 54.383880
_cell_angle_gamma 103.800045
_cell_volume 729.203711
_symmetry_space_group_name_H-M "P -1"
_symmetry_group_IT_number 2
_symmetry_cell_setting 'triclinic'
loop_
_space_group_symop_operation_xyz
x,y,z
-x,-y,-z
loop_
_atom_site_type_symbol
_atom_site_label
_atom_site_fract_x
_atom_site_fract_y
_atom_site_fract_z
Si Si1 0.657156 0.949076 0.833579
Si Si2 0.983135 0.839011 0.946240
Si Si3 0.176592 0.558995 0.214825
Si Si4 0.522531 0.898561 0.606033
Si Si5 0.867939 0.348119 0.391792
Si Si6 0.211947 0.812766 0.022788
Si Si7 0.470082 0.624809 0.435947
Si Si8 0.331176 0.310936 0.001653
O O1 0.651750 0.946858 0.649963
O O2 0.789687 0.063666 0.833060
O O3 0.644969 0.800447 0.902382
O O4 0.500000 0.000000 0.000000
O O5 0.086235 0.793698 0.721699
O O6 0.054529 0.778224 0.035857
O O7 0.810313 0.769668 0.013678
O O8 0.000000 0.000000 0.000000
O O9 0.152572 0.635963 0.405153
O O10 0.244259 0.677127 0.061523
O O11 0.011840 0.471675 0.264603
O O12 0.279432 0.442963 0.137496
O O13 0.554846 0.762043 0.481767
O O14 0.500000 0.000000 0.500000
O O15 0.356255 0.866819 0.810856
O O16 0.710731 0.369999 0.433431
O O17 0.500000 0.500000 0.500000
O O18 0.531294 0.635310 0.213793
#
# Coordination Sequence:
#
# PCOD9038947 Si02
#       8
#     2   2   2   2   2   2   2   2
#     4  10  23  42  65 101 139 184 231 289 358 416
#     4  11  23  45  72 102 141 184 241 286 355 420
#     4  10  25  46  73 101 140 192 236 294 349 421
#     4  11  25  43  67 100 145 182 228 292 359 420
#     4  10  25  46  70  96 151 181 237 289 357 407
#     4  11  22  43  73  99 135 194 232 285 360 419
#     4  12  26  41  67 107 140 186 237 290 354 415
#     4  11  25  44  71 103 144 190 239 294 348 433
#
# _framework density 21.941741
#
# number of rings (size 3 to 8) (size 9 to 14) (size 15 to 20)
#    0.000    1.250    2.500    2.250    8.750    1.500 
#    0.000    0.625    0.000    0.000    0.000    0.000 
#    0.000    0.000    0.000    0.000    0.000    0.000 
#
# Total GULP energy -89421.298564 kJ/mol
# GULP energy per Si atom -5588.831160 kJ/mol
# Density = 2.189180 g / cm^3
# Si number density = 21.941741 Si / 1000 Ang^3
#
#
#
# Elastic Constant Matrix: (Units=GPa)
#
#
# Indices 1 2 3 4 5 6 
#
# 1 102.4641 42.1597 41.9386 0.7916 13.7563 -3.1326
# 2 42.1597 157.7357 70.7462 9.2062 21.5005 -31.9854
# 3 41.9386 70.7462 97.4270 9.2278 10.8697 -0.7868
# 4 0.7916 9.2062 9.2278 44.0827 -2.2864 10.8098
# 5 13.7563 21.5005 10.8697 -2.2864 36.2705 5.9204
# 6 -3.1326 -31.9854 -0.7868 10.8098 5.9204 38.4128
#
#
#
# Elastic Compliance Matrix: (Units=1/GPa)
#
#
# Indices 1 2 3 4 5 6 
#
# 1 0.012314 -0.000866 -0.004406 0.000620 -0.002873 0.000461
# 2 -0.000866 0.015318 -0.009112 -0.005518 -0.008886 0.015420
# 3 -0.004406 -0.009112 0.018361 0.000275 0.002909 -0.008096
# 4 0.000620 -0.005518 0.000275 0.027386 0.006851 -0.013301
# 5 -0.002873 -0.008886 0.002909 0.006851 0.035943 -0.015042
# 6 0.000461 0.015420 -0.008096 -0.013301 -0.015042 0.044806
#
#
# Mechanical properties :
#
#
# Convention : Reuss Voigt Hill
#
# Bulk Modulus (GPa) = 58.05431 74.14621 66.10026
# Shear Modulus (GPa) = 26.50562 37.27202 31.88882
#
# Velocity S-wave (km/s) = 3.47940 4.12598 3.81641
# Velocity P-wave (km/s) = 6.53127 7.52090 7.04349
#
# Compressibility (1/GPa) = 0.01722525
#
# Stress axis : x y z
#
# Youngs Moduli (GPa) = 81.20545 65.28202 54.46204
#
# Poissons Ratio (x) = 0.05655 0.23998
# Poissons Ratio (y) = 0.07035 0.49624
# Poissons Ratio (z) = 0.35782 0.59483
#
# Static dielectric constant tensor:
#      x y z
#    x 1.834660 0.050370 0.021340 
#    y 0.050370 1.794270 0.005630 
#    z 0.021340 0.005630 1.896710 
# 
# From -- ./inp_files/244400.got.cif
#   From: 2010.05.17/outbox.cif.g08.bks.cpg/sg2_123_cif.got.tgz:244400.got - 2010.06.03 11:33:40.
