data_PCOD9038647
_publ_section_title
;
Structure prediction by ZEFSAII (Michael W. Deem and Ramdas Pophale) SiO2 
 PCOD9038647
Probable space group: P -1
;
_chemical_formula_sum "Si O2"
_cell_formula_units_Z 16
_cell_length_a 10.859771
_cell_length_b 8.906659
_cell_length_c 10.079510
_cell_angle_alpha 79.635314
_cell_angle_beta 117.890147
_cell_angle_gamma 56.802362
_cell_volume 582.410118
_symmetry_space_group_name_H-M "P -1"
_symmetry_group_IT_number 2
_symmetry_cell_setting 'triclinic'
loop_
_space_group_symop_operation_xyz
x,y,z
-x,-y,-z
loop_
_atom_site_type_symbol
_atom_site_label
_atom_site_fract_x
_atom_site_fract_y
_atom_site_fract_z
Si Si1 0.792105 0.353976 0.777105
Si Si2 0.201887 0.124994 0.132863
Si Si3 0.275526 0.014739 0.832947
Si Si4 0.851813 0.195945 0.551561
Si Si5 0.057334 0.223639 0.345208
Si Si6 0.699833 0.703788 0.025013
Si Si7 0.533657 0.423808 0.874949
Si Si8 0.378275 0.203076 0.510564
O O1 0.678223 0.402961 0.848429
O O2 0.715630 0.577009 0.645754
O O3 0.030482 0.174290 0.956660
O O4 0.770878 0.259466 0.653783
O O5 0.439096 0.890343 0.287172
O O6 0.126227 0.175307 0.235245
O O7 0.201837 0.299516 0.053734
O O8 0.465102 0.858732 0.851711
O O9 0.051311 0.143773 0.658307
O O10 0.280035 0.176355 0.876606
O O11 0.356598 0.824318 0.007642
O O12 0.908702 0.979378 0.571281
O O13 0.677514 0.399755 0.338092
O O14 0.200031 0.241539 0.478248
O O15 0.828064 0.463902 0.185701
O O16 0.500000 0.500000 0.000000
O O17 0.500000 0.000000 0.500000
#
# Coordination Sequence:
#
# PCOD9038647 Si02
#       8
#     2   2   2   2   2   2   2   2
#     4  12  26  50  84 120 158 213 270 330 401 479
#     4  11  23  43  80 113 156 202 271 332 394 465
#     4  11  28  52  77 113 161 215 270 327 408 479
#     4  12  28  53  84 121 160 214 271 329 403 489
#     4  11  24  45  79 119 159 208 270 341 398 471
#     4  11  25  50  77 114 159 215 266 335 400 475
#     4  12  31  52  81 120 169 213 261 333 410 484
#     4  10  23  41  72 120 153 205 265 337 389 463
#
# _framework density 27.472049999999999
#
# number of rings (size 3 to 8) (size 9 to 14) (size 15 to 20)
#    0.000    0.750    2.500    3.000    8.750    2.500 
#    2.250    2.500    0.000    0.000    0.000    0.000 
#    0.000    0.000    0.000    0.000    0.000    0.000 
#
# Total GULP energy -89736.565272 kJ/mol
# GULP energy per Si atom -5608.535330 kJ/mol
# Density = 2.740952 g / cm^3
# Si number density = 27.472050 Si / 1000 Ang^3
#
#
#
# Elastic Constant Matrix: (Units=GPa)
#
#
# Indices 1 2 3 4 5 6 
#
# 1 180.4058 40.1863 68.4305 0.3928 10.9202 3.6880
# 2 40.1863 122.1250 50.4430 -5.7714 -1.4507 -10.1886
# 3 68.4305 50.4430 214.0870 8.6482 29.8229 -12.2127
# 4 0.3928 -5.7714 8.6482 48.4101 -3.4398 -5.3327
# 5 10.9202 -1.4507 29.8229 -3.4398 51.6190 -3.9913
# 6 3.6880 -10.1886 -12.2127 -5.3327 -3.9913 35.1195
#
#
#
# Elastic Compliance Matrix: (Units=1/GPa)
#
#
# Indices 1 2 3 4 5 6 
#
# 1 0.006648 -0.001635 -0.001757 -0.000184 -0.000595 -0.001879
# 2 -0.001635 0.009930 -0.002035 0.002034 0.002160 0.002899
# 3 -0.001757 -0.002035 0.006303 -0.001461 -0.003333 0.001185
# 4 -0.000184 0.002034 -0.001461 0.021761 0.002677 0.003710
# 5 -0.000595 0.002160 -0.003333 0.002677 0.021850 0.002420
# 6 -0.001879 0.002899 0.001185 0.003710 0.002420 0.030763
#
#
# Mechanical properties :
#
#
# Convention : Reuss Voigt Hill
#
# Bulk Modulus (GPa) = 83.13327 92.74862 87.94094
# Shear Modulus (GPa) = 44.59581 50.86692 47.73137
#
# Velocity S-wave (km/s) = 4.03341 4.30768 4.17280
# Velocity P-wave (km/s) = 7.21235 7.65348 7.43619
#
# Compressibility (1/GPa) = 0.01202888
#
# Stress axis : x y z
#
# Youngs Moduli (GPa) = 150.41268 100.70092 158.65722
#
# Poissons Ratio (x) = 0.16461 0.27873
# Poissons Ratio (y) = 0.24586 0.32287
# Poissons Ratio (z) = 0.26424 0.20493
#
# Static dielectric constant tensor:
#      x y z
#    x 2.185270 -0.006520 -0.014390 
#    y -0.006520 2.180040 0.087990 
#    z -0.014390 0.087990 2.142670 
# 
# From -- ./inp_files/192364.got.cif
#   From: 2010.05.17/outbox.cif.g08.bks.cpg/sg2_97_cif.got.tgz:192364.got - 2010.06.03 11:33:40.
