data_PCOD9038961
_publ_section_title
;
Structure prediction by ZEFSAII (Michael W. Deem and Ramdas Pophale) SiO2 
 PCOD9038961
Probable space group: P -1
;
_chemical_formula_sum "Si O2"
_cell_formula_units_Z 12
_cell_length_a 7.798700
_cell_length_b 9.330130
_cell_length_c 7.379134
_cell_angle_alpha 99.502737
_cell_angle_beta 104.640705
_cell_angle_gamma 115.496676
_cell_volume 445.241079
_symmetry_space_group_name_H-M "P -1"
_symmetry_group_IT_number 2
_symmetry_cell_setting 'triclinic'
loop_
_space_group_symop_operation_xyz
x,y,z
-x,-y,-z
loop_
_atom_site_type_symbol
_atom_site_label
_atom_site_fract_x
_atom_site_fract_y
_atom_site_fract_z
Si Si1 0.576930 0.284963 0.159292
Si Si2 0.011936 0.786263 0.137745
Si Si3 0.640193 0.506169 0.791497
Si Si4 0.169391 0.990107 0.836972
Si Si5 0.987372 0.357161 0.336583
Si Si6 0.389932 0.801984 0.433779
O O1 0.515434 0.428205 0.193014
O O2 0.799243 0.334278 0.153906
O O3 0.579771 0.234424 0.358553
O O4 0.401807 0.126680 0.972033
O O5 0.170838 0.753851 0.281013
O O6 0.089271 0.889543 0.987841
O O7 0.937970 0.906093 0.233244
O O8 0.816966 0.607976 0.005810
O O9 0.541656 0.308924 0.693475
O O10 0.787141 0.580615 0.668092
O O11 0.103376 0.832179 0.656316
O O12 0.000000 0.500000 0.500000
O O13 0.500000 0.000000 0.500000
#
# Coordination Sequence:
#
# PCOD9038961 Si02
#       6
#     2   2   2   2   2   2
#     4  11  22  41  65  90 119 163 201 247 299 356
#     4   9  19  37  63  88 118 162 201 241 304 355
#     4  10  23  42  65  84 123 166 200 244 297 362
#     4   9  19  38  61  87 120 160 200 246 295 361
#     4  11  22  36  65  91 119 157 211 241 292 365
#     4  12  22  34  62  97 123 151 202 254 303 352
#
# _framework density 26.951694
#
# number of rings (size 3 to 8) (size 9 to 14) (size 15 to 20)
#    0.000    1.667    3.333    2.500    0.000    0.000 
#    0.000    0.833    3.667    6.000    0.000    0.000 
#    0.000    0.000    0.000    0.000    0.000    0.000 
#
# Total GULP energy -67054.380397 kJ/mol
# GULP energy per Si atom -5587.865033 kJ/mol
# Density = 2.689035 g / cm^3
# Si number density = 26.951694 Si / 1000 Ang^3
#
#
#
# Elastic Constant Matrix: (Units=GPa)
#
#
# Indices 1 2 3 4 5 6 
#
# 1 74.9867 22.6308 10.5091 9.0399 -1.0544 -11.8492
# 2 22.6308 160.4140 65.7530 32.2961 -18.1836 -26.0833
# 3 10.5091 65.7530 90.9954 13.5397 -5.5725 -3.3587
# 4 9.0399 32.2961 13.5397 74.1659 -9.9504 -15.4723
# 5 -1.0544 -18.1836 -5.5725 -9.9504 29.2777 1.0428
# 6 -11.8492 -26.0833 -3.3587 -15.4723 1.0428 54.9746
#
#
#
# Elastic Compliance Matrix: (Units=1/GPa)
#
#
# Indices 1 2 3 4 5 6 
#
# 1 0.014246 -0.001396 -0.000501 -0.000680 -0.000759 0.002201
# 2 -0.001396 0.010777 -0.006931 -0.001857 0.004558 0.003780
# 3 -0.000501 -0.006931 0.015959 -0.000552 -0.001382 -0.002551
# 4 -0.000680 -0.001857 -0.000552 0.015687 0.003932 0.003279
# 5 -0.000759 0.004558 -0.001382 0.003932 0.037950 0.002301
# 6 0.002201 0.003780 -0.002551 0.003279 0.002301 0.021181
#
#
# Mechanical properties :
#
#
# Convention : Reuss Voigt Hill
#
# Bulk Modulus (GPa) = 42.86910 58.24245 50.55578
# Shear Modulus (GPa) = 35.40254 46.85052 41.12653
#
# Velocity S-wave (km/s) = 3.62823 4.17383 3.91056
# Velocity P-wave (km/s) = 5.78727 6.69960 6.26008
#
# Compressibility (1/GPa) = 0.02332682
#
# Stress axis : x y z
#
# Youngs Moduli (GPa) = 70.19416 92.78931 62.65962
#
# Poissons Ratio (x) = 0.12952 0.03138
# Poissons Ratio (y) = 0.09798 0.43431
# Poissons Ratio (z) = 0.03515 0.64315
#
# Static dielectric constant tensor:
#      x y z
#    x 2.244320 0.032740 -0.086490 
#    y 0.032740 2.139620 0.016410 
#    z -0.086490 0.016410 2.132340 
# 
# From -- ./inp_files/150764.got.cif
#   From: 2010.05.17/outbox.cif.g08.bks.cpg/sg2_76_cif.got.tgz:150764.got - 2010.06.03 11:33:40.
