data_PCOD9038524
_publ_section_title
;
Structure prediction by ZEFSAII (Michael W. Deem and Ramdas Pophale) SiO2 
 PCOD9038524
Probable space group: P -1
;
_chemical_formula_sum "Si O2"
_cell_formula_units_Z 16
_cell_length_a 9.906003
_cell_length_b 15.802731
_cell_length_c 16.587808
_cell_angle_alpha 31.363771
_cell_angle_beta 150.867755
_cell_angle_gamma 144.312760
_cell_volume 634.986368
_symmetry_space_group_name_H-M "P -1"
_symmetry_group_IT_number 2
_symmetry_cell_setting 'triclinic'
loop_
_space_group_symop_operation_xyz
x,y,z
-x,-y,-z
loop_
_atom_site_type_symbol
_atom_site_label
_atom_site_fract_x
_atom_site_fract_y
_atom_site_fract_z
Si Si1 0.837886 0.915381 0.562640
Si Si2 0.517046 0.280100 0.007930
Si Si3 0.892253 0.490561 0.794899
Si Si4 0.385910 0.091257 0.244978
Si Si5 0.390254 0.607286 0.607842
Si Si6 0.264622 0.517691 0.449144
Si Si7 0.141189 0.799988 0.458319
Si Si8 0.680087 0.122102 0.061842
O O1 0.713594 0.715334 0.668362
O O2 0.059387 0.960743 0.714075
O O3 0.556865 0.978986 0.376147
O O4 0.000000 0.000000 0.500000
O O5 0.329760 0.205945 0.049793
O O6 0.547867 0.150360 0.058223
O O7 0.830537 0.378400 0.129632
O O8 0.401476 0.421953 0.788307
O O9 0.609272 0.562399 0.582177
O O10 0.919637 0.446885 0.750374
O O11 0.806385 0.312948 0.940424
O O12 0.626125 0.174352 0.369246
O O13 0.142647 0.969048 0.271880
O O14 0.221134 0.605213 0.438342
O O15 0.264205 0.690499 0.546809
O O16 0.157045 0.316683 0.571708
O O17 0.500000 0.000000 0.000000
#
# Coordination Sequence:
#
# PCOD9038524 Si02
#       8
#     2   2   2   2   2   2   2   2
#     4  11  23  39  66  97 135 176 218 270 344 402
#     4  12  22  46  68 102 133 175 223 276 337 395
#     4  11  24  41  70  98 134 173 219 280 338 393
#     4  10  23  41  70  93 132 180 221 270 331 400
#     4  11  24  41  70  96 134 179 225 276 325 396
#     4  11  23  40  68  96 129 171 223 275 329 390
#     4  10  23  44  62  98 131 181 227 266 323 401
#     4  12  26  38  61 103 141 167 214 278 342 395
#
# _framework density 25.197389999999999
#
# number of rings (size 3 to 8) (size 9 to 14) (size 15 to 20)
#    0.000    1.000    5.000    1.500    3.500    0.500 
#    0.000    0.625    0.000    0.000    0.000    0.000 
#    0.000    0.000    0.000    0.000    0.000    0.000 
#
# Total GULP energy -89438.069881 kJ/mol
# GULP energy per Si atom -5589.879368 kJ/mol
# Density = 2.514004 g / cm^3
# Si number density = 25.197390 Si / 1000 Ang^3
#
#
#
# Elastic Constant Matrix: (Units=GPa)
#
#
# Indices 1 2 3 4 5 6 
#
# 1 105.1868 34.6552 35.0014 -4.9466 -45.2186 -1.7431
# 2 34.6552 89.6976 16.0569 21.1074 -25.0969 -7.8090
# 3 35.0014 16.0569 82.4915 13.3313 -31.1512 -6.1049
# 4 -4.9466 21.1074 13.3313 33.3086 -5.3041 -5.6960
# 5 -45.2186 -25.0969 -31.1512 -5.3041 47.6939 5.1126
# 6 -1.7431 -7.8090 -6.1049 -5.6960 5.1126 45.3593
#
#
#
# Elastic Compliance Matrix: (Units=1/GPa)
#
#
# Indices 1 2 3 4 5 6 
#
# 1 0.018732 -0.004967 -0.003195 0.009299 0.014200 -0.000998
# 2 -0.004967 0.016577 0.002375 -0.011341 0.004187 0.001087
# 3 -0.003195 0.002375 0.017608 -0.007501 0.008810 0.000721
# 4 0.009299 -0.011341 -0.007501 0.042393 0.002402 0.002448
# 5 0.014200 0.004187 0.008810 0.002402 0.042877 -0.002079
# 6 -0.000998 0.001087 0.000721 0.002448 -0.002079 0.022834
#
#
# Mechanical properties :
#
#
# Convention : Reuss Voigt Hill
#
# Bulk Modulus (GPa) = 24.18798 49.86698 37.02748
# Shear Modulus (GPa) = 26.82731 38.04986 32.43859
#
# Velocity S-wave (km/s) = 3.26649 3.89018 3.59190
# Velocity P-wave (km/s) = 4.88333 6.32546 5.65059
#
# Compressibility (1/GPa) = 0.04134284
#
# Stress axis : x y z
#
# Youngs Moduli (GPa) = 53.38506 60.32324 56.79130
#
# Poissons Ratio (x) = 0.29964 0.18147
# Poissons Ratio (y) = 0.26517 -0.13490
# Poissons Ratio (z) = 0.17059 -0.14328
#
# Static dielectric constant tensor:
#      x y z
#    x 2.056400 0.018930 0.003650 
#    y 0.018930 2.062390 -0.038500 
#    z 0.003650 -0.038500 1.990740 
# 
# From -- ./inp_files/570247.got.cif
#   From: 2010.05.17/outbox.cif.g08.bks.cpg/sg2_286_cif.got.tgz:570247.got - 2010.06.03 11:33:40.
