data_PCOD9038094
_publ_section_title
;
Structure prediction by ZEFSAII (Michael W. Deem and Ramdas Pophale) SiO2 
 PCOD9038094
Probable space group: P -1
;
_chemical_formula_sum "Si O2"
_cell_formula_units_Z 16
_cell_length_a 7.272654
_cell_length_b 9.728340
_cell_length_c 14.720485
_cell_angle_alpha 140.049869
_cell_angle_beta 104.182923
_cell_angle_gamma 70.561827
_cell_volume 630.553890
_symmetry_space_group_name_H-M "P -1"
_symmetry_group_IT_number 2
_symmetry_cell_setting 'triclinic'
loop_
_space_group_symop_operation_xyz
x,y,z
-x,-y,-z
loop_
_atom_site_type_symbol
_atom_site_label
_atom_site_fract_x
_atom_site_fract_y
_atom_site_fract_z
Si Si1 0.414967 0.716568 0.157749
Si Si2 0.168872 0.411854 0.215753
Si Si3 0.824570 0.006604 0.193465
Si Si4 0.999626 0.288483 0.795152
Si Si5 0.641975 0.761858 0.381599
Si Si6 0.941205 0.183617 0.478472
Si Si7 0.196395 0.985930 0.114629
Si Si8 0.413832 0.713267 0.836414
O O1 0.216780 0.703110 0.183678
O O2 0.587148 0.735059 0.255934
O O3 0.344733 0.921879 0.184658
O O4 0.500000 0.500000 0.000000
O O5 0.008174 0.510196 0.170607
O O6 0.144461 0.232927 0.194977
O O7 0.360190 0.304453 0.127923
O O8 0.197085 0.625406 0.383846
O O9 0.882891 0.173010 0.359864
O O10 0.637972 0.139071 0.185282
O O11 0.993519 0.952494 0.111644
O O12 0.847344 0.780960 0.139461
O O13 0.050368 0.070849 0.627694
O O14 0.846715 0.775210 0.457056
O O15 0.608207 0.534447 0.303885
O O16 0.500000 0.000000 0.500000
O O17 0.285347 0.827200 0.962403
#
# Coordination Sequence:
#
# PCOD9038094 Si02
#       8
#     2   2   2   2   2   2   2   2
#     4  11  20  41  68  97 127 171 220 270 319 387
#     4  12  23  41  65  94 135 177 206 273 335 389
#     4   9  23  44  67  93 129 171 222 266 323 385
#     4   9  20  44  64  90 133 171 208 268 328 379
#     4  12  21  39  69  98 125 173 224 266 321 391
#     4  10  23  41  66  93 135 171 215 268 324 393
#     4  11  23  42  67  94 132 168 220 279 324 379
#     4  12  24  41  68  96 131 170 220 273 331 383
#
# _framework density 25.374514999999999
#
# number of rings (size 3 to 8) (size 9 to 14) (size 15 to 20)
#    0.750    0.500    3.750    1.875    0.000    3.500 
#    2.250    0.625    0.000    0.000    0.000    0.000 
#    0.000    0.000    0.000    0.000    0.000    0.000 
#
# Total GULP energy -89468.791958 kJ/mol
# GULP energy per Si atom -5591.799497 kJ/mol
# Density = 2.531676 g / cm^3
# Si number density = 25.374515 Si / 1000 Ang^3
#
#
#
# Elastic Constant Matrix: (Units=GPa)
#
#
# Indices 1 2 3 4 5 6 
#
# 1 49.7869 34.6291 18.1434 7.4522 -1.8177 -16.5540
# 2 34.6291 240.6405 39.6300 18.4221 7.7401 -17.7780
# 3 18.1434 39.6300 163.4319 7.6842 -8.0458 2.1591
# 4 7.4522 18.4221 7.6842 43.4612 0.1916 7.3032
# 5 -1.8177 7.7401 -8.0458 0.1916 41.2709 -1.1276
# 6 -16.5540 -17.7780 2.1591 7.3032 -1.1276 47.3199
#
#
#
# Elastic Compliance Matrix: (Units=1/GPa)
#
#
# Indices 1 2 3 4 5 6 
#
# 1 0.026374 -0.002455 -0.002163 -0.004644 0.001472 0.009155
# 2 -0.002455 0.004922 -0.000915 -0.001712 -0.001167 0.001268
# 3 -0.002163 -0.000915 0.006674 -0.000202 0.001342 -0.001342
# 4 -0.004644 -0.001712 -0.000202 0.025612 -0.000212 -0.006216
# 5 0.001472 -0.001167 0.001342 -0.000212 0.024794 0.000639
# 6 0.009155 0.001268 -0.001342 -0.006216 0.000639 0.025848
#
#
# Mechanical properties :
#
#
# Convention : Reuss Voigt Hill
#
# Bulk Modulus (GPa) = 37.16732 70.96272 54.06502
# Shear Modulus (GPa) = 37.24234 50.50754 43.87494
#
# Velocity S-wave (km/s) = 3.83522 4.46632 4.16275
# Velocity P-wave (km/s) = 5.85587 7.39082 6.66766
#
# Compressibility (1/GPa) = 0.02690536
#
# Stress axis : x y z
#
# Youngs Moduli (GPa) = 37.91632 203.18148 149.83688
#
# Poissons Ratio (x) = 0.49873 0.32407
# Poissons Ratio (y) = 0.09307 0.13705
# Poissons Ratio (z) = 0.08201 0.18585
#
# Static dielectric constant tensor:
#      x y z
#    x 2.027460 0.029240 0.010140 
#    y 0.029240 2.026090 0.008630 
#    z 0.010140 0.008630 2.053390 
# 
# From -- ./inp_files/382591.got.cif
#   From: 2010.05.17/outbox.cif.g08.bks.cpg/sg2_192_cif.got.tgz:382591.got - 2010.06.03 11:33:40.
