data_PCOD9038562
_publ_section_title
;
Structure prediction by ZEFSAII (Michael W. Deem and Ramdas Pophale) SiO2 
 PCOD9038562
Probable space group: P -1
;
_chemical_formula_sum "Si O2"
_cell_formula_units_Z 16
_cell_length_a 13.188818
_cell_length_b 14.593085
_cell_length_c 4.965279
_cell_angle_alpha 92.649851
_cell_angle_beta 107.016550
_cell_angle_gamma 132.935221
_cell_volume 626.508028
_symmetry_space_group_name_H-M "P -1"
_symmetry_group_IT_number 2
_symmetry_cell_setting 'triclinic'
loop_
_space_group_symop_operation_xyz
x,y,z
-x,-y,-z
loop_
_atom_site_type_symbol
_atom_site_label
_atom_site_fract_x
_atom_site_fract_y
_atom_site_fract_z
Si Si1 0.145175 0.790473 0.331878
Si Si2 0.802303 0.789996 0.575833
Si Si3 0.612002 0.623588 0.890926
Si Si4 0.637974 0.229126 0.639775
Si Si5 0.634661 0.854462 0.336928
Si Si6 0.383921 0.620225 0.757341
Si Si7 0.895294 0.498618 0.227435
Si Si8 0.868352 0.089484 0.159496
O O1 0.299305 0.827833 0.419644
O O2 0.118343 0.816495 0.608180
O O3 0.007756 0.630551 0.151153
O O4 0.147979 0.875408 0.138490
O O5 0.714754 0.670128 0.709720
O O6 0.750967 0.863748 0.599248
O O7 0.981817 0.880368 0.726430
O O8 0.743256 0.737565 0.218770
O O9 0.483250 0.611748 0.665659
O O10 0.500000 0.500000 0.000000
O O11 0.466950 0.127083 0.617525
O O12 0.627193 0.290910 0.389617
O O13 0.770235 0.357328 0.953931
O O14 0.724787 0.945096 0.156351
O O15 0.494387 0.700512 0.111763
O O16 0.210212 0.493565 0.693425
O O17 0.000000 0.500000 0.500000
#
# Coordination Sequence:
#
# PCOD9038562 Si02
#       8
#     2   2   2   2   2   2   2   2
#     4  12  28  44  67 109 141 181 231 284 366 406
#     4  11  24  47  70 101 137 184 238 279 347 421
#     4  11  24  42  69 107 140 178 223 292 356 408
#     4  11  23  45  74  98 139 186 237 286 340 427
#     4  10  25  48  71  99 132 189 248 280 344 408
#     4  10  23  41  71 100 134 184 234 284 340 426
#     4  11  23  42  69 100 140 182 228 282 345 426
#     4  12  29  46  70 102 146 186 228 301 342 410
#
# _framework density 25.538378999999999
#
# number of rings (size 3 to 8) (size 9 to 14) (size 15 to 20)
#    0.000    1.000    2.500    2.625    8.750    1.000 
#    0.000    3.125    0.000    0.000    0.000    0.000 
#    0.000    0.000    0.000    0.000    0.000    0.000 
#
# Total GULP energy -89401.905169 kJ/mol
# GULP energy per Si atom -5587.619073 kJ/mol
# Density = 2.548025 g / cm^3
# Si number density = 25.538379 Si / 1000 Ang^3
#
#
#
# Elastic Constant Matrix: (Units=GPa)
#
#
# Indices 1 2 3 4 5 6 
#
# 1 142.8901 48.7795 30.6666 9.6716 34.7489 45.5477
# 2 48.7795 109.6582 17.1151 -4.5818 12.0076 13.2638
# 3 30.6666 17.1151 97.5780 -0.9926 15.6928 -0.8181
# 4 9.6716 -4.5818 -0.9926 34.9890 1.1980 0.8677
# 5 34.7489 12.0076 15.6928 1.1980 49.2453 -1.7103
# 6 45.5477 13.2638 -0.8181 0.8677 -1.7103 45.6002
#
#
#
# Elastic Compliance Matrix: (Units=1/GPa)
#
#
# Indices 1 2 3 4 5 6 
#
# 1 0.017195 -0.004222 -0.003150 -0.004629 -0.010554 -0.016311
# 2 -0.004222 0.011038 -0.000650 0.002554 0.000466 0.000964
# 3 -0.003150 -0.000650 0.011588 0.001070 -0.001217 0.003477
# 4 -0.004629 0.002554 0.001070 0.030083 0.001689 0.003391
# 5 -0.010554 0.000466 -0.001217 0.001689 0.028383 0.011417
# 6 -0.016311 0.000964 0.003477 0.003391 0.011417 0.038368
#
#
# Mechanical properties :
#
#
# Convention : Reuss Voigt Hill
#
# Bulk Modulus (GPa) = 42.05818 60.36097 51.20957
# Shear Modulus (GPa) = 31.12840 42.87125 36.99983
#
# Velocity S-wave (km/s) = 3.49504 4.10164 3.81043
# Velocity P-wave (km/s) = 5.72638 6.79102 6.28130
#
# Compressibility (1/GPa) = 0.02377659
#
# Stress axis : x y z
#
# Youngs Moduli (GPa) = 58.15595 90.59691 86.29678
#
# Poissons Ratio (x) = 0.38251 0.27184
# Poissons Ratio (y) = 0.24554 0.05610
# Poissons Ratio (z) = 0.18319 0.05889
#
# Static dielectric constant tensor:
#      x y z
#    x 2.132430 -0.064120 -0.092190 
#    y -0.064120 2.020160 0.039090 
#    z -0.092190 0.039090 2.005320 
# 
# From -- ./inp_files/77935.got.cif
#   From: 2010.05.17/outbox.cif.g08.bks.cpg/sg2_39_cif.got.tgz:77935.got - 2010.06.03 11:33:40.
