data_PCOD9038689
_publ_section_title
;
Structure prediction by ZEFSAII (Michael W. Deem and Ramdas Pophale) SiO2 
 PCOD9038689
Probable space group: P -1
;
_chemical_formula_sum "Si O2"
_cell_formula_units_Z 15
_cell_length_a 12.610433
_cell_length_b 8.753682
_cell_length_c 12.595190
_cell_angle_alpha 131.474051
_cell_angle_beta 42.923636
_cell_angle_gamma 124.326455
_cell_volume 700.900570
_symmetry_space_group_name_H-M "P -1"
_symmetry_group_IT_number 2
_symmetry_cell_setting 'triclinic'
loop_
_space_group_symop_operation_xyz
x,y,z
-x,-y,-z
loop_
_atom_site_type_symbol
_atom_site_label
_atom_site_fract_x
_atom_site_fract_y
_atom_site_fract_z
Si Si1 0.328744 0.051727 0.124625
Si Si2 0.423446 0.101147 0.503399
Si Si3 0.050324 0.687986 0.205004
Si Si4 0.795685 0.575669 0.167890
Si Si5 0.888086 0.182304 0.385377
Si Si6 0.000000 0.000000 0.000000
Si Si7 0.289644 0.858698 0.846232
Si Si8 0.863724 0.634179 0.535606
O O1 0.190697 0.879245 0.193874
O O2 0.295682 0.268066 0.294839
O O3 0.312123 0.032567 0.001056
O O4 0.500000 0.000000 0.000000
O O5 0.350304 0.304535 0.682491
O O6 0.552315 0.142640 0.336950
O O7 0.500000 0.000000 0.500000
O O8 0.269996 0.943866 0.508167
O O9 0.932840 0.700997 0.197947
O O10 0.947357 0.665923 0.375412
O O11 0.130089 0.484467 0.025636
O O12 0.749590 0.359438 0.164069
O O13 0.844799 0.395969 0.469771
O O14 0.019970 0.242604 0.405720
O O15 0.951185 0.059233 0.185769
O O16 0.152188 0.902397 0.889672
#
# Coordination Sequence:
#
# PCOD9038689 Si02
#       8
#     2   2   2   2   2   1   2   2
#     4  11  25  43  65 101 140 182 223 282 349 416
#     4  12  26  42  68 102 141 178 228 290 352 400
#     4  10  23  41  73  97 131 181 231 289 337 409
#     4  10  24  44  70 106 130 178 244 281 344 413
#     4  11  26  42  70  96 139 179 233 286 337 416
#     4  12  22  48  72  96 140 178 240 280 340 406
#     4  11  25  44  72  99 138 185 225 294 342 409
#     4  11  24  45  66 101 134 186 231 275 348 413
#
# _framework density 21.401036999999999
#
# number of rings (size 3 to 8) (size 9 to 14) (size 15 to 20)
#    0.000    1.067    2.667    2.400    9.333    2.133 
#    0.000    0.667    0.000    0.000    0.000    0.000 
#    0.000    0.000    0.000    0.000    0.000    0.000 
#
# Total GULP energy -83708.858819 kJ/mol
# GULP energy per Si atom -5580.590588 kJ/mol
# Density = 2.135233 g / cm^3
# Si number density = 21.401037 Si / 1000 Ang^3
#
#
#
# Elastic Constant Matrix: (Units=GPa)
#
#
# Indices 1 2 3 4 5 6 
#
# 1 66.7354 21.5001 58.3079 6.1984 -8.1836 -17.7486
# 2 21.5001 54.6894 48.8475 -2.9582 -10.9776 5.1566
# 3 58.3079 48.8475 203.0309 1.7564 -19.7549 -21.2492
# 4 6.1984 -2.9582 1.7564 25.6395 -6.0413 -4.3496
# 5 -8.1836 -10.9776 -19.7549 -6.0413 46.7740 -0.9960
# 6 -17.7486 5.1566 -21.2492 -4.3496 -0.9960 22.1704
#
#
#
# Elastic Compliance Matrix: (Units=1/GPa)
#
#
# Indices 1 2 3 4 5 6 
#
# 1 0.026487 -0.009468 -0.003132 -0.003691 0.001033 0.019727
# 2 -0.009468 0.030405 -0.006452 0.003497 0.002780 -0.020024
# 3 -0.003132 -0.006452 0.008293 0.001080 0.001734 0.007232
# 4 -0.003691 0.003497 0.001080 0.042708 0.006273 0.005927
# 5 0.001033 0.002780 0.001734 0.006273 0.023843 0.004144
# 6 0.019727 -0.020024 0.007232 0.005927 0.004144 0.073836
#
#
# Mechanical properties :
#
#
# Convention : Reuss Voigt Hill
#
# Bulk Modulus (GPa) = 36.92435 64.64077 50.78256
# Shear Modulus (GPa) = 19.78611 31.97014 25.87812
#
# Velocity S-wave (km/s) = 3.04392 3.86924 3.48113
# Velocity P-wave (km/s) = 5.44472 7.08741 6.31967
#
# Compressibility (1/GPa) = 0.02708240
#
# Stress axis : x y z
#
# Youngs Moduli (GPa) = 37.75400 32.88942 120.58055
#
# Poissons Ratio (x) = 0.31140 0.37763
# Poissons Ratio (y) = 0.35746 0.77793
# Poissons Ratio (z) = 0.11824 0.21219
#
# Static dielectric constant tensor:
#      x y z
#    x 1.758350 0.012340 -0.010130 
#    y 0.012340 1.822970 0.040430 
#    z -0.010130 0.040430 1.778000 
# 
# From -- ./inp_files/379820.got.cif
#   From: 2010.05.17/outbox.cif.g08.bks.cpg/sg2_190_cif.got.tgz:379820.got - 2010.06.03 11:33:40.
