data_PCOD9038960
_publ_section_title
;
Structure prediction by ZEFSAII (Michael W. Deem and Ramdas Pophale) SiO2 
 PCOD9038960
Probable space group: P -1
;
_chemical_formula_sum "Si O2"
_cell_formula_units_Z 15
_cell_length_a 18.717077
_cell_length_b 8.333147
_cell_length_c 12.247692
_cell_angle_alpha 109.310874
_cell_angle_beta 41.283291
_cell_angle_gamma 139.662098
_cell_volume 672.090643
_symmetry_space_group_name_H-M "P -1"
_symmetry_group_IT_number 2
_symmetry_cell_setting 'triclinic'
loop_
_space_group_symop_operation_xyz
x,y,z
-x,-y,-z
loop_
_atom_site_type_symbol
_atom_site_label
_atom_site_fract_x
_atom_site_fract_y
_atom_site_fract_z
Si Si1 0.418742 0.868607 0.944750
Si Si2 0.825774 0.110225 0.061179
Si Si3 0.175832 0.728511 0.687030
Si Si4 0.979094 0.357036 0.384322
Si Si5 0.000000 0.000000 0.000000
Si Si6 0.391983 0.484773 0.780020
Si Si7 0.763162 0.766466 0.432656
Si Si8 0.472905 0.851331 0.338115
O O1 0.457688 0.728873 0.829190
O O2 0.506952 0.106865 0.805833
O O3 0.191811 0.597285 0.151111
O O4 0.500000 0.000000 0.000000
O O5 0.852415 0.145339 0.171118
O O6 0.714862 0.797371 0.088272
O O7 0.683785 0.081893 0.192266
O O8 0.022777 0.400011 0.840912
O O9 0.122717 0.689308 0.614257
O O10 0.384508 0.915044 0.494541
O O11 0.000000 0.500000 0.500000
O O12 0.863746 0.031348 0.458990
O O13 0.771666 0.667922 0.149831
O O14 0.924270 0.925362 0.196334
O O15 0.584150 0.637373 0.553927
O O16 0.667391 0.480347 0.536232
#
# Coordination Sequence:
#
# PCOD9038960 Si02
#       8
#     2   2   2   2   1   2   2   2
#     4  12  26  49  72 102 140 195 242 299 357 431
#     4  10  23  42  65 108 142 182 232 294 356 427
#     4  11  22  41  69 100 146 184 231 293 360 416
#     4  12  25  48  71 101 142 193 246 293 358 434
#     4  12  22  42  72 108 146 186 236 288 358 426
#     4  11  24  42  71 103 148 182 244 288 355 430
#     4  11  25  45  69 110 143 191 236 296 359 421
#     4  11  24  44  68 104 141 181 237 293 356 424
#
# _framework density 22.318418000000001
#
# number of rings (size 3 to 8) (size 9 to 14) (size 15 to 20)
#    0.000    0.800    2.667    4.800    0.000    5.333 
#    2.400    3.333    0.000    0.000    0.000    0.000 
#    0.000    0.000    0.000    0.000    0.000    0.000 
#
# Total GULP energy -83658.528753 kJ/mol
# GULP energy per Si atom -5577.235250 kJ/mol
# Density = 2.226762 g / cm^3
# Si number density = 22.318418 Si / 1000 Ang^3
#
#
#
# Elastic Constant Matrix: (Units=GPa)
#
#
# Indices 1 2 3 4 5 6 
#
# 1 83.0661 21.1409 32.9174 1.8723 7.7116 14.5931
# 2 21.1409 104.9163 33.8455 -2.4737 22.3877 6.0760
# 3 32.9174 33.8455 142.5842 -10.7275 -2.4061 -0.9404
# 4 1.8723 -2.4737 -10.7275 32.6792 11.6701 3.0251
# 5 7.7116 22.3877 -2.4061 11.6701 45.0668 -0.3940
# 6 14.5931 6.0760 -0.9404 3.0251 -0.3940 28.2146
#
#
#
# Elastic Compliance Matrix: (Units=1/GPa)
#
#
# Indices 1 2 3 4 5 6 
#
# 1 0.015228 -0.001078 -0.003391 -0.000577 -0.002169 -0.007726
# 2 -0.001078 0.012242 -0.002578 0.002801 -0.006782 -0.002560
# 3 -0.003391 -0.002578 0.008601 0.001943 0.001838 0.002413
# 4 -0.000577 0.002801 0.001943 0.035602 -0.010445 -0.004203
# 5 -0.002169 -0.006782 0.001838 -0.010445 0.028769 0.004165
# 6 -0.007726 -0.002560 0.002413 -0.004203 0.004165 0.040579
#
#
# Mechanical properties :
#
#
# Convention : Reuss Voigt Hill
#
# Bulk Modulus (GPa) = 45.49897 56.26379 50.88138
# Shear Modulus (GPa) = 30.78058 37.36964 34.07511
#
# Velocity S-wave (km/s) = 3.71773 4.09637 3.91163
# Velocity P-wave (km/s) = 6.23372 6.90202 6.57636
#
# Compressibility (1/GPa) = 0.02197852
#
# Stress axis : x y z
#
# Youngs Moduli (GPa) = 65.66720 81.68848 116.26359
#
# Poissons Ratio (x) = 0.08806 0.39422
# Poissons Ratio (y) = 0.07079 0.29967
# Poissons Ratio (z) = 0.22266 0.21055
#
# Static dielectric constant tensor:
#      x y z
#    x 2.008520 -0.060420 -0.065750 
#    y -0.060420 1.839420 0.009340 
#    z -0.065750 0.009340 1.808720 
# 
# From -- ./inp_files/470053.got.cif
#   From: 2010.05.17/outbox.cif.g08.bks.cpg/sg2_236_cif.got.tgz:470053.got - 2010.06.03 11:33:40.
