data_PCOD9038859
_publ_section_title
;
Structure prediction by ZEFSAII (Michael W. Deem and Ramdas Pophale) SiO2 
 PCOD9038859
Probable space group: P -1
;
_chemical_formula_sum "Si O2"
_cell_formula_units_Z 16
_cell_length_a 5.361536
_cell_length_b 28.285947
_cell_length_c 5.287417
_cell_angle_alpha 66.117752
_cell_angle_beta 94.684528
_cell_angle_gamma 62.464875
_cell_volume 613.382603
_symmetry_space_group_name_H-M "P -1"
_symmetry_group_IT_number 2
_symmetry_cell_setting 'triclinic'
loop_
_space_group_symop_operation_xyz
x,y,z
-x,-y,-z
loop_
_atom_site_type_symbol
_atom_site_label
_atom_site_fract_x
_atom_site_fract_y
_atom_site_fract_z
Si Si1 0.524307 0.628322 0.326603
Si Si2 0.658911 0.406709 0.085374
Si Si3 0.434387 0.751656 0.210079
Si Si4 0.987611 0.151679 0.371917
Si Si5 0.905409 0.466147 0.254531
Si Si6 0.517454 0.077888 0.210985
Si Si7 0.183238 0.204950 0.638318
Si Si8 0.052753 0.040316 0.724599
O O1 0.437686 0.614397 0.624825
O O2 0.537733 0.687928 0.223724
O O3 0.857355 0.569104 0.429336
O O4 0.316133 0.632290 0.072030
O O5 0.920550 0.412010 0.207947
O O6 0.425507 0.478467 0.822916
O O7 0.678962 0.754281 0.391327
O O8 0.130227 0.770192 0.294739
O O9 0.330325 0.803503 0.873912
O O10 0.223729 0.103989 0.295508
O O11 0.101268 0.194924 0.374447
O O12 0.005887 0.103950 0.682817
O O13 0.000000 0.500000 0.000000
O O14 0.795942 0.063499 0.439875
O O15 0.622529 0.012963 0.233198
O O16 0.427762 0.134949 0.896378
O O17 0.000000 0.000000 0.000000
#
# Coordination Sequence:
#
# PCOD9038859 Si02
#       8
#     2   2   2   2   2   2   2   2
#     4  11  25  43  70 103 143 192 244 304 359 438
#     4  10  23  43  69 106 146 189 240 300 370 431
#     4  11  28  47  70 104 139 189 247 298 356 438
#     4  11  25  45  71  94 142 183 231 298 367 432
#     4   9  21  42  70 107 146 190 237 301 366 435
#     4  10  23  42  64 100 136 173 229 289 359 438
#     4  11  26  47  74  98 138 187 239 296 364 427
#     4  11  23  39  70 102 136 175 229 294 366 439
#
# _framework density 26.084857
#
# number of rings (size 3 to 8) (size 9 to 14) (size 15 to 20)
#    0.000    1.500    1.250    1.500    7.000    9.500 
#    0.000    0.000    0.000    0.000    0.000    0.000 
#    0.000    0.000    0.000    0.000    0.000    0.000 
#
# Total GULP energy -89493.525191 kJ/mol
# GULP energy per Si atom -5593.345324 kJ/mol
# Density = 2.602549 g / cm^3
# Si number density = 26.084857 Si / 1000 Ang^3
#
#
#
# Elastic Constant Matrix: (Units=GPa)
#
#
# Indices 1 2 3 4 5 6 
#
# 1 87.8917 30.8849 12.6243 5.8009 3.4618 26.6002
# 2 30.8849 134.0496 25.4532 1.3111 -1.5434 43.2456
# 3 12.6243 25.4532 55.6640 14.7446 5.1703 6.9980
# 4 5.8009 1.3111 14.7446 38.1445 8.4814 8.4899
# 5 3.4618 -1.5434 5.1703 8.4814 35.3365 7.4238
# 6 26.6002 43.2456 6.9980 8.4899 7.4238 50.6180
#
#
#
# Elastic Compliance Matrix: (Units=1/GPa)
#
#
# Indices 1 2 3 4 5 6 
#
# 1 0.013857 -0.000729 -0.002046 0.000086 0.000239 -0.006426
# 2 -0.000729 0.011798 -0.005100 0.003303 0.002626 -0.009930
# 3 -0.002046 -0.005100 0.022763 -0.008748 -0.002106 0.004062
# 4 0.000086 0.003303 -0.008748 0.031970 -0.004935 -0.006296
# 5 0.000239 0.002626 -0.002106 -0.004935 0.031104 -0.005813
# 6 -0.006426 -0.009930 0.004062 -0.006296 -0.005813 0.032964
#
#
# Mechanical properties :
#
#
# Convention : Reuss Voigt Hill
#
# Bulk Modulus (GPa) = 30.61126 46.17002 38.39064
# Shear Modulus (GPa) = 29.22326 38.72933 33.97630
#
# Velocity S-wave (km/s) = 3.35074 3.85742 3.61297
# Velocity P-wave (km/s) = 5.17017 6.13008 5.67048
#
# Compressibility (1/GPa) = 0.03266772
#
# Stress axis : x y z
#
# Youngs Moduli (GPa) = 72.16318 84.76104 43.93033
#
# Poissons Ratio (x) = 0.06181 0.08990
# Poissons Ratio (y) = 0.05263 0.22404
# Poissons Ratio (z) = 0.14768 0.43226
#
# Static dielectric constant tensor:
#      x y z
#    x 2.132350 -0.008670 -0.033230 
#    y -0.008670 2.119190 0.051120 
#    z -0.033230 0.051120 2.084700 
# 
# From -- ./inp_files/14448.got.cif
#   From: 2010.05.17/outbox.cif.g08.bks.cpg/sg2_8_cif.got.tgz:14448.got - 2010.06.03 11:33:40.
