data_PCOD9038490
_publ_section_title
;
Structure prediction by ZEFSAII (Michael W. Deem and Ramdas Pophale) SiO2 
 PCOD9038490
Probable space group: P -1
;
_chemical_formula_sum "Si O2"
_cell_formula_units_Z 14
_cell_length_a 12.634531
_cell_length_b 5.508278
_cell_length_c 11.647337
_cell_angle_alpha 59.225432
_cell_angle_beta 51.159134
_cell_angle_gamma 61.666168
_cell_volume 527.953972
_symmetry_space_group_name_H-M "P -1"
_symmetry_group_IT_number 2
_symmetry_cell_setting 'triclinic'
loop_
_space_group_symop_operation_xyz
x,y,z
-x,-y,-z
loop_
_atom_site_type_symbol
_atom_site_label
_atom_site_fract_x
_atom_site_fract_y
_atom_site_fract_z
Si Si1 0.157216 0.487837 0.927274
Si Si2 0.408593 0.254621 0.639002
Si Si3 0.137875 0.030038 0.466451
Si Si4 0.606401 0.556434 0.006184
Si Si5 0.183217 0.092401 0.689580
Si Si6 0.423140 0.852499 0.243158
Si Si7 0.881255 0.485001 0.806146
O O1 0.269193 0.355578 0.787211
O O2 0.170258 0.820996 0.842007
O O3 0.166618 0.346435 0.081580
O O4 0.000000 0.500000 0.000000
O O5 0.500000 0.500000 0.500000
O O6 0.335916 0.151414 0.601048
O O7 0.512468 0.049173 0.707231
O O8 0.155075 0.017057 0.594280
O O9 0.141547 0.348562 0.339204
O O10 0.272535 0.793761 0.387535
O O11 0.000000 0.000000 0.500000
O O12 0.536503 0.593698 0.170212
O O13 0.500000 0.500000 0.000000
O O14 0.752550 0.326141 0.937078
O O15 0.613614 0.881902 0.883650
O O16 0.043119 0.341527 0.746724
#
# Coordination Sequence:
#
# PCOD9038490 Si02
#       7
#     2   2   2   2   2   2   2
#     4  12  25  47  74 112 148 190 252 309 377 446
#     4  12  28  46  76 105 156 200 249 307 379 449
#     4  11  26  47  74 104 149 194 243 306 378 451
#     4  10  23  41  70 101 137 181 238 302 366 432
#     4  12  28  47  76 111 152 200 251 307 379 454
#     4  10  24  44  65 103 137 185 236 297 361 429
#     4  11  24  45  71 109 139 190 248 309 369 443
#
# _framework density 26.517461000000001
#
# number of rings (size 3 to 8) (size 9 to 14) (size 15 to 20)
#    0.000    0.857    2.857    2.571    6.000    4.571 
#    0.000    0.000    0.000    0.000    0.000    0.000 
#    0.000    0.000    0.000    0.000    0.000    0.000 
#
# Total GULP energy -78065.622620 kJ/mol
# GULP energy per Si atom -5576.115901 kJ/mol
# Density = 2.645711 g / cm^3
# Si number density = 26.517461 Si / 1000 Ang^3
#
#
#
# Elastic Constant Matrix: (Units=GPa)
#
#
# Indices 1 2 3 4 5 6 
#
# 1 239.0596 21.1093 74.1808 -7.7628 -11.8648 -8.6370
# 2 21.1093 34.5551 25.4992 -5.8971 0.9122 -4.7390
# 3 74.1808 25.4992 129.0155 15.3285 -4.7150 2.7026
# 4 -7.7628 -5.8971 15.3285 33.6514 -11.8311 3.0927
# 5 -11.8648 0.9122 -4.7150 -11.8311 70.8737 -0.5828
# 6 -8.6370 -4.7390 2.7026 3.0927 -0.5828 42.7331
#
#
#
# Elastic Compliance Matrix: (Units=1/GPa)
#
#
# Indices 1 2 3 4 5 6 
#
# 1 0.005476 -0.000122 -0.003478 0.003154 0.001223 0.001102
# 2 -0.000122 0.037722 -0.008681 0.010414 0.000688 0.003963
# 3 -0.003478 -0.008681 0.012440 -0.008177 -0.001023 -0.001874
# 4 0.003154 0.010414 -0.008177 0.038217 0.006227 -0.000371
# 5 0.001223 0.000688 -0.001023 0.006227 0.015278 0.000146
# 6 0.001102 0.003963 -0.001874 -0.000371 0.000146 0.024211
#
#
# Mechanical properties :
#
#
# Convention : Reuss Voigt Hill
#
# Bulk Modulus (GPa) = 32.17776 71.57876 51.87826
# Shear Modulus (GPa) = 29.71544 48.24104 38.97824
#
# Velocity S-wave (km/s) = 3.35117 4.26986 3.83810
# Velocity P-wave (km/s) = 5.20909 7.16663 6.26479
#
# Compressibility (1/GPa) = 0.03107736
#
# Stress axis : x y z
#
# Youngs Moduli (GPa) = 182.62110 26.50968 80.38808
#
# Poissons Ratio (x) = 0.00323 0.27956
# Poissons Ratio (y) = 0.02224 0.69783
# Poissons Ratio (z) = 0.63508 0.23012
#
# Static dielectric constant tensor:
#      x y z
#    x 2.373750 0.116010 -0.127790 
#    y 0.116010 2.307590 0.012930 
#    z -0.127790 0.012930 2.251520 
# 
# From -- ./inp_files/409959.got.cif
#   From: 2010.05.17/outbox.cif.g08.bks.cpg/sg2_205_cif.got.tgz:409959.got - 2010.06.03 11:33:40.
