data_PCOD9038328
_publ_section_title
;
Structure prediction by ZEFSAII (Michael W. Deem and Ramdas Pophale) SiO2 
 PCOD9038328
Probable space group: P -1
;
_chemical_formula_sum "Si O2"
_cell_formula_units_Z 14
_cell_length_a 10.905257
_cell_length_b 11.579206
_cell_length_c 9.147582
_cell_angle_alpha 140.659135
_cell_angle_beta 84.371841
_cell_angle_gamma 78.694134
_cell_volume 657.576584
_symmetry_space_group_name_H-M "P -1"
_symmetry_group_IT_number 2
_symmetry_cell_setting 'triclinic'
loop_
_space_group_symop_operation_xyz
x,y,z
-x,-y,-z
loop_
_atom_site_type_symbol
_atom_site_label
_atom_site_fract_x
_atom_site_fract_y
_atom_site_fract_z
Si Si1 0.853057 0.149224 0.225182
Si Si2 0.393424 0.711951 0.795542
Si Si3 0.461368 0.866111 0.487535
Si Si4 0.634683 0.769626 0.946777
Si Si5 0.142085 0.456942 0.516051
Si Si6 0.268660 0.645333 0.277056
Si Si7 0.264012 0.507593 0.827673
O O1 0.719516 0.144603 0.164110
O O2 0.831060 0.360358 0.366844
O O3 0.838933 0.186523 0.437202
O O4 0.000000 0.000000 0.000000
O O5 0.500000 0.500000 0.500000
O O6 0.485895 0.812789 0.947080
O O7 0.317777 0.651182 0.874792
O O8 0.382632 0.730272 0.317725
O O9 0.603064 0.704102 0.378537
O O10 0.500000 0.000000 0.500000
O O11 0.368767 0.043453 0.779775
O O12 0.736937 0.725537 0.756075
O O13 0.675055 0.567976 0.848179
O O14 0.156464 0.467056 0.698463
O O15 0.000000 0.500000 0.500000
O O16 0.217307 0.601138 0.085040
#
# Coordination Sequence:
#
# PCOD9038328 Si02
#       7
#     2   2   2   2   2   2   2
#     4  10  23  41  68  93 130 179 221 268 332 391
#     4  11  18  41  64  94 131 177 219 268 333 390
#     4  12  23  35  66 105 132 164 217 274 334 390
#     4  11  22  40  66  95 132 172 219 275 327 389
#     4  10  24  43  64  92 134 174 221 275 330 391
#     4  11  22  42  65  93 139 166 215 278 332 386
#     4  11  21  40  66  92 131 177 209 275 338 382
#
# _framework density 21.290296000000001
#
# number of rings (size 3 to 8) (size 9 to 14) (size 15 to 20)
#    0.000    1.143    7.143    1.286    2.000    1.714 
#    0.000    5.714    3.143    0.000    0.000    0.000 
#    0.000    0.000    0.000    0.000    0.000    0.000 
#
# Total GULP energy -78055.034947 kJ/mol
# GULP energy per Si atom -5575.359639 kJ/mol
# Density = 2.124184 g / cm^3
# Si number density = 21.290296 Si / 1000 Ang^3
#
#
#
# Elastic Constant Matrix: (Units=GPa)
#
#
# Indices 1 2 3 4 5 6 
#
# 1 95.7617 49.6006 37.2542 -16.7113 8.6215 -21.8928
# 2 49.6006 99.7603 59.9166 -25.8831 7.8620 -1.8970
# 3 37.2542 59.9166 137.6253 -23.9808 -2.2427 -13.7081
# 4 -16.7113 -25.8831 -23.9808 44.7130 4.1926 15.4938
# 5 8.6215 7.8620 -2.2427 4.1926 37.4146 -0.0946
# 6 -21.8928 -1.8970 -13.7081 15.4938 -0.0946 33.2122
#
#
#
# Elastic Compliance Matrix: (Units=1/GPa)
#
#
# Indices 1 2 3 4 5 6 
#
# 1 0.017705 -0.009085 -0.000125 -0.002841 -0.001829 0.012420
# 2 -0.009085 0.020879 -0.006161 0.009888 -0.003802 -0.011963
# 3 -0.000125 -0.006161 0.010474 0.000569 0.001897 0.003629
# 4 -0.002841 0.009888 0.000569 0.033634 -0.005200 -0.016779
# 5 -0.001829 -0.003802 0.001897 -0.005200 0.028649 0.001868
# 6 0.012420 -0.011963 0.003629 -0.016779 0.001868 0.046944
#
#
# Mechanical properties :
#
#
# Convention : Reuss Voigt Hill
#
# Bulk Modulus (GPa) = 54.59807 69.63223 62.11515
# Shear Modulus (GPa) = 25.62372 35.49301 30.55836
#
# Velocity S-wave (km/s) = 3.47297 4.08744 3.79267
# Velocity P-wave (km/s) = 6.46392 7.41979 6.95829
#
# Compressibility (1/GPa) = 0.01831567
#
# Stress axis : x y z
#
# Youngs Moduli (GPa) = 56.48089 47.89516 95.47598
#
# Poissons Ratio (x) = 0.43510 0.01197
# Poissons Ratio (y) = 0.51310 0.58825
# Poissons Ratio (z) = 0.00708 0.29509
#
# Static dielectric constant tensor:
#      x y z
#    x 1.732790 -0.056310 -0.002320 
#    y -0.056310 1.887750 -0.041210 
#    z -0.002320 -0.041210 1.863390 
# 
# From -- ./inp_files/261004.got.cif
#   From: 2010.05.17/outbox.cif.g08.bks.cpg/sg2_131_cif.got.tgz:261004.got - 2010.06.03 11:33:40.
