data_PCOD9038679
_publ_section_title
;
Structure prediction by ZEFSAII (Michael W. Deem and Ramdas Pophale) SiO2 
 PCOD9038679
Probable space group: P -1
;
_chemical_formula_sum "Si O2"
_cell_formula_units_Z 12
_cell_length_a 10.670690
_cell_length_b 4.869955
_cell_length_c 13.762472
_cell_angle_alpha 71.877562
_cell_angle_beta 49.841010
_cell_angle_gamma 54.941677
_cell_volume 445.391833
_symmetry_space_group_name_H-M "P -1"
_symmetry_group_IT_number 2
_symmetry_cell_setting 'triclinic'
loop_
_space_group_symop_operation_xyz
x,y,z
-x,-y,-z
loop_
_atom_site_type_symbol
_atom_site_label
_atom_site_fract_x
_atom_site_fract_y
_atom_site_fract_z
Si Si1 0.375608 0.755392 0.116756
Si Si2 0.730290 0.637229 0.034046
Si Si3 0.474605 0.714041 0.589968
Si Si4 0.150838 0.239866 0.831842
Si Si5 0.035403 0.920743 0.695107
Si Si6 0.866449 0.553946 0.470910
O O1 0.527497 0.657529 0.137842
O O2 0.500000 0.500000 0.000000
O O3 0.177748 0.766108 0.218543
O O4 0.303656 0.122144 0.067012
O O5 0.765216 0.775860 0.101545
O O6 0.935489 0.307991 0.942787
O O7 0.500000 0.500000 0.500000
O O8 0.669778 0.547947 0.577462
O O9 0.500000 0.000000 0.500000
O O10 0.157420 0.101324 0.600869
O O11 0.118694 0.590991 0.760708
O O12 0.294799 0.910334 0.733663
O O13 0.016140 0.756379 0.625063
O O14 0.000000 0.500000 0.500000
#
# Coordination Sequence:
#
# PCOD9038679 Si02
#       6
#     2   2   2   2   2   2
#     4  10  23  41  73 107 151 187 250 299 385 438
#     4   9  22  47  71 112 144 201 241 315 369 452
#     4  12  27  48  77 109 149 200 250 314 377 448
#     4  10  23  47  77 106 153 192 261 297 385 443
#     4  11  26  46  74 105 151 194 241 320 364 445
#     4  12  28  49  73 109 147 198 253 304 383 444
#
# _framework density 26.942565999999999
#
# number of rings (size 3 to 8) (size 9 to 14) (size 15 to 20)
#    0.000    1.333    1.667    1.500    9.333    0.000 
#    6.000    2.500    0.000    0.000    0.000    0.000 
#    0.000    0.000    0.000    0.000    0.000    0.000 
#
# Total GULP energy -66950.147216 kJ/mol
# GULP energy per Si atom -5579.178935 kJ/mol
# Density = 2.688124 g / cm^3
# Si number density = 26.942566 Si / 1000 Ang^3
#
#
#
# Elastic Constant Matrix: (Units=GPa)
#
#
# Indices 1 2 3 4 5 6 
#
# 1 245.9011 59.6398 97.7933 21.3534 13.1229 -18.4788
# 2 59.6398 114.0991 48.9379 17.6575 -11.0433 0.5774
# 3 97.7933 48.9379 157.0580 45.2440 -6.9300 -16.3292
# 4 21.3534 17.6575 45.2440 54.4169 -5.7885 0.9268
# 5 13.1229 -11.0433 -6.9300 -5.7885 48.5205 4.6625
# 6 -18.4788 0.5774 -16.3292 0.9268 4.6625 54.4996
#
#
#
# Elastic Compliance Matrix: (Units=1/GPa)
#
#
# Indices 1 2 3 4 5 6 
#
# 1 0.006076 -0.002132 -0.003321 0.000766 -0.002637 0.001300
# 2 -0.002132 0.011130 -0.001950 -0.000818 0.002893 -0.001659
# 3 -0.003321 -0.001950 0.011516 -0.007577 0.000966 0.002391
# 4 0.000766 -0.000818 -0.007577 0.024870 0.001739 -0.002574
# 5 -0.002637 0.002893 0.000966 0.001739 0.022576 -0.002596
# 6 0.001300 -0.001659 0.002391 -0.002574 -0.002596 0.019790
#
#
# Mechanical properties :
#
#
# Convention : Reuss Voigt Hill
#
# Bulk Modulus (GPa) = 71.85201 103.31112 87.58156
# Shear Modulus (GPa) = 43.32621 52.19989 47.76305
#
# Velocity S-wave (km/s) = 4.01446 4.40642 4.21500
# Velocity P-wave (km/s) = 6.94365 8.01978 7.50104
#
# Compressibility (1/GPa) = 0.01391750
#
# Stress axis : x y z
#
# Youngs Moduli (GPa) = 164.57037 89.84774 86.83216
#
# Poissons Ratio (x) = 0.19156 0.28837
# Poissons Ratio (y) = 0.35088 0.16929
# Poissons Ratio (z) = 0.54654 0.17517
#
# Static dielectric constant tensor:
#      x y z
#    x 3.064550 -0.755920 -0.548000 
#    y -0.755920 2.842470 0.266610 
#    z -0.548000 0.266610 2.345760 
# 
# From -- ./inp_files/51519.got.cif
#   From: 2010.05.17/outbox.cif.g08.bks.cpg/sg2_26_cif.got.tgz:51519.got - 2010.06.03 11:33:40.
