data_PCOD9038547
_publ_section_title
;
Structure prediction by ZEFSAII (Michael W. Deem and Ramdas Pophale) SiO2 
 PCOD9038547
Probable space group: P -1
;
_chemical_formula_sum "Si O2"
_cell_formula_units_Z 16
_cell_length_a 8.413861
_cell_length_b 20.383682
_cell_length_c 10.912843
_cell_angle_alpha 128.500765
_cell_angle_beta 46.450661
_cell_angle_gamma 147.716692
_cell_volume 720.632014
_symmetry_space_group_name_H-M "P -1"
_symmetry_group_IT_number 2
_symmetry_cell_setting 'triclinic'
loop_
_space_group_symop_operation_xyz
x,y,z
-x,-y,-z
loop_
_atom_site_type_symbol
_atom_site_label
_atom_site_fract_x
_atom_site_fract_y
_atom_site_fract_z
Si Si1 0.809276 0.798195 0.874615
Si Si2 0.277080 0.631087 0.571626
Si Si3 0.378825 0.123348 0.427489
Si Si4 0.131747 0.382717 0.021238
Si Si5 0.444345 0.995595 0.666794
Si Si6 0.807000 0.262017 0.812409
Si Si7 0.241532 0.857896 0.939642
Si Si8 0.289503 0.359806 0.474309
O O1 0.730711 0.700696 0.708880
O O2 0.083309 0.926419 0.804508
O O3 0.994938 0.818571 0.920106
O O4 0.503578 0.766307 0.038514
O O5 0.458254 0.739083 0.495976
O O6 0.546076 0.650496 0.518969
O O7 0.000000 0.500000 0.500000
O O8 0.083641 0.621719 0.776585
O O9 0.522831 0.088135 0.391122
O O10 0.504895 0.139040 0.242563
O O11 0.000000 0.000000 0.500000
O O12 0.992130 0.250433 0.965539
O O13 0.500000 0.500000 0.000000
O O14 0.062853 0.372629 0.901774
O O15 0.500000 0.000000 0.500000
O O16 0.688098 0.132985 0.750091
O O17 0.955116 0.297938 0.639637
O O18 0.500000 0.000000 0.000000
O O19 0.500000 0.500000 0.500000
#
# Coordination Sequence:
#
# PCOD9038547 Si02
#       8
#     2   2   2   2   2   2   2   2
#     4  11  25  47  72 106 147 185 243 296 368 435
#     4  11  25  45  69 103 147 191 242 302 360 433
#     4  10  23  41  70  98 140 183 238 286 358 430
#     4  11  24  43  71 102 141 184 243 292 357 433
#     4  11  23  42  72 107 145 184 238 299 364 433
#     4  12  25  46  74 106 144 191 236 303 366 432
#     4  10  24  45  68  99 140 184 232 297 355 427
#     4  12  28  46  74 102 147 191 244 299 363 435
#
# _framework density 22.202732000000001
#
# number of rings (size 3 to 8) (size 9 to 14) (size 15 to 20)
#    0.000    1.000    2.500    3.375    7.000    3.500 
#    0.000    0.000    0.000    0.000    0.000    0.000 
#    0.000    0.000    0.000    0.000    0.000    0.000 
#
# Total GULP energy -89220.392415 kJ/mol
# GULP energy per Si atom -5576.274526 kJ/mol
# Density = 2.215220 g / cm^3
# Si number density = 22.202732 Si / 1000 Ang^3
#
#
#
# Elastic Constant Matrix: (Units=GPa)
#
#
# Indices 1 2 3 4 5 6 
#
# 1 70.6752 43.4453 45.4701 4.8999 -3.8273 13.7894
# 2 43.4453 170.0237 47.4700 1.0764 -1.6121 5.4094
# 3 45.4701 47.4700 129.4044 -10.9035 -6.1426 8.2166
# 4 4.8999 1.0764 -10.9035 45.4846 15.6396 7.2285
# 5 -3.8273 -1.6121 -6.1426 15.6396 23.7148 -1.2781
# 6 13.7894 5.4094 8.2166 7.2285 -1.2781 39.2070
#
#
#
# Elastic Compliance Matrix: (Units=1/GPa)
#
#
# Indices 1 2 3 4 5 6 
#
# 1 0.021889 -0.003631 -0.006217 -0.004480 0.004365 -0.004926
# 2 -0.003631 0.007185 -0.001422 -0.000082 -0.000380 0.000587
# 3 -0.006217 -0.001422 0.010739 0.003620 -0.000736 -0.000559
# 4 -0.004480 -0.000082 0.003620 0.031382 -0.020791 -0.005635
# 5 0.004365 -0.000380 -0.000736 -0.020791 0.056602 0.004350
# 6 -0.004926 0.000587 -0.000559 -0.005635 0.004350 0.028455
#
#
# Mechanical properties :
#
#
# Convention : Reuss Voigt Hill
#
# Bulk Modulus (GPa) = 57.89225 71.43046 64.66136
# Shear Modulus (GPa) = 27.09291 37.26247 32.17769
#
# Velocity S-wave (km/s) = 3.49700 4.10113 3.81105
# Velocity P-wave (km/s) = 6.51432 7.39374 6.96792
#
# Compressibility (1/GPa) = 0.01727347
#
# Stress axis : x y z
#
# Youngs Moduli (GPa) = 45.68450 139.18678 93.11484
#
# Poissons Ratio (x) = 0.50539 0.57889
# Poissons Ratio (y) = 0.16588 0.13240
# Poissons Ratio (z) = 0.28402 0.19791
#
# Static dielectric constant tensor:
#      x y z
#    x 1.823470 -0.030890 -0.050670 
#    y -0.030890 1.927420 0.054530 
#    z -0.050670 0.054530 1.869540 
# 
# From -- ./inp_files/405507.got.cif
#   From: 2010.05.17/outbox.cif.g08.bks.cpg/sg2_203_cif.got.tgz:405507.got - 2010.06.03 11:33:40.
