data_PCOD9038650
_publ_section_title
;
Structure prediction by ZEFSAII (Michael W. Deem and Ramdas Pophale) SiO2 
 PCOD9038650
Probable space group: P -1
;
_chemical_formula_sum "Si O2"
_cell_formula_units_Z 16
_cell_length_a 11.279375
_cell_length_b 14.411904
_cell_length_c 8.928069
_cell_angle_alpha 68.583085
_cell_angle_beta 146.341190
_cell_angle_gamma 96.629530
_cell_volume 697.092240
_symmetry_space_group_name_H-M "P -1"
_symmetry_group_IT_number 2
_symmetry_cell_setting 'triclinic'
loop_
_space_group_symop_operation_xyz
x,y,z
-x,-y,-z
loop_
_atom_site_type_symbol
_atom_site_label
_atom_site_fract_x
_atom_site_fract_y
_atom_site_fract_z
Si Si1 0.685459 0.878707 0.783861
Si Si2 0.012069 0.501893 0.264214
Si Si3 0.634750 0.579624 0.566487
Si Si4 0.758885 0.411776 0.295853
Si Si5 0.413259 0.788735 0.366251
Si Si6 0.190350 0.815440 0.426367
Si Si7 0.506560 0.884868 0.893646
Si Si8 0.752283 0.051542 0.132551
O O1 0.636011 0.817087 0.626453
O O2 0.661017 0.822284 0.951197
O O3 0.500000 0.000000 0.500000
O O4 0.938032 0.875196 0.064885
O O5 0.883701 0.442032 0.267410
O O6 0.243156 0.431471 0.459359
O O7 0.088406 0.578795 0.406907
O O8 0.832555 0.558838 0.912265
O O9 0.500000 0.500000 0.500000
O O10 0.457890 0.694859 0.352883
O O11 0.769564 0.290197 0.368849
O O12 0.500000 0.500000 0.000000
O O13 0.334072 0.766595 0.457247
O O14 0.230553 0.890282 0.035418
O O15 0.270005 0.900426 0.547757
O O16 0.429409 0.866764 0.989969
O O17 0.631059 0.968308 0.008860
O O18 0.000000 0.000000 0.500000
#
# Coordination Sequence:
#
# PCOD9038650 Si02
#       8
#     2   2   2   2   2   2   2   2
#     4  11  23  43  68  93 126 173 228 283 336 403
#     4  10  23  41  72  93 143 179 225 276 346 400
#     4  11  23  44  67 104 138 178 225 283 342 416
#     4  11  23  44  68 102 137 182 226 286 338 412
#     4  11  25  41  68  97 130 176 228 278 345 414
#     4  11  25  41  69  98 131 174 231 281 346 407
#     4  10  24  42  63  93 129 170 222 279 337 407
#     4  11  24  43  64  92 133 175 220 278 341 408
#
# _framework density 22.952486
#
# number of rings (size 3 to 8) (size 9 to 14) (size 15 to 20)
#    0.000    1.250    1.250    3.750    1.750    8.000 
#    0.000    1.250    0.000    0.000    0.000    0.000 
#    0.000    0.000    0.000    0.000    0.000    0.000 
#
# Total GULP energy -89153.176696 kJ/mol
# GULP energy per Si atom -5572.073544 kJ/mol
# Density = 2.290024 g / cm^3
# Si number density = 22.952486 Si / 1000 Ang^3
#
#
#
# Elastic Constant Matrix: (Units=GPa)
#
#
# Indices 1 2 3 4 5 6 
#
# 1 117.8751 31.2076 2.7786 3.8074 -3.5375 -0.0849
# 2 31.2076 98.0130 52.9114 12.4775 9.9193 3.2656
# 3 2.7786 52.9114 98.6453 21.3840 12.3654 9.7394
# 4 3.8074 12.4775 21.3840 27.4016 -0.6198 -0.0003
# 5 -3.5375 9.9193 12.3654 -0.6198 36.9026 5.7538
# 6 -0.0849 3.2656 9.7394 -0.0003 5.7538 28.2837
#
#
#
# Elastic Compliance Matrix: (Units=1/GPa)
#
#
# Indices 1 2 3 4 5 6 
#
# 1 0.009613 -0.004168 0.002055 -0.001009 0.001412 -0.000485
# 2 -0.004168 0.016289 -0.008420 -0.000317 -0.002188 0.001451
# 3 0.002055 -0.008420 0.017634 -0.010279 -0.002920 -0.004500
# 4 -0.001009 -0.000317 -0.010279 0.044885 0.003748 0.002811
# 5 0.001412 -0.002188 -0.002920 0.003748 0.029605 -0.004760
# 6 -0.000485 0.001451 -0.004500 0.002811 -0.004760 0.037705
#
#
# Mechanical properties :
#
#
# Convention : Reuss Voigt Hill
#
# Bulk Modulus (GPa) = 44.50556 54.25875 49.38215
# Shear Modulus (GPa) = 27.13128 33.69331 30.41229
#
# Velocity S-wave (km/s) = 3.44184 3.83555 3.64402
# Velocity P-wave (km/s) = 5.93527 6.58074 6.26632
#
# Compressibility (1/GPa) = 0.02246910
#
# Stress axis : x y z
#
# Youngs Moduli (GPa) = 104.02212 61.39196 56.70761
#
# Poissons Ratio (x) = 0.25591 -0.11651
# Poissons Ratio (y) = 0.43361 0.47747
# Poissons Ratio (z) = -0.21373 0.51692
#
# Static dielectric constant tensor:
#      x y z
#    x 1.977510 0.013270 0.038120 
#    y 0.013270 1.883490 -0.014340 
#    z 0.038120 -0.014340 1.854190 
# 
# From -- ./inp_files/272765.got.cif
#   From: 2010.05.17/outbox.cif.g08.bks.cpg/sg2_137_cif.got.tgz:272765.got - 2010.06.03 11:33:40.
