data_PCOD9038236
_publ_section_title
;
Structure prediction by ZEFSAII (Michael W. Deem and Ramdas Pophale) SiO2 
 PCOD9038236
Probable space group: P -1
;
_chemical_formula_sum "Si O2"
_cell_formula_units_Z 15
_cell_length_a 15.342128
_cell_length_b 5.476042
_cell_length_c 24.687956
_cell_angle_alpha 117.614265
_cell_angle_beta 18.990665
_cell_angle_gamma 117.753583
_cell_volume 595.365671
_symmetry_space_group_name_H-M "P -1"
_symmetry_group_IT_number 2
_symmetry_cell_setting 'triclinic'
loop_
_space_group_symop_operation_xyz
x,y,z
-x,-y,-z
loop_
_atom_site_type_symbol
_atom_site_label
_atom_site_fract_x
_atom_site_fract_y
_atom_site_fract_z
Si Si1 0.551891 0.327857 0.803935
Si Si2 0.130420 0.308328 0.657183
Si Si3 0.325224 0.825672 0.820443
Si Si4 0.361679 0.882775 0.014181
Si Si5 0.864808 0.106868 0.680486
Si Si6 0.720811 0.772168 0.200733
Si Si7 0.000000 0.500000 0.500000
Si Si8 0.669110 0.129738 0.364315
O O1 0.843424 0.295577 0.658710
O O2 0.669130 0.460977 0.693216
O O3 0.400309 0.035885 0.847189
O O4 0.409970 0.563189 0.941763
O O5 0.440100 0.257093 0.475683
O O6 0.121733 0.625853 0.712367
O O7 0.951468 0.122566 0.787456
O O8 0.010279 0.246407 0.661762
O O9 0.435530 0.527907 0.729033
O O10 0.405175 0.998677 0.737761
O O11 0.002522 0.749456 0.001586
O O12 0.500000 0.000000 0.000000
O O13 0.544469 0.051401 0.878977
O O14 0.987067 0.825901 0.564468
O O15 0.785811 0.901834 0.234938
O O16 0.500000 0.000000 0.500000
#
# Coordination Sequence:
#
# PCOD9038236 Si02
#       8
#     2   2   2   2   2   2   1   2
#     4  11  23  40  66  99 131 179 222 278 342 416
#     4  10  24  43  63  95 131 174 222 282 342 405
#     4  10  24  43  74 102 138 182 232 287 349 410
#     4   9  21  41  64  93 129 170 219 279 330 405
#     4  10  23  41  67  95 132 172 219 279 342 411
#     4  10  24  46  69 105 137 181 234 291 343 415
#     4  10  24  40  58  98 134 170 218 270 340 408
#     4  11  26  42  66  96 131 182 229 283 348 412
#
# _framework density 25.194599
#
# number of rings (size 3 to 8) (size 9 to 14) (size 15 to 20)
#    0.000    1.867    0.000    1.200    9.333    7.467 
#    0.000    0.000    0.000    0.000    0.000    0.000 
#    0.000    0.000    0.000    0.000    0.000    0.000 
#
# Total GULP energy -83516.738987 kJ/mol
# GULP energy per Si atom -5567.782599 kJ/mol
# Density = 2.513726 g / cm^3
# Si number density = 25.194599 Si / 1000 Ang^3
#
#
#
# Elastic Constant Matrix: (Units=GPa)
#
#
# Indices 1 2 3 4 5 6 
#
# 1 113.7696 53.6418 -8.1836 11.5611 5.2830 17.2817
# 2 53.6418 145.9024 -0.4004 5.2502 -3.2332 22.0839
# 3 -8.1836 -0.4004 62.8443 -2.2124 1.9645 14.3316
# 4 11.5611 5.2502 -2.2124 31.7666 11.4444 1.6222
# 5 5.2830 -3.2332 1.9645 11.4444 25.8872 6.3915
# 6 17.2817 22.0839 14.3316 1.6222 6.3915 35.7484
#
#
#
# Elastic Compliance Matrix: (Units=1/GPa)
#
#
# Indices 1 2 3 4 5 6 
#
# 1 0.011586 -0.003537 0.002334 -0.003033 -0.000630 -0.004101
# 2 -0.003537 0.008970 0.000495 -0.001171 0.003457 -0.004595
# 3 0.002334 0.000495 0.018251 0.000779 0.000027 -0.008791
# 4 -0.003033 -0.001171 0.000779 0.039021 -0.017642 0.003261
# 5 -0.000630 0.003457 0.000027 -0.017642 0.049426 -0.009878
# 6 -0.004101 -0.004595 -0.008791 0.003261 -0.009878 0.037937
#
#
# Mechanical properties :
#
#
# Convention : Reuss Voigt Hill
#
# Bulk Modulus (GPa) = 26.74432 45.84797 36.29615
# Shear Modulus (GPa) = 27.92218 37.17767 32.54992
#
# Velocity S-wave (km/s) = 3.33267 3.84555 3.59826
# Velocity P-wave (km/s) = 5.04450 6.16074 5.63035
#
# Compressibility (1/GPa) = 0.03739112
#
# Stress axis : x y z
#
# Youngs Moduli (GPa) = 86.31221 111.48350 54.79177
#
# Poissons Ratio (x) = 0.39434 -0.12791
# Poissons Ratio (y) = 0.30531 -0.02712
# Poissons Ratio (z) = -0.20149 -0.05519
#
# Static dielectric constant tensor:
#      x y z
#    x 1.309560 0.308740 -0.356600 
#    y 0.308740 1.846400 0.161010 
#    z -0.356600 0.161010 1.863900 
# 
# From -- ./inp_files/83033.got.cif
#   From: 2010.05.17/outbox.cif.g08.bks.cpg/sg2_42_cif.got.tgz:83033.got - 2010.06.03 11:33:40.
