data_PCOD9038197
_publ_section_title
;
Structure prediction by ZEFSAII (Michael W. Deem and Ramdas Pophale) SiO2 
 PCOD9038197
Probable space group: P -1
;
_chemical_formula_sum "Si O2"
_cell_formula_units_Z 14
_cell_length_a 6.908191
_cell_length_b 21.490449
_cell_length_c 14.167653
_cell_angle_alpha 161.785824
_cell_angle_beta 72.603745
_cell_angle_gamma 115.836098
_cell_volume 540.042224
_symmetry_space_group_name_H-M "P -1"
_symmetry_group_IT_number 2
_symmetry_cell_setting 'triclinic'
loop_
_space_group_symop_operation_xyz
x,y,z
-x,-y,-z
loop_
_atom_site_type_symbol
_atom_site_label
_atom_site_fract_x
_atom_site_fract_y
_atom_site_fract_z
Si Si1 0.210940 0.323007 0.885079
Si Si2 0.066322 0.630777 0.277658
Si Si3 0.552812 0.258420 0.874431
Si Si4 0.441208 0.200728 0.307636
Si Si5 0.359579 0.489035 0.597291
Si Si6 0.030614 0.371442 0.163895
Si Si7 0.075181 0.053408 0.316898
O O1 0.420256 0.306266 0.878633
O O2 0.137315 0.186995 0.601222
O O3 0.256517 0.579056 0.221016
O O4 0.012221 0.237978 0.874606
O O5 0.104665 0.881759 0.615024
O O6 0.822529 0.466864 0.131425
O O7 0.000000 0.500000 0.000000
O O8 0.500000 0.000000 0.500000
O O9 0.484355 0.300315 0.048505
O O10 0.305102 0.254956 0.323124
O O11 0.701166 0.424948 0.587692
O O12 0.289322 0.153040 0.355395
O O13 0.500000 0.000000 0.000000
O O14 0.500000 0.500000 0.500000
O O15 0.140909 0.524890 0.657213
O O16 0.988380 0.201743 0.012052
#
# Coordination Sequence:
#
# PCOD9038197 Si02
#       7
#     2   2   2   2   2   2   2
#     4  11  23  44  77 111 153 201 244 311 392 451
#     4  10  23  41  67 108 153 189 244 306 382 464
#     4  12  25  44  73 114 152 192 255 318 374 451
#     4  12  28  52  74 110 154 198 265 316 372 463
#     4  12  27  51  75 111 153 204 265 310 383 471
#     4  12  25  48  82 106 152 205 245 317 389 443
#     4  11  24  46  75 116 156 193 254 317 380 464
#
# _framework density 25.9239
#
# number of rings (size 3 to 8) (size 9 to 14) (size 15 to 20)
#    0.000    0.571    4.286    2.143    4.000    8.000 
#    0.000    5.714    0.000    0.000    0.000    0.000 
#    0.000    0.000    0.000    0.000    0.000    0.000 
#
# Total GULP energy -78327.383868 kJ/mol
# GULP energy per Si atom -5594.813133 kJ/mol
# Density = 2.586490 g / cm^3
# Si number density = 25.923900 Si / 1000 Ang^3
#
#
#
# Elastic Constant Matrix: (Units=GPa)
#
#
# Indices 1 2 3 4 5 6 
#
# 1 93.4445 42.4983 58.0390 29.1549 -41.6641 -16.6108
# 2 42.4983 206.9950 88.1951 16.3853 -21.9397 2.3504
# 3 58.0390 88.1951 182.6865 27.9032 -48.5576 -12.6943
# 4 29.1549 16.3853 27.9032 64.8534 -13.2899 -12.9927
# 5 -41.6641 -21.9397 -48.5576 -13.2899 53.5019 7.4890
# 6 -16.6108 2.3504 -12.6943 -12.9927 7.4890 41.2651
#
#
#
# Elastic Compliance Matrix: (Units=1/GPa)
#
#
# Indices 1 2 3 4 5 6 
#
# 1 0.019773 -0.001978 -0.001206 -0.004637 0.011766 0.004106
# 2 -0.001978 0.006366 -0.002913 -0.000111 -0.001343 -0.001846
# 3 -0.001206 -0.002913 0.009012 -0.001244 0.005590 0.001047
# 4 -0.004637 -0.000111 -0.001244 0.018683 -0.000671 0.003761
# 5 0.011766 -0.001343 0.005590 -0.000671 0.032141 0.000488
# 6 0.004106 -0.001846 0.001047 0.003761 0.000488 0.027409
#
#
# Mechanical properties :
#
#
# Convention : Reuss Voigt Hill
#
# Bulk Modulus (GPa) = 43.56211 95.62121 69.59166
# Shear Modulus (GPa) = 37.52917 51.55032 44.53975
#
# Velocity S-wave (km/s) = 3.80895 4.46413 4.14949
# Velocity P-wave (km/s) = 6.01535 7.97099 7.06120
#
# Compressibility (1/GPa) = 0.02295573
#
# Stress axis : x y z
#
# Youngs Moduli (GPa) = 50.57483 157.09098 110.96578
#
# Poissons Ratio (x) = 0.31077 0.13382
# Poissons Ratio (y) = 0.10005 0.32325
# Poissons Ratio (z) = 0.06099 0.45761
#
# Static dielectric constant tensor:
#      x y z
#    x 2.225920 0.270700 -0.042990 
#    y 0.270700 2.720520 -0.136350 
#    z -0.042990 -0.136350 2.117020 
# 
# From -- ./inp_files/507732.got.cif
#   From: 2010.05.17/outbox.cif.g08.bks.cpg/sg2_254_cif.got.tgz:507732.got - 2010.06.03 11:33:40.
