data_PCOD9038987
_publ_section_title
;
Structure prediction by ZEFSAII (Michael W. Deem and Ramdas Pophale) SiO2 
 PCOD9038987
Probable space group: P -1
;
_chemical_formula_sum "Si O2"
_cell_formula_units_Z 16
_cell_length_a 13.383625
_cell_length_b 8.460563
_cell_length_c 12.885494
_cell_angle_alpha 69.207427
_cell_angle_beta 119.615382
_cell_angle_gamma 147.760043
_cell_volume 670.405627
_symmetry_space_group_name_H-M "P -1"
_symmetry_group_IT_number 2
_symmetry_cell_setting 'triclinic'
loop_
_space_group_symop_operation_xyz
x,y,z
-x,-y,-z
loop_
_atom_site_type_symbol
_atom_site_label
_atom_site_fract_x
_atom_site_fract_y
_atom_site_fract_z
Si Si1 0.543988 0.354998 0.535233
Si Si2 0.108493 0.701145 0.398537
Si Si3 0.385077 0.480380 0.676338
Si Si4 0.775092 0.154224 0.804828
Si Si5 0.873415 0.758805 0.208427
Si Si6 0.521256 0.270156 0.762132
Si Si7 0.948376 0.775795 0.957363
Si Si8 0.465022 0.886430 0.892043
O O1 0.500000 0.500000 0.500000
O O2 0.674999 0.505295 0.465263
O O3 0.622931 0.381417 0.676098
O O4 0.336883 0.007189 0.485068
O O5 0.140408 0.659528 0.304805
O O6 0.000000 0.500000 0.500000
O O7 0.027222 0.790014 0.300622
O O8 0.218105 0.314859 0.711163
O O9 0.417330 0.321972 0.712664
O O10 0.598832 0.815429 0.749040
O O11 0.655437 0.087129 0.861969
O O12 0.956106 0.269587 0.926711
O O13 0.949301 0.030421 0.140491
O O14 0.686832 0.454981 0.115209
O O15 0.363360 0.926897 0.775594
O O16 0.709907 0.481919 0.885915
O O17 0.000000 0.000000 0.000000
O O18 0.500000 0.000000 0.000000
#
# Coordination Sequence:
#
# PCOD9038987 Si02
#       8
#     2   2   2   2   2   2   2   2
#     4   9  19  40  63  87 125 164 209 264 316 369
#     4  11  22  41  67  95 127 165 216 266 314 386
#     4   9  20  38  67  91 122 169 222 254 312 388
#     4  10  23  42  65  93 128 176 211 255 324 386
#     4  11  23  40  66  97 120 171 221 261 309 386
#     4  11  22  41  62  92 127 173 202 267 328 369
#     4  12  21  40  69  90 126 167 222 254 306 391
#     4  11  26  41  60  95 137 165 205 265 329 379
#
# _framework density 23.866147000000002
#
# number of rings (size 3 to 8) (size 9 to 14) (size 15 to 20)
#    0.000    1.500    2.500    3.000    1.750    2.500 
#    0.000   11.875    0.000    0.000    0.000    0.000 
#    0.000    0.000    0.000    0.000    0.000    0.000 
#
# Total GULP energy -89068.127084 kJ/mol
# GULP energy per Si atom -5566.757943 kJ/mol
# Density = 2.381183 g / cm^3
# Si number density = 23.866147 Si / 1000 Ang^3
#
#
#
# Elastic Constant Matrix: (Units=GPa)
#
#
# Indices 1 2 3 4 5 6 
#
# 1 82.7135 5.1261 40.0751 -3.3348 -31.6861 9.3740
# 2 5.1261 48.7631 23.1332 -23.2504 -16.1293 -2.3697
# 3 40.0751 23.1332 153.4411 -15.5806 -30.9053 2.1413
# 4 -3.3348 -23.2504 -15.5806 36.2135 9.9830 -3.4703
# 5 -31.6861 -16.1293 -30.9053 9.9830 46.5924 -7.0945
# 6 9.3740 -2.3697 2.1413 -3.4703 -7.0945 22.7650
#
#
#
# Elastic Compliance Matrix: (Units=1/GPa)
#
#
# Indices 1 2 3 4 5 6 
#
# 1 0.017833 0.002122 -0.002933 -0.001561 0.010680 -0.003756
# 2 0.002122 0.033898 -0.001998 0.019444 0.008997 0.008611
# 3 -0.002933 -0.001998 0.008247 0.001377 0.002682 0.001270
# 4 -0.001561 0.019444 0.001377 0.041653 -0.001038 0.008563
# 5 0.010680 0.008997 0.002682 -0.001038 0.034909 0.007007
# 6 -0.003756 0.008611 0.001270 0.008563 0.007007 0.049740
#
#
# Mechanical properties :
#
#
# Convention : Reuss Voigt Hill
#
# Bulk Modulus (GPa) = 18.39582 46.84297 32.61939
# Shear Modulus (GPa) = 23.80756 35.55306 29.68031
#
# Velocity S-wave (km/s) = 3.16182 3.86383 3.53032
# Velocity P-wave (km/s) = 4.58848 6.29091 5.50589
#
# Compressibility (1/GPa) = 0.05436017
#
# Stress axis : x y z
#
# Youngs Moduli (GPa) = 56.07494 29.50055 121.26008
#
# Poissons Ratio (x) = -0.06261 0.35561
# Poissons Ratio (y) = -0.11900 0.24233
# Poissons Ratio (z) = 0.16445 0.05895
#
# Static dielectric constant tensor:
#      x y z
#    x 1.873650 0.493500 -0.456900 
#    y 0.493500 -0.789440 1.866980 
#    z -0.456900 1.866980 0.757750 
# 
# From -- ./inp_files/447181.got.cif
#   From: 2010.05.17/outbox.cif.g08.bks.cpg/sg2_224_cif.got.tgz:447181.got - 2010.06.03 11:33:40.
