data_PCOD9038846
_publ_section_title
;
Structure prediction by ZEFSAII (Michael W. Deem and Ramdas Pophale) SiO2 
 PCOD9038846
Probable space group: P -1
;
_chemical_formula_sum "Si O2"
_cell_formula_units_Z 12
_cell_length_a 8.900375
_cell_length_b 14.269998
_cell_length_c 12.199456
_cell_angle_alpha 21.256683
_cell_angle_beta 79.213084
_cell_angle_gamma 77.844088
_cell_volume 548.965862
_symmetry_space_group_name_H-M "P -1"
_symmetry_group_IT_number 2
_symmetry_cell_setting 'triclinic'
loop_
_space_group_symop_operation_xyz
x,y,z
-x,-y,-z
loop_
_atom_site_type_symbol
_atom_site_label
_atom_site_fract_x
_atom_site_fract_y
_atom_site_fract_z
Si Si1 0.878601 0.989307 0.625908
Si Si2 0.663476 0.091690 0.355072
Si Si3 0.916712 0.411901 0.344136
Si Si4 0.311909 0.557539 0.457566
Si Si5 0.638742 0.911460 0.163892
Si Si6 0.729223 0.653721 0.642962
O O1 0.727962 0.089592 0.471483
O O2 0.904336 0.180931 0.511822
O O3 0.883056 0.694133 0.985791
O O4 0.000000 0.000000 0.500000
O O5 0.500000 0.000000 0.500000
O O6 0.736024 0.866532 0.507169
O O7 0.680194 0.377411 0.992290
O O8 0.784233 0.396240 0.469475
O O9 0.095840 0.391501 0.378148
O O10 0.500000 0.500000 0.500000
O O11 0.258469 0.305491 0.681902
O O12 0.287270 0.827126 0.102187
O O13 0.613099 0.771431 0.435004
O O14 0.500000 0.000000 0.000000
#
# Coordination Sequence:
#
# PCOD9038846 Si02
#       6
#     2   2   2   2   2   2
#     4  12  23  45  71  99 140 177 231 274 336 411
#     4  12  27  43  67 102 138 177 226 286 333 398
#     4  12  24  41  74 100 134 187 223 278 343 400
#     4  10  23  42  63  98 132 171 228 277 335 400
#     4  10  23  42  66  89 134 174 223 280 335 397
#     4  12  24  44  67  97 136 179 231 275 341 406
#
# _framework density 21.859280999999999
#
# number of rings (size 3 to 8) (size 9 to 14) (size 15 to 20)
#    0.000    0.667    3.333    4.000    0.000    9.333 
#    0.000    0.000    0.000    0.000    0.000    0.000 
#    0.000    0.000    0.000    0.000    0.000    0.000 
#
# Total GULP energy -66913.272411 kJ/mol
# GULP energy per Si atom -5576.106034 kJ/mol
# Density = 2.180953 g / cm^3
# Si number density = 21.859281 Si / 1000 Ang^3
#
#
#
# Elastic Constant Matrix: (Units=GPa)
#
#
# Indices 1 2 3 4 5 6 
#
# 1 105.0079 44.0969 70.5571 18.4211 -3.6004 12.7170
# 2 44.0969 150.4525 90.1022 -26.5107 -4.9177 3.8708
# 3 70.5571 90.1022 250.3381 -37.7421 0.4689 23.8970
# 4 18.4211 -26.5107 -37.7421 42.3699 8.6235 -12.2466
# 5 -3.6004 -4.9177 0.4689 8.6235 24.1122 11.5062
# 6 12.7170 3.8708 23.8970 -12.2466 11.5062 43.6805
#
#
#
# Elastic Compliance Matrix: (Units=1/GPa)
#
#
# Indices 1 2 3 4 5 6 
#
# 1 0.027944 -0.007999 -0.008535 -0.035234 0.024406 -0.019065
# 2 -0.007999 0.011226 -0.000398 0.013757 -0.007318 0.007337
# 3 -0.008535 -0.000398 0.008232 0.013657 -0.008327 0.004039
# 4 -0.035234 0.013757 0.013657 0.080413 -0.049167 0.037064
# 5 0.024406 -0.007318 -0.008327 -0.049167 0.078755 -0.036432
# 6 -0.019065 0.007337 0.004039 0.037064 -0.036432 0.045573
#
#
# Mechanical properties :
#
#
# Convention : Reuss Voigt Hill
#
# Bulk Modulus (GPa) = 73.86985 101.70121 87.78553
# Shear Modulus (GPa) = 17.21050 42.10200 29.65625
#
# Velocity S-wave (km/s) = 2.80899 4.39344 3.68732
# Velocity P-wave (km/s) = 6.66238 8.50663 7.64036
#
# Compressibility (1/GPa) = 0.01353732
#
# Stress axis : x y z
#
# Youngs Moduli (GPa) = 35.78640 89.07981 121.46994
#
# Poissons Ratio (x) = 0.71257 1.03670
# Poissons Ratio (y) = 0.28626 0.04840
# Poissons Ratio (z) = 0.30542 0.03550
#
# Static dielectric constant tensor:
#      x y z
#    x 1.791190 -0.025910 -0.036890 
#    y -0.025910 1.806620 -0.025820 
#    z -0.036890 -0.025820 1.695110 
# 
# From -- ./inp_files/61316.got.cif
#   From: 2010.05.17/outbox.cif.g08.bks.cpg/sg2_31_cif.got.tgz:61316.got - 2010.06.03 11:33:40.
