data_PCOD9038628
_publ_section_title
;
Structure prediction by ZEFSAII (Michael W. Deem and Ramdas Pophale) SiO2 
 PCOD9038628
Probable space group: P -1
;
_chemical_formula_sum "Si O2"
_cell_formula_units_Z 16
_cell_length_a 12.966568
_cell_length_b 10.538223
_cell_length_c 9.411002
_cell_angle_alpha 79.055490
_cell_angle_beta 31.297603
_cell_angle_gamma 92.251694
_cell_volume 602.518816
_symmetry_space_group_name_H-M "P -1"
_symmetry_group_IT_number 2
_symmetry_cell_setting 'triclinic'
loop_
_space_group_symop_operation_xyz
x,y,z
-x,-y,-z
loop_
_atom_site_type_symbol
_atom_site_label
_atom_site_fract_x
_atom_site_fract_y
_atom_site_fract_z
Si Si1 0.683115 0.768611 0.764197
Si Si2 0.985172 0.373723 0.851564
Si Si3 0.704667 0.877401 0.132056
Si Si4 0.113272 0.658706 0.710344
Si Si5 0.644575 0.606213 0.128750
Si Si6 0.179527 0.824934 0.148238
Si Si7 0.632897 0.712835 0.524319
Si Si8 0.181755 0.916514 0.438459
O O1 0.560813 0.727196 0.767098
O O2 0.932351 0.807684 0.426342
O O3 0.680215 0.918356 0.782656
O O4 0.647415 0.649977 0.950124
O O5 0.130532 0.289826 0.739656
O O6 0.147447 0.536947 0.604214
O O7 0.827737 0.300016 0.922262
O O8 0.873479 0.372162 0.133290
O O9 0.941974 0.906562 0.771576
O O10 0.671450 0.019708 0.113623
O O11 0.570898 0.724141 0.255649
O O12 0.674016 0.841657 0.342638
O O13 0.241220 0.824712 0.503356
O O14 0.871622 0.631990 0.936467
O O15 0.506320 0.441606 0.340344
O O16 0.192523 0.832089 0.301444
#
# Coordination Sequence:
#
# PCOD9038628 Si02
#       8
#     2   2   2   2   2   2   2   2
#     4  10  19  32  53  82 106 134 173 222 262 295
#     4  10  22  35  51  82 106 134 174 217 260 305
#     4  10  18  31  52  81 103 135 171 221 262 296
#     4  10  21  36  54  75 109 139 169 215 263 309
#     4  11  19  37  54  77 108 142 169 209 267 314
#     4  10  18  32  54  78 106 132 178 221 255 303
#     4  11  22  32  55  82 108 135 174 216 258 311
#     4  10  17  33  54  76 108 135 171 222 263 297
#
# _framework density 26.55519
#
# number of rings (size 3 to 8) (size 9 to 14) (size 15 to 20)
#    0.000    1.750    6.250    1.500    1.750    2.000 
#    0.000    0.000    0.000    3.000    0.000    0.000 
#    0.000    0.000    0.000    0.000    0.000    0.000 
#
# Total GULP energy -89222.475036 kJ/mol
# GULP energy per Si atom -5576.404690 kJ/mol
# Density = 2.649475 g / cm^3
# Si number density = 26.555190 Si / 1000 Ang^3
#
#
#
# Elastic Constant Matrix: (Units=GPa)
#
#
# Indices 1 2 3 4 5 6 
#
# 1 75.5030 15.4304 42.0451 6.9419 3.2450 19.9704
# 2 15.4304 84.4816 33.2260 4.3893 14.8730 13.6003
# 3 42.0451 33.2260 104.9784 -12.7256 6.9231 4.4088
# 4 6.9419 4.3893 -12.7256 33.8765 -4.2237 10.1884
# 5 3.2450 14.8730 6.9231 -4.2237 39.1518 -5.6485
# 6 19.9704 13.6003 4.4088 10.1884 -5.6485 29.5842
#
#
#
# Elastic Compliance Matrix: (Units=1/GPa)
#
#
# Indices 1 2 3 4 5 6 
#
# 1 0.022308 0.002868 -0.009586 -0.004800 -0.003783 -0.014018
# 2 0.002868 0.016477 -0.005905 -0.003147 -0.007076 -0.008898
# 3 -0.009586 -0.005905 0.015842 0.007522 0.001706 0.004560
# 4 -0.004800 -0.003147 0.007522 0.036662 0.002994 -0.008489
# 5 -0.003783 -0.007076 0.001706 0.002994 0.030045 0.010258
# 6 -0.014018 -0.008898 0.004560 -0.008489 0.010258 0.051557
#
#
# Mechanical properties :
#
#
# Convention : Reuss Voigt Hill
#
# Bulk Modulus (GPa) = 34.03553 49.59623 41.81588
# Shear Modulus (GPa) = 24.04651 32.13993 28.09322
#
# Velocity S-wave (km/s) = 3.01247 3.48272 3.25609
# Velocity P-wave (km/s) = 4.99446 5.90675 5.46966
#
# Compressibility (1/GPa) = 0.02938106
#
# Stress axis : x y z
#
# Youngs Moduli (GPa) = 44.82661 60.69042 63.12458
#
# Poissons Ratio (x) = -0.17404 0.60511
# Poissons Ratio (y) = -0.12855 0.37273
# Poissons Ratio (z) = 0.42970 0.35836
#
# Static dielectric constant tensor:
#      x y z
#    x 2.177670 0.017950 -0.065680 
#    y 0.017950 2.197450 0.089880 
#    z -0.065680 0.089880 2.214790 
# 
# From -- ./inp_files/258182.got.cif
#   From: 2010.05.17/outbox.cif.g08.bks.cpg/sg2_130_cif.got.tgz:258182.got - 2010.06.03 11:33:40.
