data_PCOD9038808
_publ_section_title
;
Structure prediction by ZEFSAII (Michael W. Deem and Ramdas Pophale) SiO2 
 PCOD9038808
Probable space group: P -1
;
_chemical_formula_sum "Si O2"
_cell_formula_units_Z 12
_cell_length_a 12.267713
_cell_length_b 9.344695
_cell_length_c 5.238393
_cell_angle_alpha 91.159131
_cell_angle_beta 77.130570
_cell_angle_gamma 123.941046
_cell_volume 481.641175
_symmetry_space_group_name_H-M "P -1"
_symmetry_group_IT_number 2
_symmetry_cell_setting 'triclinic'
loop_
_space_group_symop_operation_xyz
x,y,z
-x,-y,-z
loop_
_atom_site_type_symbol
_atom_site_label
_atom_site_fract_x
_atom_site_fract_y
_atom_site_fract_z
Si Si1 0.494816 0.308958 0.709566
Si Si2 0.691663 0.225246 0.667631
Si Si3 0.841846 0.063669 0.581420
Si Si4 0.653242 0.694797 0.716790
Si Si5 0.154436 0.550646 0.905187
Si Si6 0.006920 0.176045 0.000917
O O1 0.542003 0.181502 0.716935
O O2 0.624379 0.506157 0.705839
O O3 0.441574 0.307453 0.456657
O O4 0.388154 0.279259 0.980495
O O5 0.709527 0.067816 0.641874
O O6 0.758233 0.327984 0.899653
O O7 0.919579 0.154873 0.800767
O O8 0.777016 0.350356 0.389498
O O9 0.933586 0.167255 0.298524
O O10 0.800609 0.866799 0.591267
O O11 0.000000 0.500000 0.000000
O O12 0.142896 0.368747 0.919259
O O13 0.000000 0.000000 0.000000
#
# Coordination Sequence:
#
# PCOD9038808 Si02
#       6
#     2   2   2   2   2   2
#     4  10  23  42  63  92 120 165 207 251 317 368
#     4  12  24  40  68  94 123 169 208 251 314 369
#     4  12  24  43  64  95 127 163 208 260 309 365
#     4  10  23  42  63  89 128 158 205 262 305 370
#     4  12  23  43  63  91 132 165 203 256 305 373
#     4  12  27  41  63  95 128 167 209 253 310 365
#
# _framework density 24.914814
#
# number of rings (size 3 to 8) (size 9 to 14) (size 15 to 20)
#    0.000    0.667    3.333    4.000    4.667    1.333 
#    0.000    0.000    0.000    0.000    0.000    0.000 
#    0.000    0.000    0.000    0.000    0.000    0.000 
#
# Total GULP energy -67235.491732 kJ/mol
# GULP energy per Si atom -5602.957644 kJ/mol
# Density = 2.485811 g / cm^3
# Si number density = 24.914814 Si / 1000 Ang^3
#
#
#
# Elastic Constant Matrix: (Units=GPa)
#
#
# Indices 1 2 3 4 5 6 
#
# 1 59.0386 -18.5196 12.2738 7.3684 19.8271 -21.4360
# 2 -18.5196 106.2929 12.0860 -0.2889 0.2210 -6.7019
# 3 12.2738 12.0860 118.4948 -15.4328 11.4153 -5.7989
# 4 7.3684 -0.2889 -15.4328 66.4552 -14.3363 -3.6932
# 5 19.8271 0.2210 11.4153 -14.3363 37.2779 -2.2865
# 6 -21.4360 -6.7019 -5.7989 -3.6932 -2.2865 40.8159
#
#
#
# Elastic Compliance Matrix: (Units=1/GPa)
#
#
# Indices 1 2 3 4 5 6 
#
# 1 0.032650 0.007013 -0.002468 -0.007237 -0.018437 0.016261
# 2 0.007013 0.011113 -0.001472 -0.001584 -0.003651 0.004951
# 3 -0.002468 -0.001472 0.009197 0.002264 -0.000628 -0.000061
# 4 -0.007237 -0.001584 0.002264 0.018482 0.010181 -0.001496
# 5 -0.018437 -0.003651 -0.000628 0.010181 0.040320 -0.007192
# 6 0.016261 0.004951 -0.000061 -0.001496 -0.007192 0.033306
#
#
# Mechanical properties :
#
#
# Convention : Reuss Voigt Hill
#
# Bulk Modulus (GPa) = 16.91862 32.83408 24.87635
# Shear Modulus (GPa) = 31.52107 47.44223 39.48165
#
# Velocity S-wave (km/s) = 3.56076 4.36842 3.98510
# Velocity P-wave (km/s) = 4.86936 6.21702 5.58399
#
# Compressibility (1/GPa) = 0.05910649
#
# Stress axis : x y z
#
# Youngs Moduli (GPa) = 30.62792 89.98691 108.72692
#
# Poissons Ratio (x) = -0.63109 0.26831
# Poissons Ratio (y) = -0.21480 0.16006
# Poissons Ratio (z) = 0.07558 0.13248
#
# Static dielectric constant tensor:
#      x y z
#    x 1.995730 -0.041800 -0.017970 
#    y -0.041800 1.962620 -0.008360 
#    z -0.017970 -0.008360 1.881160 
# 
# From -- ./inp_files/87404.got.cif
#   From: 2010.05.17/outbox.cif.g08.bks.cpg/sg2_44_cif.got.tgz:87404.got - 2010.06.03 11:33:40.
