data_PCOD9038892
_publ_section_title
;
Structure prediction by ZEFSAII (Michael W. Deem and Ramdas Pophale) SiO2 
 PCOD9038892
Probable space group: P -1
;
_chemical_formula_sum "Si O2"
_cell_formula_units_Z 14
_cell_length_a 5.257053
_cell_length_b 26.103658
_cell_length_c 8.845194
_cell_angle_alpha 146.566981
_cell_angle_beta 123.488393
_cell_angle_gamma 63.795677
_cell_volume 557.275462
_symmetry_space_group_name_H-M "P -1"
_symmetry_group_IT_number 2
_symmetry_cell_setting 'triclinic'
loop_
_space_group_symop_operation_xyz
x,y,z
-x,-y,-z
loop_
_atom_site_type_symbol
_atom_site_label
_atom_site_fract_x
_atom_site_fract_y
_atom_site_fract_z
Si Si1 0.053912 0.796728 0.847046
Si Si2 0.337505 0.356539 0.514419
Si Si3 0.446295 0.295542 0.065880
Si Si4 0.181730 0.550016 0.546487
Si Si5 0.216921 0.935896 0.810970
Si Si6 0.140792 0.000818 0.385566
Si Si7 0.157319 0.730830 0.391165
O O1 0.040953 0.738599 0.544860
O O2 0.819273 0.745916 0.758318
O O3 0.377729 0.792336 0.029958
O O4 0.016603 0.900741 0.039532
O O5 0.605648 0.351943 0.715408
O O6 0.078876 0.433102 0.626023
O O7 0.436083 0.355047 0.366418
O O8 0.120560 0.287229 0.859098
O O9 0.674484 0.344499 0.137539
O O10 0.500000 0.500000 0.500000
O O11 0.000000 0.500000 0.500000
O O12 0.294309 0.835602 0.656169
O O13 0.999315 0.916547 0.548595
O O14 0.500000 0.000000 0.000000
O O15 0.000000 0.000000 0.000000
O O16 0.500000 0.000000 0.500000
O O17 0.000000 0.000000 0.500000
#
# Coordination Sequence:
#
# PCOD9038892 Si02
#       7
#     2   2   2   2   2   2   2
#     4  10  23  42  64  93 142 181 230 289 345 402
#     4  10  23  43  71 100 138 180 224 276 352 404
#     4  10  23  43  72 104 134 185 228 278 346 416
#     4  11  22  46  77 103 142 179 218 280 348 418
#     4  12  25  44  64  95 137 185 232 291 346 389
#     4  12  26  42  66  94 132 182 240 289 345 399
#     4  11  24  43  68 101 141 181 239 287 341 417
#
# _framework density 25.122225
#
# number of rings (size 3 to 8) (size 9 to 14) (size 15 to 20)
#    0.000    1.143    2.857    2.571    6.000    2.286 
#    0.000    1.429    0.000    0.000    0.000    0.000 
#    0.000    0.000    0.000    0.000    0.000    0.000 
#
# Total GULP energy -78054.506571 kJ/mol
# GULP energy per Si atom -5575.321898 kJ/mol
# Density = 2.506505 g / cm^3
# Si number density = 25.122225 Si / 1000 Ang^3
#
#
#
# Elastic Constant Matrix: (Units=GPa)
#
#
# Indices 1 2 3 4 5 6 
#
# 1 148.9006 70.9846 21.3106 -6.1129 24.6681 8.7651
# 2 70.9846 239.1372 35.9923 -21.6571 17.5350 -23.1130
# 3 21.3106 35.9923 44.1769 -12.2283 20.4041 -1.1793
# 4 -6.1129 -21.6571 -12.2283 45.0063 0.1937 12.0926
# 5 24.6681 17.5350 20.4041 0.1937 32.0757 2.0487
# 6 8.7651 -23.1130 -1.1793 12.0926 2.0487 53.8526
#
#
#
# Elastic Compliance Matrix: (Units=1/GPa)
#
#
# Indices 1 2 3 4 5 6 
#
# 1 0.008950 -0.002477 0.000500 0.000851 -0.005693 -0.002483
# 2 -0.002477 0.005708 -0.003602 0.000736 0.000907 0.002574
# 3 0.000500 -0.003602 0.038396 0.009411 -0.022767 -0.002034
# 4 0.000851 0.000736 0.009411 0.026714 -0.006863 -0.005354
# 5 -0.005693 0.000907 -0.022767 -0.006863 0.049552 0.000473
# 6 -0.002483 0.002574 -0.002034 -0.005354 0.000473 0.021218
#
#
# Mechanical properties :
#
#
# Convention : Reuss Voigt Hill
#
# Bulk Modulus (GPa) = 23.86945 76.53218 50.20081
# Shear Modulus (GPa) = 28.46369 46.44873 37.45621
#
# Velocity S-wave (km/s) = 3.36967 4.30456 3.86548
# Velocity P-wave (km/s) = 4.96604 7.43207 6.32049
#
# Compressibility (1/GPa) = 0.04189456
#
# Stress axis : x y z
#
# Youngs Moduli (GPa) = 111.73646 175.18762 26.04434
#
# Poissons Ratio (x) = 0.43400 -0.01302
# Poissons Ratio (y) = 0.27681 0.09382
# Poissons Ratio (z) = -0.05585 0.63105
#
# Static dielectric constant tensor:
#      x y z
#    x 1.406460 0.078540 0.469350 
#    y 0.078540 1.943740 -0.152290 
#    z 0.469350 -0.152290 1.674290 
# 
# From -- ./inp_files/120072.got.cif
#   From: 2010.05.17/outbox.cif.g08.bks.cpg/sg2_61_cif.got.tgz:120072.got - 2010.06.03 11:33:40.
