data_PCOD9038172
_publ_section_title
;
Structure prediction by ZEFSAII (Michael W. Deem and Ramdas Pophale) SiO2 
 PCOD9038172
Probable space group: P -1
;
_chemical_formula_sum "Si O2"
_cell_formula_units_Z 14
_cell_length_a 13.522635
_cell_length_b 5.680371
_cell_length_c 9.206097
_cell_angle_alpha 115.052924
_cell_angle_beta 59.242017
_cell_angle_gamma 108.410804
_cell_volume 546.015303
_symmetry_space_group_name_H-M "P -1"
_symmetry_group_IT_number 2
_symmetry_cell_setting 'triclinic'
loop_
_space_group_symop_operation_xyz
x,y,z
-x,-y,-z
loop_
_atom_site_type_symbol
_atom_site_label
_atom_site_fract_x
_atom_site_fract_y
_atom_site_fract_z
Si Si1 0.398926 0.824405 0.853937
Si Si2 0.346825 0.738791 0.467715
Si Si3 0.957189 0.085439 0.900235
Si Si4 0.340274 0.978946 0.260339
Si Si5 0.379131 0.229345 0.724213
Si Si6 0.856839 0.504111 0.275301
Si Si7 0.895134 0.798194 0.585993
O O1 0.539547 0.850884 0.732581
O O2 0.347228 0.518538 0.814791
O O3 0.360917 0.050042 0.835837
O O4 0.373154 0.904401 0.055877
O O5 0.481857 0.734894 0.391559
O O6 0.275424 0.564286 0.594266
O O7 0.321685 0.721228 0.311023
O O8 0.318666 0.033842 0.598343
O O9 0.070846 0.237902 0.777344
O O10 0.900213 0.862067 0.772705
O O11 0.877279 0.296668 0.077805
O O12 0.000000 0.000000 0.000000
O O13 0.224490 0.111922 0.361157
O O14 0.906223 0.527077 0.416261
O O15 0.000000 0.000000 0.500000
#
# Coordination Sequence:
#
# PCOD9038172 Si02
#       7
#     2   2   2   2   2   2   2
#     4  10  23  44  72 100 150 186 246 297 359 439
#     4  10  23  41  67 100 141 183 240 290 370 433
#     4  10  24  47  69 101 136 181 242 304 365 436
#     4  10  23  42  68 101 140 187 236 298 364 434
#     4  10  23  44  68 108 142 194 236 301 361 436
#     4  10  23  44  68  99 137 183 234 300 353 444
#     4  10  23  44  68 100 140 181 240 296 363 438
#
# _framework density 25.640305000000001
#
# number of rings (size 3 to 8) (size 9 to 14) (size 15 to 20)
#    0.000    2.000    0.000    0.857    6.000   13.143 
#    5.143    0.000    0.000    0.000    0.000    0.000 
#    0.000    0.000    0.000    0.000    0.000    0.000 
#
# Total GULP energy -77988.875343 kJ/mol
# GULP energy per Si atom -5570.633953 kJ/mol
# Density = 2.558195 g / cm^3
# Si number density = 25.640305 Si / 1000 Ang^3
#
#
#
# Elastic Constant Matrix: (Units=GPa)
#
#
# Indices 1 2 3 4 5 6 
#
# 1 92.8778 39.5244 52.8660 -11.0534 7.1397 -21.3206
# 2 39.5244 104.3633 51.9857 -10.2505 9.7324 -4.4235
# 3 52.8660 51.9857 163.0475 -27.0557 27.2592 -2.8028
# 4 -11.0534 -10.2505 -27.0557 49.9084 8.7747 -1.3473
# 5 7.1397 9.7324 27.2592 8.7747 55.8088 -1.0255
# 6 -21.3206 -4.4235 -2.8028 -1.3473 -1.0255 18.0723
#
#
#
# Elastic Compliance Matrix: (Units=1/GPa)
#
#
# Indices 1 2 3 4 5 6 
#
# 1 0.020730 -0.004414 -0.004755 0.001616 0.000605 0.022793
# 2 -0.004414 0.012439 -0.002452 0.000267 -0.000496 -0.002551
# 3 -0.004755 -0.002452 0.009888 0.004485 -0.004584 -0.004602
# 4 0.001616 0.000267 0.004485 0.024074 -0.006153 0.004112
# 5 0.000605 -0.000496 -0.004584 -0.006153 0.021145 0.000623
# 6 0.022793 -0.002551 -0.004602 0.004112 0.000623 0.081226
#
#
# Mechanical properties :
#
#
# Convention : Reuss Voigt Hill
#
# Bulk Modulus (GPa) = 50.46551 72.11565 61.29058
# Shear Modulus (GPa) = 25.08165 39.15207 32.11686
#
# Velocity S-wave (km/s) = 3.13103 3.91189 3.54304
# Velocity P-wave (km/s) = 5.72678 6.97071 6.37914
#
# Compressibility (1/GPa) = 0.01981551
#
# Stress axis : x y z
#
# Youngs Moduli (GPa) = 48.23983 80.39241 101.13011
#
# Poissons Ratio (x) = 0.35483 0.48091
# Poissons Ratio (y) = 0.21291 0.24794
# Poissons Ratio (z) = 0.22940 0.19710
#
# Static dielectric constant tensor:
#      x y z
#    x 2.268720 -0.073610 -0.038250 
#    y -0.073610 2.157000 0.154780 
#    z -0.038250 0.154780 2.142390 
# 
# From -- ./inp_files/289134.got.cif
#   From: 2010.05.17/outbox.cif.g08.bks.cpg/sg2_145_cif.got.tgz:289134.got - 2010.06.03 11:33:40.
