data_PCOD9038153
_publ_section_title
;
Structure prediction by ZEFSAII (Michael W. Deem and Ramdas Pophale) SiO2 
 PCOD9038153
Probable space group: P -1
;
_chemical_formula_sum "Si O2"
_cell_formula_units_Z 12
_cell_length_a 9.850410
_cell_length_b 11.235058
_cell_length_c 11.392518
_cell_angle_alpha 153.785188
_cell_angle_beta 93.271447
_cell_angle_gamma 80.363620
_cell_volume 536.392228
_symmetry_space_group_name_H-M "P -1"
_symmetry_group_IT_number 2
_symmetry_cell_setting 'triclinic'
loop_
_space_group_symop_operation_xyz
x,y,z
-x,-y,-z
loop_
_atom_site_type_symbol
_atom_site_label
_atom_site_fract_x
_atom_site_fract_y
_atom_site_fract_z
Si Si1 0.033355 0.804316 0.048268
Si Si2 0.401009 0.308704 0.288507
Si Si3 0.818825 0.262890 0.771494
Si Si4 0.351302 0.155011 0.681586
Si Si5 0.874981 0.655445 0.542935
Si Si6 0.243208 0.316250 0.056758
O O1 0.055604 0.788334 0.175441
O O2 0.096301 0.049086 0.222155
O O3 0.109203 0.525853 0.735117
O O4 0.868534 0.846637 0.051262
O O5 0.500000 0.500000 0.500000
O O6 0.276389 0.314346 0.379502
O O7 0.323052 0.403816 0.245651
O O8 0.500000 0.000000 0.000000
O O9 0.840619 0.413599 0.784442
O O10 0.763117 0.994887 0.506620
O O11 0.695920 0.511576 0.045536
O O12 0.500000 0.000000 0.500000
O O13 0.347516 0.135110 0.805342
O O14 0.000000 0.500000 0.500000
#
# Coordination Sequence:
#
# PCOD9038153 Si02
#       6
#     2   2   2   2   2   2
#     4  12  25  45  77 107 144 184 247 298 365 429
#     4  12  29  49  74 106 145 193 248 295 362 431
#     4  10  24  43  69 105 135 186 233 294 365 419
#     4  10  23  41  66  98 146 186 232 282 367 429
#     4  12  27  48  77 104 147 194 246 299 358 424
#     4  10  27  43  76  99 150 181 239 301 360 422
#
# _framework density 22.371687999999999
#
# number of rings (size 3 to 8) (size 9 to 14) (size 15 to 20)
#    1.000    0.000    1.667    3.500    7.000    4.667 
#    0.000    0.000    0.000    0.000    0.000    0.000 
#    0.000    0.000    0.000    0.000    0.000    0.000 
#
# Total GULP energy -67124.936544 kJ/mol
# GULP energy per Si atom -5593.744712 kJ/mol
# Density = 2.232077 g / cm^3
# Si number density = 22.371688 Si / 1000 Ang^3
#
#
#
# Elastic Constant Matrix: (Units=GPa)
#
#
# Indices 1 2 3 4 5 6 
#
# 1 146.5662 53.6005 62.6471 -13.6762 14.4691 24.7449
# 2 53.6005 87.6791 42.4017 -20.2191 24.2515 -3.1367
# 3 62.6471 42.4017 135.4113 -14.3106 21.9620 12.7148
# 4 -13.6762 -20.2191 -14.3106 36.5437 -5.2498 2.1312
# 5 14.4691 24.2515 21.9620 -5.2498 51.7886 -13.6680
# 6 24.7449 -3.1367 12.7148 2.1312 -13.6680 37.7464
#
#
#
# Elastic Compliance Matrix: (Units=1/GPa)
#
#
# Indices 1 2 3 4 5 6 
#
# 1 0.011400 -0.005489 -0.002545 0.000462 -0.001506 -0.007644
# 2 -0.005489 0.018784 -0.002265 0.006563 -0.004612 0.003882
# 3 -0.002545 -0.002265 0.010273 0.001535 -0.003289 -0.003258
# 4 0.000462 0.006563 0.001535 0.031730 -0.001307 -0.002540
# 5 -0.001506 -0.004612 -0.003289 -0.001307 0.026120 0.011244
# 6 -0.007644 0.003882 -0.003258 -0.002540 0.011244 0.037139
#
#
# Mechanical properties :
#
#
# Convention : Reuss Voigt Hill
#
# Bulk Modulus (GPa) = 50.35282 76.32833 63.34058
# Shear Modulus (GPa) = 30.73830 39.28290 35.01060
#
# Velocity S-wave (km/s) = 3.71075 4.19492 3.96024
# Velocity P-wave (km/s) = 6.39654 7.59312 7.02037
#
# Compressibility (1/GPa) = 0.01985986
#
# Stress axis : x y z
#
# Youngs Moduli (GPa) = 87.71770 53.23592 97.34161
#
# Poissons Ratio (x) = 0.29221 0.24769
# Poissons Ratio (y) = 0.48147 0.22052
# Poissons Ratio (z) = 0.22320 0.12060
#
# Static dielectric constant tensor:
#      x y z
#    x 1.795400 -0.016430 -0.033360 
#    y -0.016430 1.855120 0.003760 
#    z -0.033360 0.003760 1.818020 
# 
# From -- ./inp_files/391784.got.cif
#   From: 2010.05.17/outbox.cif.g08.bks.cpg/sg2_196_cif.got.tgz:391784.got - 2010.06.03 11:33:40.
