data_PCOD9038863
_publ_section_title
;
Structure prediction by ZEFSAII (Michael W. Deem and Ramdas Pophale) SiO2 
 PCOD9038863
Probable space group: P -1
;
_chemical_formula_sum "Si O2"
_cell_formula_units_Z 10
_cell_length_a 9.255450
_cell_length_b 12.984962
_cell_length_c 8.942856
_cell_angle_alpha 60.120842
_cell_angle_beta 132.948698
_cell_angle_gamma 146.009525
_cell_volume 433.912994
_symmetry_space_group_name_H-M "P -1"
_symmetry_group_IT_number 2
_symmetry_cell_setting 'triclinic'
loop_
_space_group_symop_operation_xyz
x,y,z
-x,-y,-z
loop_
_atom_site_type_symbol
_atom_site_label
_atom_site_fract_x
_atom_site_fract_y
_atom_site_fract_z
Si Si1 0.271402 0.554668 0.232237
Si Si2 0.106805 0.776185 0.570754
Si Si3 0.569437 0.597140 0.134506
Si Si4 0.294175 0.018749 0.787394
Si Si5 0.716576 0.921409 0.946066
O O1 0.388051 0.506033 0.232945
O O2 0.522350 0.775920 0.275951
O O3 0.111318 0.423355 0.359256
O O4 0.000000 0.500000 0.000000
O O5 0.462833 0.896158 0.722050
O O6 0.926261 0.732293 0.328159
O O7 0.112633 0.887542 0.611854
O O8 0.500000 0.500000 0.000000
O O9 0.515291 0.710554 0.985275
O O10 0.137346 0.972202 0.869102
O O11 0.500000 0.000000 0.000000
O O12 0.000000 0.000000 0.000000
#
# Coordination Sequence:
#
# PCOD9038863 Si02
#       5
#     2   2   2   2   2
#     4  11  20  42  69  99 127 168 226 270 321 400
#     4  11  23  45  69  94 133 178 215 275 329 378
#     4  11  26  43  64  98 134 174 221 269 332 390
#     4   9  19  38  69  94 128 168 218 266 326 389
#     4  10  23  42  64 101 133 166 222 268 328 399
#
# _framework density 23.046095999999999
#
# number of rings (size 3 to 8) (size 9 to 14) (size 15 to 20)
#    0.000    1.600    6.000    0.600    2.800    4.800 
#    3.600    0.000    0.000    0.000    0.000    0.000 
#    0.000    0.000    0.000    0.000    0.000    0.000 
#
# Total GULP energy -55717.161326 kJ/mol
# GULP energy per Si atom -5571.716133 kJ/mol
# Density = 2.299364 g / cm^3
# Si number density = 23.046096 Si / 1000 Ang^3
#
#
#
# Elastic Constant Matrix: (Units=GPa)
#
#
# Indices 1 2 3 4 5 6 
#
# 1 157.8536 32.4008 54.3081 14.3194 5.2833 3.3494
# 2 32.4008 80.7653 28.9093 5.1815 -6.8939 -10.7504
# 3 54.3081 28.9093 152.6225 29.0668 9.4115 -19.6821
# 4 14.3194 5.1815 29.0668 24.0220 -9.7107 -6.7299
# 5 5.2833 -6.8939 9.4115 -9.7107 38.7313 13.3237
# 6 3.3494 -10.7504 -19.6821 -6.7299 13.3237 40.6295
#
#
#
# Elastic Compliance Matrix: (Units=1/GPa)
#
#
# Indices 1 2 3 4 5 6 
#
# 1 0.007924 -0.002674 -0.002074 -0.002693 -0.000858 -0.002530
# 2 -0.002674 0.014719 -0.002425 0.003477 0.003647 0.002320
# 3 -0.002074 -0.002425 0.011723 -0.014291 -0.008518 0.005635
# 4 -0.002693 0.003477 -0.014291 0.068249 0.022171 -0.001746
# 5 -0.000858 0.003647 -0.008518 0.022171 0.038339 -0.011991
# 6 -0.002530 0.002320 0.005635 -0.001746 -0.011991 0.031808
#
#
# Mechanical properties :
#
#
# Convention : Reuss Voigt Hill
#
# Bulk Modulus (GPa) = 49.94500 69.16419 59.55460
# Shear Modulus (GPa) = 25.80267 39.05146 32.42707
#
# Velocity S-wave (km/s) = 3.34969 4.12089 3.75514
# Velocity P-wave (km/s) = 6.05635 7.26076 6.68573
#
# Compressibility (1/GPa) = 0.02002202
#
# Stress axis : x y z
#
# Youngs Moduli (GPa) = 126.20039 67.93856 85.30424
#
# Poissons Ratio (x) = 0.18166 0.17688
# Poissons Ratio (y) = 0.33744 0.20682
# Poissons Ratio (z) = 0.26168 0.16472
#
# Static dielectric constant tensor:
#      x y z
#    x 2.119290 0.226390 -0.011670 
#    y 0.226390 2.165220 -0.018670 
#    z -0.011670 -0.018670 1.903910 
# 
# From -- ./inp_files/144106.got.cif
#   From: 2010.05.17/outbox.cif.g08.bks.cpg/sg2_73_cif.got.tgz:144106.got - 2010.06.03 11:33:40.
