data_PCOD9038871
_publ_section_title
;
Structure prediction by ZEFSAII (Michael W. Deem and Ramdas Pophale) SiO2 
 PCOD9038871
Probable space group: P -1
;
_chemical_formula_sum "Si O2"
_cell_formula_units_Z 14
_cell_length_a 7.529482
_cell_length_b 15.229430
_cell_length_c 10.957689
_cell_angle_alpha 141.276351
_cell_angle_beta 123.076925
_cell_angle_gamma 47.105722
_cell_volume 575.557252
_symmetry_space_group_name_H-M "P -1"
_symmetry_group_IT_number 2
_symmetry_cell_setting 'triclinic'
loop_
_space_group_symop_operation_xyz
x,y,z
-x,-y,-z
loop_
_atom_site_type_symbol
_atom_site_label
_atom_site_fract_x
_atom_site_fract_y
_atom_site_fract_z
Si Si1 0.172563 0.639849 0.799674
Si Si2 0.217951 0.311100 0.476554
Si Si3 0.374445 0.927755 0.787760
Si Si4 0.834335 0.781463 0.388683
Si Si5 0.636307 0.516899 0.687581
Si Si6 0.602892 0.826178 0.096754
Si Si7 0.870854 0.047570 0.801149
O O1 0.121749 0.498348 0.668652
O O2 0.448886 0.555414 0.769393
O O3 0.993680 0.711247 0.692775
O O4 0.139122 0.780906 0.030003
O O5 0.436179 0.238658 0.382876
O O6 0.292921 0.227450 0.544053
O O7 0.301185 0.056469 0.789598
O O8 0.159063 0.928648 0.784567
O O9 0.500000 0.000000 0.000000
O O10 0.725382 0.756764 0.197808
O O11 0.109524 0.639389 0.357791
O O12 0.802958 0.960255 0.575008
O O13 0.500000 0.500000 0.500000
O O14 0.660307 0.678849 0.868556
O O15 0.313367 0.923549 0.124965
#
# Coordination Sequence:
#
# PCOD9038871 Si02
#       7
#     2   2   2   2   2   2   2
#     4  10  23  42  64 107 137 178 237 294 341 415
#     4  11  23  41  70 100 145 180 232 292 356 408
#     4  12  26  42  75 106 138 185 242 295 352 413
#     4  12  25  47  72 100 149 189 230 291 359 419
#     4  11  24  42  73 103 135 187 237 290 350 418
#     4  11  28  48  68 105 149 184 234 292 355 424
#     4  11  25  45  72 101 143 186 236 292 351 421
#
# _framework density 24.324254
#
# number of rings (size 3 to 8) (size 9 to 14) (size 15 to 20)
#    0.000    0.857    4.286    1.714    6.000    1.714 
#    2.571    1.429    0.000    0.000    0.000    0.000 
#    0.000    0.000    0.000    0.000    0.000    0.000 
#
# Total GULP energy -78248.974427 kJ/mol
# GULP energy per Si atom -5589.212459 kJ/mol
# Density = 2.426889 g / cm^3
# Si number density = 24.324254 Si / 1000 Ang^3
#
#
#
# Elastic Constant Matrix: (Units=GPa)
#
#
# Indices 1 2 3 4 5 6 
#
# 1 88.6623 35.1112 20.6709 6.5923 -24.2480 -28.9295
# 2 35.1112 99.5091 47.0529 -2.3432 -10.2793 3.2724
# 3 20.6709 47.0529 173.8390 20.1667 1.4445 4.6649
# 4 6.5923 -2.3432 20.1667 43.9637 -0.7403 -9.5946
# 5 -24.2480 -10.2793 1.4445 -0.7403 42.8141 14.9239
# 6 -28.9295 3.2724 4.6649 -9.5946 14.9239 31.4849
#
#
#
# Elastic Compliance Matrix: (Units=1/GPa)
#
#
# Indices 1 2 3 4 5 6 
#
# 1 0.021814 -0.007284 -0.001328 0.001284 0.003854 0.019562
# 2 -0.007284 0.014635 -0.003058 0.001464 0.002476 -0.008488
# 3 -0.001328 -0.003058 0.007275 -0.003922 -0.000830 -0.002782
# 4 0.001284 0.001464 -0.003922 0.026739 -0.002070 0.010738
# 5 0.003854 0.002476 -0.000830 -0.002070 0.030138 -0.011509
# 6 0.019562 -0.008488 -0.002782 0.010738 -0.011509 0.059758
#
#
# Mechanical properties :
#
#
# Convention : Reuss Voigt Hill
#
# Bulk Modulus (GPa) = 49.05879 63.07558 56.06719
# Shear Modulus (GPa) = 26.24765 40.93090 33.58927
#
# Velocity S-wave (km/s) = 3.28849 4.10655 3.72007
# Velocity P-wave (km/s) = 5.88484 6.96221 6.44607
#
# Compressibility (1/GPa) = 0.02038371
#
# Stress axis : x y z
#
# Youngs Moduli (GPa) = 45.84116 68.33127 137.46585
#
# Poissons Ratio (x) = 0.49772 0.18260
# Poissons Ratio (y) = 0.33391 0.42032
# Poissons Ratio (z) = 0.06089 0.20893
#
# Static dielectric constant tensor:
#      x y z
#    x 1.999040 0.026070 0.036830 
#    y 0.026070 1.979260 0.057780 
#    z 0.036830 0.057780 1.926220 
# 
# From -- ./inp_files/341999.got.cif
#   From: 2010.05.17/outbox.cif.g08.bks.cpg/sg2_171_cif.got.tgz:341999.got - 2010.06.03 11:33:40.
