data_PCOD9038969
_publ_section_title
;
Structure prediction by ZEFSAII (Michael W. Deem and Ramdas Pophale) SiO2 
 PCOD9038969
Probable space group: P -1
;
_chemical_formula_sum "Si O2"
_cell_formula_units_Z 16
_cell_length_a 8.919561
_cell_length_b 10.659884
_cell_length_c 12.236928
_cell_angle_alpha 115.005434
_cell_angle_beta 129.984009
_cell_angle_gamma 56.289284
_cell_volume 737.603413
_symmetry_space_group_name_H-M "P -1"
_symmetry_group_IT_number 2
_symmetry_cell_setting 'triclinic'
loop_
_space_group_symop_operation_xyz
x,y,z
-x,-y,-z
loop_
_atom_site_type_symbol
_atom_site_label
_atom_site_fract_x
_atom_site_fract_y
_atom_site_fract_z
Si Si1 0.900609 0.802808 0.330404
Si Si2 0.071624 0.042159 0.810005
Si Si3 0.450243 0.848914 0.035049
Si Si4 0.543585 0.821930 0.461894
Si Si5 0.657584 0.388231 0.618553
Si Si6 0.298097 0.757595 0.133667
Si Si7 0.483384 0.559942 0.821532
Si Si8 0.998884 0.751955 0.616706
O O1 0.926530 0.927622 0.307726
O O2 0.663249 0.825712 0.192294
O O3 0.099687 0.658200 0.322263
O O4 0.944039 0.792391 0.476819
O O5 0.907961 0.175188 0.858594
O O6 0.008266 0.899605 0.732233
O O7 0.306992 0.996695 0.953328
O O8 0.280724 0.841718 0.043402
O O9 0.509177 0.707817 0.928789
O O10 0.407307 0.757564 0.452462
O O11 0.477288 0.782742 0.299130
O O12 0.796421 0.730204 0.563803
O O13 0.500000 0.000000 0.500000
O O14 0.500000 0.500000 0.500000
O O15 0.605703 0.482266 0.740331
O O16 0.400376 0.578754 0.092402
O O17 0.229213 0.615768 0.697214
#
# Coordination Sequence:
#
# PCOD9038969 Si02
#       8
#     2   2   2   2   2   2   2   2
#     4  12  22  40  65  93 129 171 211 266 324 380
#     4  11  23  42  62  93 130 169 208 275 321 380
#     4  11  25  40  63  90 125 168 228 249 319 386
#     4  11  21  40  66  98 128 166 217 266 320 383
#     4  11  23  42  66  96 136 169 206 270 338 378
#     4  11  21  42  66  87 129 167 212 267 326 372
#     4  10  23  42  65  90 128 164 214 264 321 381
#     4  11  22  39  69  96 124 162 219 264 322 386
#
# _framework density 21.691873000000001
#
# number of rings (size 3 to 8) (size 9 to 14) (size 15 to 20)
#    0.000    1.000    6.250    1.500    0.000    3.500 
#    0.000    0.000    0.000    0.000    0.000    0.000 
#    0.000    0.000    0.000    0.000    0.000    0.000 
#
# Total GULP energy -89149.275035 kJ/mol
# GULP energy per Si atom -5571.829690 kJ/mol
# Density = 2.164250 g / cm^3
# Si number density = 21.691873 Si / 1000 Ang^3
#
#
#
# Elastic Constant Matrix: (Units=GPa)
#
#
# Indices 1 2 3 4 5 6 
#
# 1 90.2606 24.8502 30.0510 -8.9804 8.6098 -17.8344
# 2 24.8502 90.0538 13.4734 -1.8103 14.4219 -22.7869
# 3 30.0510 13.4734 59.8643 -10.2409 15.5397 -17.5741
# 4 -8.9804 -1.8103 -10.2409 31.6896 -8.9618 3.3720
# 5 8.6098 14.4219 15.5397 -8.9618 29.1986 -11.9486
# 6 -17.8344 -22.7869 -17.5741 3.3720 -11.9486 32.9954
#
#
#
# Elastic Compliance Matrix: (Units=1/GPa)
#
#
# Indices 1 2 3 4 5 6 
#
# 1 0.014428 -0.002532 -0.005825 0.002323 0.002252 0.003526
# 2 -0.002532 0.014223 0.001162 -0.001542 -0.004218 0.007703
# 3 -0.005825 0.001162 0.024074 0.003246 -0.007656 0.007372
# 4 0.002323 -0.001542 0.003246 0.035837 0.010137 0.001929
# 5 0.002252 -0.004218 -0.007656 0.010137 0.047037 0.010224
# 6 0.003526 0.007703 0.007372 0.001929 0.010224 0.044965
#
#
# Mechanical properties :
#
#
# Convention : Reuss Voigt Hill
#
# Bulk Modulus (GPa) = 26.08508 41.88087 33.98297
# Shear Modulus (GPa) = 24.06946 30.23033 27.14990
#
# Velocity S-wave (km/s) = 3.33469 3.73718 3.54166
# Velocity P-wave (km/s) = 5.18443 6.16207 5.69427
#
# Compressibility (1/GPa) = 0.03833609
#
# Stress axis : x y z
#
# Youngs Moduli (GPa) = 69.30744 70.30906 41.53904
#
# Poissons Ratio (x) = 0.17801 0.24197
# Poissons Ratio (y) = 0.17547 -0.04828
# Poissons Ratio (z) = 0.40372 -0.08173
#
# Static dielectric constant tensor:
#      x y z
#    x 1.863310 0.057120 0.001060 
#    y 0.057120 1.889200 -0.068450 
#    z 0.001060 -0.068450 1.797600 
# 
# From -- ./inp_files/223699.got.cif
#   From: 2010.05.17/outbox.cif.g08.bks.cpg/sg2_112_cif.got.tgz:223699.got - 2010.06.03 11:33:40.
