data_PCOD9038244
_publ_section_title
;
Structure prediction by ZEFSAII (Michael W. Deem and Ramdas Pophale) SiO2 
 PCOD9038244
Probable space group: P -1
;
_chemical_formula_sum "Si O2"
_cell_formula_units_Z 14
_cell_length_a 13.849005
_cell_length_b 6.603249
_cell_length_c 25.979274
_cell_angle_alpha 130.687216
_cell_angle_beta 159.801859
_cell_angle_gamma 51.652002
_cell_volume 621.662183
_symmetry_space_group_name_H-M "P -1"
_symmetry_group_IT_number 2
_symmetry_cell_setting 'triclinic'
loop_
_space_group_symop_operation_xyz
x,y,z
-x,-y,-z
loop_
_atom_site_type_symbol
_atom_site_label
_atom_site_fract_x
_atom_site_fract_y
_atom_site_fract_z
Si Si1 0.256913 0.163315 0.437826
Si Si2 0.463677 0.932347 0.339914
Si Si3 0.861165 0.390710 0.629924
Si Si4 0.285265 0.819222 0.124043
Si Si5 0.853180 0.782345 0.041717
Si Si6 0.858369 0.710365 0.153734
Si Si7 0.470353 0.246905 0.878509
O O1 0.372744 0.253739 0.566426
O O2 0.184075 0.391819 0.399485
O O3 0.500000 0.000000 0.500000
O O4 0.975303 0.995690 0.277148
O O5 0.480271 0.921367 0.284616
O O6 0.141531 0.882553 0.180431
O O7 0.596533 0.207373 0.469117
O O8 0.145951 0.239512 0.728052
O O9 0.935376 0.478205 0.739683
O O10 0.445702 0.801467 0.146944
O O11 0.213865 0.519765 0.057766
O O12 0.000000 0.000000 0.000000
O O13 0.890714 0.742591 0.114809
O O14 0.626077 0.011356 0.950175
O O15 0.572564 0.551592 0.991103
#
# Coordination Sequence:
#
# PCOD9038244 Si02
#       7
#     2   2   2   2   2   2   2
#     4  11  24  40  66  97 136 169 215 271 323 381
#     4  11  25  41  67  99 128 168 221 274 322 383
#     4  11  27  42  64  98 139 174 211 268 335 385
#     4  11  25  42  72  98 124 169 226 272 321 385
#     4  11  23  41  71  96 127 167 226 273 319 381
#     4  10  23  41  67  96 130 173 219 261 324 387
#     4  11  25  44  66  96 134 174 219 267 325 394
#
# _framework density 22.52027
#
# number of rings (size 3 to 8) (size 9 to 14) (size 15 to 20)
#    0.000    1.143    2.857    1.714    4.000    7.429 
#    0.000    1.429    0.000    0.000    0.000    0.000 
#    0.000    0.000    0.000    0.000    0.000    0.000 
#
# Total GULP energy -78049.776675 kJ/mol
# GULP energy per Si atom -5574.984048 kJ/mol
# Density = 2.246901 g / cm^3
# Si number density = 22.520270 Si / 1000 Ang^3
#
#
#
# Elastic Constant Matrix: (Units=GPa)
#
#
# Indices 1 2 3 4 5 6 
#
# 1 139.3244 28.5400 36.0335 -18.7740 -10.2129 28.9536
# 2 28.5400 95.3009 15.4975 -23.1601 0.8973 25.9705
# 3 36.0335 15.4975 48.0724 -16.9052 -23.6137 2.5084
# 4 -18.7740 -23.1601 -16.9052 34.8618 11.8348 -2.8973
# 5 -10.2129 0.8973 -23.6137 11.8348 53.8955 -6.2885
# 6 28.9536 25.9705 2.5084 -2.8973 -6.2885 28.0546
#
#
#
# Elastic Compliance Matrix: (Units=1/GPa)
#
#
# Indices 1 2 3 4 5 6 
#
# 1 0.012892 0.003470 -0.010998 0.004358 -0.005289 -0.016269
# 2 0.003470 0.019625 -0.007508 0.012241 -0.008172 -0.021645
# 3 -0.010998 -0.007508 0.040389 0.004492 0.016962 0.018956
# 4 0.004358 0.012241 0.004492 0.043079 -0.008466 -0.013680
# 5 -0.005289 -0.008172 0.016962 -0.008466 0.028978 0.017128
# 6 -0.016269 -0.021645 0.018956 -0.013680 0.017128 0.073204
#
#
# Mechanical properties :
#
#
# Convention : Reuss Voigt Hill
#
# Bulk Modulus (GPa) = 23.34635 49.20441 36.27538
# Shear Modulus (GPa) = 19.04641 36.87083 27.95862
#
# Velocity S-wave (km/s) = 2.91132 4.05066 3.52730
# Velocity P-wave (km/s) = 4.65730 6.61615 5.72118
#
# Compressibility (1/GPa) = 0.04283325
#
# Stress axis : x y z
#
# Youngs Moduli (GPa) = 77.56924 50.95527 24.75923
#
# Poissons Ratio (x) = -0.17683 0.27231
# Poissons Ratio (y) = -0.26919 0.18589
# Poissons Ratio (z) = 0.85315 0.38257
#
# Static dielectric constant tensor:
#      x y z
#    x 1.877740 -0.009490 -0.042890 
#    y -0.009490 1.890570 -0.010690 
#    z -0.042890 -0.010690 1.837850 
# 
# From -- ./inp_files/27914.got.cif
#   From: 2010.05.17/outbox.cif.g08.bks.cpg/sg2_14_cif.got.tgz:27914.got - 2010.06.03 11:33:40.
