data_PCOD9038475
_publ_section_title
;
Structure prediction by ZEFSAII (Michael W. Deem and Ramdas Pophale) SiO2 
 PCOD9038475
Probable space group: P -1
;
_chemical_formula_sum "Si O2"
_cell_formula_units_Z 15
_cell_length_a 9.935346
_cell_length_b 15.005991
_cell_length_c 20.837359
_cell_angle_alpha 19.514501
_cell_angle_beta 45.297747
_cell_angle_gamma 45.500881
_cell_volume 728.159692
_symmetry_space_group_name_H-M "P -1"
_symmetry_group_IT_number 2
_symmetry_cell_setting 'triclinic'
loop_
_space_group_symop_operation_xyz
x,y,z
-x,-y,-z
loop_
_atom_site_type_symbol
_atom_site_label
_atom_site_fract_x
_atom_site_fract_y
_atom_site_fract_z
Si Si1 0.299026 0.399464 0.933309
Si Si2 0.009673 0.459835 0.447834
Si Si3 0.000000 0.000000 0.000000
Si Si4 0.064654 0.343955 0.311489
Si Si5 0.739308 0.848400 0.093038
Si Si6 0.071102 0.207671 0.256637
Si Si7 0.637524 0.718561 0.631743
Si Si8 0.669626 0.153032 0.780300
O O1 0.494791 0.512607 0.801507
O O2 0.141125 0.627063 0.798738
O O3 0.211548 0.318460 0.084762
O O4 0.320047 0.134925 0.062279
O O5 0.205771 0.280148 0.478190
O O6 0.000000 0.500000 0.500000
O O7 0.829057 0.313410 0.591219
O O8 0.995995 0.743084 0.224146
O O9 0.212347 0.036774 0.933078
O O10 0.128034 0.263802 0.272286
O O11 0.234620 0.357768 0.295508
O O12 0.928508 0.632084 0.161687
O O13 0.947509 0.105864 0.533416
O O14 0.549800 0.709885 0.248025
O O15 0.709732 0.077437 0.892704
O O16 0.500000 0.000000 0.500000
#
# Coordination Sequence:
#
# PCOD9038475 Si02
#       8
#     2   2   1   2   2   2   2   2
#     4  11  23  43  69 100 138 184 237 280 364 428
#     4  12  27  48  75 105 146 193 240 305 362 428
#     4  12  24  48  70 108 144 184 242 296 362 432
#     4  11  22  45  68 102 141 178 233 293 353 420
#     4  11  24  43  73 102 139 183 235 295 349 435
#     4  10  23  41  69  99 135 183 230 290 345 429
#     4  12  26  45  72 101 145 190 234 295 362 425
#     4  11  25  45  72 102 140 189 237 287 371 426
#
# _framework density 20.599876999999999
#
# number of rings (size 3 to 8) (size 9 to 14) (size 15 to 20)
#    0.000    0.800    5.333    1.600    3.733    1.067 
#    2.400    0.000    0.000    0.000    0.000    0.000 
#    0.000    0.000    0.000    0.000    0.000    0.000 
#
# Total GULP energy -83595.709346 kJ/mol
# GULP energy per Si atom -5573.047290 kJ/mol
# Density = 2.055299 g / cm^3
# Si number density = 20.599877 Si / 1000 Ang^3
#
#
#
# Elastic Constant Matrix: (Units=GPa)
#
#
# Indices 1 2 3 4 5 6 
#
# 1 146.7125 47.7257 28.0324 13.6895 -6.6295 -7.8522
# 2 47.7257 86.4204 20.2432 12.6546 6.8192 -6.3790
# 3 28.0324 20.2432 89.1447 11.7077 -4.9829 -7.8398
# 4 13.6895 12.6546 11.7077 26.2393 -10.8192 0.7751
# 5 -6.6295 6.8192 -4.9829 -10.8192 34.6058 4.4870
# 6 -7.8522 -6.3790 -7.8398 0.7751 4.4870 28.5339
#
#
#
# Elastic Compliance Matrix: (Units=1/GPa)
#
#
# Indices 1 2 3 4 5 6 
#
# 1 0.008760 -0.004452 -0.001438 -0.001004 0.001938 0.000743
# 2 -0.004452 0.016347 -0.001361 -0.008033 -0.007223 0.003409
# 3 -0.001438 -0.001361 0.012814 -0.004357 0.000096 0.002924
# 4 -0.001004 -0.008033 -0.004357 0.052109 0.018030 -0.007520
# 5 0.001938 -0.007223 0.000096 0.018030 0.037303 -0.007411
# 6 0.000743 0.003409 0.002924 -0.007520 -0.007411 0.038186
#
#
# Mechanical properties :
#
#
# Convention : Reuss Voigt Hill
#
# Bulk Modulus (GPa) = 42.70169 57.14225 49.92197
# Shear Modulus (GPa) = 26.62024 32.96086 29.79055
#
# Velocity S-wave (km/s) = 3.59869 4.00440 3.80696
# Velocity P-wave (km/s) = 6.16778 7.01282 6.60383
#
# Compressibility (1/GPa) = 0.02341828
#
# Stress axis : x y z
#
# Youngs Moduli (GPa) = 114.15384 61.17469 78.04081
#
# Poissons Ratio (x) = 0.27235 0.11224
# Poissons Ratio (y) = 0.50820 0.10622
# Poissons Ratio (z) = 0.16417 0.08326
#
# Static dielectric constant tensor:
#      x y z
#    x 1.748390 0.025910 -0.019420 
#    y 0.025910 1.779070 -0.029590 
#    z -0.019420 -0.029590 1.717950 
# 
# From -- ./inp_files/242720.got.cif
#   From: 2010.05.17/outbox.cif.g08.bks.cpg/sg2_122_cif.got.tgz:242720.got - 2010.06.03 11:33:40.
