data_PCOD9038438
_publ_section_title
;
Structure prediction by ZEFSAII (Michael W. Deem and Ramdas Pophale) SiO2 
 PCOD9038438
Probable space group: P -1
;
_chemical_formula_sum "Si O2"
_cell_formula_units_Z 16
_cell_length_a 9.277090
_cell_length_b 21.724753
_cell_length_c 9.467501
_cell_angle_alpha 27.720530
_cell_angle_beta 122.956858
_cell_angle_gamma 123.039542
_cell_volume 734.775475
_symmetry_space_group_name_H-M "P -1"
_symmetry_group_IT_number 2
_symmetry_cell_setting 'triclinic'
loop_
_space_group_symop_operation_xyz
x,y,z
-x,-y,-z
loop_
_atom_site_type_symbol
_atom_site_label
_atom_site_fract_x
_atom_site_fract_y
_atom_site_fract_z
Si Si1 0.616207 0.918517 0.318941
Si Si2 0.137947 0.925734 0.651871
Si Si3 0.684860 0.035757 0.605665
Si Si4 0.440626 0.602841 0.575448
Si Si5 0.104735 0.612187 0.225132
Si Si6 0.231132 0.164347 0.704951
Si Si7 0.104835 0.694199 0.753182
Si Si8 0.636445 0.357255 0.229510
O O1 0.760131 0.877528 0.370339
O O2 0.490611 0.784422 0.571745
O O3 0.690788 0.019228 0.277472
O O4 0.500000 0.000000 0.000000
O O5 0.173962 0.983545 0.398122
O O6 0.087703 0.765072 0.949406
O O7 0.000000 0.000000 0.500000
O O8 0.500000 0.000000 0.500000
O O9 0.732564 0.193440 0.340749
O O10 0.730219 0.955041 0.930619
O O11 0.306669 0.603979 0.375448
O O12 0.602273 0.721642 0.415143
O O13 0.341074 0.621011 0.633596
O O14 0.523690 0.468816 0.895825
O O15 0.000000 0.500000 0.500000
O O16 0.059731 0.602006 0.055288
O O17 0.057866 0.227113 0.519290
O O18 0.184847 0.632427 0.784428
#
# Coordination Sequence:
#
# PCOD9038438 Si02
#       8
#     2   2   2   2   2   2   2   2
#     4  11  21  39  67  95 127 172 221 269 329 399
#     4  11  24  41  65  98 129 168 220 271 330 390
#     4  11  22  41  65  95 137 170 211 274 335 394
#     4  10  24  44  67  91 133 180 222 268 345 405
#     4  11  26  45  67  95 139 180 220 280 338 397
#     4  11  23  41  68  98 133 173 217 282 335 398
#     4  11  24  42  65  99 131 171 227 278 334 394
#     4  10  23  41  69  94 131 173 227 275 332 407
#
# _framework density 21.775359999999999
#
# number of rings (size 3 to 8) (size 9 to 14) (size 15 to 20)
#    0.000    1.250    0.000    7.125    7.000    3.000 
#    2.250    0.000    0.000    0.000    0.000    0.000 
#    0.000    0.000    0.000    0.000    0.000    0.000 
#
# Total GULP energy -89405.600323 kJ/mol
# GULP energy per Si atom -5587.850020 kJ/mol
# Density = 2.172580 g / cm^3
# Si number density = 21.775360 Si / 1000 Ang^3
#
#
#
# Elastic Constant Matrix: (Units=GPa)
#
#
# Indices 1 2 3 4 5 6 
#
# 1 142.0116 23.7405 36.3254 -0.8303 -7.1282 -22.9256
# 2 23.7405 70.4163 20.7875 -3.2046 -11.2052 3.1276
# 3 36.3254 20.7875 102.4331 -4.3959 -28.2272 -1.0548
# 4 -0.8303 -3.2046 -4.3959 34.1557 5.4334 0.9475
# 5 -7.1282 -11.2052 -28.2272 5.4334 34.5071 2.9108
# 6 -22.9256 3.1276 -1.0548 0.9475 2.9108 35.1817
#
#
#
# Elastic Compliance Matrix: (Units=1/GPa)
#
#
# Indices 1 2 3 4 5 6 
#
# 1 0.009262 -0.002800 -0.003256 -0.000291 -0.002151 0.006372
# 2 -0.002800 0.016332 -0.001255 0.000786 0.003883 -0.003656
# 3 -0.003256 -0.001255 0.014080 -0.000010 0.010647 -0.002468
# 4 -0.000291 0.000786 -0.000010 0.030077 -0.004490 -0.000699
# 5 -0.002151 0.003883 0.010647 -0.004490 0.039599 -0.004583
# 6 0.006372 -0.003656 -0.002468 -0.000699 -0.004583 0.033225
#
#
# Mechanical properties :
#
#
# Convention : Reuss Voigt Hill
#
# Bulk Modulus (GPa) = 39.91828 52.95196 46.43512
# Shear Modulus (GPa) = 30.20290 36.36943 33.28616
#
# Velocity S-wave (km/s) = 3.72831 4.09125 3.91399
# Velocity P-wave (km/s) = 6.07498 6.83286 6.46504
#
# Compressibility (1/GPa) = 0.02505118
#
# Stress axis : x y z
#
# Youngs Moduli (GPa) = 107.97283 61.22996 71.02287
#
# Poissons Ratio (x) = 0.17144 0.23124
# Poissons Ratio (y) = 0.30232 0.08916
# Poissons Ratio (z) = 0.35154 0.07687
#
# Static dielectric constant tensor:
#      x y z
#    x 1.841000 -0.084350 0.075800 
#    y -0.084350 1.586270 0.347170 
#    z 0.075800 0.347170 1.339710 
# 
# From -- ./inp_files/222894.got.cif
#   From: 2010.05.17/outbox.cif.g08.bks.cpg/sg2_112_cif.got.tgz:222894.got - 2010.06.03 11:33:40.
