data_PCOD9038397
_publ_section_title
;
Structure prediction by ZEFSAII (Michael W. Deem and Ramdas Pophale) SiO2 
 PCOD9038397
Probable space group: P -1
;
_chemical_formula_sum "Si O2"
_cell_formula_units_Z 14
_cell_length_a 18.865425
_cell_length_b 8.621133
_cell_length_c 14.592922
_cell_angle_alpha 139.912233
_cell_angle_beta 20.535472
_cell_angle_gamma 140.354390
_cell_volume 520.847795
_symmetry_space_group_name_H-M "P -1"
_symmetry_group_IT_number 2
_symmetry_cell_setting 'triclinic'
loop_
_space_group_symop_operation_xyz
x,y,z
-x,-y,-z
loop_
_atom_site_type_symbol
_atom_site_label
_atom_site_fract_x
_atom_site_fract_y
_atom_site_fract_z
Si Si1 0.453795 0.533673 0.676101
Si Si2 0.875997 0.261532 0.654715
Si Si3 0.299043 0.687118 0.372411
Si Si4 0.910427 0.037341 0.868575
Si Si5 0.657731 0.001256 0.974629
Si Si6 0.440471 0.385348 0.810237
Si Si7 0.122370 0.158284 0.842608
O O1 0.500000 0.500000 0.500000
O O2 0.490606 0.814997 0.783457
O O3 0.527913 0.387173 0.601863
O O4 0.210194 0.407802 0.906746
O O5 0.090925 0.477110 0.504948
O O6 0.932100 0.117076 0.433464
O O7 0.803269 0.060111 0.734416
O O8 0.689680 0.401097 0.930564
O O9 0.374653 0.596682 0.335620
O O10 0.498969 0.750482 0.089334
O O11 0.260428 0.961182 0.560743
O O12 0.730751 0.859259 0.065562
O O13 0.030302 0.219132 0.884230
O O14 0.796754 0.095578 0.940110
O O15 0.000000 0.000000 0.000000
#
# Coordination Sequence:
#
# PCOD9038397 Si02
#       7
#     2   2   2   2   2   2   2
#     4  11  22  41  63  96 143 169 229 293 323 403
#     4  11  23  48  69 101 147 172 223 298 334 411
#     4  11  24  44  73 102 135 185 228 274 355 406
#     4  11  23  43  71  99 136 181 230 280 344 408
#     4  10  24  44  68 105 137 177 232 283 340 414
#     4  10  23  41  69 101 133 183 228 275 347 408
#     4  12  23  42  70  96 133 186 227 279 345 397
#
# _framework density 26.879252999999999
#
# number of rings (size 3 to 8) (size 9 to 14) (size 15 to 20)
#    0.000    1.143    4.286    1.714    0.000    5.714 
#    0.000    2.143    0.000    0.000    0.000    0.000 
#    0.000    0.000    0.000    0.000    0.000    0.000 
#
# Total GULP energy -78119.178723 kJ/mol
# GULP energy per Si atom -5579.941337 kJ/mol
# Density = 2.681807 g / cm^3
# Si number density = 26.879253 Si / 1000 Ang^3
#
#
#
# Elastic Constant Matrix: (Units=GPa)
#
#
# Indices 1 2 3 4 5 6 
#
# 1 200.6128 32.8009 34.0339 -19.4351 9.2761 -8.3042
# 2 32.8009 88.7092 24.3241 -24.3786 3.6768 -12.6068
# 3 34.0339 24.3241 76.4354 -16.6263 6.6612 -14.0194
# 4 -19.4351 -24.3786 -16.6263 34.1617 -9.1728 7.8899
# 5 9.2761 3.6768 6.6612 -9.1728 49.2271 -13.5935
# 6 -8.3042 -12.6068 -14.0194 7.8899 -13.5935 40.7010
#
#
#
# Elastic Compliance Matrix: (Units=1/GPa)
#
#
# Indices 1 2 3 4 5 6 
#
# 1 0.005642 -0.001230 -0.001833 0.001362 -0.000555 -0.000311
# 2 -0.001230 0.015016 -0.001968 0.008934 0.001752 0.002576
# 3 -0.001833 -0.001968 0.016205 0.004623 0.000202 0.003769
# 4 0.001362 0.008934 0.004623 0.040492 0.005628 -0.001332
# 5 -0.000555 0.001752 0.000202 0.005628 0.023294 0.007188
# 6 -0.000311 0.002576 0.003769 -0.001332 0.007188 0.029261
#
#
# Mechanical properties :
#
#
# Convention : Reuss Voigt Hill
#
# Bulk Modulus (GPa) = 37.31266 60.89725 49.10495
# Shear Modulus (GPa) = 33.57867 43.12451 38.35159
#
# Velocity S-wave (km/s) = 3.53829 4.00982 3.78141
# Velocity P-wave (km/s) = 5.53213 6.64403 6.11341
#
# Compressibility (1/GPa) = 0.02680056
#
# Stress axis : x y z
#
# Youngs Moduli (GPa) = 177.25480 66.59676 61.71055
#
# Poissons Ratio (x) = 0.08193 0.11310
# Poissons Ratio (y) = 0.21807 0.12143
# Poissons Ratio (z) = 0.32487 0.13104
#
# Static dielectric constant tensor:
#      x y z
#    x 2.298220 -0.004240 0.087440 
#    y -0.004240 1.150540 0.231410 
#    z 0.087440 0.231410 2.288530 
# 
# From -- ./inp_files/447982.got.cif
#   From: 2010.05.17/outbox.cif.g08.bks.cpg/sg2_224_cif.got.tgz:447982.got - 2010.06.03 11:33:40.
