data_PCOD9038529
_publ_section_title
;
Structure prediction by ZEFSAII (Michael W. Deem and Ramdas Pophale) SiO2 
 PCOD9038529
Probable space group: P -1
;
_chemical_formula_sum "Si O2"
_cell_formula_units_Z 14
_cell_length_a 18.061568
_cell_length_b 9.216496
_cell_length_c 5.343545
_cell_angle_alpha 123.211962
_cell_angle_beta 55.373886
_cell_angle_gamma 128.792643
_cell_volume 544.408642
_symmetry_space_group_name_H-M "P -1"
_symmetry_group_IT_number 2
_symmetry_cell_setting 'triclinic'
loop_
_space_group_symop_operation_xyz
x,y,z
-x,-y,-z
loop_
_atom_site_type_symbol
_atom_site_label
_atom_site_fract_x
_atom_site_fract_y
_atom_site_fract_z
Si Si1 0.908671 0.609767 0.030245
Si Si2 0.384770 0.086274 0.103383
Si Si3 0.875241 0.259618 0.128978
Si Si4 0.805723 0.869416 0.620889
Si Si5 0.732301 0.285969 0.769444
Si Si6 0.490224 0.291166 0.585024
Si Si7 0.648990 0.522540 0.854357
O O1 0.888314 0.459039 0.160601
O O2 0.874631 0.778352 0.290708
O O3 0.835267 0.467086 0.829683
O O4 0.028124 0.696948 0.843603
O O5 0.293447 0.146522 0.348816
O O6 0.458056 0.168733 0.278983
O O7 0.327780 0.854228 0.023013
O O8 0.441425 0.156430 0.797541
O O9 0.771030 0.171607 0.398649
O O10 0.867459 0.094628 0.792482
O O11 0.750963 0.722998 0.819546
O O12 0.668009 0.368227 0.824800
O O13 0.604975 0.430779 0.579162
O O14 0.435325 0.430002 0.816440
#
# Coordination Sequence:
#
# PCOD9038529 Si02
#       7
#     2   2   2   2   2   2   2
#     4  11  24  42  71 100 138 185 236 290 355 419
#     4  11  24  42  72  98 148 179 242 285 361 409
#     4  11  24  45  65 104 143 177 237 296 351 421
#     4  11  22  46  72 102 136 194 227 294 346 436
#     4  12  23  43  68 104 139 188 229 302 345 434
#     4  10  24  45  64 106 136 194 228 302 342 434
#     4  10  23  41  70  95 144 181 238 282 366 407
#
# _framework density 25.715975
#
# number of rings (size 3 to 8) (size 9 to 14) (size 15 to 20)
#    0.000    1.143    2.857    3.429    0.000    7.429 
#    0.000    1.429    0.000    0.000    0.000    0.000 
#    0.000    0.000    0.000    0.000    0.000    0.000 
#
# Total GULP energy -78459.047175 kJ/mol
# GULP energy per Si atom -5604.217655 kJ/mol
# Density = 2.565744 g / cm^3
# Si number density = 25.715975 Si / 1000 Ang^3
#
#
#
# Elastic Constant Matrix: (Units=GPa)
#
#
# Indices 1 2 3 4 5 6 
#
# 1 146.6508 38.3808 32.8464 10.2761 5.0199 -3.4009
# 2 38.3808 108.2073 25.2524 7.9174 -2.0293 -16.0484
# 3 32.8464 25.2524 81.6028 19.4359 -0.0337 -11.5375
# 4 10.2761 7.9174 19.4359 40.4311 -2.4537 1.9703
# 5 5.0199 -2.0293 -0.0337 -2.4537 36.7842 14.1546
# 6 -3.4009 -16.0484 -11.5375 1.9703 14.1546 42.8852
#
#
#
# Elastic Compliance Matrix: (Units=1/GPa)
#
#
# Indices 1 2 3 4 5 6 
#
# 1 0.008042 -0.002341 -0.002488 -0.000427 -0.001049 -0.000542
# 2 -0.002341 0.011089 -0.001734 -0.000959 -0.000570 0.003730
# 3 -0.002488 -0.001734 0.016114 -0.007109 -0.001929 0.004452
# 4 -0.000427 -0.000959 -0.007109 0.028917 0.003810 -0.004891
# 5 -0.001049 -0.000570 -0.001929 0.003810 0.031994 -0.011550
# 6 -0.000542 0.003730 0.004452 -0.004891 -0.011550 0.029906
#
#
# Mechanical properties :
#
#
# Convention : Reuss Voigt Hill
#
# Bulk Modulus (GPa) = 45.20728 58.82447 52.01587
# Shear Modulus (GPa) = 34.11565 40.01885 37.06725
#
# Velocity S-wave (km/s) = 3.64625 3.94913 3.80071
# Velocity P-wave (km/s) = 5.94512 6.61200 6.28741
#
# Compressibility (1/GPa) = 0.02212033
#
# Stress axis : x y z
#
# Youngs Moduli (GPa) = 124.34677 90.17916 62.05667
#
# Poissons Ratio (x) = 0.21108 0.15440
# Poissons Ratio (y) = 0.29105 0.10759
# Poissons Ratio (z) = 0.30939 0.15635
#
# Static dielectric constant tensor:
#      x y z
#    x 1.992970 0.015740 0.010340 
#    y 0.015740 2.030880 -0.002770 
#    z 0.010340 -0.002770 2.055990 
# 
# From -- ./inp_files/91161.got.cif
#   From: 2010.05.17/outbox.cif.g08.bks.cpg/sg2_46_cif.got.tgz:91161.got - 2010.06.03 11:33:40.
