data_PCOD9038620
_publ_section_title
;
Structure prediction by ZEFSAII (Michael W. Deem and Ramdas Pophale) SiO2 
 PCOD9038620
Probable space group: P -1
;
_chemical_formula_sum "Si O2"
_cell_formula_units_Z 16
_cell_length_a 8.502651
_cell_length_b 11.100642
_cell_length_c 7.846818
_cell_angle_alpha 84.424051
_cell_angle_beta 88.121285
_cell_angle_gamma 122.651352
_cell_volume 617.412785
_symmetry_space_group_name_H-M "P -1"
_symmetry_group_IT_number 2
_symmetry_cell_setting 'triclinic'
loop_
_space_group_symop_operation_xyz
x,y,z
-x,-y,-z
loop_
_atom_site_type_symbol
_atom_site_label
_atom_site_fract_x
_atom_site_fract_y
_atom_site_fract_z
Si Si1 0.002833 0.166713 0.060070
Si Si2 0.638328 0.695968 0.796432
Si Si3 0.600171 0.397531 0.877376
Si Si4 0.240879 0.256477 0.682115
Si Si5 0.935257 0.358294 0.864799
Si Si6 0.270420 0.800602 0.423633
Si Si7 0.719360 0.982675 0.344537
Si Si8 0.718681 0.455384 0.386427
O O1 0.953091 0.288029 0.043127
O O2 0.111686 0.197415 0.869373
O O3 0.804460 0.029190 0.144527
O O4 0.147199 0.179306 0.197323
O O5 0.644146 0.557287 0.869949
O O6 0.497354 0.644434 0.650340
O O7 0.515890 0.706112 0.947638
O O8 0.454336 0.333380 0.735146
O O9 0.789822 0.404818 0.857508
O O10 0.237588 0.388039 0.573271
O O11 0.212660 0.123763 0.591664
O O12 0.844588 0.232225 0.740809
O O13 0.142740 0.485509 0.788648
O O14 0.218299 0.882056 0.551345
O O15 0.228451 0.645088 0.505551
O O16 0.493507 0.899168 0.367041
#
# Coordination Sequence:
#
# PCOD9038620 Si02
#       8
#     2   2   2   2   2   2   2   2
#     4  10  23  41  72 100 131 176 229 281 335 395
#     4   9  20  38  62 104 131 163 227 282 336 388
#     4   9  17  34  63  96 134 163 214 288 334 381
#     4   9  19  44  68 101 129 170 229 284 334 388
#     4  11  22  40  70 102 133 175 226 284 340 396
#     4  11  26  45  63 103 143 178 224 271 338 412
#     4  11  24  46  67  93 142 186 224 271 331 410
#     4  10  23  43  70  97 138 173 224 280 338 400
#
# _framework density 25.914593
#
# number of rings (size 3 to 8) (size 9 to 14) (size 15 to 20)
#    0.000    2.000    1.250    3.000    3.500    2.000 
#    0.000   10.625    0.000    0.000    0.000    0.000 
#    0.000    0.000    0.000    0.000    0.000    0.000 
#
# Total GULP energy -89307.411954 kJ/mol
# GULP energy per Si atom -5581.713247 kJ/mol
# Density = 2.585561 g / cm^3
# Si number density = 25.914593 Si / 1000 Ang^3
#
#
#
# Elastic Constant Matrix: (Units=GPa)
#
#
# Indices 1 2 3 4 5 6 
#
# 1 135.4773 48.7359 24.5469 2.4658 -7.3350 -16.9142
# 2 48.7359 106.1799 49.2965 1.1062 -9.9825 -18.1030
# 3 24.5469 49.2965 72.5880 -2.3549 -2.3172 -0.3302
# 4 2.4658 1.1062 -2.3549 42.7403 4.7458 -6.8926
# 5 -7.3350 -9.9825 -2.3172 4.7458 31.5592 0.8338
# 6 -16.9142 -18.1030 -0.3302 -6.8926 0.8338 35.5707
#
#
#
# Elastic Compliance Matrix: (Units=1/GPa)
#
#
# Indices 1 2 3 4 5 6 
#
# 1 0.009080 -0.003245 -0.000829 -0.000175 0.000981 0.002602
# 2 -0.003245 0.017373 -0.010552 -0.000122 0.003797 0.007088
# 3 -0.000829 -0.010552 0.021163 0.000840 -0.001961 -0.005359
# 4 -0.000175 -0.000122 0.000840 0.024647 -0.003849 0.004728
# 5 0.000981 0.003797 -0.001961 -0.003849 0.033528 0.000849
# 6 0.002602 0.007088 -0.005359 0.004728 0.000849 0.033804
#
#
# Mechanical properties :
#
#
# Convention : Reuss Voigt Hill
#
# Bulk Modulus (GPa) = 54.45419 62.15597 58.30508
# Shear Modulus (GPa) = 28.57672 34.75178 31.66425
#
# Velocity S-wave (km/s) = 3.32434 3.66596 3.49932
# Velocity P-wave (km/s) = 5.98277 6.47734 6.23496
#
# Compressibility (1/GPa) = 0.01836406
#
# Stress axis : x y z
#
# Youngs Moduli (GPa) = 110.13191 57.56051 47.25239
#
# Poissons Ratio (x) = 0.18679 0.03918
# Poissons Ratio (y) = 0.35739 0.49859
# Poissons Ratio (z) = 0.09133 0.60736
#
# Static dielectric constant tensor:
#      x y z
#    x 1.995530 -0.047480 -0.047720 
#    y -0.047480 2.083120 0.054910 
#    z -0.047720 0.054910 2.113190 
# 
# From -- ./inp_files/187540.got.cif
#   From: 2010.05.17/outbox.cif.g08.bks.cpg/sg2_94_cif.got.tgz:187540.got - 2010.06.03 11:33:40.
