data_PCOD9038876
_publ_section_title
;
Structure prediction by ZEFSAII (Michael W. Deem and Ramdas Pophale) SiO2 
 PCOD9038876
Probable space group: P -1
;
_chemical_formula_sum "Si O2"
_cell_formula_units_Z 14
_cell_length_a 25.740670
_cell_length_b 15.263759
_cell_length_c 5.345433
_cell_angle_alpha 76.201203
_cell_angle_beta 75.691882
_cell_angle_gamma 19.757029
_cell_volume 687.806642
_symmetry_space_group_name_H-M "P -1"
_symmetry_group_IT_number 2
_symmetry_cell_setting 'triclinic'
loop_
_space_group_symop_operation_xyz
x,y,z
-x,-y,-z
loop_
_atom_site_type_symbol
_atom_site_label
_atom_site_fract_x
_atom_site_fract_y
_atom_site_fract_z
Si Si1 0.558775 0.356775 0.778071
Si Si2 0.138846 0.028839 0.395729
Si Si3 0.397171 0.310212 0.442674
Si Si4 0.936263 0.341517 0.919341
Si Si5 0.622664 0.847104 0.149507
Si Si6 0.839340 0.295954 0.926594
Si Si7 0.627289 0.497897 0.339655
O O1 0.500000 0.500000 0.500000
O O2 0.478921 0.386445 0.812117
O O3 0.742433 0.077518 0.735885
O O4 0.500000 0.500000 0.000000
O O5 0.037180 0.208662 0.644475
O O6 0.250124 0.767265 0.508771
O O7 0.040109 0.168010 0.165422
O O8 0.348492 0.289474 0.631262
O O9 0.233644 0.600724 0.327544
O O10 0.464515 0.294844 0.498823
O O11 0.528940 0.069869 0.259646
O O12 0.861276 0.365278 0.910022
O O13 0.779194 0.639752 0.985422
O O14 0.500000 0.000000 0.000000
O O15 0.720118 0.431789 0.146166
O O16 0.000000 0.000000 0.000000
#
# Coordination Sequence:
#
# PCOD9038876 Si02
#       7
#     2   2   2   2   2   2   2
#     4  10  23  42  64  90 128 174 222 257 317 393
#     4  11  24  40  63  95 129 174 210 271 325 385
#     4  11  23  39  60  94 130 176 216 262 323 386
#     4  12  23  39  63  92 133 167 211 265 328 385
#     4  11  23  40  61  88 133 176 226 258 313 397
#     4  12  23  35  59  99 136 163 200 264 341 397
#     4  11  23  37  64  92 131 169 209 269 324 392
#
# _framework density 20.354558999999998
#
# number of rings (size 3 to 8) (size 9 to 14) (size 15 to 20)
#    0.000    0.857    4.286    3.429    6.000    1.143 
#    0.000    0.000    0.000    1.714    0.000    0.000 
#    0.000    0.000    0.000    0.000    0.000    0.000 
#
# Total GULP energy -77976.502065 kJ/mol
# GULP energy per Si atom -5569.750148 kJ/mol
# Density = 2.030823 g / cm^3
# Si number density = 20.354559 Si / 1000 Ang^3
#
#
#
# Elastic Constant Matrix: (Units=GPa)
#
#
# Indices 1 2 3 4 5 6 
#
# 1 37.9081 44.0422 11.9420 14.6834 54.1417 -13.0642
# 2 44.0422 96.1385 42.4128 28.6426 11.4197 -9.0420
# 3 11.9420 42.4128 100.7518 16.5555 28.1600 -8.2465
# 4 14.6834 28.6426 16.5555 44.8713 0.3523 1.6962
# 5 54.1417 11.4197 28.1600 0.3523 26.4796 1.4487
# 6 -13.0642 -9.0420 -8.2465 1.6962 1.4487 38.1095
#
#
#
# Elastic Compliance Matrix: (Units=1/GPa)
#
#
# Indices 1 2 3 4 5 6 
#
# 1 -0.007092 0.002418 -0.006965 0.003345 0.021057 -0.004314
# 2 0.002418 0.014464 -0.001822 -0.009454 -0.009373 0.004644
# 3 -0.006965 -0.001822 0.010408 -0.000402 0.004003 -0.000702
# 4 0.003345 -0.009454 -0.000402 0.027482 -0.002573 -0.002309
# 5 0.021057 -0.009373 0.004003 -0.002573 -0.005809 0.006196
# 6 -0.004314 0.004644 -0.000702 -0.002309 0.006196 0.025578
#
#
# Mechanical properties :
#
#
# Convention : Reuss Voigt Hill
#
# Bulk Modulus (GPa) = 198.34905 47.95470 123.15188
# Shear Modulus (GPa) = 62.93131 30.98549 46.95840
#
# Velocity S-wave (km/s) = 5.56639 3.90588 4.80836
# Velocity P-wave (km/s) = 11.78861 6.62964 9.56356
#
# Compressibility (1/GPa) = 0.00504162
#
# Stress axis : x y z
#
# Youngs Moduli (GPa) = -141.00493 69.13483 96.08165
#
# Poissons Ratio (x) = -0.16720 0.66925
# Poissons Ratio (y) = 0.34101 0.17509
# Poissons Ratio (z) = -0.98216 0.12599
#
# Static dielectric constant tensor:
#      x y z
#    x 1.782780 0.104340 0.060870 
#    y 0.104340 1.908370 0.108740 
#    z 0.060870 0.108740 1.895210 
# 
# From -- ./inp_files/124027.got.cif
#   From: 2010.05.17/outbox.cif.g08.bks.cpg/sg2_63_cif.got.tgz:124027.got - 2010.06.03 11:33:40.
