data_PCOD9038606
_publ_section_title
;
Structure prediction by ZEFSAII (Michael W. Deem and Ramdas Pophale) SiO2 
 PCOD9038606
Probable space group: P -1
;
_chemical_formula_sum "Si O2"
_cell_formula_units_Z 16
_cell_length_a 22.862441
_cell_length_b 26.646429
_cell_length_c 9.246935
_cell_angle_alpha 153.943302
_cell_angle_beta 144.944443
_cell_angle_gamma 18.572359
_cell_volume 765.912204
_symmetry_space_group_name_H-M "P -1"
_symmetry_group_IT_number 2
_symmetry_cell_setting 'triclinic'
loop_
_space_group_symop_operation_xyz
x,y,z
-x,-y,-z
loop_
_atom_site_type_symbol
_atom_site_label
_atom_site_fract_x
_atom_site_fract_y
_atom_site_fract_z
Si Si1 0.948302 0.447680 0.651422
Si Si2 0.029105 0.790308 0.418832
Si Si3 0.282601 0.724755 0.601496
Si Si4 0.358708 0.784815 0.324021
Si Si5 0.700332 0.291915 0.738632
Si Si6 0.498861 0.098674 0.127753
Si Si7 0.979996 0.188510 0.220763
Si Si8 0.878710 0.714598 0.738704
O O1 0.722124 0.675001 0.764961
O O2 0.993758 0.285790 0.401132
O O3 0.061602 0.342360 0.456055
O O4 0.000000 0.500000 0.000000
O O5 0.184476 0.709373 0.435409
O O6 0.087657 0.710491 0.494610
O O7 0.846469 0.045195 0.713993
O O8 0.953922 0.755357 0.082097
O O9 0.500000 0.500000 0.500000
O O10 0.229622 0.779767 0.467374
O O11 0.182012 0.936080 0.995416
O O12 0.331306 0.799632 0.482165
O O13 0.432516 0.834103 0.535139
O O14 0.505183 0.544996 0.977251
O O15 0.834605 0.240757 0.980845
O O16 0.500000 0.000000 0.000000
O O17 0.655426 0.913525 0.843603
O O18 0.000000 0.500000 0.500000
#
# Coordination Sequence:
#
# PCOD9038606 Si02
#       8
#     2   2   2   2   2   2   2   2
#     4  12  27  48  71 109 143 183 242 303 357 425
#     4  11  25  44  68  98 138 185 228 290 353 432
#     4  12  27  42  66 106 143 182 237 281 358 434
#     4  10  23  41  71  95 137 180 236 282 362 419
#     4  11  23  42  71 101 136 181 228 293 353 421
#     4  11  24  44  75 102 139 189 241 294 359 426
#     4  12  25  45  69  99 144 182 232 295 357 419
#     4  11  24  48  75 100 138 188 240 291 362 425
#
# _framework density 20.890124
#
# number of rings (size 3 to 8) (size 9 to 14) (size 15 to 20)
#    0.000    0.750    3.750    3.000    8.750    0.500 
#    2.250    0.000    0.000    0.000    0.000    0.000 
#    0.000    0.000    0.000    0.000    0.000    0.000 
#
# Total GULP energy -89245.073858 kJ/mol
# GULP energy per Si atom -5577.817116 kJ/mol
# Density = 2.084258 g / cm^3
# Si number density = 20.890124 Si / 1000 Ang^3
#
#
#
# Elastic Constant Matrix: (Units=GPa)
#
#
# Indices 1 2 3 4 5 6 
#
# 1 207.8283 41.1726 60.0636 -15.1401 -8.9263 8.9725
# 2 41.1726 98.1859 32.0428 6.2909 -9.4264 -20.7876
# 3 60.0636 32.0428 82.3130 2.6205 -2.7844 4.7248
# 4 -15.1401 6.2909 2.6205 36.6794 4.6360 -7.0651
# 5 -8.9263 -9.4264 -2.7844 4.6360 50.6334 0.0986
# 6 8.9725 -20.7876 4.7248 -7.0651 0.0986 41.6888
#
#
#
# Elastic Compliance Matrix: (Units=1/GPa)
#
#
# Indices 1 2 3 4 5 6 
#
# 1 0.006686 -0.001917 -0.004139 0.003074 0.000315 -0.001406
# 2 -0.001917 0.014459 -0.004549 -0.001720 0.002246 0.007841
# 3 -0.004139 -0.004549 0.017237 -0.002849 -0.000360 -0.003813
# 4 0.003074 -0.001720 -0.002849 0.030126 -0.002701 0.003916
# 5 0.000315 0.002246 -0.000360 -0.002701 0.020450 0.000587
# 6 -0.001406 0.007841 -0.003813 0.003916 0.000587 0.029294
#
#
# Mechanical properties :
#
#
# Convention : Reuss Voigt Hill
#
# Bulk Modulus (GPa) = 58.23444 72.76503 65.49973
# Shear Modulus (GPa) = 34.43854 42.80352 38.62103
#
# Velocity S-wave (km/s) = 4.06465 4.53148 4.30440
# Velocity P-wave (km/s) = 7.06863 7.89221 7.49175
#
# Compressibility (1/GPa) = 0.01717197
#
# Stress axis : x y z
#
# Youngs Moduli (GPa) = 149.57234 69.15992 58.01452
#
# Poissons Ratio (x) = 0.13259 0.24011
# Poissons Ratio (y) = 0.28675 0.26392
# Poissons Ratio (z) = 0.61904 0.31462
#
# Static dielectric constant tensor:
#      x y z
#    x 1.829080 -0.021340 -0.050750 
#    y -0.021340 1.766450 0.010770 
#    z -0.050750 0.010770 1.822460 
# 
# From -- ./inp_files/350065.got.cif
#   From: 2010.05.17/outbox.cif.g08.bks.cpg/sg2_176_cif.got.tgz:350065.got - 2010.06.03 11:33:40.
