data_PCOD9038487
_publ_section_title
;
Structure prediction by ZEFSAII (Michael W. Deem and Ramdas Pophale) SiO2 
 PCOD9038487
Probable space group: P -1
;
_chemical_formula_sum "Si O2"
_cell_formula_units_Z 12
_cell_length_a 10.807774
_cell_length_b 5.055264
_cell_length_c 9.205391
_cell_angle_alpha 79.485064
_cell_angle_beta 72.065535
_cell_angle_gamma 84.964923
_cell_volume 470.205154
_symmetry_space_group_name_H-M "P -1"
_symmetry_group_IT_number 2
_symmetry_cell_setting 'triclinic'
loop_
_space_group_symop_operation_xyz
x,y,z
-x,-y,-z
loop_
_atom_site_type_symbol
_atom_site_label
_atom_site_fract_x
_atom_site_fract_y
_atom_site_fract_z
Si Si1 0.540722 0.786811 0.341033
Si Si2 0.203113 0.413236 0.135532
Si Si3 0.174594 0.866930 0.299610
Si Si4 0.031921 0.876729 0.841816
Si Si5 0.273085 0.940960 0.570462
Si Si6 0.572714 0.359766 0.124962
O O1 0.666687 0.798753 0.399270
O O2 0.541001 0.542965 0.256014
O O3 0.408581 0.800258 0.480565
O O4 0.545206 0.057049 0.211903
O O5 0.214335 0.566299 0.269289
O O6 0.057647 0.376805 0.133284
O O7 0.253332 0.102929 0.165417
O O8 0.279904 0.593265 0.980547
O O9 0.189558 0.939020 0.453564
O O10 0.033061 0.913382 0.274288
O O11 0.178007 0.829627 0.738502
O O12 0.000000 0.000000 0.000000
O O13 0.500000 0.500000 0.000000
#
# Coordination Sequence:
#
# PCOD9038487 Si02
#       6
#     2   2   2   2   2   2
#     4  11  27  43  69 101 136 188 220 279 337 400
#     4  10  23  41  70 101 134 173 230 274 344 388
#     4  10  23  44  68 104 132 182 221 278 344 395
#     4  10  24  45  70 102 135 178 226 285 338 400
#     4  11  24  48  67 102 141 178 229 277 338 411
#     4  12  23  45  71 102 139 177 230 279 335 403
#
# _framework density 25.520772000000001
#
# number of rings (size 3 to 8) (size 9 to 14) (size 15 to 20)
#    1.000    0.333    0.000    5.000    2.333    5.333 
#    6.000    0.000    0.000    0.000    0.000    0.000 
#    0.000    0.000    0.000    0.000    0.000    0.000 
#
# Total GULP energy -67018.787760 kJ/mol
# GULP energy per Si atom -5584.898980 kJ/mol
# Density = 2.546269 g / cm^3
# Si number density = 25.520772 Si / 1000 Ang^3
#
#
#
# Elastic Constant Matrix: (Units=GPa)
#
#
# Indices 1 2 3 4 5 6 
#
# 1 72.5428 22.3467 74.7345 4.2820 -5.5203 41.8521
# 2 22.3467 126.8685 46.7520 -11.4253 6.8616 -1.5266
# 3 74.7345 46.7520 180.7228 0.5665 -1.4917 21.3761
# 4 4.2820 -11.4253 0.5665 39.5493 18.6072 -0.7552
# 5 -5.5203 6.8616 -1.4917 18.6072 60.3023 5.5881
# 6 41.8521 -1.5266 21.3761 -0.7552 5.5881 18.1371
#
#
#
# Elastic Compliance Matrix: (Units=1/GPa)
#
#
# Indices 1 2 3 4 5 6 
#
# 1 -0.022924 0.005782 0.001265 0.010425 -0.011108 0.055749
# 2 0.005782 0.008247 -0.003550 0.001779 -0.000276 -0.008304
# 3 0.001265 -0.003550 0.007502 -0.002830 0.002787 -0.013038
# 4 0.010425 0.001779 -0.002830 0.027244 -0.006098 -0.017557
# 5 -0.011108 -0.000276 0.002787 -0.006098 0.015959 0.017153
# 6 0.055749 -0.008304 -0.013038 -0.017557 0.017153 -0.064856
#
#
# Mechanical properties :
#
#
# Convention : Reuss Voigt Hill
#
# Bulk Modulus (GPa) = -5572.04943 74.20005 -2748.92469
# Shear Modulus (GPa) = -139.34952 39.35113 -49.99919
#
# Velocity S-wave (km/s) = -7.39736 3.93100 -4.43104
# Velocity P-wave (km/s) = 47.55039 7.05274 33.25131
#
# Compressibility (1/GPa) = -0.00017947
#
# Stress axis : x y z
#
# Youngs Moduli (GPa) = -43.62335 121.25322 133.29107
#
# Poissons Ratio (x) = -0.70106 -0.16868
# Poissons Ratio (y) = 0.25222 0.47319
# Poissons Ratio (z) = 0.05521 0.43046
#
# Static dielectric constant tensor:
#      x y z
#    x 2.154680 -0.047220 0.037870 
#    y -0.047220 2.006120 -0.023360 
#    z 0.037870 -0.023360 2.006320 
# 
# From -- ./inp_files/229107.got.cif
#   From: 2010.05.17/outbox.cif.g08.bks.cpg/sg2_115_cif.got.tgz:229107.got - 2010.06.03 11:33:40.
