data_PCOD9038369
_publ_section_title
;
Structure prediction by ZEFSAII (Michael W. Deem and Ramdas Pophale) SiO2 
 PCOD9038369
Probable space group: P -1
;
_chemical_formula_sum "Si O2"
_cell_formula_units_Z 14
_cell_length_a 10.767689
_cell_length_b 9.734749
_cell_length_c 8.325982
_cell_angle_alpha 73.874390
_cell_angle_beta 119.999763
_cell_angle_gamma 73.772156
_cell_volume 627.610434
_symmetry_space_group_name_H-M "P -1"
_symmetry_group_IT_number 2
_symmetry_cell_setting 'triclinic'
loop_
_space_group_symop_operation_xyz
x,y,z
-x,-y,-z
loop_
_atom_site_type_symbol
_atom_site_label
_atom_site_fract_x
_atom_site_fract_y
_atom_site_fract_z
Si Si1 0.674845 0.484620 0.560867
Si Si2 0.178894 0.823839 0.038915
Si Si3 0.504859 0.625504 0.087306
Si Si4 0.867674 0.655121 0.762591
Si Si5 0.936626 0.893607 0.588082
Si Si6 0.441199 0.900605 0.722002
Si Si7 0.319811 0.000131 0.275446
O O1 0.500000 0.500000 0.500000
O O2 0.806904 0.306265 0.774790
O O3 0.646967 0.521538 0.342343
O O4 0.734596 0.608029 0.625712
O O5 0.330055 0.724183 0.040368
O O6 0.213812 0.953786 0.108130
O O7 0.008271 0.901243 0.807240
O O8 0.500000 0.500000 0.000000
O O9 0.529088 0.751082 0.949724
O O10 0.965088 0.706616 0.678206
O O11 0.771613 0.818831 0.759267
O O12 0.000000 0.500000 0.000000
O O13 0.746151 0.987395 0.380812
O O14 0.000000 0.000000 0.500000
O O15 0.537209 0.000109 0.738222
O O16 0.405799 0.871407 0.521945
#
# Coordination Sequence:
#
# PCOD9038369 Si02
#       7
#     2   2   2   2   2   2   2
#     4  10  24  42  71 100 137 186 235 283 353 417
#     4  11  23  44  69 100 139 185 236 281 348 429
#     4  11  24  39  66 102 136 179 229 291 344 407
#     4  11  24  46  71 105 142 184 229 299 347 417
#     4  11  23  43  69 102 146 180 231 289 358 408
#     4  10  23  41  68  97 140 177 227 288 347 404
#     4  10  25  42  70 105 134 182 242 281 347 423
#
# _framework density 22.306832
#
# number of rings (size 3 to 8) (size 9 to 14) (size 15 to 20)
#    0.000    1.429    2.857    0.857   16.000    4.000 
#    2.571    0.000    0.000    2.571    0.000    0.000 
#    0.000    0.000    0.000    0.000    0.000    0.000 
#
# Total GULP energy -78014.843866 kJ/mol
# GULP energy per Si atom -5572.488848 kJ/mol
# Density = 2.225606 g / cm^3
# Si number density = 22.306832 Si / 1000 Ang^3
#
#
#
# Elastic Constant Matrix: (Units=GPa)
#
#
# Indices 1 2 3 4 5 6 
#
# 1 76.0513 42.0304 28.6802 -9.6106 -13.3192 29.3574
# 2 42.0304 136.2417 61.3094 20.6521 1.7738 25.9109
# 3 28.6802 61.3094 186.0479 -5.8398 -26.0180 24.5565
# 4 -9.6106 20.6521 -5.8398 41.2312 21.4213 0.4325
# 5 -13.3192 1.7738 -26.0180 21.4213 34.9587 -3.3535
# 6 29.3574 25.9109 24.5565 0.4325 -3.3535 46.4364
#
#
#
# Elastic Compliance Matrix: (Units=1/GPa)
#
#
# Indices 1 2 3 4 5 6 
#
# 1 0.021828 -0.006075 0.000864 0.005981 0.004587 -0.010592
# 2 -0.006075 0.012024 -0.003231 -0.007420 -0.000894 -0.001155
# 3 0.000864 -0.003231 0.007423 -0.000176 0.005911 -0.002240
# 4 0.005981 -0.007420 -0.000176 0.041258 -0.022909 -0.001587
# 5 0.004587 -0.000894 0.005911 -0.022909 0.048663 -0.001799
# 6 -0.010592 -0.001155 -0.002240 -0.001587 -0.001799 0.029945
#
#
# Mechanical properties :
#
#
# Convention : Reuss Voigt Hill
#
# Bulk Modulus (GPa) = 40.99746 73.59787 57.29766
# Shear Modulus (GPa) = 26.85908 42.27998 34.56953
#
# Velocity S-wave (km/s) = 3.47374 4.35832 3.94093
# Velocity P-wave (km/s) = 5.87435 7.64144 6.81541
#
# Compressibility (1/GPa) = 0.02439176
#
# Stress axis : x y z
#
# Youngs Moduli (GPa) = 45.81225 83.16531 134.70901
#
# Poissons Ratio (x) = 0.50522 -0.11641
# Poissons Ratio (y) = 0.27830 0.43529
# Poissons Ratio (z) = -0.03959 0.26873
#
# Static dielectric constant tensor:
#      x y z
#    x 1.974980 0.001090 -0.014900 
#    y 0.001090 1.938260 -0.032120 
#    z -0.014900 -0.032120 1.833010 
# 
# From -- ./inp_files/237961.got.cif
#   From: 2010.05.17/outbox.cif.g08.bks.cpg/sg2_119_cif.got.tgz:237961.got - 2010.06.03 11:33:40.
