data_PCOD9038078
_publ_section_title
;
Structure prediction by ZEFSAII (Michael W. Deem and Ramdas Pophale) SiO2 
 PCOD9038078
Probable space group: P -1
;
_chemical_formula_sum "Si O2"
_cell_formula_units_Z 14
_cell_length_a 19.173559
_cell_length_b 9.116101
_cell_length_c 4.869735
_cell_angle_alpha 98.349443
_cell_angle_beta 64.764397
_cell_angle_gamma 130.425219
_cell_volume 575.371667
_symmetry_space_group_name_H-M "P -1"
_symmetry_group_IT_number 2
_symmetry_cell_setting 'triclinic'
loop_
_space_group_symop_operation_xyz
x,y,z
-x,-y,-z
loop_
_atom_site_type_symbol
_atom_site_label
_atom_site_fract_x
_atom_site_fract_y
_atom_site_fract_z
Si Si1 0.051637 0.443838 0.592927
Si Si2 0.529503 0.881350 0.778907
Si Si3 0.396427 0.447357 0.758968
Si Si4 0.105615 0.197346 0.262656
Si Si5 0.654417 0.931301 0.068142
Si Si6 0.215097 0.204994 0.582192
Si Si7 0.846869 0.179285 0.175046
O O1 0.097777 0.363330 0.339373
O O2 0.136632 0.641564 0.666171
O O3 0.000000 0.500000 0.500000
O O4 0.958607 0.275620 0.899255
O O5 0.433301 0.646762 0.887291
O O6 0.574961 0.917337 0.404165
O O7 0.622365 0.940351 0.825332
O O8 0.500000 0.000000 0.000000
O O9 0.500000 0.500000 0.500000
O O10 0.355887 0.260515 0.960414
O O11 0.321000 0.373496 0.607286
O O12 0.193260 0.243087 0.329726
O O13 0.131415 0.179549 0.910292
O O14 0.000000 0.000000 0.500000
O O15 0.766147 0.098480 0.045514
O O16 0.190458 0.999780 0.612446
#
# Coordination Sequence:
#
# PCOD9038078 Si02
#       7
#     2   2   2   2   2   2   2
#     4  11  25  41  66  90 133 174 214 272 323 384
#     4  11  23  40  65  94 131 162 205 273 327 375
#     4   9  22  44  68  96 130 169 220 264 317 390
#     4  12  25  43  66  96 136 168 219 271 323 384
#     4  10  23  41  66  90 124 172 213 259 317 393
#     4  11  25  43  70  98 128 178 217 268 328 382
#     4  10  24  41  63  94 126 170 224 259 322 391
#
# _framework density 24.332100000000001
#
# number of rings (size 3 to 8) (size 9 to 14) (size 15 to 20)
#    0.000    1.429    1.429    2.143    6.000   10.286 
#    0.000    0.000    0.000    0.000    0.000    0.000 
#    0.000    0.000    0.000    0.000    0.000    0.000 
#
# Total GULP energy -78413.743133 kJ/mol
# GULP energy per Si atom -5600.981652 kJ/mol
# Density = 2.427672 g / cm^3
# Si number density = 24.332100 Si / 1000 Ang^3
#
#
#
# Elastic Constant Matrix: (Units=GPa)
#
#
# Indices 1 2 3 4 5 6 
#
# 1 113.7939 42.8170 5.5595 7.9831 -3.6417 -3.9938
# 2 42.8170 165.0461 13.1052 23.0669 -16.1112 4.4376
# 3 5.5595 13.1052 76.6767 14.7900 -6.7214 -14.9205
# 4 7.9831 23.0669 14.7900 31.3416 -8.0989 -10.7597
# 5 -3.6417 -16.1112 -6.7214 -8.0989 50.6020 13.0122
# 6 -3.9938 4.4376 -14.9205 -10.7597 13.0122 37.4140
#
#
#
# Elastic Compliance Matrix: (Units=1/GPa)
#
#
# Indices 1 2 3 4 5 6 
#
# 1 0.009820 -0.002612 0.000019 -0.000216 -0.000540 0.001491
# 2 -0.002612 0.007901 -0.000636 -0.005578 0.002351 -0.003891
# 3 0.000019 -0.000636 0.015020 -0.005073 -0.000223 0.004686
# 4 -0.000216 -0.005578 -0.005073 0.042407 0.001694 0.010222
# 5 -0.000540 0.002351 -0.000223 0.001694 0.022730 -0.007844
# 6 0.001491 -0.003891 0.004686 0.010222 -0.007844 0.034885
#
#
# Mechanical properties :
#
#
# Convention : Reuss Voigt Hill
#
# Bulk Modulus (GPa) = 38.04863 53.16448 45.60656
# Shear Modulus (GPa) = 33.78788 43.47384 38.63086
#
# Velocity S-wave (km/s) = 3.73045 4.23151 3.98886
# Velocity P-wave (km/s) = 5.85032 6.76544 6.32445
#
# Compressibility (1/GPa) = 0.02628215
#
# Stress axis : x y z
#
# Youngs Moduli (GPa) = 101.83531 126.57225 66.57783
#
# Poissons Ratio (x) = 0.33057 -0.00125
# Poissons Ratio (y) = 0.26596 0.04236
# Poissons Ratio (z) = -0.00192 0.08053
#
# Static dielectric constant tensor:
#      x y z
#    x 1.898480 0.007310 -0.039980 
#    y 0.007310 1.949070 -0.058700 
#    z -0.039980 -0.058700 2.061420 
# 
# From -- ./inp_files/49048.got.cif
#   From: 2010.05.17/outbox.cif.g08.bks.cpg/sg2_25_cif.got.tgz:49048.got - 2010.06.03 11:33:40.
