data_PCOD9038817
_publ_section_title
;
Structure prediction by ZEFSAII (Michael W. Deem and Ramdas Pophale) SiO2 
 PCOD9038817
Probable space group: P -1
;
_chemical_formula_sum "Si O2"
_cell_formula_units_Z 16
_cell_length_a 18.107848
_cell_length_b 21.218843
_cell_length_c 5.445429
_cell_angle_alpha 102.733832
_cell_angle_beta 79.260814
_cell_angle_gamma 159.656132
_cell_volume 708.222907
_symmetry_space_group_name_H-M "P -1"
_symmetry_group_IT_number 2
_symmetry_cell_setting 'triclinic'
loop_
_space_group_symop_operation_xyz
x,y,z
-x,-y,-z
loop_
_atom_site_type_symbol
_atom_site_label
_atom_site_fract_x
_atom_site_fract_y
_atom_site_fract_z
Si Si1 0.664207 0.947398 0.511862
Si Si2 0.018589 0.172906 0.827049
Si Si3 0.246650 0.659444 0.737783
Si Si4 0.484450 0.550915 0.890071
Si Si5 0.985020 0.572217 0.825174
Si Si6 0.183776 0.117297 0.323513
Si Si7 0.541110 0.347063 0.652918
Si Si8 0.013868 0.730653 0.728836
O O1 0.492864 0.839754 0.710580
O O2 0.540102 0.788161 0.320345
O O3 0.859384 0.069625 0.630334
O O4 0.774247 0.091364 0.408401
O O5 0.257404 0.360722 0.735014
O O6 0.009917 0.220192 0.079616
O O7 0.932787 0.036117 0.868197
O O8 0.134614 0.544932 0.455017
O O9 0.188151 0.688143 0.816211
O O10 0.150366 0.550081 0.949681
O O11 0.700871 0.733681 0.766518
O O12 0.500000 0.500000 0.000000
O O13 0.468193 0.605190 0.095092
O O14 0.033567 0.686644 0.863718
O O15 0.379242 0.242219 0.457895
O O16 0.000000 0.000000 0.500000
O O17 0.784413 0.536334 0.572287
#
# Coordination Sequence:
#
# PCOD9038817 Si02
#       8
#     2   2   2   2   2   2   2   2
#     4  11  23  40  68  98 129 173 226 280 337 408
#     4  10  25  40  61  96 130 166 222 280 341 408
#     4  10  23  44  70 100 141 187 228 279 345 409
#     4  11  24  42  64  90 127 170 217 274 337 405
#     4  10  23  44  70 100 141 187 228 279 345 409
#     4  11  24  42  64  90 127 170 217 274 337 405
#     4  10  23  42  63  92 132 170 212 272 343 398
#     4  11  23  40  68  98 129 173 226 280 337 408
#
# _framework density 22.591757999999999
#
# number of rings (size 3 to 8) (size 9 to 14) (size 15 to 20)
#    0.000    1.500    1.250    2.250    3.500   12.500 
#    0.000    0.625    0.000    0.000    0.000    0.000 
#    0.000    0.000    0.000    0.000    0.000    0.000 
#
# Total GULP energy -89395.075803 kJ/mol
# GULP energy per Si atom -5587.192238 kJ/mol
# Density = 2.254034 g / cm^3
# Si number density = 22.591758 Si / 1000 Ang^3
#
#
#
# Elastic Constant Matrix: (Units=GPa)
#
#
# Indices 1 2 3 4 5 6 
#
# 1 123.8390 117.4487 29.5258 -28.1589 12.4623 50.1527
# 2 117.4487 153.3458 56.3561 -18.8267 -18.4335 -80.6975
# 3 29.5258 56.3561 67.1945 -17.0808 1.3022 4.3686
# 4 -28.1589 -18.8267 -17.0808 41.0083 3.2463 21.0602
# 5 12.4623 -18.4335 1.3022 3.2463 23.6072 -39.1147
# 6 50.1527 -80.6975 4.3686 21.0602 -39.1147 -104.7097
#
#
#
# Elastic Compliance Matrix: (Units=1/GPa)
#
#
# Indices 1 2 3 4 5 6 
#
# 1 0.008833 -0.002776 -0.001707 0.001012 0.002408 0.005603
# 2 -0.002776 0.007144 -0.003632 0.002888 -0.002327 -0.005536
# 3 -0.001707 -0.003632 0.019369 0.003586 0.001434 0.002976
# 4 0.001012 0.002888 0.003586 0.026283 0.002490 0.002765
# 5 0.002408 -0.002327 0.001434 0.002490 0.027587 -0.006798
# 6 0.005603 -0.005536 0.002976 0.002765 -0.006798 0.000620
#
#
# Mechanical properties :
#
#
# Convention : Reuss Voigt Hill
#
# Bulk Modulus (GPa) = 52.31375 83.44894 67.88135
# Shear Modulus (GPa) = 44.46899 1.38439 22.92669
#
# Velocity S-wave (km/s) = 4.44145 0.78366 3.18909
# Velocity P-wave (km/s) = 7.03622 6.15116 6.60852
#
# Compressibility (1/GPa) = 0.01911543
#
# Stress axis : x y z
#
# Youngs Moduli (GPa) = 113.20805 139.98624 51.62867
#
# Poissons Ratio (x) = 0.38859 0.08813
# Poissons Ratio (y) = 0.31425 0.18754
# Poissons Ratio (z) = 0.19324 0.50848
#
# Static dielectric constant tensor:
#      x y z
#    x 1.815100 -0.012670 0.012750 
#    y -0.012670 1.871150 0.008450 
#    z 0.012750 0.008450 1.894200 
# 
# From -- ./inp_files/48086.got.cif
#   From: 2010.05.17/outbox.cif.g08.bks.cpg/sg2_25_cif.got.tgz:48086.got - 2010.06.03 11:33:40.
