data_PCOD9038282
_publ_section_title
;
Structure prediction by ZEFSAII (Michael W. Deem and Ramdas Pophale) SiO2 
 PCOD9038282
Probable space group: P -1
;
_chemical_formula_sum "Si O2"
_cell_formula_units_Z 12
_cell_length_a 11.419376
_cell_length_b 5.332722
_cell_length_c 13.819083
_cell_angle_alpha 98.562144
_cell_angle_beta 48.556545
_cell_angle_gamma 68.359777
_cell_volume 484.207381
_symmetry_space_group_name_H-M "P -1"
_symmetry_group_IT_number 2
_symmetry_cell_setting 'triclinic'
loop_
_space_group_symop_operation_xyz
x,y,z
-x,-y,-z
loop_
_atom_site_type_symbol
_atom_site_label
_atom_site_fract_x
_atom_site_fract_y
_atom_site_fract_z
Si Si1 0.235720 0.163534 0.250963
Si Si2 0.389293 0.095430 0.465496
Si Si3 0.102722 0.977772 0.042771
Si Si4 0.037405 0.585605 0.205418
Si Si5 0.826445 0.360355 0.519827
Si Si6 0.480872 0.660699 0.223090
O O1 0.204775 0.361587 0.183729
O O2 0.199819 0.379870 0.375881
O O3 0.052549 0.147435 0.345814
O O4 0.443236 0.816374 0.146886
O O5 0.322410 0.431734 0.476069
O O6 0.175666 0.177882 0.608712
O O7 0.500000 0.000000 0.500000
O O8 0.520856 0.822230 0.295623
O O9 0.062070 0.798499 0.133788
O O10 0.032390 0.328145 0.132618
O O11 0.346088 0.723888 0.888814
O O12 0.000000 0.000000 0.000000
O O13 0.737040 0.224189 0.621383
#
# Coordination Sequence:
#
# PCOD9038282 Si02
#       6
#     2   2   2   2   2   2
#     4   9  21  41  66 100 135 171 228 285 343 397
#     4  10  23  41  68 100 132 179 237 282 330 405
#     4  12  29  48  68  99 145 185 222 283 350 408
#     4  11  27  46  71 100 139 182 228 285 341 405
#     4   9  20  38  65 101 134 172 221 291 343 391
#     4  11  24  40  74  95 138 182 227 280 344 409
#
# _framework density 24.782768999999998
#
# number of rings (size 3 to 8) (size 9 to 14) (size 15 to 20)
#    0.000    1.667    0.000    3.000   14.000    2.000 
#    0.000    0.000    0.000    0.000    0.000    0.000 
#    0.000    0.000    0.000    0.000    0.000    0.000 
#
# Total GULP energy -67101.452710 kJ/mol
# GULP energy per Si atom -5591.787726 kJ/mol
# Density = 2.472636 g / cm^3
# Si number density = 24.782769 Si / 1000 Ang^3
#
#
#
# Elastic Constant Matrix: (Units=GPa)
#
#
# Indices 1 2 3 4 5 6 
#
# 1 77.1186 49.4075 14.2466 -5.6848 14.9150 -27.5632
# 2 49.4075 119.1505 34.0541 -25.4588 10.3324 -16.2106
# 3 14.2466 34.0541 86.5721 -10.1066 -9.2280 3.9118
# 4 -5.6848 -25.4588 -10.1066 48.7801 0.9506 12.3972
# 5 14.9150 10.3324 -9.2280 0.9506 22.4823 -6.7362
# 6 -27.5632 -16.2106 3.9118 12.3972 -6.7362 50.2741
#
#
#
# Elastic Compliance Matrix: (Units=1/GPa)
#
#
# Indices 1 2 3 4 5 6 
#
# 1 0.023821 -0.007629 -0.002983 -0.004301 -0.010185 0.010528
# 2 -0.007629 0.014115 -0.003921 0.006072 -0.003687 -0.001317
# 3 -0.002983 -0.003921 0.014826 0.001316 0.008855 -0.003192
# 4 -0.004301 0.006072 0.001316 0.025292 -0.002590 -0.007086
# 5 -0.010185 -0.003687 0.008855 -0.002590 0.056915 0.000803
# 6 0.010528 -0.001317 -0.003192 -0.007086 0.000803 0.027342
#
#
# Mechanical properties :
#
#
# Convention : Reuss Voigt Hill
#
# Bulk Modulus (GPa) = 42.20036 53.13974 47.67005
# Shear Modulus (GPa) = 25.09090 36.64950 30.87020
#
# Velocity S-wave (km/s) = 3.18533 3.84973 3.53318
# Velocity P-wave (km/s) = 5.53114 6.42256 5.99345
#
# Compressibility (1/GPa) = 0.02369648
#
# Stress axis : x y z
#
# Youngs Moduli (GPa) = 41.97927 70.84830 67.44844
#
# Poissons Ratio (x) = 0.54047 0.20118
# Poissons Ratio (y) = 0.32024 0.26449
# Poissons Ratio (z) = 0.12522 0.27783
#
# Static dielectric constant tensor:
#      x y z
#    x 1.973890 0.044870 -0.022810 
#    y 0.044870 1.976470 -0.012530 
#    z -0.022810 -0.012530 1.995450 
# 
# From -- ./inp_files/23376.got.cif
#   From: 2010.05.17/outbox.cif.g08.bks.cpg/sg2_12_cif.got.tgz:23376.got - 2010.06.03 11:33:40.
