data_PCOD9038087
_publ_section_title
;
Structure prediction by ZEFSAII (Michael W. Deem and Ramdas Pophale) SiO2 
 PCOD9038087
Probable space group: P -1
;
_chemical_formula_sum "Si O2"
_cell_formula_units_Z 13
_cell_length_a 5.633623
_cell_length_b 14.872771
_cell_length_c 12.953785
_cell_angle_alpha 30.942712
_cell_angle_beta 92.022516
_cell_angle_gamma 104.175898
_cell_volume 506.746968
_symmetry_space_group_name_H-M "P -1"
_symmetry_group_IT_number 2
_symmetry_cell_setting 'triclinic'
loop_
_space_group_symop_operation_xyz
x,y,z
-x,-y,-z
loop_
_atom_site_type_symbol
_atom_site_label
_atom_site_fract_x
_atom_site_fract_y
_atom_site_fract_z
Si Si1 0.500000 0.000000 0.500000
Si Si2 0.371642 0.193359 0.736817
Si Si3 0.907062 0.241435 0.772432
Si Si4 0.048506 0.589609 0.170903
Si Si5 0.569169 0.230671 0.479821
Si Si6 0.088730 0.275090 0.179908
Si Si7 0.420925 0.563449 0.063651
O O1 0.529386 0.073686 0.549229
O O2 0.825661 0.117490 0.373497
O O3 0.674760 0.298293 0.674176
O O4 0.395991 0.157808 0.651093
O O5 0.169938 0.288445 0.664030
O O6 0.241717 0.990078 0.994066
O O7 0.980594 0.323173 0.808302
O O8 0.341287 0.630233 0.102250
O O9 0.869483 0.360558 0.389228
O O10 0.967586 0.680985 0.981036
O O11 0.494353 0.391191 0.267277
O O12 0.190968 0.453775 0.086274
O O13 0.368701 0.262961 0.172247
#
# Coordination Sequence:
#
# PCOD9038087 Si02
#       7
#     1   2   2   2   2   2   2
#     4  12  24  44  62 102 132 180 220 292 338 414
#     4  10  24  48  67 106 134 183 227 303 338 422
#     4  10  24  45  76  96 141 180 238 277 367 405
#     4  11  23  44  68  99 135 185 222 289 340 427
#     4  11  26  42  67  98 142 172 237 283 351 405
#     4  10  23  41  66  92 140 174 229 277 346 406
#     4  10  23  43  64  96 135 189 221 285 339 429
#
# _framework density 25.653828000000001
#
# number of rings (size 3 to 8) (size 9 to 14) (size 15 to 20)
#    0.000    1.538    1.538    1.385   10.769    1.846 
#    2.769    0.000    0.000    0.000    0.000    0.000 
#    0.000    0.000    0.000    0.000    0.000    0.000 
#
# Total GULP energy -72433.012017 kJ/mol
# GULP energy per Si atom -5571.770155 kJ/mol
# Density = 2.559544 g / cm^3
# Si number density = 25.653828 Si / 1000 Ang^3
#
#
#
# Elastic Constant Matrix: (Units=GPa)
#
#
# Indices 1 2 3 4 5 6 
#
# 1 154.9419 56.0391 40.4431 9.8553 -48.1501 -3.4342
# 2 56.0391 117.3242 -9.8557 25.4973 -10.1972 -12.3653
# 3 40.4431 -9.8557 72.4736 1.9618 -26.4702 8.7329
# 4 9.8553 25.4973 1.9618 49.3907 -6.7195 -11.7118
# 5 -48.1501 -10.1972 -26.4702 -6.7195 47.5654 11.5757
# 6 -3.4342 -12.3653 8.7329 -11.7118 11.5757 39.6827
#
#
#
# Elastic Compliance Matrix: (Units=1/GPa)
#
#
# Indices 1 2 3 4 5 6 
#
# 1 0.012703 -0.006118 -0.003960 0.001587 0.010159 -0.002431
# 2 -0.006118 0.013004 0.004368 -0.005593 -0.002138 0.001534
# 3 -0.003960 0.004368 0.021302 -0.002686 0.010214 -0.007442
# 4 0.001587 -0.005593 -0.002686 0.024457 0.000923 0.005934
# 5 0.010159 -0.002138 0.010214 0.000923 0.039927 -0.013409
# 6 -0.002431 0.001534 -0.007442 0.005934 -0.013409 0.032768
#
#
# Mechanical properties :
#
#
# Convention : Reuss Voigt Hill
#
# Bulk Modulus (GPa) = 28.09907 57.55475 42.82691
# Shear Modulus (GPa) = 29.86072 44.53532 37.19802
#
# Velocity S-wave (km/s) = 3.41543 4.17107 3.81202
# Velocity P-wave (km/s) = 5.15077 6.75877 6.00880
#
# Compressibility (1/GPa) = 0.03558836
#
# Stress axis : x y z
#
# Youngs Moduli (GPa) = 78.72277 76.89970 46.94411
#
# Poissons Ratio (x) = 0.47048 0.18591
# Poissons Ratio (y) = 0.48164 -0.20506
# Poissons Ratio (z) = 0.31175 -0.33591
#
# Static dielectric constant tensor:
#      x y z
#    x 2.270450 0.056100 0.012390 
#    y 0.056100 1.916060 -0.020890 
#    z 0.012390 -0.020890 2.054530 
# 
# From -- ./inp_files/31253.got.cif
#   From: 2010.05.17/outbox.cif.g08.bks.cpg/sg2_16_cif.got.tgz:31253.got - 2010.06.03 11:33:40.
