data_PCOD9038473
_publ_section_title
;
Structure prediction by ZEFSAII (Michael W. Deem and Ramdas Pophale) SiO2 
 PCOD9038473
Probable space group: P -1
;
_chemical_formula_sum "Si O2"
_cell_formula_units_Z 16
_cell_length_a 18.765632
_cell_length_b 5.504902
_cell_length_c 11.696356
_cell_angle_alpha 114.712221
_cell_angle_beta 42.816240
_cell_angle_gamma 112.189987
_cell_volume 741.041184
_symmetry_space_group_name_H-M "P -1"
_symmetry_group_IT_number 2
_symmetry_cell_setting 'triclinic'
loop_
_space_group_symop_operation_xyz
x,y,z
-x,-y,-z
loop_
_atom_site_type_symbol
_atom_site_label
_atom_site_fract_x
_atom_site_fract_y
_atom_site_fract_z
Si Si1 0.631220 0.986954 0.963270
Si Si2 0.955219 0.845596 0.849096
Si Si3 0.230527 0.492940 0.334211
Si Si4 0.751977 0.715316 0.426411
Si Si5 0.920930 0.901509 0.456156
Si Si6 0.600550 0.054510 0.749131
Si Si7 0.159917 0.862427 0.773841
Si Si8 0.167813 0.680686 0.198529
O O1 0.692444 0.735963 0.811493
O O2 0.605624 0.098280 0.889246
O O3 0.722698 0.181952 0.956314
O O4 0.518584 0.917321 0.141504
O O5 0.894375 0.550120 0.846536
O O6 0.055344 0.819155 0.808034
O O7 0.987804 0.979913 0.714137
O O8 0.882038 0.039541 0.036874
O O9 0.116448 0.391414 0.502809
O O10 0.304167 0.724994 0.359868
O O11 0.203140 0.557308 0.250722
O O12 0.823903 0.878437 0.472590
O O13 0.785954 0.413599 0.327451
O O14 0.634868 0.767216 0.614441
O O15 0.774886 0.878284 0.313302
O O16 0.904334 0.102634 0.620760
#
# Coordination Sequence:
#
# PCOD9038473 Si02
#       8
#     2   2   2   2   2   2   2   2
#     4   9  19  32  53  93 118 154 192 234 312 367
#     4  10  23  42  59  81 119 159 206 250 290 357
#     4  10  17  33  53  88 128 154 188 235 306 370
#     4  11  20  40  63  86 123 153 202 259 296 357
#     4  10  20  34  55  88 118 152 192 241 304 360
#     4  10  18  32  59  85 123 152 191 246 302 363
#     4  10  25  43  61  88 115 163 217 251 295 343
#     4  10  20  38  54  88 124 155 191 244 308 363
#
# _framework density 21.591245000000001
#
# number of rings (size 3 to 8) (size 9 to 14) (size 15 to 20)
#    0.000    2.000    3.750    1.500    1.750    5.000 
#   13.500    0.000    0.000    1.500    0.000    0.000 
#    0.000    0.000    0.000    0.000    0.000    0.000 
#
# Total GULP energy -89147.518458 kJ/mol
# GULP energy per Si atom -5571.719904 kJ/mol
# Density = 2.154210 g / cm^3
# Si number density = 21.591245 Si / 1000 Ang^3
#
#
#
# Elastic Constant Matrix: (Units=GPa)
#
#
# Indices 1 2 3 4 5 6 
#
# 1 38.6813 25.2908 19.6048 -2.3214 -7.3055 3.1482
# 2 25.2908 108.7615 47.2122 5.4532 -10.8653 2.0780
# 3 19.6048 47.2122 75.3590 16.7660 -6.1402 7.9662
# 4 -2.3214 5.4532 16.7660 27.7052 -0.8340 3.4096
# 5 -7.3055 -10.8653 -6.1402 -0.8340 29.1785 -3.4214
# 6 3.1482 2.0780 7.9662 3.4096 -3.4214 18.6498
#
#
#
# Elastic Compliance Matrix: (Units=1/GPa)
#
#
# Indices 1 2 3 4 5 6 
#
# 1 0.034311 -0.004725 -0.007164 0.008646 0.005239 -0.002825
# 2 -0.004725 0.013834 -0.007818 0.001343 0.002695 0.002844
# 3 -0.007164 -0.007818 0.023357 -0.012512 -0.000823 -0.005760
# 4 0.008646 0.001343 -0.012512 0.044678 0.000806 -0.004285
# 5 0.005239 0.002695 -0.000823 0.000806 0.037121 0.005829
# 6 -0.002825 0.002844 -0.005760 -0.004285 0.005829 0.058093
#
#
# Mechanical properties :
#
#
# Convention : Reuss Voigt Hill
#
# Bulk Modulus (GPa) = 31.16353 45.22416 38.19384
# Shear Modulus (GPa) = 19.12024 23.81962 21.46993
#
# Velocity S-wave (km/s) = 2.97906 3.32506 3.15680
# Velocity P-wave (km/s) = 5.12814 5.97766 5.56912
#
# Compressibility (1/GPa) = 0.03208880
#
# Stress axis : x y z
#
# Youngs Moduli (GPa) = 29.14549 72.28376 42.81368
#
# Poissons Ratio (x) = 0.34152 0.30671
# Poissons Ratio (y) = 0.13770 0.33472
# Poissons Ratio (z) = 0.20880 0.56511
#
# Static dielectric constant tensor:
#      x y z
#    x 1.842500 -0.027700 -0.048100 
#    y -0.027700 1.911610 -0.045370 
#    z -0.048100 -0.045370 1.841780 
# 
# From -- ./inp_files/468199.got.cif
#   From: 2010.05.17/outbox.cif.g08.bks.cpg/sg2_235_cif.got.tgz:468199.got - 2010.06.03 11:33:40.
