data_PCOD9038624
_publ_section_title
;
Structure prediction by ZEFSAII (Michael W. Deem and Ramdas Pophale) SiO2 
 PCOD9038624
Probable space group: P -1
;
_chemical_formula_sum "Si O2"
_cell_formula_units_Z 16
_cell_length_a 21.184272
_cell_length_b 17.773582
_cell_length_c 12.126985
_cell_angle_alpha 150.921616
_cell_angle_beta 149.618695
_cell_angle_gamma 18.207222
_cell_volume 677.331626
_symmetry_space_group_name_H-M "P -1"
_symmetry_group_IT_number 2
_symmetry_cell_setting 'triclinic'
loop_
_space_group_symop_operation_xyz
x,y,z
-x,-y,-z
loop_
_atom_site_type_symbol
_atom_site_label
_atom_site_fract_x
_atom_site_fract_y
_atom_site_fract_z
Si Si1 0.274020 0.873314 0.736152
Si Si2 0.541624 0.642837 0.651111
Si Si3 0.211438 0.483065 0.782299
Si Si4 0.836088 0.118370 0.751198
Si Si5 0.667853 0.050403 0.850292
Si Si6 0.264919 0.785505 0.020996
Si Si7 0.029337 0.454511 0.656778
Si Si8 0.907605 0.482240 0.933162
O O1 0.453429 0.778571 0.812170
O O2 0.312261 0.653659 0.487243
O O3 0.303649 0.853411 0.886131
O O4 0.066240 0.177780 0.790855
O O5 0.329859 0.808034 0.478437
O O6 0.680451 0.628533 0.776023
O O7 0.430967 0.242452 0.748533
O O8 0.046159 0.627120 0.618861
O O9 0.173186 0.396784 0.709900
O O10 0.196810 0.666931 0.047345
O O11 0.777840 0.158430 0.842584
O O12 0.085847 0.854484 0.784192
O O13 0.732765 0.058748 0.844292
O O14 0.820134 0.762318 0.737669
O O15 0.500000 0.500000 0.000000
O O16 0.104299 0.398022 0.821393
O O17 0.000000 0.500000 0.000000
#
# Coordination Sequence:
#
# PCOD9038624 Si02
#       8
#     2   2   2   2   2   2   2   2
#     4  10  23  41  72 101 129 181 232 284 334 396
#     4  11  23  44  72 100 133 180 234 285 332 404
#     4  11  20  41  65  95 126 172 221 273 330 392
#     4  11  24  40  65 101 132 172 220 275 342 396
#     4  11  20  39  66  93 131 169 221 272 327 398
#     4  11  22  39  62  93 139 164 204 276 339 399
#     4  10  24  40  65  92 132 176 224 270 325 405
#     4  11  26  47  66 101 141 182 229 280 346 406
#
# _framework density 23.622105999999999
#
# number of rings (size 3 to 8) (size 9 to 14) (size 15 to 20)
#    0.000    1.250    3.750    1.500    1.750    3.500 
#    6.750    0.000    0.000    0.000    0.000    0.000 
#    0.000    0.000    0.000    0.000    0.000    0.000 
#
# Total GULP energy -89362.644811 kJ/mol
# GULP energy per Si atom -5585.165301 kJ/mol
# Density = 2.356834 g / cm^3
# Si number density = 23.622106 Si / 1000 Ang^3
#
#
#
# Elastic Constant Matrix: (Units=GPa)
#
#
# Indices 1 2 3 4 5 6 
#
# 1 127.9411 30.8234 27.3034 -27.1889 8.8988 -21.6311
# 2 30.8234 120.2954 36.6512 -22.0008 7.7051 -26.5206
# 3 27.3034 36.6512 62.1604 -28.1718 -4.4755 -7.1746
# 4 -27.1889 -22.0008 -28.1718 37.9832 -8.7645 1.5237
# 5 8.8988 7.7051 -4.4755 -8.7645 31.3269 -4.3890
# 6 -21.6311 -26.5206 -7.1746 1.5237 -4.3890 41.8700
#
#
#
# Elastic Compliance Matrix: (Units=1/GPa)
#
#
# Indices 1 2 3 4 5 6 
#
# 1 0.010222 -0.000050 -0.001241 0.006011 -0.000723 0.004742
# 2 -0.000050 0.011899 -0.005545 0.001967 -0.002279 0.006250
# 3 -0.001241 -0.005545 0.030697 0.021447 0.012329 0.001619
# 4 0.006011 0.001967 0.021447 0.051117 0.016277 0.007873
# 5 -0.000723 -0.002279 0.012329 0.016277 0.039542 0.003849
# 6 0.004742 0.006250 0.001619 0.007873 0.003849 0.030687
#
#
# Mechanical properties :
#
#
# Convention : Reuss Voigt Hill
#
# Bulk Modulus (GPa) = 25.54558 55.55032 40.54795
# Shear Modulus (GPa) = 24.89005 36.61060 30.75033
#
# Velocity S-wave (km/s) = 3.24956 3.94108 3.61191
# Velocity P-wave (km/s) = 4.99172 6.65408 5.88192
#
# Compressibility (1/GPa) = 0.03914572
#
# Stress axis : x y z
#
# Youngs Moduli (GPa) = 97.82392 84.04229 32.57699
#
# Poissons Ratio (x) = 0.00421 0.04043
# Poissons Ratio (y) = 0.00490 0.18064
# Poissons Ratio (z) = 0.12140 0.46601
#
# Static dielectric constant tensor:
#      x y z
#    x -0.896990 -1.533090 3.859300 
#    y -1.533090 1.070570 2.176520 
#    z 3.859300 2.176520 -3.417030 
# 
# From -- ./inp_files/472518.got.cif
#   From: 2010.05.17/outbox.cif.g08.bks.cpg/sg2_237_cif.got.tgz:472518.got - 2010.06.03 11:33:40.
