data_PCOD9038867
_publ_section_title
;
Structure prediction by ZEFSAII (Michael W. Deem and Ramdas Pophale) SiO2 
 PCOD9038867
Probable space group: P -1
;
_chemical_formula_sum "Si O2"
_cell_formula_units_Z 14
_cell_length_a 8.535946
_cell_length_b 17.057626
_cell_length_c 4.669914
_cell_angle_alpha 79.676511
_cell_angle_beta 89.012657
_cell_angle_gamma 48.236248
_cell_volume 494.109131
_symmetry_space_group_name_H-M "P -1"
_symmetry_group_IT_number 2
_symmetry_cell_setting 'triclinic'
loop_
_space_group_symop_operation_xyz
x,y,z
-x,-y,-z
loop_
_atom_site_type_symbol
_atom_site_label
_atom_site_fract_x
_atom_site_fract_y
_atom_site_fract_z
Si Si1 0.035508 0.858479 0.612774
Si Si2 0.291712 0.049167 0.815379
Si Si3 0.359031 0.258803 0.319107
Si Si4 0.647439 0.623676 0.256656
Si Si5 0.655990 0.507123 0.830924
Si Si6 0.227174 0.923775 0.238209
Si Si7 0.009445 0.272183 0.005281
O O1 0.785838 0.921119 0.525719
O O2 0.128826 0.744980 0.797726
O O3 0.162629 0.854009 0.349335
O O4 0.985250 0.952000 0.748643
O O5 0.124672 0.171793 0.856303
O O6 0.500000 0.000000 0.000000
O O7 0.278324 0.959812 0.940253
O O8 0.260161 0.347171 0.523323
O O9 0.553229 0.148445 0.541077
O O10 0.182217 0.262494 0.186909
O O11 0.453934 0.279536 0.036819
O O12 0.558428 0.590003 0.513225
O O13 0.748315 0.532544 0.066963
O O14 0.500000 0.500000 0.000000
O O15 0.852995 0.388076 0.789443
#
# Coordination Sequence:
#
# PCOD9038867 Si02
#       7
#     2   2   2   2   2   2   2
#     4  10  23  42  64 102 137 185 236 288 357 430
#     4  11  23  42  70 105 142 186 233 295 353 434
#     4  11  25  45  72 106 137 194 231 299 352 426
#     4  10  27  46  73 102 140 186 245 286 363 417
#     4  11  26  50  72 107 144 189 233 307 350 422
#     4  10  23  42  66  98 144 181 236 291 358 426
#     4  11  27  41  71 102 141 183 244 288 364 418
#
# _framework density 28.333818999999998
#
# number of rings (size 3 to 8) (size 9 to 14) (size 15 to 20)
#    0.000    1.429    0.000    2.571   12.000    6.857 
#    0.000    0.000    0.000    0.000    0.000    0.000 
#    0.000    0.000    0.000    0.000    0.000    0.000 
#
# Total GULP energy -77985.775956 kJ/mol
# GULP energy per Si atom -5570.412568 kJ/mol
# Density = 2.826933 g / cm^3
# Si number density = 28.333819 Si / 1000 Ang^3
#
#
#
# Elastic Constant Matrix: (Units=GPa)
#
#
# Indices 1 2 3 4 5 6 
#
# 1 88.5227 40.5642 9.0894 4.6749 15.2496 17.0808
# 2 40.5642 147.6001 36.2199 -12.0079 -8.9252 27.6935
# 3 9.0894 36.2199 134.9672 -5.2717 -30.2599 15.0687
# 4 4.6749 -12.0079 -5.2717 45.0649 12.6444 2.1874
# 5 15.2496 -8.9252 -30.2599 12.6444 49.7313 0.9319
# 6 17.0808 27.6935 15.0687 2.1874 0.9319 33.8904
#
#
#
# Elastic Compliance Matrix: (Units=1/GPa)
#
#
# Indices 1 2 3 4 5 6 
#
# 1 0.014718 -0.003482 -0.000846 -0.000856 -0.005360 -0.003994
# 2 -0.003482 0.009376 -0.001235 0.002579 0.001447 -0.005564
# 3 -0.000846 -0.001235 0.009440 -0.000683 0.006010 -0.002883
# 4 -0.000856 0.002579 -0.000683 0.024681 -0.005913 -0.002803
# 5 -0.005360 0.001447 0.006010 -0.005913 0.027200 -0.001519
# 6 -0.003994 -0.005564 -0.002883 -0.002803 -0.001519 0.037571
#
#
# Mechanical properties :
#
#
# Convention : Reuss Voigt Hill
#
# Bulk Modulus (GPa) = 44.62616 60.31521 52.47068
# Shear Modulus (GPa) = 35.31497 44.75177 40.03337
#
# Velocity S-wave (km/s) = 3.53425 3.97854 3.76296
# Velocity P-wave (km/s) = 5.69552 6.51449 6.11872
#
# Compressibility (1/GPa) = 0.02240838
#
# Stress axis : x y z
#
# Youngs Moduli (GPa) = 67.94348 106.65145 105.92971
#
# Poissons Ratio (x) = 0.37132 0.08964
# Poissons Ratio (y) = 0.23655 0.13086
# Poissons Ratio (z) = 0.05749 0.13175
#
# Static dielectric constant tensor:
#      x y z
#    x 2.355190 -0.009300 0.033250 
#    y -0.009300 2.264070 0.141510 
#    z 0.033250 0.141510 2.285980 
# 
# From -- ./inp_files/44201.got.cif
#   From: 2010.05.17/outbox.cif.g08.bks.cpg/sg2_23_cif.got.tgz:44201.got - 2010.06.03 11:33:40.
