data_PCOD9038670
_publ_section_title
;
Structure prediction by ZEFSAII (Michael W. Deem and Ramdas Pophale) SiO2 
 PCOD9038670
Probable space group: P -1
;
_chemical_formula_sum "Si O2"
_cell_formula_units_Z 14
_cell_length_a 9.049917
_cell_length_b 7.946870
_cell_length_c 9.656499
_cell_angle_alpha 91.579629
_cell_angle_beta 128.659342
_cell_angle_gamma 91.260097
_cell_volume 541.411636
_symmetry_space_group_name_H-M "P -1"
_symmetry_group_IT_number 2
_symmetry_cell_setting 'triclinic'
loop_
_space_group_symop_operation_xyz
x,y,z
-x,-y,-z
loop_
_atom_site_type_symbol
_atom_site_label
_atom_site_fract_x
_atom_site_fract_y
_atom_site_fract_z
Si Si1 0.745540 0.406842 0.435841
Si Si2 0.323661 0.797643 0.356719
Si Si3 0.107652 0.084728 0.201905
Si Si4 0.539039 0.739634 0.923782
Si Si5 0.085384 0.338422 0.982105
Si Si6 0.059413 0.226794 0.455471
Si Si7 0.447858 0.107171 0.771104
O O1 0.631622 0.324748 0.496458
O O2 0.603781 0.403696 0.223788
O O3 0.843069 0.589627 0.524346
O O4 0.901514 0.276886 0.473426
O O5 0.443885 0.795861 0.288565
O O6 0.290608 0.995366 0.365311
O O7 0.101526 0.747920 0.197986
O O8 0.172424 0.254759 0.167151
O O9 0.989704 0.132248 0.270472
O O10 0.000000 0.000000 0.000000
O O11 0.747772 0.671544 0.029968
O O12 0.512345 0.915354 0.825394
O O13 0.497649 0.794616 0.055112
O O14 0.000000 0.500000 0.000000
O O15 0.223018 0.120383 0.617241
#
# Coordination Sequence:
#
# PCOD9038670 Si02
#       7
#     2   2   2   2   2   2   2
#     4  11  27  46  74 105 149 190 245 297 371 435
#     4  11  24  45  71 108 140 191 237 303 360 425
#     4  10  23  41  73 102 141 185 245 290 356 428
#     4  11  26  46  72 109 144 195 243 297 364 434
#     4  11  24  43  70 103 147 189 238 297 361 430
#     4  11  26  48  71 104 148 195 238 302 368 436
#     4  11  26  45  75 108 149 186 246 301 358 439
#
# _framework density 25.858329999999999
#
# number of rings (size 3 to 8) (size 9 to 14) (size 15 to 20)
#    0.000    1.143    1.429    2.571    8.000    6.857 
#    0.000    0.000    0.000    0.000    0.000    0.000 
#    0.000    0.000    0.000    0.000    0.000    0.000 
#
# Total GULP energy -78264.950629 kJ/mol
# GULP energy per Si atom -5590.353616 kJ/mol
# Density = 2.579948 g / cm^3
# Si number density = 25.858330 Si / 1000 Ang^3
#
#
#
# Elastic Constant Matrix: (Units=GPa)
#
#
# Indices 1 2 3 4 5 6 
#
# 1 129.0129 29.1491 37.0947 4.2991 -7.1970 -14.1259
# 2 29.1491 96.1024 24.2910 -7.8054 -14.5064 -14.5477
# 3 37.0947 24.2910 111.2863 22.7759 -6.9055 2.1784
# 4 4.2991 -7.8054 22.7759 24.2091 -5.7763 -3.3453
# 5 -7.1970 -14.5064 -6.9055 -5.7763 53.0452 -12.7516
# 6 -14.1259 -14.5477 2.1784 -3.3453 -12.7516 37.5418
#
#
#
# Elastic Compliance Matrix: (Units=1/GPa)
#
#
# Indices 1 2 3 4 5 6 
#
# 1 0.009413 -0.000910 -0.003361 0.002218 0.001844 0.004208
# 2 -0.000910 0.015833 -0.005702 0.013738 0.007325 0.009836
# 3 -0.003361 -0.005702 0.014732 -0.016949 -0.003645 -0.007077
# 4 0.002218 0.013738 -0.016949 0.066920 0.013382 0.017650
# 5 0.001844 0.007325 -0.003645 0.013382 0.025344 0.013545
# 6 0.004208 0.009836 -0.007077 0.017650 0.013545 0.038616
#
#
# Mechanical properties :
#
#
# Convention : Reuss Voigt Hill
#
# Bulk Modulus (GPa) = 49.92112 57.49680 53.70896
# Shear Modulus (GPa) = 25.31881 39.35034 32.33457
#
# Velocity S-wave (km/s) = 3.13251 3.90521 3.54001
# Velocity P-wave (km/s) = 5.69482 6.52823 6.12572
#
# Compressibility (1/GPa) = 0.02003160
#
# Stress axis : x y z
#
# Youngs Moduli (GPa) = 106.23811 63.15781 67.87941
#
# Poissons Ratio (x) = 0.05747 0.22814
# Poissons Ratio (y) = 0.09668 0.38708
# Poissons Ratio (z) = 0.35706 0.36015
#
# Static dielectric constant tensor:
#      x y z
#    x 2.087360 0.120350 0.009020 
#    y 0.120350 2.235770 -0.029560 
#    z 0.009020 -0.029560 2.031530 
# 
# From -- ./inp_files/159381.got.cif
#   From: 2010.05.17/outbox.cif.g08.bks.cpg/sg2_80_cif.got.tgz:159381.got - 2010.06.03 11:33:40.
