data_PCOD9038115
_publ_section_title
;
Structure prediction by ZEFSAII (Michael W. Deem and Ramdas Pophale) SiO2 
 PCOD9038115
Probable space group: P -1
;
_chemical_formula_sum "Si O2"
_cell_formula_units_Z 16
_cell_length_a 11.006699
_cell_length_b 25.727761
_cell_length_c 6.659165
_cell_angle_alpha 131.977166
_cell_angle_beta 127.997735
_cell_angle_gamma 28.746790
_cell_volume 671.958923
_symmetry_space_group_name_H-M "P -1"
_symmetry_group_IT_number 2
_symmetry_cell_setting 'triclinic'
loop_
_space_group_symop_operation_xyz
x,y,z
-x,-y,-z
loop_
_atom_site_type_symbol
_atom_site_label
_atom_site_fract_x
_atom_site_fract_y
_atom_site_fract_z
Si Si1 0.945532 0.241864 0.567356
Si Si2 0.105170 0.029200 0.304484
Si Si3 0.118571 0.533828 0.449009
Si Si4 0.488879 0.379204 0.721017
Si Si5 0.323524 0.833889 0.503679
Si Si6 0.388926 0.187611 0.929289
Si Si7 0.723346 0.378112 0.306638
Si Si8 0.644081 0.678368 0.071060
O O1 0.013012 0.136973 0.404301
O O2 0.159287 0.217059 0.803012
O O3 0.676889 0.351261 0.686446
O O4 0.903899 0.273917 0.375588
O O5 0.974685 0.065279 0.483044
O O6 0.403440 0.921361 0.290912
O O7 0.000000 0.000000 0.000000
O O8 0.200698 0.493964 0.659305
O O9 0.128450 0.612737 0.626508
O O10 0.856081 0.604276 0.269878
O O11 0.325137 0.409373 0.222839
O O12 0.558568 0.273622 0.529654
O O13 0.578850 0.377119 0.015498
O O14 0.396564 0.792565 0.239558
O O15 0.466628 0.845055 0.798376
O O16 0.304042 0.285728 0.963971
O O17 0.500000 0.500000 0.500000
#
# Coordination Sequence:
#
# PCOD9038115 Si02
#       8
#     2   2   2   2   2   2   2   2
#     4  11  24  41  66  98 131 171 213 272 323 383
#     4   9  22  44  70  96 128 168 219 269 332 388
#     4  11  23  42  59  99 133 176 213 266 314 388
#     4  11  24  41  63  94 135 173 224 258 318 392
#     4  10  23  41  66  96 126 176 214 272 321 386
#     4  11  22  43  69  95 133 168 215 276 328 379
#     4  12  24  38  63  95 133 178 216 262 320 383
#     4  11  24  41  66  95 137 167 226 261 323 390
#
# _framework density 23.810977999999999
#
# number of rings (size 3 to 8) (size 9 to 14) (size 15 to 20)
#    0.000    1.250    3.750    1.500    1.750    1.000 
#    0.000    3.750    0.000    7.500    0.000    0.000 
#    0.000    0.000    0.000    0.000    0.000    0.000 
#
# Total GULP energy -89399.828598 kJ/mol
# GULP energy per Si atom -5587.489287 kJ/mol
# Density = 2.375678 g / cm^3
# Si number density = 23.810978 Si / 1000 Ang^3
#
#
#
# Elastic Constant Matrix: (Units=GPa)
#
#
# Indices 1 2 3 4 5 6 
#
# 1 80.0996 18.6555 20.9935 15.7210 14.3703 6.0654
# 2 18.6555 62.7504 20.4240 8.6013 4.9809 0.7849
# 3 20.9935 20.4240 97.3365 0.6847 19.2179 -10.9628
# 4 15.7210 8.6013 0.6847 31.1622 -8.2834 1.7598
# 5 14.3703 4.9809 19.2179 -8.2834 31.8247 1.8651
# 6 6.0654 0.7849 -10.9628 1.7598 1.8651 44.8128
#
#
#
# Elastic Compliance Matrix: (Units=1/GPa)
#
#
# Indices 1 2 3 4 5 6 
#
# 1 0.017248 -0.002471 -0.001561 -0.010277 -0.009023 -0.001894
# 2 -0.002471 0.018318 -0.003188 -0.003923 -0.000813 -0.000578
# 3 -0.001561 -0.003188 0.013121 -0.000732 -0.007133 0.003803
# 4 -0.010277 -0.003923 -0.000732 0.042938 0.016937 -0.001110
# 5 -0.009023 -0.000813 -0.007133 0.016937 0.044517 -0.003027
# 6 -0.001894 -0.000578 0.003803 -0.001110 -0.003027 0.023681
#
#
# Mechanical properties :
#
#
# Convention : Reuss Voigt Hill
#
# Bulk Modulus (GPa) = 29.19959 40.03696 34.61827
# Shear Modulus (GPa) = 26.92816 33.56751 30.24784
#
# Velocity S-wave (km/s) = 3.36655 3.75874 3.56804
# Velocity P-wave (km/s) = 5.23462 5.97398 5.61648
#
# Compressibility (1/GPa) = 0.03424706
#
# Stress axis : x y z
#
# Youngs Moduli (GPa) = 57.97667 54.59164 76.21432
#
# Poissons Ratio (x) = 0.13491 0.11899
# Poissons Ratio (y) = 0.14327 0.24294
# Poissons Ratio (z) = 0.09051 0.17401
#
# Static dielectric constant tensor:
#      x y z
#    x 2.003290 -0.030420 -0.006190 
#    y -0.030420 1.909170 0.024870 
#    z -0.006190 0.024870 2.016150 
# 
# From -- ./inp_files/48284.got.cif
#   From: 2010.05.17/outbox.cif.g08.bks.cpg/sg2_25_cif.got.tgz:48284.got - 2010.06.03 11:33:40.
