data_PCOD9038745
_publ_section_title
;
Structure prediction by ZEFSAII (Michael W. Deem and Ramdas Pophale) SiO2 
 PCOD9038745
Probable space group: P -1
;
_chemical_formula_sum "Si O2"
_cell_formula_units_Z 11
_cell_length_a 13.822438
_cell_length_b 5.041599
_cell_length_c 14.723965
_cell_angle_alpha 90.255939
_cell_angle_beta 31.911471
_cell_angle_gamma 72.181712
_cell_volume 439.478228
_symmetry_space_group_name_H-M "P -1"
_symmetry_group_IT_number 2
_symmetry_cell_setting 'triclinic'
loop_
_space_group_symop_operation_xyz
x,y,z
-x,-y,-z
loop_
_atom_site_type_symbol
_atom_site_label
_atom_site_fract_x
_atom_site_fract_y
_atom_site_fract_z
Si Si1 0.500000 0.000000 0.000000
Si Si2 0.972050 0.300266 0.143746
Si Si3 0.746958 0.652910 0.671503
Si Si4 0.252609 0.728827 0.499820
Si Si5 0.249009 0.550403 0.875134
Si Si6 0.853299 0.161072 0.711369
O O1 0.731699 0.002815 0.843222
O O2 0.562725 0.028368 0.839555
O O3 0.823076 0.348016 0.348319
O O4 0.816124 0.442689 0.178293
O O5 0.104736 0.461530 0.046143
O O6 0.158328 0.916065 0.975609
O O7 0.720993 0.511784 0.602043
O O8 0.682088 0.546774 0.820218
O O9 0.000000 0.500000 0.500000
O O10 0.483659 0.687649 0.327101
O O11 0.043956 0.083981 0.630507
O O12 0.000000 0.000000 0.500000
#
# Coordination Sequence:
#
# PCOD9038745 Si02
#       6
#     1   2   2   2   2   2
#     4  12  22  44  66  80 136 184 212 282 328 376
#     4  10  24  47  70 104 134 176 221 282 342 407
#     4  11  24  43  62  95 134 175 225 271 327 395
#     4  11  24  42  67  99 132 176 228 277 333 402
#     4  10  24  46  73 100 138 172 225 278 346 403
#     4  10  23  42  60  92 128 172 220 267 324 391
#
# _framework density 25.029681
#
# number of rings (size 3 to 8) (size 9 to 14) (size 15 to 20)
#    0.000    1.455    3.636    1.091    2.545    7.273 
#    0.000    5.455    0.000    0.000    0.000    0.000 
#    0.000    0.000    0.000    0.000    0.000    0.000 
#
# Total GULP energy -61297.534771 kJ/mol
# GULP energy per Si atom -5572.503161 kJ/mol
# Density = 2.497271 g / cm^3
# Si number density = 25.029681 Si / 1000 Ang^3
#
#
#
# Elastic Constant Matrix: (Units=GPa)
#
#
# Indices 1 2 3 4 5 6 
#
# 1 90.1714 24.7633 54.9156 5.0570 -6.8146 -12.6430
# 2 24.7633 69.2691 11.9335 -7.4457 -14.0833 -1.3419
# 3 54.9156 11.9335 159.5280 4.7521 -7.8638 -16.5764
# 4 5.0570 -7.4457 4.7521 37.4766 2.0203 1.9245
# 5 -6.8146 -14.0833 -7.8638 2.0203 56.1953 2.5980
# 6 -12.6430 -1.3419 -16.5764 1.9245 2.5980 16.9348
#
#
#
# Elastic Compliance Matrix: (Units=1/GPa)
#
#
# Indices 1 2 3 4 5 6 
#
# 1 0.016508 -0.005376 -0.004365 -0.003142 -0.000214 0.008016
# 2 -0.005376 0.017459 0.000250 0.004135 0.003769 -0.003433
# 3 -0.004365 0.000250 0.008306 -0.000692 0.000494 0.004894
# 4 -0.003142 0.004135 -0.000692 0.028329 -0.000188 -0.005887
# 5 -0.000214 0.003769 0.000494 -0.000188 0.018894 -0.002254
# 6 0.008016 -0.003433 0.004894 -0.005887 -0.002254 0.070568
#
#
# Mechanical properties :
#
#
# Convention : Reuss Voigt Hill
#
# Bulk Modulus (GPa) = 42.93025 55.79924 49.36475
# Shear Modulus (GPa) = 26.76527 37.27841 32.02184
#
# Velocity S-wave (km/s) = 3.27363 3.86342 3.58069
# Velocity P-wave (km/s) = 5.61051 6.49946 6.07128
#
# Compressibility (1/GPa) = 0.02329360
#
# Stress axis : x y z
#
# Youngs Moduli (GPa) = 60.57490 57.27591 120.39786
#
# Poissons Ratio (x) = 0.30790 0.52550
# Poissons Ratio (y) = 0.32563 -0.03014
# Poissons Ratio (z) = 0.26439 -0.01434
#
# Static dielectric constant tensor:
#      x y z
#    x 2.044370 0.125270 0.012820 
#    y 0.125270 2.603740 0.092720 
#    z 0.012820 0.092720 2.091110 
# 
# From -- ./inp_files/524732.got.cif
#   From: 2010.05.17/outbox.cif.g08.bks.cpg/sg2_263_cif.got.tgz:524732.got - 2010.06.03 11:33:40.
