data_PCOD9038548
_publ_section_title
;
Structure prediction by ZEFSAII (Michael W. Deem and Ramdas Pophale) SiO2 
 PCOD9038548
Probable space group: P -1
;
_chemical_formula_sum "Si O2"
_cell_formula_units_Z 16
_cell_length_a 16.354372
_cell_length_b 5.081723
_cell_length_c 8.761183
_cell_angle_alpha 106.188577
_cell_angle_beta 106.696579
_cell_angle_gamma 71.006699
_cell_volume 645.510346
_symmetry_space_group_name_H-M "P -1"
_symmetry_group_IT_number 2
_symmetry_cell_setting 'triclinic'
loop_
_space_group_symop_operation_xyz
x,y,z
-x,-y,-z
loop_
_atom_site_type_symbol
_atom_site_label
_atom_site_fract_x
_atom_site_fract_y
_atom_site_fract_z
Si Si1 0.689551 0.895518 0.526296
Si Si2 0.299258 0.627499 0.744576
Si Si3 0.484815 0.710622 0.882688
Si Si4 0.113661 0.834638 0.537212
Si Si5 0.937982 0.536070 0.284526
Si Si6 0.207346 0.622113 0.009121
Si Si7 0.120796 0.085310 0.265272
Si Si8 0.639094 0.538935 0.695984
O O1 0.682604 0.704465 0.345409
O O2 0.793404 0.814833 0.619217
O O3 0.635550 0.778102 0.608097
O O4 0.656575 0.234124 0.574078
O O5 0.385201 0.734037 0.784008
O O6 0.217140 0.791698 0.624284
O O7 0.266590 0.672677 0.908051
O O8 0.553400 0.597352 0.765460
O O9 0.500000 0.500000 0.000000
O O10 0.500000 0.000000 0.000000
O O11 0.062968 0.143769 0.626163
O O12 0.108205 0.868442 0.357220
O O13 0.087000 0.604238 0.594707
O O14 0.031028 0.334678 0.245836
O O15 0.860469 0.539219 0.122854
O O16 0.275872 0.474059 0.152208
O O17 0.147829 0.912544 0.096787
#
# Coordination Sequence:
#
# PCOD9038548 Si02
#       8
#     2   2   2   2   2   2   2   2
#     4  11  26  45  72 100 145 185 236 285 351 412
#     4  11  25  48  71 106 139 190 231 288 355 417
#     4  12  27  45  78 108 144 178 233 289 352 423
#     4  11  25  43  70  98 138 185 232 290 352 413
#     4  11  25  43  68 102 137 184 239 291 343 416
#     4  10  23  41  70  98 144 178 237 283 356 411
#     4  11  23  45  69 101 139 188 234 292 346 412
#     4  11  25  47  70 107 138 188 231 291 349 413
#
# _framework density 24.786587999999998
#
# number of rings (size 3 to 8) (size 9 to 14) (size 15 to 20)
#    0.000    1.000    1.250    4.875    3.500    8.000 
#    0.000    3.750    0.000    0.000    0.000    0.000 
#    0.000    0.000    0.000    0.000    0.000    0.000 
#
# Total GULP energy -89772.447519 kJ/mol
# GULP energy per Si atom -5610.777970 kJ/mol
# Density = 2.473017 g / cm^3
# Si number density = 24.786588 Si / 1000 Ang^3
#
#
#
# Elastic Constant Matrix: (Units=GPa)
#
#
# Indices 1 2 3 4 5 6 
#
# 1 159.8931 21.3701 43.6000 15.1749 -18.6316 6.3658
# 2 21.3701 84.7987 39.3258 2.1154 -2.7397 25.4587
# 3 43.6000 39.3258 133.5634 22.5690 -20.9063 6.1575
# 4 15.1749 2.1154 22.5690 39.6550 -0.8670 1.3600
# 5 -18.6316 -2.7397 -20.9063 -0.8670 53.2068 4.8178
# 6 6.3658 25.4587 6.1575 1.3600 4.8178 37.2401
#
#
#
# Elastic Compliance Matrix: (Units=1/GPa)
#
#
# Indices 1 2 3 4 5 6 
#
# 1 0.007185 -0.000849 -0.001462 -0.001810 0.001922 -0.000589
# 2 -0.000849 0.017502 -0.004829 0.002514 -0.000249 -0.011081
# 3 -0.001462 -0.004829 0.010707 -0.005260 0.003220 0.001556
# 4 -0.001810 0.002514 -0.005260 0.028772 -0.001981 -0.001334
# 5 0.001922 -0.000249 0.003220 -0.001981 0.020989 -0.003334
# 6 -0.000589 -0.011081 0.001556 -0.001334 -0.003334 0.034752
#
#
# Mechanical properties :
#
#
# Convention : Reuss Voigt Hill
#
# Bulk Modulus (GPa) = 47.35939 65.20523 56.28231
# Shear Modulus (GPa) = 35.40430 44.28434 39.84432
#
# Velocity S-wave (km/s) = 3.78347 4.23143 4.01371
# Velocity P-wave (km/s) = 6.18341 7.08782 6.65100
#
# Compressibility (1/GPa) = 0.02111514
#
# Stress axis : x y z
#
# Youngs Moduli (GPa) = 139.17062 57.13584 93.39541
#
# Poissons Ratio (x) = 0.04850 0.13653
# Poissons Ratio (y) = 0.11814 0.45102
# Poissons Ratio (z) = 0.20344 0.27592
#
# Static dielectric constant tensor:
#      x y z
#    x 1.985500 -0.018130 0.038680 
#    y -0.018130 1.959720 -0.023840 
#    z 0.038680 -0.023840 1.967170 
# 
# From -- ./inp_files/289206.got.cif
#   From: 2010.05.17/outbox.cif.g08.bks.cpg/sg2_145_cif.got.tgz:289206.got - 2010.06.03 11:33:40.
