data_PCOD9038106
_publ_section_title
;
Structure prediction by ZEFSAII (Michael W. Deem and Ramdas Pophale) SiO2 
 PCOD9038106
Probable space group: P -1
;
_chemical_formula_sum "Si O2"
_cell_formula_units_Z 14
_cell_length_a 10.031643
_cell_length_b 7.975604
_cell_length_c 11.763131
_cell_angle_alpha 65.743048
_cell_angle_beta 53.300704
_cell_angle_gamma 44.143670
_cell_volume 525.273387
_symmetry_space_group_name_H-M "P -1"
_symmetry_group_IT_number 2
_symmetry_cell_setting 'triclinic'
loop_
_space_group_symop_operation_xyz
x,y,z
-x,-y,-z
loop_
_atom_site_type_symbol
_atom_site_label
_atom_site_fract_x
_atom_site_fract_y
_atom_site_fract_z
Si Si1 0.991277 0.399268 0.153117
Si Si2 0.851826 0.972812 0.191801
Si Si3 0.271093 0.499410 0.107725
Si Si4 0.430515 0.130214 0.750923
Si Si5 0.782728 0.757501 0.499360
Si Si6 0.568609 0.561984 0.700671
Si Si7 0.646916 0.134353 0.844310
O O1 0.118935 0.437065 0.167369
O O2 0.737265 0.582232 0.263698
O O3 0.127804 0.114302 0.161664
O O4 0.000000 0.500000 0.000000
O O5 0.721127 0.938900 0.177512
O O6 0.839431 0.859762 0.344530
O O7 0.108731 0.789110 0.086537
O O8 0.693649 0.257308 0.214654
O O9 0.343177 0.445609 0.216280
O O10 0.485089 0.328254 0.969027
O O11 0.510528 0.087357 0.851434
O O12 0.640916 0.960097 0.611784
O O13 0.635267 0.688316 0.555079
O O14 0.000000 0.500000 0.500000
O O15 0.676843 0.288160 0.702328
#
# Coordination Sequence:
#
# PCOD9038106 Si02
#       7
#     2   2   2   2   2   2   2
#     4  11  23  39  65  92 130 174 212 254 308 386
#     4  10  23  42  72  91 120 172 230 259 305 380
#     4  11  23  41  67  95 131 174 216 254 313 393
#     4  10  23  41  66  95 126 166 216 263 316 374
#     4  11  22  46  73  91 120 169 232 263 303 385
#     4  11  24  42  64  97 133 169 207 272 325 369
#     4  12  26  40  62 102 141 160 206 267 333 381
#
# _framework density 26.652787
#
# number of rings (size 3 to 8) (size 9 to 14) (size 15 to 20)
#    0.000    1.143    2.857    4.286    8.000    1.714 
#    0.000    3.571    0.000    0.000    0.000    0.000 
#    0.000    0.000    0.000    0.000    0.000    0.000 
#
# Total GULP energy -78394.794382 kJ/mol
# GULP energy per Si atom -5599.628170 kJ/mol
# Density = 2.659212 g / cm^3
# Si number density = 26.652787 Si / 1000 Ang^3
#
#
#
# Elastic Constant Matrix: (Units=GPa)
#
#
# Indices 1 2 3 4 5 6 
#
# 1 86.0631 37.8060 24.0616 12.0967 19.0061 -22.0636
# 2 37.8060 265.3634 37.8811 24.4443 -4.4521 -43.8323
# 3 24.0616 37.8811 99.3662 21.8247 -2.0766 -8.2104
# 4 12.0967 24.4443 21.8247 45.4580 -9.2935 -7.0317
# 5 19.0061 -4.4521 -2.0766 -9.2935 35.0644 4.2705
# 6 -22.0636 -43.8323 -8.2104 -7.0317 4.2705 54.7500
#
#
#
# Elastic Compliance Matrix: (Units=1/GPa)
#
#
# Indices 1 2 3 4 5 6 
#
# 1 0.017576 -0.000870 -0.002694 -0.004331 -0.011717 0.006340
# 2 -0.000870 0.004663 -0.001035 -0.001246 0.000301 0.003044
# 3 -0.002694 -0.001035 0.012041 -0.004427 0.000960 -0.000753
# 4 -0.004331 -0.001246 -0.004427 0.027771 0.009357 -0.000570
# 5 -0.011717 0.000301 0.000960 0.009357 0.038190 -0.006114
# 6 0.006340 0.003044 -0.000753 -0.000570 -0.006114 0.023547
#
#
# Mechanical properties :
#
#
# Convention : Reuss Voigt Hill
#
# Bulk Modulus (GPa) = 39.87033 72.25447 56.06240
# Shear Modulus (GPa) = 35.37355 50.45741 42.91548
#
# Velocity S-wave (km/s) = 3.64703 4.35574 4.01704
# Velocity P-wave (km/s) = 5.72067 7.24327 6.52653
#
# Compressibility (1/GPa) = 0.02508130
#
# Stress axis : x y z
#
# Youngs Moduli (GPa) = 56.89415 214.46587 83.04767
#
# Poissons Ratio (x) = 0.18655 0.22376
# Poissons Ratio (y) = 0.04949 0.08599
# Poissons Ratio (z) = 0.15329 0.22206
#
# Static dielectric constant tensor:
#      x y z
#    x 2.132600 0.039350 -0.066670 
#    y 0.039350 2.218040 -0.037500 
#    z -0.066670 -0.037500 2.186930 
# 
# From -- ./inp_files/416805.got.cif
#   From: 2010.05.17/outbox.cif.g08.bks.cpg/sg2_209_cif.got.tgz:416805.got - 2010.06.03 11:33:40.
