data_PCOD9038921
_publ_section_title
;
Structure prediction by ZEFSAII (Michael W. Deem and Ramdas Pophale) SiO2 
 PCOD9038921
Probable space group: P -1
;
_chemical_formula_sum "Si O2"
_cell_formula_units_Z 14
_cell_length_a 11.596186
_cell_length_b 22.596607
_cell_length_c 13.843926
_cell_angle_alpha 20.426511
_cell_angle_beta 35.691150
_cell_angle_gamma 29.309276
_cell_volume 619.496433
_symmetry_space_group_name_H-M "P -1"
_symmetry_group_IT_number 2
_symmetry_cell_setting 'triclinic'
loop_
_space_group_symop_operation_xyz
x,y,z
-x,-y,-z
loop_
_atom_site_type_symbol
_atom_site_label
_atom_site_fract_x
_atom_site_fract_y
_atom_site_fract_z
Si Si1 0.190260 0.790129 0.919498
Si Si2 0.275925 0.373090 0.492689
Si Si3 0.354271 0.940645 0.400525
Si Si4 0.486188 0.226025 0.942077
Si Si5 0.726166 0.988047 0.320086
Si Si6 0.727127 0.124786 0.653705
Si Si7 0.778117 0.358425 0.415157
O O1 0.272006 0.884074 0.638522
O O2 0.245747 0.844463 0.901751
O O3 0.320802 0.553471 0.176875
O O4 0.904816 0.918380 0.905290
O O5 0.375596 0.233152 0.544850
O O6 0.443858 0.231028 0.683584
O O7 0.000000 0.500000 0.500000
O O8 0.228543 0.927478 0.409958
O O9 0.339424 0.147996 0.108807
O O10 0.612106 0.296796 0.675809
O O11 0.329234 0.409692 0.842096
O O12 0.681113 0.040661 0.158129
O O13 0.962584 0.777730 0.507900
O O14 0.500000 0.000000 0.500000
O O15 0.781984 0.284449 0.416544
#
# Coordination Sequence:
#
# PCOD9038921 Si02
#       7
#     2   2   2   2   2   2   2
#     4  11  21  44  65  91 132 170 211 266 321 375
#     4  10  24  40  65  97 127 167 210 262 327 383
#     4  10  23  42  64  97 130 164 215 268 314 390
#     4  11  23  45  63  97 129 167 225 259 324 381
#     4  11  23  42  67  95 130 174 216 267 319 382
#     4   9  23  41  66  93 127 167 211 264 320 380
#     4  10  24  44  68  91 131 176 210 272 319 382
#
# _framework density 22.599001000000001
#
# number of rings (size 3 to 8) (size 9 to 14) (size 15 to 20)
#    0.857    0.857    1.429    2.143    4.000    2.857 
#   10.286    0.000    0.000    0.000    0.000    0.000 
#    0.000    0.000    0.000    0.000    0.000    0.000 
#
# Total GULP energy -78140.524690 kJ/mol
# GULP energy per Si atom -5581.466049 kJ/mol
# Density = 2.254756 g / cm^3
# Si number density = 22.599001 Si / 1000 Ang^3
#
#
#
# Elastic Constant Matrix: (Units=GPa)
#
#
# Indices 1 2 3 4 5 6 
#
# 1 114.8022 39.6954 31.6493 -22.8586 -8.3258 12.2554
# 2 39.6954 76.6174 28.0003 -16.7799 -9.2711 -9.9431
# 3 31.6493 28.0003 80.3760 -14.8501 -16.4917 -1.3261
# 4 -22.8586 -16.7799 -14.8501 35.2026 6.3553 1.4772
# 5 -8.3258 -9.2711 -16.4917 6.3553 22.6166 -6.1232
# 6 12.2554 -9.9431 -1.3261 1.4772 -6.1232 25.9340
#
#
#
# Elastic Compliance Matrix: (Units=1/GPa)
#
#
# Indices 1 2 3 4 5 6 
#
# 1 0.013844 -0.006685 -0.003150 0.005720 -0.004428 -0.010637
# 2 -0.006685 0.020376 -0.002396 0.002630 0.006733 0.012289
# 3 -0.003150 -0.002396 0.017173 0.001925 0.010899 0.003911
# 4 0.005720 0.002630 0.001925 0.035643 -0.006848 -0.005243
# 5 -0.004428 0.006733 0.010899 -0.006848 0.060613 0.019932
# 6 -0.010637 0.012289 0.003911 -0.005243 0.019932 0.053502
#
#
# Mechanical properties :
#
#
# Convention : Reuss Voigt Hill
#
# Bulk Modulus (GPa) = 37.13084 52.27619 44.70352
# Shear Modulus (GPa) = 21.31374 28.24735 24.78055
#
# Velocity S-wave (km/s) = 3.07437 3.53928 3.31499
# Velocity P-wave (km/s) = 5.39150 6.31540 5.87165
#
# Compressibility (1/GPa) = 0.02693179
#
# Stress axis : x y z
#
# Youngs Moduli (GPa) = 72.23463 49.07625 58.23138
#
# Poissons Ratio (x) = 0.32807 0.18341
# Poissons Ratio (y) = 0.48289 0.13953
# Poissons Ratio (z) = 0.22751 0.11759
#
# Static dielectric constant tensor:
#      x y z
#    x 1.857770 -0.044660 -0.020160 
#    y -0.044660 1.899620 0.014220 
#    z -0.020160 0.014220 1.834510 
# 
# From -- ./inp_files/524342.got.cif
#   From: 2010.05.17/outbox.cif.g08.bks.cpg/sg2_263_cif.got.tgz:524342.got - 2010.06.03 11:33:40.
