data_PCOD9038465
_publ_section_title
;
Structure prediction by ZEFSAII (Michael W. Deem and Ramdas Pophale) SiO2 
 PCOD9038465
Probable space group: P -1
;
_chemical_formula_sum "Si O2"
_cell_formula_units_Z 14
_cell_length_a 14.221496
_cell_length_b 19.662329
_cell_length_c 8.696225
_cell_angle_alpha 29.378123
_cell_angle_beta 133.204258
_cell_angle_gamma 149.940525
_cell_volume 573.063230
_symmetry_space_group_name_H-M "P -1"
_symmetry_group_IT_number 2
_symmetry_cell_setting 'triclinic'
loop_
_space_group_symop_operation_xyz
x,y,z
-x,-y,-z
loop_
_atom_site_type_symbol
_atom_site_label
_atom_site_fract_x
_atom_site_fract_y
_atom_site_fract_z
Si Si1 0.126053 0.011365 0.774070
Si Si2 0.328216 0.758248 0.328213
Si Si3 0.295927 0.271946 0.165334
Si Si4 0.868898 0.683709 0.662326
Si Si5 0.172708 0.868358 0.392847
Si Si6 0.982527 0.479720 0.300002
Si Si7 0.522666 0.746960 0.833855
O O1 0.239508 0.108208 0.549644
O O2 0.126200 0.169347 0.528577
O O3 0.898035 0.790013 0.928090
O O4 0.215182 0.989462 0.048491
O O5 0.159556 0.683580 0.398536
O O6 0.417841 0.713953 0.625899
O O7 0.203063 0.615203 0.320703
O O8 0.500000 0.000000 0.000000
O O9 0.324595 0.239873 0.088103
O O10 0.500000 0.500000 0.000000
O O11 0.989035 0.788217 0.433582
O O12 0.971194 0.636390 0.958025
O O13 0.642766 0.454539 0.848909
O O14 0.108393 0.665372 0.665755
O O15 0.359972 0.035296 0.382648
#
# Coordination Sequence:
#
# PCOD9038465 Si02
#       7
#     2   2   2   2   2   2   2
#     4  11  26  42  71  98 135 176 228 273 340 393
#     4  10  23  41  69  98 132 176 229 279 326 397
#     4  11  24  43  69  98 136 178 226 280 334 398
#     4  11  23  45  65  97 138 179 218 280 334 399
#     4  12  26  44  68 103 138 178 222 278 337 405
#     4  10  25  43  68  98 137 179 224 269 341 399
#     4  11  25  42  70  99 140 172 227 280 340 390
#
# _framework density 24.430114
#
# number of rings (size 3 to 8) (size 9 to 14) (size 15 to 20)
#    0.000    1.143    2.857    1.714    4.000    7.429 
#    0.000    0.000    0.000    0.000    0.000    0.000 
#    0.000    0.000    0.000    0.000    0.000    0.000 
#
# Total GULP energy -78315.382143 kJ/mol
# GULP energy per Si atom -5593.955867 kJ/mol
# Density = 2.437451 g / cm^3
# Si number density = 24.430114 Si / 1000 Ang^3
#
#
#
# Elastic Constant Matrix: (Units=GPa)
#
#
# Indices 1 2 3 4 5 6 
#
# 1 50.4713 15.9842 5.3572 -19.6811 1.2999 -8.4662
# 2 15.9842 114.2880 26.5091 -31.4248 7.0765 0.9451
# 3 5.3572 26.5091 78.2725 -15.7507 3.8599 2.4997
# 4 -19.6811 -31.4248 -15.7507 47.1673 5.5637 -2.4484
# 5 1.2999 7.0765 3.8599 5.5637 44.2403 -14.2129
# 6 -8.4662 0.9451 2.4997 -2.4484 -14.2129 30.3857
#
#
#
# Elastic Compliance Matrix: (Units=1/GPa)
#
#
# Indices 1 2 3 4 5 6 
#
# 1 0.025534 -0.000868 0.000370 0.010548 0.000691 0.008284
# 2 -0.000868 0.011449 -0.002276 0.006779 -0.002844 -0.001195
# 3 0.000370 -0.002276 0.014384 0.003579 -0.001864 -0.001593
# 4 0.010548 0.006779 0.003579 0.032029 -0.004853 0.002745
# 5 0.000691 -0.002844 -0.001864 -0.004853 0.028039 0.013158
# 6 0.008284 -0.001195 -0.001593 0.002745 0.013158 0.041763
#
#
# Mechanical properties :
#
#
# Convention : Reuss Voigt Hill
#
# Bulk Modulus (GPa) = 21.82429 37.63696 29.73063
# Shear Modulus (GPa) = 28.73283 37.37075 33.05179
#
# Velocity S-wave (km/s) = 3.43319 3.91538 3.68219
# Velocity P-wave (km/s) = 4.96673 5.98997 5.50219
#
# Compressibility (1/GPa) = 0.04582050
#
# Stress axis : x y z
#
# Youngs Moduli (GPa) = 39.16376 87.34389 69.52088
#
# Poissons Ratio (x) = 0.07581 -0.02574
# Poissons Ratio (y) = 0.03399 0.15820
# Poissons Ratio (z) = -0.01450 0.19876
#
# Static dielectric constant tensor:
#      x y z
#    x 1.988920 0.004300 0.025180 
#    y 0.004300 1.968680 0.020370 
#    z 0.025180 0.020370 1.942770 
# 
# From -- ./inp_files/319185.got.cif
#   From: 2010.05.17/outbox.cif.g08.bks.cpg/sg2_160_cif.got.tgz:319185.got - 2010.06.03 11:33:40.
