data_PCOD9038077
_publ_section_title
;
Structure prediction by ZEFSAII (Michael W. Deem and Ramdas Pophale) SiO2 
 PCOD9038077
Probable space group: P -1
;
_chemical_formula_sum "Si O2"
_cell_formula_units_Z 12
_cell_length_a 14.678438
_cell_length_b 21.294141
_cell_length_c 5.297601
_cell_angle_alpha 109.081407
_cell_angle_beta 114.848208
_cell_angle_gamma 21.529855
_cell_volume 541.141509
_symmetry_space_group_name_H-M "P -1"
_symmetry_group_IT_number 2
_symmetry_cell_setting 'triclinic'
loop_
_space_group_symop_operation_xyz
x,y,z
-x,-y,-z
loop_
_atom_site_type_symbol
_atom_site_label
_atom_site_fract_x
_atom_site_fract_y
_atom_site_fract_z
Si Si1 0.612908 0.050369 0.767925
Si Si2 0.019191 0.068159 0.088879
Si Si3 0.806162 0.182896 0.491741
Si Si4 0.245936 0.109329 0.787467
Si Si5 0.004398 0.570152 0.479387
Si Si6 0.207540 0.509128 0.145405
O O1 0.722850 0.939828 0.518989
O O2 0.696148 0.075345 0.831905
O O3 0.303289 0.225860 0.649918
O O4 0.737155 0.954990 0.054270
O O5 0.915940 0.157273 0.351978
O O6 0.831233 0.202459 0.815711
O O7 0.000000 0.000000 0.000000
O O8 0.512805 0.339705 0.298868
O O9 0.000000 0.000000 0.500000
O O10 0.982979 0.313405 0.771238
O O11 0.500000 0.000000 0.000000
O O12 0.000000 0.500000 0.500000
O O13 0.144800 0.492905 0.270308
O O14 0.132808 0.534831 0.806522
#
# Coordination Sequence:
#
# PCOD9038077 Si02
#       6
#     2   2   2   2   2   2
#     4  12  24  43  71 102 135 180 221 276 339 403
#     4  10  23  43  66  94 130 179 225 271 329 394
#     4  10  23  41  66  89 130 178 222 266 329 392
#     4  12  23  45  68 101 142 176 221 269 340 414
#     4  12  26  39  67 106 139 163 228 285 345 399
#     4  12  25  44  67 101 137 180 218 278 339 401
#
# _framework density 22.175345
#
# number of rings (size 3 to 8) (size 9 to 14) (size 15 to 20)
#    0.000    0.667    3.333    4.000    9.333    0.000 
#    0.000    5.000    0.000    0.000    0.000    0.000 
#    0.000    0.000    0.000    0.000    0.000    0.000 
#
# Total GULP energy -67083.505425 kJ/mol
# GULP energy per Si atom -5590.292119 kJ/mol
# Density = 2.212487 g / cm^3
# Si number density = 22.175345 Si / 1000 Ang^3
#
#
#
# Elastic Constant Matrix: (Units=GPa)
#
#
# Indices 1 2 3 4 5 6 
#
# 1 101.9665 4.0644 29.5242 -11.2378 -13.0411 -32.4816
# 2 4.0644 66.5351 16.5513 -29.7764 3.8014 -9.8677
# 3 29.5242 16.5513 135.8340 -11.5129 -13.4261 -22.9395
# 4 -11.2378 -29.7764 -11.5129 38.8886 -10.7924 6.0273
# 5 -13.0411 3.8014 -13.4261 -10.7924 49.4649 -1.9869
# 6 -32.4816 -9.8677 -22.9395 6.0273 -1.9869 33.3538
#
#
#
# Elastic Compliance Matrix: (Units=1/GPa)
#
#
# Indices 1 2 3 4 5 6 
#
# 1 0.016441 0.004315 -0.000129 0.007216 0.006196 0.016264
# 2 0.004315 0.024727 -0.000594 0.019834 0.003715 0.007746
# 3 -0.000129 -0.000594 0.008901 0.002138 0.003120 0.005620
# 4 0.007216 0.019834 0.002138 0.045676 0.011196 0.006778
# 5 0.006196 0.003715 0.003120 0.011196 0.025206 0.008757
# 6 0.016264 0.007746 0.005620 0.006778 0.008757 0.051275
#
#
# Mechanical properties :
#
#
# Convention : Reuss Voigt Hill
#
# Bulk Modulus (GPa) = 17.46639 44.95726 31.21182
# Shear Modulus (GPa) = 27.15534 41.28784 34.22159
#
# Velocity S-wave (km/s) = 3.50319 4.31963 3.93265
# Velocity P-wave (km/s) = 4.92511 6.72283 5.89293
#
# Compressibility (1/GPa) = 0.05725283
#
# Stress axis : x y z
#
# Youngs Moduli (GPa) = 60.82316 40.44173 112.34675
#
# Poissons Ratio (x) = -0.17451 0.01445
# Poissons Ratio (y) = -0.26245 0.06679
# Poissons Ratio (z) = 0.00782 0.02404
#
# Static dielectric constant tensor:
#      x y z
#    x 1.869320 0.021450 -0.019650 
#    y 0.021450 1.787770 0.015340 
#    z -0.019650 0.015340 1.833210 
# 
# From -- ./inp_files/23158.got.cif
#   From: 2010.05.17/outbox.cif.g08.bks.cpg/sg2_12_cif.got.tgz:23158.got - 2010.06.03 11:33:40.
