data_PCOD9038072
_publ_section_title
;
Structure prediction by ZEFSAII (Michael W. Deem and Ramdas Pophale) SiO2 
 PCOD9038072
Probable space group: P -1
;
_chemical_formula_sum "Si O2"
_cell_formula_units_Z 12
_cell_length_a 22.084018
_cell_length_b 5.208783
_cell_length_c 13.262941
_cell_angle_alpha 85.993197
_cell_angle_beta 157.487220
_cell_angle_gamma 105.502000
_cell_volume 493.877262
_symmetry_space_group_name_H-M "P -1"
_symmetry_group_IT_number 2
_symmetry_cell_setting 'triclinic'
loop_
_space_group_symop_operation_xyz
x,y,z
-x,-y,-z
loop_
_atom_site_type_symbol
_atom_site_label
_atom_site_fract_x
_atom_site_fract_y
_atom_site_fract_z
Si Si1 0.392966 0.497629 0.235962
Si Si2 0.285239 0.086944 0.681301
Si Si3 0.091548 0.479173 0.873734
Si Si4 0.523207 0.165702 0.875570
Si Si5 0.902796 0.737449 0.442296
Si Si6 0.590984 0.184969 0.480013
O O1 0.500000 0.500000 0.500000
O O2 0.484848 0.368227 0.305163
O O3 0.448758 0.845979 0.310308
O O4 0.179556 0.318758 0.948814
O O5 0.105219 0.773472 0.375298
O O6 0.412706 0.263822 0.776811
O O7 0.196837 0.219527 0.615423
O O8 0.400528 0.996660 0.932912
O O9 0.041032 0.648471 0.706781
O O10 0.233037 0.660622 0.178193
O O11 0.381850 0.914806 0.585715
O O12 0.715873 0.440551 0.114388
O O13 0.000000 0.000000 0.500000
#
# Coordination Sequence:
#
# PCOD9038072 Si02
#       6
#     2   2   2   2   2   2
#     4  10  23  41  66 105 148 180 224 293 362 411
#     4  10  24  45  69  91 149 182 238 281 353 422
#     4  10  24  42  68 106 138 183 232 293 352 414
#     4  10  25  46  65 101 135 196 228 289 352 420
#     4  11  26  43  72 104 141 182 239 292 351 419
#     4  11  25  42  73 104 142 184 235 292 355 418
#
# _framework density 24.297535
#
# number of rings (size 3 to 8) (size 9 to 14) (size 15 to 20)
#    0.000    1.667    0.000    2.500   14.000    2.000 
#    0.000    3.333    0.000    0.000    0.000    0.000 
#    0.000    0.000    0.000    0.000    0.000    0.000 
#
# Total GULP energy -66948.521094 kJ/mol
# GULP energy per Si atom -5579.043425 kJ/mol
# Density = 2.424223 g / cm^3
# Si number density = 24.297535 Si / 1000 Ang^3
#
#
#
# Elastic Constant Matrix: (Units=GPa)
#
#
# Indices 1 2 3 4 5 6 
#
# 1 135.7611 20.0385 68.9632 13.7386 7.2117 -16.3954
# 2 20.0385 77.9757 52.5054 -3.5990 5.6223 -0.2425
# 3 68.9632 52.5054 163.1867 0.5878 -21.7154 5.3246
# 4 13.7386 -3.5990 0.5878 47.5707 -7.4008 5.9536
# 5 7.2117 5.6223 -21.7154 -7.4008 42.3435 12.5905
# 6 -16.3954 -0.2425 5.3246 5.9536 12.5905 37.5106
#
#
#
# Elastic Compliance Matrix: (Units=1/GPa)
#
#
# Indices 1 2 3 4 5 6 
#
# 1 0.014764 0.003177 -0.009413 -0.007621 -0.013083 0.013411
# 2 0.003177 0.018579 -0.008809 -0.001697 -0.009690 0.006281
# 3 -0.009413 -0.008809 0.015370 0.005809 0.015367 -0.012433
# 4 -0.007621 -0.001697 0.005809 0.026630 0.012944 -0.012738
# 5 -0.013083 -0.009690 0.015367 0.012944 0.044716 -0.025026
# 6 0.013411 0.006281 -0.012433 -0.012738 -0.025026 0.044748
#
#
# Mechanical properties :
#
#
# Convention : Reuss Voigt Hill
#
# Bulk Modulus (GPa) = 53.69271 73.32641 63.50956
# Shear Modulus (GPa) = 24.86263 41.17938 33.02101
#
# Velocity S-wave (km/s) = 3.20231 4.12126 3.69050
# Velocity P-wave (km/s) = 5.98490 7.27258 6.65993
#
# Compressibility (1/GPa) = 0.01862450
#
# Stress axis : x y z
#
# Youngs Moduli (GPa) = 67.73113 53.82293 65.06254
#
# Poissons Ratio (x) = -0.17101 0.61243
# Poissons Ratio (y) = -0.21521 0.57313
# Poissons Ratio (z) = 0.63755 0.47412
#
# Static dielectric constant tensor:
#      x y z
#    x 2.017650 0.082160 -0.015000 
#    y 0.082160 2.018080 -0.009880 
#    z -0.015000 -0.009880 1.997210 
# 
# From -- ./inp_files/542187.got.cif
#   From: 2010.05.17/outbox.cif.g08.bks.cpg/sg2_272_cif.got.tgz:542187.got - 2010.06.03 11:33:40.
