data_PCOD9038671
_publ_section_title
;
Structure prediction by ZEFSAII (Michael W. Deem and Ramdas Pophale) SiO2 
 PCOD9038671
Probable space group: P -1
;
_chemical_formula_sum "Si O2"
_cell_formula_units_Z 12
_cell_length_a 5.286869
_cell_length_b 24.552091
_cell_length_c 17.380568
_cell_angle_alpha 16.296854
_cell_angle_beta 123.148154
_cell_angle_gamma 130.703486
_cell_volume 445.493044
_symmetry_space_group_name_H-M "P -1"
_symmetry_group_IT_number 2
_symmetry_cell_setting 'triclinic'
loop_
_space_group_symop_operation_xyz
x,y,z
-x,-y,-z
loop_
_atom_site_type_symbol
_atom_site_label
_atom_site_fract_x
_atom_site_fract_y
_atom_site_fract_z
Si Si1 0.826224 0.743292 0.793949
Si Si2 0.097036 0.462851 0.651228
Si Si3 0.103354 0.621435 0.754885
Si Si4 0.061809 0.537432 0.213854
Si Si5 0.786624 0.923655 0.146969
Si Si6 0.870882 0.946940 0.807907
O O1 0.480531 0.690786 0.760398
O O2 0.053785 0.655724 0.903294
O O3 0.000000 0.000000 0.500000
O O4 0.774834 0.612163 0.044700
O O5 0.000000 0.500000 0.500000
O O6 0.955826 0.531391 0.607749
O O7 0.525361 0.642893 0.484892
O O8 0.964908 0.195563 0.004353
O O9 0.094067 0.660298 0.609194
O O10 0.999752 0.790333 0.547063
O O11 0.452933 0.773895 0.951706
O O12 0.044386 0.042527 0.101660
O O13 0.500000 0.000000 0.000000
O O14 0.000000 0.000000 0.000000
#
# Coordination Sequence:
#
# PCOD9038671 Si02
#       6
#     2   2   2   2   2   2
#     4   9  17  38  71 105 140 191 237 307 372 450
#     4  12  27  46  66 103 145 193 248 310 371 442
#     4   9  19  37  70 105 141 192 242 304 373 450
#     4  10  23  41  73 102 142 191 245 298 373 446
#     4  12  29  48  74 105 148 199 259 316 379 445
#     4  12  24  41  71 101 144 187 251 304 373 439
#
# _framework density 26.936443000000001
#
# number of rings (size 3 to 8) (size 9 to 14) (size 15 to 20)
#    1.000    0.333    3.333    2.000    4.667    1.333 
#    0.000    0.833    0.000    4.000    0.000    0.000 
#    0.000    0.000    0.000    0.000    0.000    0.000 
#
# Total GULP energy -66852.671917 kJ/mol
# GULP energy per Si atom -5571.055993 kJ/mol
# Density = 2.687513 g / cm^3
# Si number density = 26.936443 Si / 1000 Ang^3
#
#
#
# Elastic Constant Matrix: (Units=GPa)
#
#
# Indices 1 2 3 4 5 6 
#
# 1 68.9495 27.6735 38.6990 -3.2283 21.1228 -8.4937
# 2 27.6735 238.7752 8.6530 -15.2911 -2.5185 7.2692
# 3 38.6990 8.6530 148.5789 -36.3084 50.2101 -4.8403
# 4 -3.2283 -15.2911 -36.3084 47.3774 2.3199 -1.0075
# 5 21.1228 -2.5185 50.2101 2.3199 51.2015 -0.1813
# 6 -8.4937 7.2692 -4.8403 -1.0075 -0.1813 49.0085
#
#
#
# Elastic Compliance Matrix: (Units=1/GPa)
#
#
# Indices 1 2 3 4 5 6 
#
# 1 0.019195 -0.002364 -0.003905 -0.002178 -0.004096 0.003232
# 2 -0.002364 0.004587 0.000512 0.001660 0.000620 -0.001003
# 3 -0.003905 0.000512 0.015667 0.012627 -0.014297 0.001001
# 4 -0.002178 0.001660 0.012627 0.031827 -0.012840 0.001230
# 5 -0.004096 0.000620 -0.014297 -0.012840 0.035844 -0.002345
# 6 0.003232 -0.001003 0.001001 0.001230 -0.002345 0.021229
#
#
# Mechanical properties :
#
#
# Convention : Reuss Voigt Hill
#
# Bulk Modulus (GPa) = 35.79694 67.37274 51.58484
# Shear Modulus (GPa) = 33.51792 54.93603 44.22697
#
# Velocity S-wave (km/s) = 3.53134 4.52095 4.05643
# Velocity P-wave (km/s) = 5.47224 7.23312 6.41340
#
# Compressibility (1/GPa) = 0.02793535
#
# Stress axis : x y z
#
# Youngs Moduli (GPa) = 52.09775 218.01334 63.82697
#
# Poissons Ratio (x) = 0.51543 0.24923
# Poissons Ratio (y) = 0.12317 -0.03269
# Poissons Ratio (z) = 0.20343 -0.11166
#
# Static dielectric constant tensor:
#      x y z
#    x 2.341840 0.037700 -0.015630 
#    y 0.037700 2.088320 0.087300 
#    z -0.015630 0.087300 2.307720 
# 
# From -- ./inp_files/321522.got.cif
#   From: 2010.05.17/outbox.cif.g08.bks.cpg/sg2_161_cif.got.tgz:321522.got - 2010.06.03 11:33:40.
