data_PCOD9038736
_publ_section_title
;
Structure prediction by ZEFSAII (Michael W. Deem and Ramdas Pophale) SiO2 
 PCOD9038736
Probable space group: P -1
;
_chemical_formula_sum "Si O2"
_cell_formula_units_Z 14
_cell_length_a 5.539742
_cell_length_b 16.836303
_cell_length_c 19.587877
_cell_angle_alpha 160.227728
_cell_angle_beta 79.222174
_cell_angle_gamma 93.357762
_cell_volume 567.966548
_symmetry_space_group_name_H-M "P -1"
_symmetry_group_IT_number 2
_symmetry_cell_setting 'triclinic'
loop_
_space_group_symop_operation_xyz
x,y,z
-x,-y,-z
loop_
_atom_site_type_symbol
_atom_site_label
_atom_site_fract_x
_atom_site_fract_y
_atom_site_fract_z
Si Si1 0.971353 0.070421 0.637780
Si Si2 0.503522 0.998324 0.773972
Si Si3 0.093516 0.514511 0.198975
Si Si4 0.237174 0.785615 0.977183
Si Si5 0.205831 0.747490 0.680118
Si Si6 0.373511 0.223083 0.825394
Si Si7 0.488881 0.283325 0.226789
O O1 0.190298 0.179951 0.741154
O O2 0.662352 0.225572 0.794302
O O3 0.042510 0.797295 0.449136
O O4 0.000000 0.000000 0.500000
O O5 0.770645 0.024057 0.805293
O O6 0.442162 0.001601 0.700442
O O7 0.426416 0.812297 0.675145
O O8 0.325540 0.288236 0.039394
O O9 0.191213 0.459810 0.070832
O O10 0.849165 0.429476 0.158714
O O11 0.457269 0.661474 0.808574
O O12 0.033662 0.995244 0.108392
O O13 0.218724 0.488047 0.434509
O O14 0.299194 0.706073 0.719352
O O15 0.500000 0.000000 0.000000
#
# Coordination Sequence:
#
# PCOD9038736 Si02
#       7
#     2   2   2   2   2   2   2
#     4  12  26  45  75 106 138 184 227 274 353 418
#     4   9  21  43  63  94 131 176 225 277 338 399
#     4   9  25  41  67 101 134 177 231 279 340 410
#     4  11  21  43  66  92 132 180 233 281 343 407
#     4  10  23  42  59  93 127 171 226 282 341 403
#     4  10  25  46  67 103 142 175 227 286 335 406
#     4  11  23  41  62  91 134 174 227 288 349 398
#
# _framework density 24.649342000000001
#
# number of rings (size 3 to 8) (size 9 to 14) (size 15 to 20)
#    0.857    0.857    1.429    1.714    4.000    1.714 
#    2.571    0.000    0.000    0.000    0.000    0.000 
#    0.000    0.000    0.000    0.000    0.000    0.000 
#
# Total GULP energy -77997.368163 kJ/mol
# GULP energy per Si atom -5571.240583 kJ/mol
# Density = 2.459324 g / cm^3
# Si number density = 24.649342 Si / 1000 Ang^3
#
#
#
# Elastic Constant Matrix: (Units=GPa)
#
#
# Indices 1 2 3 4 5 6 
#
# 1 53.3002 32.8686 -3.3584 -24.6395 -5.3338 -6.6036
# 2 32.8686 109.1248 10.3626 -23.0563 -3.7905 -12.8939
# 3 -3.3584 10.3626 106.3797 -2.3811 -6.8020 1.5991
# 4 -24.6395 -23.0563 -2.3811 42.4767 1.6735 2.9289
# 5 -5.3338 -3.7905 -6.8020 1.6735 18.4766 -6.7254
# 6 -6.6036 -12.8939 1.5991 2.9289 -6.7254 45.9905
#
#
#
# Elastic Compliance Matrix: (Units=1/GPa)
#
#
# Indices 1 2 3 4 5 6 
#
# 1 0.030040 -0.005689 0.002292 0.013942 0.008157 0.002944
# 2 -0.005689 0.011943 -0.001252 0.002898 0.001008 0.002538
# 3 0.002292 -0.001252 0.009871 0.001035 0.004001 0.000154
# 4 0.013942 0.002898 0.001035 0.033097 0.002373 0.001017
# 5 0.008157 0.001008 0.004001 0.002373 0.061647 0.010179
# 6 0.002944 0.002538 0.000154 0.001017 0.010179 0.024296
#
#
# Mechanical properties :
#
#
# Convention : Reuss Voigt Hill
#
# Bulk Modulus (GPa) = 23.49783 38.72781 31.11282
# Shear Modulus (GPa) = 25.72296 36.65088 31.18692
#
# Velocity S-wave (km/s) = 3.23392 3.86021 3.56086
# Velocity P-wave (km/s) = 4.84745 5.96773 5.43653
#
# Compressibility (1/GPa) = 0.04255713
#
# Stress axis : x y z
#
# Youngs Moduli (GPa) = 33.28869 83.72795 101.30400
#
# Poissons Ratio (x) = 0.47633 -0.23218
# Poissons Ratio (y) = 0.18938 0.12682
# Poissons Ratio (z) = -0.07630 0.10481
#
# Static dielectric constant tensor:
#      x y z
#    x 2.384290 -0.081990 0.029400 
#    y -0.081990 2.222310 -0.014610 
#    z 0.029400 -0.014610 2.012870 
# 
# From -- ./inp_files/583879.got.cif
#   From: 2010.05.17/outbox.cif.g08.bks.cpg/sg2_292_cif.got.tgz:583879.got - 2010.06.03 11:33:40.
