data_PCOD9038983
_publ_section_title
;
Structure prediction by ZEFSAII (Michael W. Deem and Ramdas Pophale) SiO2 
 PCOD9038983
Probable space group: P -1
;
_chemical_formula_sum "Si O2"
_cell_formula_units_Z 16
_cell_length_a 14.836034
_cell_length_b 12.189675
_cell_length_c 13.007856
_cell_angle_alpha 44.274927
_cell_angle_beta 27.153976
_cell_angle_gamma 40.107408
_cell_volume 686.593753
_symmetry_space_group_name_H-M "P -1"
_symmetry_group_IT_number 2
_symmetry_cell_setting 'triclinic'
loop_
_space_group_symop_operation_xyz
x,y,z
-x,-y,-z
loop_
_atom_site_type_symbol
_atom_site_label
_atom_site_fract_x
_atom_site_fract_y
_atom_site_fract_z
Si Si1 0.558606 0.928759 0.104751
Si Si2 0.340572 0.120465 0.666020
Si Si3 0.619582 0.302785 0.355132
Si Si4 0.399339 0.690420 0.334293
Si Si5 0.402537 0.282065 0.104934
Si Si6 0.027387 0.894560 0.701124
Si Si7 0.191104 0.842329 0.103249
Si Si8 0.086783 0.649029 0.157932
O O1 0.802167 0.881209 0.920666
O O2 0.411264 0.089772 0.216765
O O3 0.527815 0.753275 0.245380
O O4 0.500000 0.000000 0.000000
O O5 0.485773 0.187591 0.544309
O O6 0.147788 0.280301 0.702268
O O7 0.500000 0.000000 0.500000
O O8 0.225254 0.005810 0.910959
O O9 0.449843 0.492681 0.428727
O O10 0.809463 0.226973 0.297345
O O11 0.745878 0.320390 0.111776
O O12 0.482810 0.704987 0.126807
O O13 0.160107 0.830025 0.504857
O O14 0.567151 0.283047 0.025860
O O15 0.181406 0.446937 0.223113
O O16 0.952203 0.084188 0.698736
O O17 0.085943 0.758785 0.185664
#
# Coordination Sequence:
#
# PCOD9038983 Si02
#       8
#     2   2   2   2   2   2   2   2
#     4   9  21  41  61  89 124 173 213 257 316 374
#     4  12  24  42  70  94 134 168 216 265 324 392
#     4  11  24  40  65 100 128 169 217 268 323 381
#     4  10  23  42  65  92 134 170 215 266 317 385
#     4   9  22  41  68  94 130 171 212 269 317 384
#     4  11  23  39  65  97 129 169 216 263 321 381
#     4  11  22  42  68  97 129 173 215 265 324 385
#     4  11  22  45  67  95 133 167 213 274 328 370
#
# _framework density 23.303446000000001
#
# number of rings (size 3 to 8) (size 9 to 14) (size 15 to 20)
#    0.000    1.500    2.500    1.875    3.500    8.000 
#    0.000    3.125    0.000    0.000    0.000    0.000 
#    0.000    0.000    0.000    0.000    0.000    0.000 
#
# Total GULP energy -89389.180818 kJ/mol
# GULP energy per Si atom -5586.823801 kJ/mol
# Density = 2.325041 g / cm^3
# Si number density = 23.303446 Si / 1000 Ang^3
#
#
#
# Elastic Constant Matrix: (Units=GPa)
#
#
# Indices 1 2 3 4 5 6 
#
# 1 98.1678 53.6035 24.8067 -1.8438 -24.4975 -2.9686
# 2 53.6035 146.9009 42.2662 14.5531 -15.8182 2.3367
# 3 24.8067 42.2662 80.4218 17.0138 -17.8362 8.9876
# 4 -1.8438 14.5531 17.0138 39.1454 1.6120 -9.7610
# 5 -24.4975 -15.8182 -17.8362 1.6120 37.0204 10.8785
# 6 -2.9686 2.3367 8.9876 -9.7610 10.8785 40.0786
#
#
#
# Elastic Compliance Matrix: (Units=1/GPa)
#
#
# Indices 1 2 3 4 5 6 
#
# 1 0.014809 -0.004572 -0.001237 0.002748 0.007011 0.000407
# 2 -0.004572 0.009616 -0.002950 -0.002739 0.000052 -0.000919
# 3 -0.001237 -0.002950 0.020219 -0.010718 0.011089 -0.010074
# 4 0.002748 -0.002739 -0.010718 0.035296 -0.010206 0.014133
# 5 0.007011 0.000052 0.011089 -0.010206 0.042130 -0.015892
# 6 0.000407 -0.000919 -0.010074 0.014133 -0.015892 0.035049
#
#
# Mechanical properties :
#
#
# Convention : Reuss Voigt Hill
#
# Bulk Modulus (GPa) = 36.86406 62.98259 49.92333
# Shear Modulus (GPa) = 27.22135 36.90315 32.06225
#
# Velocity S-wave (km/s) = 3.42149 3.98375 3.71328
# Velocity P-wave (km/s) = 5.60913 6.94595 6.31302
#
# Compressibility (1/GPa) = 0.02712669
#
# Stress axis : x y z
#
# Youngs Moduli (GPa) = 67.52666 103.99646 49.45813
#
# Poissons Ratio (x) = 0.47542 0.06119
# Poissons Ratio (y) = 0.30870 0.14589
# Poissons Ratio (z) = 0.08355 0.30677
#
# Static dielectric constant tensor:
#      x y z
#    x 1.914990 -0.029530 0.102230 
#    y -0.029530 1.887110 -0.018700 
#    z 0.102230 -0.018700 1.977880 
# 
# From -- ./inp_files/531707.got.cif
#   From: 2010.05.17/outbox.cif.g08.bks.cpg/sg2_266_cif.got.tgz:531707.got - 2010.06.03 11:33:40.
