data_PCOD9038068
_publ_section_title
;
Structure prediction by ZEFSAII (Michael W. Deem and Ramdas Pophale) SiO2 
 PCOD9038068
Probable space group: P -1
;
_chemical_formula_sum "Si O2"
_cell_formula_units_Z 16
_cell_length_a 11.814759
_cell_length_b 9.293846
_cell_length_c 13.806633
_cell_angle_alpha 111.030090
_cell_angle_beta 64.055706
_cell_angle_gamma 55.792767
_cell_volume 655.997893
_symmetry_space_group_name_H-M "P -1"
_symmetry_group_IT_number 2
_symmetry_cell_setting 'triclinic'
loop_
_space_group_symop_operation_xyz
x,y,z
-x,-y,-z
loop_
_atom_site_type_symbol
_atom_site_label
_atom_site_fract_x
_atom_site_fract_y
_atom_site_fract_z
Si Si1 0.079561 0.352262 0.819056
Si Si2 0.071682 0.145359 0.252301
Si Si3 0.876840 0.783378 0.432344
Si Si4 0.687963 0.243323 0.128237
Si Si5 0.931883 0.294075 0.005131
Si Si6 0.136932 0.859373 0.516358
Si Si7 0.342380 0.169797 0.197528
Si Si8 0.435298 0.145937 0.367941
O O1 0.048955 0.400796 0.729410
O O2 0.046065 0.561543 0.918857
O O3 0.346369 0.035412 0.687574
O O4 0.922000 0.371235 0.918935
O O5 0.236549 0.106681 0.229573
O O6 0.024386 0.051450 0.319173
O O7 0.800851 0.503687 0.434452
O O8 0.191185 0.966416 0.062222
O O9 0.640137 0.951135 0.604195
O O10 0.103438 0.530103 0.359480
O O11 0.828682 0.994420 0.449869
O O12 0.726069 0.386162 0.129384
O O13 0.405051 0.507594 0.316025
O O14 0.832110 0.044413 0.123674
O O15 0.000000 0.000000 0.500000
O O16 0.479751 0.087365 0.221594
O O17 0.500000 0.000000 0.000000
#
# Coordination Sequence:
#
# PCOD9038068 Si02
#       8
#     2   2   2   2   2   2   2   2
#     4  11  23  40  73 103 142 179 238 296 352 405
#     4  11  25  44  71 101 137 185 240 278 360 423
#     4  11  24  44  66 106 140 180 238 288 349 418
#     4  11  25  46  67  98 143 188 230 286 354 427
#     4  10  23  41  66 104 139 183 235 284 353 424
#     4  12  26  45  69 100 146 185 237 294 350 416
#     4  11  26  44  74 100 137 186 235 289 353 415
#     4  11  23  44  71 102 142 183 235 296 348 416
#
# _framework density 24.390322000000001
#
# number of rings (size 3 to 8) (size 9 to 14) (size 15 to 20)
#    0.000    1.000    0.000    7.125    8.750    2.500 
#    2.250    4.375    0.000    0.000    0.000    0.000 
#    0.000    0.000    0.000    0.000    0.000    0.000 
#
# Total GULP energy -89417.050788 kJ/mol
# GULP energy per Si atom -5588.565674 kJ/mol
# Density = 2.433481 g / cm^3
# Si number density = 24.390322 Si / 1000 Ang^3
#
#
#
# Elastic Constant Matrix: (Units=GPa)
#
#
# Indices 1 2 3 4 5 6 
#
# 1 60.9467 17.0788 4.7212 -2.0146 -14.3213 21.4580
# 2 17.0788 99.7491 8.9182 -22.3103 -1.3536 32.8242
# 3 4.7212 8.9182 79.6993 -15.7330 0.6385 9.7274
# 4 -2.0146 -22.3103 -15.7330 37.2157 2.4711 -2.3147
# 5 -14.3213 -1.3536 0.6385 2.4711 37.8725 -0.2924
# 6 21.4580 32.8242 9.7274 -2.3147 -0.2924 54.2838
#
#
#
# Elastic Compliance Matrix: (Units=1/GPa)
#
#
# Indices 1 2 3 4 5 6 
#
# 1 0.021312 -0.001148 -0.000406 -0.000714 0.008012 -0.007645
# 2 -0.001148 0.014837 0.001179 0.008849 -0.000565 -0.008355
# 3 -0.000406 0.001179 0.014073 0.006513 -0.000795 -0.002801
# 4 -0.000714 0.008849 0.006513 0.034750 -0.002368 -0.004767
# 5 0.008012 -0.000565 -0.000795 -0.002368 0.029562 -0.002624
# 6 -0.007645 -0.008355 -0.002801 -0.004767 -0.002624 0.026780
#
#
# Mechanical properties :
#
#
# Convention : Reuss Voigt Hill
#
# Bulk Modulus (GPa) = 20.21357 33.53681 26.87519
# Shear Modulus (GPa) = 31.53484 39.85284 35.69384
#
# Velocity S-wave (km/s) = 3.59963 4.04661 3.82965
# Velocity P-wave (km/s) = 5.05786 5.96769 5.53151
#
# Compressibility (1/GPa) = 0.04947172
#
# Stress axis : x y z
#
# Youngs Moduli (GPa) = 46.92282 67.39865 71.05724
#
# Poissons Ratio (x) = 0.07736 0.02885
# Poissons Ratio (y) = 0.05386 -0.08376
# Poissons Ratio (z) = 0.01905 -0.07945
#
# Static dielectric constant tensor:
#      x y z
#    x 2.054260 0.086420 0.092400 
#    y 0.086420 1.971180 -0.005560 
#    z 0.092400 -0.005560 2.067980 
# 
# From -- ./inp_files/515902.got.cif
#   From: 2010.05.17/outbox.cif.g08.bks.cpg/sg2_258_cif.got.tgz:515902.got - 2010.06.03 11:33:40.
