data_PCOD9038062
_publ_section_title
;
Structure prediction by ZEFSAII (Michael W. Deem and Ramdas Pophale) SiO2 
 PCOD9038062
Probable space group: P -1
;
_chemical_formula_sum "Si O2"
_cell_formula_units_Z 16
_cell_length_a 8.647252
_cell_length_b 21.845529
_cell_length_c 24.417847
_cell_angle_alpha 17.458169
_cell_angle_beta 37.922816
_cell_angle_gamma 29.952789
_cell_volume 668.702510
_symmetry_space_group_name_H-M "P -1"
_symmetry_group_IT_number 2
_symmetry_cell_setting 'triclinic'
loop_
_space_group_symop_operation_xyz
x,y,z
-x,-y,-z
loop_
_atom_site_type_symbol
_atom_site_label
_atom_site_fract_x
_atom_site_fract_y
_atom_site_fract_z
Si Si1 0.281205 0.614359 0.016375
Si Si2 0.695069 0.687043 0.267434
Si Si3 0.807007 0.889393 0.639591
Si Si4 0.776925 0.355427 0.371760
Si Si5 0.032626 0.855454 0.290498
Si Si6 0.225448 0.328899 0.356891
Si Si7 0.547906 0.002076 0.730546
Si Si8 0.572944 0.850535 0.974811
O O1 0.926517 0.721343 0.008624
O O2 0.500000 0.500000 0.000000
O O3 0.425663 0.372355 0.223227
O O4 0.207863 0.868479 0.847176
O O5 0.358643 0.817064 0.219885
O O6 0.828957 0.399614 0.494220
O O7 0.978487 0.609863 0.214203
O O8 0.643411 0.865554 0.179608
O O9 0.464518 0.111786 0.518559
O O10 0.753316 0.829196 0.767024
O O11 0.000000 0.000000 0.500000
O O12 0.010015 0.697696 0.696414
O O13 0.641715 0.194140 0.547854
O O14 0.006758 0.283528 0.421148
O O15 0.499030 0.663876 0.179049
O O16 0.821451 0.852892 0.305705
O O17 0.592775 0.863360 0.893221
#
# Coordination Sequence:
#
# PCOD9038062 Si02
#       8
#     2   2   2   2   2   2   2   2
#     4  10  25  42  72 107 134 177 238 287 351 418
#     4  10  23  46  69  95 137 184 245 276 341 418
#     4  10  23  41  66 103 137 178 225 284 356 420
#     4  10  25  43  68 101 138 184 237 277 357 423
#     4  10  23  42  68 100 134 182 232 285 343 405
#     4  11  23  44  73  97 139 184 230 291 340 419
#     4  11  24  43  69 100 143 183 226 289 362 400
#     4  10  25  45  65 103 140 183 235 289 338 419
#
# _framework density 23.926931
#
# number of rings (size 3 to 8) (size 9 to 14) (size 15 to 20)
#    0.000    1.750    1.250    0.375   12.250    7.500 
#    0.000    0.625    0.000    0.000    0.000    0.000 
#    0.000    0.000    0.000    0.000    0.000    0.000 
#
# Total GULP energy -89353.917266 kJ/mol
# GULP energy per Si atom -5584.619829 kJ/mol
# Density = 2.387247 g / cm^3
# Si number density = 23.926931 Si / 1000 Ang^3
#
#
#
# Elastic Constant Matrix: (Units=GPa)
#
#
# Indices 1 2 3 4 5 6 
#
# 1 128.5216 12.5367 51.0724 -4.2410 12.8164 6.4598
# 2 12.5367 67.1519 2.1940 -8.4484 8.6719 14.0197
# 3 51.0724 2.1940 94.0716 -13.5466 8.8701 -6.2759
# 4 -4.2410 -8.4484 -13.5466 3.3835 36.9049 -9.9005
# 5 12.8164 8.6719 8.8701 36.9049 4.5023 15.4746
# 6 6.4598 14.0197 -6.2759 -9.9005 15.4746 32.5377
#
#
#
# Elastic Compliance Matrix: (Units=1/GPa)
#
#
# Indices 1 2 3 4 5 6 
#
# 1 0.010425 -0.001208 -0.005739 -0.000863 -0.001675 -0.002122
# 2 -0.001208 0.016523 -0.000424 -0.000293 0.001440 -0.007735
# 3 -0.005739 -0.000424 0.013104 -0.002058 0.004529 0.001069
# 4 -0.000863 -0.000293 -0.002058 0.002393 0.023168 -0.010390
# 5 -0.001675 0.001440 0.004529 0.023168 0.001529 0.006908
# 6 -0.002122 -0.007735 0.001069 -0.010390 0.006908 0.028247
#
#
# Mechanical properties :
#
#
# Convention : Reuss Voigt Hill
#
# Bulk Modulus (GPa) = 39.51017 46.81680 43.16349
# Shear Modulus (GPa) = 52.41148 23.01418 37.71283
#
# Velocity S-wave (km/s) = 4.68533 3.10474 3.97440
# Velocity P-wave (km/s) = 6.76894 5.69751 6.25620
#
# Compressibility (1/GPa) = 0.02530994
#
# Stress axis : x y z
#
# Youngs Moduli (GPa) = 95.92731 60.52154 76.31286
#
# Poissons Ratio (x) = 0.07310 0.43798
# Poissons Ratio (y) = 0.11587 0.03233
# Poissons Ratio (z) = 0.55055 0.02564
#
# Static dielectric constant tensor:
#      x y z
#    x 1.945260 0.124080 0.031120 
#    y 0.124080 2.155460 0.117320 
#    z 0.031120 0.117320 2.049160 
# 
# From -- ./inp_files/608637.got.cif
#   From: 2010.05.17/outbox.cif.g08.bks.cpg/sg2_305_cif.got.tgz:608637.got - 2010.06.03 11:33:40.
