data_PCOD9038660
_publ_section_title
;
Structure prediction by ZEFSAII (Michael W. Deem and Ramdas Pophale) SiO2 
 PCOD9038660
Probable space group: P -1
;
_chemical_formula_sum "Si O2"
_cell_formula_units_Z 14
_cell_length_a 9.455241
_cell_length_b 13.173148
_cell_length_c 4.988420
_cell_angle_alpha 76.472432
_cell_angle_beta 101.808960
_cell_angle_gamma 79.869565
_cell_volume 574.734528
_symmetry_space_group_name_H-M "P -1"
_symmetry_group_IT_number 2
_symmetry_cell_setting 'triclinic'
loop_
_space_group_symop_operation_xyz
x,y,z
-x,-y,-z
loop_
_atom_site_type_symbol
_atom_site_label
_atom_site_fract_x
_atom_site_fract_y
_atom_site_fract_z
Si Si1 0.048462 0.196801 0.762515
Si Si2 0.062300 0.426154 0.816850
Si Si3 0.365016 0.873928 0.581952
Si Si4 0.628998 0.930466 0.904013
Si Si5 0.377663 0.423453 0.739531
Si Si6 0.440927 0.645625 0.635887
Si Si7 0.076416 0.886475 0.731098
O O1 0.022626 0.312442 0.822308
O O2 0.976656 0.196536 0.441654
O O3 0.225307 0.140556 0.855950
O O4 0.975979 0.127197 0.983117
O O5 0.238540 0.404061 0.857093
O O6 0.000000 0.500000 0.500000
O O7 0.000000 0.500000 0.000000
O O8 0.535930 0.859596 0.747432
O O9 0.352969 0.766992 0.488728
O O10 0.251089 0.879505 0.777832
O O11 0.326101 0.983878 0.332535
O O12 0.500000 0.000000 0.000000
O O13 0.360229 0.550408 0.599524
O O14 0.418674 0.370488 0.500015
O O15 0.514248 0.377601 0.021917
O O16 0.000000 0.000000 0.500000
#
# Coordination Sequence:
#
# PCOD9038660 Si02
#       7
#     2   2   2   2   2   2   2
#     4  12  28  47  77 101 150 192 236 295 368 417
#     4  12  27  46  70 103 140 188 237 292 344 432
#     4  11  26  42  73 102 143 180 242 285 356 424
#     4  11  26  46  70 108 139 188 235 296 351 436
#     4  10  23  46  64 101 135 173 232 282 348 398
#     4  10  23  41  72  96 133 179 220 292 340 411
#     4  12  26  49  70 108 143 192 232 292 353 437
#
# _framework density 24.359072999999999
#
# number of rings (size 3 to 8) (size 9 to 14) (size 15 to 20)
#    0.000    0.857    1.429    3.857   12.000    0.000 
#    0.000    0.000    0.000    0.000    0.000    0.000 
#    0.000    0.000    0.000    0.000    0.000    0.000 
#
# Total GULP energy -78366.865457 kJ/mol
# GULP energy per Si atom -5597.633247 kJ/mol
# Density = 2.430363 g / cm^3
# Si number density = 24.359073 Si / 1000 Ang^3
#
#
#
# Elastic Constant Matrix: (Units=GPa)
#
#
# Indices 1 2 3 4 5 6 
#
# 1 89.2442 13.7065 17.9251 -4.0883 -7.4111 0.0270
# 2 13.7065 122.9323 10.6251 -0.7235 -8.9061 0.4708
# 3 17.9251 10.6251 100.1023 12.0941 -10.7595 -4.9838
# 4 -4.0883 -0.7235 12.0941 32.4872 -5.0873 -4.1911
# 5 -7.4111 -8.9061 -10.7595 -5.0873 39.1976 2.9699
# 6 0.0270 0.4708 -4.9838 -4.1911 2.9699 19.9677
#
#
#
# Elastic Compliance Matrix: (Units=1/GPa)
#
#
# Indices 1 2 3 4 5 6 
#
# 1 0.012066 -0.001010 -0.002182 0.002556 0.001805 -0.000269
# 2 -0.001010 0.008425 -0.000619 0.000486 0.001654 -0.000496
# 3 -0.002182 -0.000619 0.011210 -0.003947 0.001882 0.001707
# 4 0.002556 0.000486 -0.003947 0.033849 0.003480 0.005587
# 5 0.001805 0.001654 0.001882 0.003480 0.027418 -0.002919
# 6 -0.000269 -0.000496 0.001707 0.005587 -0.002919 0.052126
#
#
# Mechanical properties :
#
#
# Convention : Reuss Voigt Hill
#
# Bulk Modulus (GPa) = 41.52798 44.08803 42.80800
# Shear Modulus (GPa) = 31.10575 36.33196 33.71886
#
# Velocity S-wave (km/s) = 3.57735 3.86621 3.72458
# Velocity P-wave (km/s) = 5.84367 6.16997 6.00904
#
# Compressibility (1/GPa) = 0.02408015
#
# Stress axis : x y z
#
# Youngs Moduli (GPa) = 82.88058 118.69080 89.20377
#
# Poissons Ratio (x) = 0.11986 0.19460
# Poissons Ratio (y) = 0.08370 0.05522
# Poissons Ratio (z) = 0.18081 0.07348
#
# Static dielectric constant tensor:
#      x y z
#    x 1.793570 -0.003140 -0.059170 
#    y -0.003140 1.964130 0.015840 
#    z -0.059170 0.015840 1.825080 
# 
# From -- ./inp_files/27212.got.cif
#   From: 2010.05.17/outbox.cif.g08.bks.cpg/sg2_14_cif.got.tgz:27212.got - 2010.06.03 11:33:40.
