data_PCOD9038729
_publ_section_title
;
Structure prediction by ZEFSAII (Michael W. Deem and Ramdas Pophale) SiO2 
 PCOD9038729
Probable space group: P -1
;
_chemical_formula_sum "Si O2"
_cell_formula_units_Z 14
_cell_length_a 11.982788
_cell_length_b 12.666781
_cell_length_c 18.167270
_cell_angle_alpha 26.476115
_cell_angle_beta 152.867185
_cell_angle_gamma 145.840313
_cell_volume 554.157498
_symmetry_space_group_name_H-M "P -1"
_symmetry_group_IT_number 2
_symmetry_cell_setting 'triclinic'
loop_
_space_group_symop_operation_xyz
x,y,z
-x,-y,-z
loop_
_atom_site_type_symbol
_atom_site_label
_atom_site_fract_x
_atom_site_fract_y
_atom_site_fract_z
Si Si1 0.936320 0.107644 0.817874
Si Si2 0.790821 0.281229 0.262719
Si Si3 0.741377 0.905460 0.347515
Si Si4 0.060435 0.236537 0.211733
Si Si5 0.494319 0.304034 0.222367
Si Si6 0.719973 0.954055 0.070649
Si Si7 0.601401 0.424107 0.376724
O O1 0.836171 0.359831 0.598822
O O2 0.171269 0.120396 0.895753
O O3 0.711702 0.927575 0.762901
O O4 0.000000 0.000000 0.000000
O O5 0.693707 0.288943 0.284226
O O6 0.090240 0.304113 0.418598
O O7 0.703039 0.031385 0.324133
O O8 0.661903 0.479987 0.021305
O O9 0.917813 0.108844 0.277171
O O10 0.481042 0.873684 0.172917
O O11 0.355515 0.279469 0.358503
O O12 0.943968 0.079822 0.172622
O O13 0.000000 0.500000 0.000000
O O14 0.605502 0.337593 0.347969
O O15 0.599736 0.708284 0.192731
#
# Coordination Sequence:
#
# PCOD9038729 Si02
#       7
#     2   2   2   2   2   2   2
#     4  12  28  46  72 113 150 190 252 312 374 442
#     4  10  23  41  77 106 150 198 245 304 378 440
#     4  11  23  44  69 109 151 196 243 304 376 442
#     4  12  25  46  74 106 144 196 253 302 365 452
#     4  11  22  47  76 108 148 200 250 310 370 441
#     4  12  26  47  74 108 150 194 250 306 371 454
#     4  12  26  50  77 107 149 199 248 310 378 442
#
# _framework density 25.263577000000002
#
# number of rings (size 3 to 8) (size 9 to 14) (size 15 to 20)
#    0.000    0.571    4.286    3.000    4.000    2.286 
#    0.000    0.714    0.000    0.000    0.000    0.000 
#    0.000    0.000    0.000    0.000    0.000    0.000 
#
# Total GULP energy -78476.922882 kJ/mol
# GULP energy per Si atom -5605.494492 kJ/mol
# Density = 2.520608 g / cm^3
# Si number density = 25.263577 Si / 1000 Ang^3
#
#
#
# Elastic Constant Matrix: (Units=GPa)
#
#
# Indices 1 2 3 4 5 6 
#
# 1 93.3581 10.3305 42.3310 9.5639 10.0275 -5.0220
# 2 10.3305 76.8025 11.6407 8.1272 2.5322 0.9223
# 3 42.3310 11.6407 162.6252 16.9313 15.4749 -6.2632
# 4 9.5639 8.1272 16.9313 19.1188 5.1100 9.0504
# 5 10.0275 2.5322 15.4749 5.1100 47.4696 4.0627
# 6 -5.0220 0.9223 -6.2632 9.0504 4.0627 37.3061
#
#
#
# Elastic Compliance Matrix: (Units=1/GPa)
#
#
# Indices 1 2 3 4 5 6 
#
# 1 0.012725 -0.000823 -0.002528 -0.004589 -0.001548 0.002591
# 2 -0.000823 0.013749 -0.000138 -0.005752 0.000026 0.000919
# 3 -0.002528 -0.000138 0.007729 -0.006381 -0.001520 0.002674
# 4 -0.004589 -0.005752 -0.006381 0.072346 -0.002823 -0.018790
# 5 -0.001548 0.000026 -0.001520 -0.002823 0.022381 -0.002217
# 6 0.002591 0.000919 0.002674 -0.018790 -0.002217 0.032380
#
#
# Mechanical properties :
#
#
# Convention : Reuss Voigt Hill
#
# Bulk Modulus (GPa) = 36.73263 51.26557 43.99910
# Shear Modulus (GPa) = 28.19081 38.67782 33.43431
#
# Velocity S-wave (km/s) = 3.34408 3.91701 3.64183
# Velocity P-wave (km/s) = 5.42972 6.38699 5.92771
#
# Compressibility (1/GPa) = 0.02722375
#
# Stress axis : x y z
#
# Youngs Moduli (GPa) = 78.58741 72.73333 129.38088
#
# Poissons Ratio (x) = 0.05985 0.32714
# Poissons Ratio (y) = 0.06466 0.01787
# Poissons Ratio (z) = 0.19871 0.01005
#
# Static dielectric constant tensor:
#      x y z
#    x 1.973450 -0.009920 0.019820 
#    y -0.009920 1.992580 -0.002550 
#    z 0.019820 -0.002550 2.042640 
# 
# From -- ./inp_files/569110.got.cif
#   From: 2010.05.17/outbox.cif.g08.bks.cpg/sg2_285_cif.got.tgz:569110.got - 2010.06.03 11:33:40.
