data_PCOD9038256
_publ_section_title
;
Structure prediction by ZEFSAII (Michael W. Deem and Ramdas Pophale) SiO2 
 PCOD9038256
Probable space group: P -1
;
_chemical_formula_sum "Si O2"
_cell_formula_units_Z 16
_cell_length_a 9.171514
_cell_length_b 8.071804
_cell_length_c 12.090101
_cell_angle_alpha 68.519570
_cell_angle_beta 74.835720
_cell_angle_gamma 105.126578
_cell_volume 737.737825
_symmetry_space_group_name_H-M "P -1"
_symmetry_group_IT_number 2
_symmetry_cell_setting 'triclinic'
loop_
_space_group_symop_operation_xyz
x,y,z
-x,-y,-z
loop_
_atom_site_type_symbol
_atom_site_label
_atom_site_fract_x
_atom_site_fract_y
_atom_site_fract_z
Si Si1 0.012917 0.181844 0.833778
Si Si2 0.940251 0.431658 0.404839
Si Si3 0.328648 0.125470 0.769891
Si Si4 0.562543 0.206873 0.494624
Si Si5 0.122233 0.389743 0.989919
Si Si6 0.214253 0.415247 0.202684
Si Si7 0.678992 0.126694 0.977018
Si Si8 0.547978 0.471154 0.231311
O O1 0.054793 0.383103 0.711423
O O2 0.143960 0.101596 0.784671
O O3 0.816659 0.073740 0.898309
O O4 0.947356 0.764542 0.057415
O O5 0.752521 0.279026 0.475923
O O6 0.000000 0.500000 0.500000
O O7 0.068743 0.362273 0.334291
O O8 0.446496 0.184329 0.627736
O O9 0.404119 0.305493 0.796587
O O10 0.320009 0.934547 0.881060
O O11 0.546795 0.356592 0.371491
O O12 0.500000 0.000000 0.500000
O O13 0.303766 0.525995 0.876252
O O14 0.146364 0.315268 0.123569
O O15 0.000000 0.500000 0.000000
O O16 0.373148 0.389751 0.224802
O O17 0.271827 0.645971 0.108303
O O18 0.500000 0.000000 0.000000
#
# Coordination Sequence:
#
# PCOD9038256 Si02
#       8
#     2   2   2   2   2   2   2   2
#     4  10  23  41  67  97 130 185 225 271 336 411
#     4  11  23  42  72  99 136 181 235 271 343 410
#     4  11  23  41  69  95 137 178 227 276 332 414
#     4  12  27  45  71  99 136 181 230 287 342 398
#     4  11  19  39  66  93 132 173 219 270 341 398
#     4  11  23  40  70  97 135 178 218 283 337 407
#     4  11  22  38  63 101 134 160 225 279 336 382
#     4  11  23  43  65 101 131 180 232 268 341 415
#
# _framework density 21.687920999999999
#
# number of rings (size 3 to 8) (size 9 to 14) (size 15 to 20)
#    0.000    1.000    6.250    1.875    5.250    1.000 
#    0.000    0.625    2.750    0.000    0.000    0.000 
#    0.000    0.000    0.000    0.000    0.000    0.000 
#
# Total GULP energy -89513.230928 kJ/mol
# GULP energy per Si atom -5594.576933 kJ/mol
# Density = 2.163856 g / cm^3
# Si number density = 21.687921 Si / 1000 Ang^3
#
#
#
# Elastic Constant Matrix: (Units=GPa)
#
#
# Indices 1 2 3 4 5 6 
#
# 1 198.2534 39.1998 71.5804 15.4215 -40.7092 16.1318
# 2 39.1998 70.8358 28.7327 8.6440 -13.0982 10.8063
# 3 71.5804 28.7327 131.2287 25.6523 -38.8994 2.9290
# 4 15.4215 8.6440 25.6523 34.1428 -5.5958 -2.0929
# 5 -40.7092 -13.0982 -38.8994 -5.5958 41.3721 3.6508
# 6 16.1318 10.8063 2.9290 -2.0929 3.6508 32.6344
#
#
#
# Elastic Compliance Matrix: (Units=1/GPa)
#
#
# Indices 1 2 3 4 5 6 
#
# 1 0.007521 -0.001760 -0.001909 -0.000878 0.005247 -0.003607
# 2 -0.001760 0.017223 -0.001520 -0.002339 0.002427 -0.005118
# 3 -0.001909 -0.001520 0.013133 -0.007199 0.009121 -0.001214
# 4 -0.000878 -0.002339 -0.007199 0.035311 -0.004000 0.004567
# 5 0.005247 0.002427 0.009121 -0.004000 0.038916 -0.008826
# 6 -0.003607 -0.005118 -0.001214 0.004567 -0.008826 0.035509
#
#
# Mechanical properties :
#
#
# Convention : Reuss Voigt Hill
#
# Bulk Modulus (GPa) = 36.36691 75.48263 55.92477
# Shear Modulus (GPa) = 29.91210 39.01687 34.46448
#
# Velocity S-wave (km/s) = 3.71779 4.24608 3.99069
# Velocity P-wave (km/s) = 5.93582 7.67584 6.86121
#
# Compressibility (1/GPa) = 0.02749752
#
# Stress axis : x y z
#
# Youngs Moduli (GPa) = 132.96742 58.06332 76.14588
#
# Poissons Ratio (x) = 0.10217 0.14539
# Poissons Ratio (y) = 0.23398 0.11575
# Poissons Ratio (z) = 0.25389 0.08826
#
# Static dielectric constant tensor:
#      x y z
#    x 1.795870 -0.004490 0.002670 
#    y -0.004490 1.852450 -0.016000 
#    z 0.002670 -0.016000 1.792700 
# 
# From -- ./inp_files/377901.got.cif
#   From: 2010.05.17/outbox.cif.g08.bks.cpg/sg2_189_cif.got.tgz:377901.got - 2010.06.03 11:33:40.
