data_PCOD9038935
_publ_section_title
;
Structure prediction by ZEFSAII (Michael W. Deem and Ramdas Pophale) SiO2 
 PCOD9038935
Probable space group: P -1
;
_chemical_formula_sum "Si O2"
_cell_formula_units_Z 16
_cell_length_a 13.981541
_cell_length_b 6.032008
_cell_length_c 13.686826
_cell_angle_alpha 95.826137
_cell_angle_beta 42.867961
_cell_angle_gamma 73.976669
_cell_volume 668.354641
_symmetry_space_group_name_H-M "P -1"
_symmetry_group_IT_number 2
_symmetry_cell_setting 'triclinic'
loop_
_space_group_symop_operation_xyz
x,y,z
-x,-y,-z
loop_
_atom_site_type_symbol
_atom_site_label
_atom_site_fract_x
_atom_site_fract_y
_atom_site_fract_z
Si Si1 0.378247 0.515369 0.271684
Si Si2 0.867184 0.923728 0.562257
Si Si3 0.308372 0.226419 0.155607
Si Si4 0.131035 0.359348 0.980454
Si Si5 0.404989 0.287223 0.631063
Si Si6 0.002450 0.189981 0.742690
Si Si7 0.297806 0.627524 0.545005
Si Si8 0.250823 0.955182 0.022547
O O1 0.305791 0.822171 0.330884
O O2 0.317233 0.455865 0.213197
O O3 0.301149 0.497943 0.432182
O O4 0.570206 0.303976 0.128511
O O5 0.813745 0.806230 0.682737
O O6 0.946427 0.756031 0.398049
O O7 0.000000 0.000000 0.500000
O O8 0.261968 0.182392 0.080778
O O9 0.500000 0.000000 0.000000
O O10 0.302074 0.298584 0.802394
O O11 0.167329 0.086751 0.987858
O O12 0.000000 0.500000 0.000000
O O13 0.059589 0.578728 0.125866
O O14 0.290380 0.477296 0.638310
O O15 0.532811 0.373459 0.570760
O O16 0.500000 0.000000 0.500000
O O17 0.154578 0.926138 0.660667
O O18 0.860285 0.122054 0.836553
#
# Coordination Sequence:
#
# PCOD9038935 Si02
#       8
#     2   2   2   2   2   2   2   2
#     4  10  24  42  69  98 140 176 228 284 342 416
#     4  11  24  45  70 101 135 184 228 279 346 410
#     4  10  24  42  68 103 137 180 228 282 342 411
#     4  12  27  43  68 100 134 179 228 286 347 408
#     4  11  23  42  70  94 133 178 233 284 345 412
#     4  11  25  43  67  95 138 175 226 285 342 410
#     4  10  23  42  64  99 129 178 227 283 346 408
#     4  11  24  43  65  98 134 180 226 280 347 404
#
# _framework density 23.939385000000001
#
# number of rings (size 3 to 8) (size 9 to 14) (size 15 to 20)
#    0.000    1.250    1.250    3.000    1.750   17.500 
#    0.000    0.000    0.000    0.000    0.000    0.000 
#    0.000    0.000    0.000    0.000    0.000    0.000 
#
# Total GULP energy -89444.875451 kJ/mol
# GULP energy per Si atom -5590.304716 kJ/mol
# Density = 2.388490 g / cm^3
# Si number density = 23.939385 Si / 1000 Ang^3
#
#
#
# Elastic Constant Matrix: (Units=GPa)
#
#
# Indices 1 2 3 4 5 6 
#
# 1 81.0183 17.2892 22.3249 17.2976 3.2385 -16.1592
# 2 17.2892 40.3601 35.5849 5.9219 -8.3207 -24.8554
# 3 22.3249 35.5849 150.5039 11.2999 7.8619 -10.5560
# 4 17.2976 5.9219 11.2999 39.5303 4.8930 -1.3492
# 5 3.2385 -8.3207 7.8619 4.8930 37.7384 5.7039
# 6 -16.1592 -24.8554 -10.5560 -1.3492 5.7039 40.2411
#
#
#
# Elastic Compliance Matrix: (Units=1/GPa)
#
#
# Indices 1 2 3 4 5 6 
#
# 1 0.015282 -0.002668 -0.000819 -0.005703 -0.001642 0.004315
# 2 -0.002668 0.056929 -0.011251 -0.004537 0.011271 0.029390
# 3 -0.000819 -0.011251 0.009338 -0.000320 -0.003661 -0.004321
# 4 -0.005703 -0.004537 -0.000320 0.028887 -0.003632 -0.003693
# 5 -0.001642 0.011271 -0.003661 -0.003632 0.030216 0.000937
# 6 0.004315 0.029390 -0.004321 -0.003693 0.000937 0.043346
#
#
# Mechanical properties :
#
#
# Convention : Reuss Voigt Hill
#
# Bulk Modulus (GPa) = 19.20439 46.92005 33.06222
# Shear Modulus (GPa) = 21.66068 36.61418 29.13743
#
# Velocity S-wave (km/s) = 3.01128 3.91507 3.49253
# Velocity P-wave (km/s) = 4.48663 6.33080 5.48675
#
# Compressibility (1/GPa) = 0.05207142
#
# Stress axis : x y z
#
# Youngs Moduli (GPa) = 65.43700 17.56576 107.08577
#
# Poissons Ratio (x) = 0.04687 0.08774
# Poissons Ratio (y) = 0.17461 1.20484
# Poissons Ratio (z) = 0.05362 0.19764
#
# Static dielectric constant tensor:
#      x y z
#    x 2.006030 -0.024320 0.039450 
#    y -0.024320 1.972030 -0.018620 
#    z 0.039450 -0.018620 1.939620 
# 
# From -- ./inp_files/39337.got.cif
#   From: 2010.05.17/outbox.cif.g08.bks.cpg/sg2_20_cif.got.tgz:39337.got - 2010.06.03 11:33:40.
