data_PCOD9038241
_publ_section_title
;
Structure prediction by ZEFSAII (Michael W. Deem and Ramdas Pophale) SiO2 
 PCOD9038241
Probable space group: P -1
;
_chemical_formula_sum "Si O2"
_cell_formula_units_Z 10
_cell_length_a 10.262229
_cell_length_b 8.967484
_cell_length_c 7.200714
_cell_angle_alpha 123.450671
_cell_angle_beta 85.988664
_cell_angle_gamma 54.213917
_cell_volume 365.496845
_symmetry_space_group_name_H-M "P -1"
_symmetry_group_IT_number 2
_symmetry_cell_setting 'triclinic'
loop_
_space_group_symop_operation_xyz
x,y,z
-x,-y,-z
loop_
_atom_site_type_symbol
_atom_site_label
_atom_site_fract_x
_atom_site_fract_y
_atom_site_fract_z
Si Si1 0.780043 0.307702 0.748472
Si Si2 0.473905 0.235707 0.201979
Si Si3 0.371829 0.874433 0.501222
Si Si4 0.889047 0.928322 0.986039
Si Si5 0.839251 0.570199 0.198726
O O1 0.707235 0.494719 0.704444
O O2 0.641531 0.276033 0.737641
O O3 0.765886 0.467770 0.025539
O O4 0.000000 0.000000 0.500000
O O5 0.465221 0.275529 0.453766
O O6 0.500000 0.000000 0.000000
O O7 0.681795 0.113206 0.030021
O O8 0.193927 0.004069 0.750310
O O9 0.319717 0.108555 0.559555
O O10 0.046089 0.606125 0.747713
O O11 0.000000 0.000000 0.000000
O O12 0.000000 0.500000 0.000000
#
# Coordination Sequence:
#
# PCOD9038241 Si02
#       5
#     2   2   2   2   2
#     4  12  18  30  56  84 105 132 184 233 257 300
#     4  10  19  33  56  83 105 139 182 222 261 315
#     4   9  20  32  57  79 106 138 182 219 264 312
#     4   9  19  34  53  78 112 142 172 216 274 323
#     4  10  17  33  53  81 101 143 179 217 261 315
#
# _framework density 27.360015000000001
#
# number of rings (size 3 to 8) (size 9 to 14) (size 15 to 20)
#    1.200    0.800    6.000    0.600    0.000    0.000 
#    0.000    1.000    0.000   20.400    0.000    0.000 
#    0.000    0.000    0.000    0.000    0.000    0.000 
#
# Total GULP energy -55865.330699 kJ/mol
# GULP energy per Si atom -5586.533070 kJ/mol
# Density = 2.729774 g / cm^3
# Si number density = 27.360015 Si / 1000 Ang^3
#
#
#
# Elastic Constant Matrix: (Units=GPa)
#
#
# Indices 1 2 3 4 5 6 
#
# 1 143.3287 34.7338 57.0251 5.4366 17.2442 -4.2398
# 2 34.7338 195.0539 87.1989 38.0683 4.3789 -14.0069
# 3 57.0251 87.1989 180.6545 23.1483 33.3703 -15.6050
# 4 5.4366 38.0683 23.1483 59.3921 -5.5093 6.5794
# 5 17.2442 4.3789 33.3703 -5.5093 49.4202 0.2942
# 6 -4.2398 -14.0069 -15.6050 6.5794 0.2942 47.7844
#
#
#
# Elastic Compliance Matrix: (Units=1/GPa)
#
#
# Indices 1 2 3 4 5 6 
#
# 1 0.008087 -0.000546 -0.002102 0.000325 -0.001317 -0.000166
# 2 -0.000546 0.007347 -0.002990 -0.003565 0.001152 0.001612
# 3 -0.002102 -0.002990 0.009119 -0.002197 -0.005417 0.002251
# 4 0.000325 -0.003565 -0.002197 0.020836 0.004036 -0.004627
# 5 -0.001317 0.001152 -0.005417 0.004036 0.024713 -0.002256
# 6 -0.000166 0.001612 0.002251 -0.004627 -0.002256 0.022771
#
#
# Mechanical properties :
#
#
# Convention : Reuss Voigt Hill
#
# Bulk Modulus (GPa) = 75.32600 97.43921 86.38260
# Shear Modulus (GPa) = 46.05127 53.99129 50.02128
#
# Velocity S-wave (km/s) = 4.10708 4.44708 4.28046
# Velocity P-wave (km/s) = 7.07687 7.87780 7.48805
#
# Compressibility (1/GPa) = 0.01327563
#
# Stress axis : x y z
#
# Youngs Moduli (GPa) = 123.65916 136.11707 109.66326
#
# Poissons Ratio (x) = 0.07436 0.23048
# Poissons Ratio (y) = 0.06755 0.32793
# Poissons Ratio (z) = 0.25989 0.40703
#
# Static dielectric constant tensor:
#      x y z
#    x 2.338400 -0.051280 -0.254430 
#    y -0.051280 2.115080 0.022040 
#    z -0.254430 0.022040 2.388530 
# 
# From -- ./inp_files/149467.got.cif
#   From: 2010.05.17/outbox.cif.g08.bks.cpg/sg2_75_cif.got.tgz:149467.got - 2010.06.03 11:33:40.
