data_PCOD9038200
_publ_section_title
;
Structure prediction by ZEFSAII (Michael W. Deem and Ramdas Pophale) SiO2 
 PCOD9038200
Probable space group: P -1
;
_chemical_formula_sum "Si O2"
_cell_formula_units_Z 14
_cell_length_a 21.443237
_cell_length_b 9.358864
_cell_length_c 8.540180
_cell_angle_alpha 66.196215
_cell_angle_beta 125.477501
_cell_angle_gamma 148.604609
_cell_volume 709.841516
_symmetry_space_group_name_H-M "P -1"
_symmetry_group_IT_number 2
_symmetry_cell_setting 'triclinic'
loop_
_space_group_symop_operation_xyz
x,y,z
-x,-y,-z
loop_
_atom_site_type_symbol
_atom_site_label
_atom_site_fract_x
_atom_site_fract_y
_atom_site_fract_z
Si Si1 0.948464 0.786321 0.148544
Si Si2 0.849017 0.172331 0.897223
Si Si3 0.239394 0.819144 0.941401
Si Si4 0.634909 0.793979 0.480101
Si Si5 0.793012 0.757021 0.152076
Si Si6 0.189447 0.047415 0.585219
Si Si7 0.519718 0.849923 0.077231
O O1 0.851974 0.491055 0.061920
O O2 0.863561 0.725816 0.192298
O O3 0.073251 0.907373 0.359162
O O4 0.000000 0.000000 0.000000
O O5 0.770753 0.038558 0.677602
O O6 0.751316 0.099958 0.906686
O O7 0.000000 0.500000 0.000000
O O8 0.857576 0.010122 0.039932
O O9 0.170380 0.844683 0.729253
O O10 0.386714 0.031385 0.988024
O O11 0.500000 0.500000 0.500000
O O12 0.674083 0.748830 0.410492
O O13 0.598730 0.902865 0.312182
O O14 0.807198 0.820749 0.328013
O O15 0.630716 0.479142 0.005946
O O16 0.500000 0.000000 0.000000
#
# Coordination Sequence:
#
# PCOD9038200 Si02
#       7
#     2   2   2   2   2   2   2
#     4  12  23  41  64  96 133 166 210 276 330 373
#     4  11  23  43  67  99 131 168 220 271 321 384
#     4  10  23  41  67  89 127 171 216 261 321 392
#     4  11  23  41  70  93 129 172 221 267 321 381
#     4  11  23  41  67  93 132 170 216 267 323 393
#     4  10  24  40  65  93 123 173 220 258 325 390
#     4  11  23  43  64  93 131 173 214 267 326 385
#
# _framework density 19.722711
#
# number of rings (size 3 to 8) (size 9 to 14) (size 15 to 20)
#    0.000    1.143    2.857    3.429    2.000    5.143 
#    5.143    0.714    0.000    0.000    0.000    0.000 
#    0.000    0.000    0.000    0.000    0.000    0.000 
#
# Total GULP energy -78159.332507 kJ/mol
# GULP energy per Si atom -5582.809465 kJ/mol
# Density = 1.967782 g / cm^3
# Si number density = 19.722711 Si / 1000 Ang^3
#
#
#
# Elastic Constant Matrix: (Units=GPa)
#
#
# Indices 1 2 3 4 5 6 
#
# 1 132.3820 -1.0623 37.0339 -9.2283 -2.1060 -0.6909
# 2 -1.0623 57.2185 13.5998 6.1122 -9.7143 3.2207
# 3 37.0339 13.5998 71.8458 6.8882 -4.0512 9.4838
# 4 -9.2283 6.1122 6.8882 21.2876 4.4132 1.0356
# 5 -2.1060 -9.7143 -4.0512 4.4132 24.1427 0.9771
# 6 -0.6909 3.2207 9.4838 1.0356 0.9771 30.4834
#
#
#
# Elastic Compliance Matrix: (Units=1/GPa)
#
#
# Indices 1 2 3 4 5 6 
#
# 1 0.009648 0.000668 -0.005984 0.006061 -0.001076 0.001838
# 2 0.000668 0.020482 -0.002919 -0.006458 0.009043 -0.001311
# 3 -0.005984 -0.002919 0.019295 -0.008410 0.003307 -0.005650
# 4 0.006061 -0.006458 -0.008410 0.056981 -0.013976 0.001948
# 5 -0.001076 0.009043 0.003307 -0.013976 0.048200 -0.003079
# 6 0.001838 -0.001311 -0.005650 0.001948 -0.003079 0.034775
#
#
# Mechanical properties :
#
#
# Convention : Reuss Voigt Hill
#
# Bulk Modulus (GPa) = 30.34547 40.06546 35.20547
# Shear Modulus (GPa) = 23.05879 29.30771 26.18325
#
# Velocity S-wave (km/s) = 3.42299 3.85903 3.64753
# Velocity P-wave (km/s) = 5.57153 6.34150 5.96895
#
# Compressibility (1/GPa) = 0.03295385
#
# Stress axis : x y z
#
# Youngs Moduli (GPa) = 103.64490 48.82316 51.82803
#
# Poissons Ratio (x) = -0.03261 0.31015
# Poissons Ratio (y) = -0.06922 0.15129
# Poissons Ratio (z) = 0.62024 0.14252
#
# Static dielectric constant tensor:
#      x y z
#    x 1.713220 0.001530 -0.029570 
#    y 0.001530 1.773610 0.043120 
#    z -0.029570 0.043120 1.717370 
# 
# From -- ./inp_files/157129.got.cif
#   From: 2010.05.17/outbox.cif.g08.bks.cpg/sg2_79_cif.got.tgz:157129.got - 2010.06.03 11:33:40.
