data_PCOD9038131
_publ_section_title
;
Structure prediction by ZEFSAII (Michael W. Deem and Ramdas Pophale) SiO2 
 PCOD9038131
Probable space group: P -1
;
_chemical_formula_sum "Si O2"
_cell_formula_units_Z 16
_cell_length_a 17.451220
_cell_length_b 8.673853
_cell_length_c 14.808163
_cell_angle_alpha 141.929118
_cell_angle_beta 31.815424
_cell_angle_gamma 142.412526
_cell_volume 674.076313
_symmetry_space_group_name_H-M "P -1"
_symmetry_group_IT_number 2
_symmetry_cell_setting 'triclinic'
loop_
_space_group_symop_operation_xyz
x,y,z
-x,-y,-z
loop_
_atom_site_type_symbol
_atom_site_label
_atom_site_fract_x
_atom_site_fract_y
_atom_site_fract_z
Si Si1 0.664151 0.238778 0.340289
Si Si2 0.613494 0.229777 0.928320
Si Si3 0.545556 0.374504 0.704906
Si Si4 0.953802 0.217387 0.593782
Si Si5 0.972537 0.159649 0.340320
Si Si6 0.013008 0.717016 0.881130
Si Si7 0.726041 0.434107 0.729999
Si Si8 0.151230 0.453481 0.865615
O O1 0.625822 0.398968 0.536970
O O2 0.825825 0.207571 0.190576
O O3 0.702442 0.384345 0.270882
O O4 0.528002 0.942708 0.341630
O O5 0.773864 0.182921 0.757798
O O6 0.597246 0.241297 0.839929
O O7 0.586131 0.497943 0.110278
O O8 0.500000 0.000000 0.000000
O O9 0.655713 0.507084 0.743032
O O10 0.989342 0.156615 0.429292
O O11 0.030824 0.523157 0.695178
O O12 0.000000 0.000000 0.500000
O O13 0.156275 0.327535 0.211957
O O14 0.845672 0.294255 0.516512
O O15 0.894442 0.864534 0.244598
O O16 0.863975 0.521470 0.999957
O O17 0.000000 0.000000 0.000000
O O18 0.000000 0.500000 0.000000
#
# Coordination Sequence:
#
# PCOD9038131 Si02
#       8
#     2   2   2   2   2   2   2   2
#     4  10  24  43  68  94 135 185 228 279 352 427
#     4  11  27  43  65 103 142 177 228 291 344 424
#     4  11  24  46  67  94 140 187 226 279 360 426
#     4  11  24  44  72 104 137 186 233 291 349 409
#     4  10  23  41  72 101 135 171 245 291 338 410
#     4  11  24  40  71 104 136 177 237 294 350 409
#     4  10  24  42  70  97 131 185 228 288 350 413
#     4  10  23  41  66  97 138 175 225 299 345 404
#
# _framework density 23.736187000000001
#
# number of rings (size 3 to 8) (size 9 to 14) (size 15 to 20)
#    0.000    1.500    0.000    3.375   17.500    1.000 
#    0.000    0.625    0.000    0.000    0.000    0.000 
#    0.000    0.000    0.000    0.000    0.000    0.000 
#
# Total GULP energy -89234.489189 kJ/mol
# GULP energy per Si atom -5577.155574 kJ/mol
# Density = 2.368216 g / cm^3
# Si number density = 23.736187 Si / 1000 Ang^3
#
#
#
# Elastic Constant Matrix: (Units=GPa)
#
#
# Indices 1 2 3 4 5 6 
#
# 1 67.4494 4.9148 42.6044 -10.5608 10.3557 -25.1203
# 2 4.9148 49.7336 26.0430 -20.7610 18.2638 -18.6643
# 3 42.6044 26.0430 112.2976 -9.9628 14.7241 -30.3280
# 4 -10.5608 -20.7610 -9.9628 46.2290 -13.7301 8.0364
# 5 10.3557 18.2638 14.7241 -13.7301 48.9841 -9.1264
# 6 -25.1203 -18.6643 -30.3280 8.0364 -9.1264 41.7866
#
#
#
# Elastic Compliance Matrix: (Units=1/GPa)
#
#
# Indices 1 2 3 4 5 6 
#
# 1 0.024436 0.009016 -0.007368 0.005205 -0.002658 0.011788
# 2 0.009016 0.034864 -0.006050 0.012024 -0.007353 0.012683
# 3 -0.007368 -0.006050 0.013836 -0.002078 -0.000325 0.003239
# 4 0.005205 0.012024 -0.002078 0.028393 0.003424 0.002279
# 5 -0.002658 -0.007353 -0.000325 0.003424 0.024705 -0.000381
# 6 0.011788 0.012683 0.003239 0.002279 -0.000381 0.038512
#
#
# Mechanical properties :
#
#
# Convention : Reuss Voigt Hill
#
# Bulk Modulus (GPa) = 15.54413 41.84498 28.69456
# Shear Modulus (GPa) = 25.64185 37.79450 31.71817
#
# Velocity S-wave (km/s) = 3.29033 3.99466 3.65948
# Velocity P-wave (km/s) = 4.58236 6.24050 5.47457
#
# Compressibility (1/GPa) = 0.06433296
#
# Stress axis : x y z
#
# Youngs Moduli (GPa) = 40.92296 28.68327 72.27383
#
# Poissons Ratio (x) = -0.25861 0.53250
# Poissons Ratio (y) = -0.36896 0.43723
# Poissons Ratio (z) = 0.30152 0.17352
#
# Static dielectric constant tensor:
#      x y z
#    x 1.923090 0.015730 0.050210 
#    y 0.015730 2.059010 -0.037300 
#    z 0.050210 -0.037300 1.924820 
# 
# From -- ./inp_files/537676.got.cif
#   From: 2010.05.17/outbox.cif.g08.bks.cpg/sg2_269_cif.got.tgz:537676.got - 2010.06.03 11:33:40.
