data_PCOD9038634
_publ_section_title
;
Structure prediction by ZEFSAII (Michael W. Deem and Ramdas Pophale) SiO2 
 PCOD9038634
Probable space group: P -1
;
_chemical_formula_sum "Si O2"
_cell_formula_units_Z 16
_cell_length_a 15.088074
_cell_length_b 11.179158
_cell_length_c 15.021943
_cell_angle_alpha 152.014331
_cell_angle_beta 40.158424
_cell_angle_gamma 140.668362
_cell_volume 724.938546
_symmetry_space_group_name_H-M "P -1"
_symmetry_group_IT_number 2
_symmetry_cell_setting 'triclinic'
loop_
_space_group_symop_operation_xyz
x,y,z
-x,-y,-z
loop_
_atom_site_type_symbol
_atom_site_label
_atom_site_fract_x
_atom_site_fract_y
_atom_site_fract_z
Si Si1 0.469091 0.790919 0.803866
Si Si2 0.598268 0.023190 0.351780
Si Si3 0.568850 0.154684 0.807019
Si Si4 0.223469 0.285041 0.908958
Si Si5 0.754816 0.784057 0.362939
Si Si6 0.978489 0.463910 0.151011
Si Si7 0.083773 0.878859 0.202682
Si Si8 0.719749 0.585565 0.531867
O O1 0.331818 0.524649 0.747661
O O2 0.605333 0.677085 0.621808
O O3 0.462348 0.960193 0.832887
O O4 0.500000 0.000000 0.000000
O O5 0.636798 0.320281 0.476331
O O6 0.500000 0.000000 0.500000
O O7 0.512200 0.828532 0.211073
O O8 0.741797 0.948039 0.215698
O O9 0.678335 0.992757 0.591363
O O10 0.655626 0.437800 0.970987
O O11 0.242812 0.221602 0.749458
O O12 0.067325 0.330386 0.060134
O O13 0.919127 0.882096 0.336167
O O14 0.851186 0.539686 0.346018
O O15 0.096090 0.717430 0.176980
O O16 0.914330 0.274393 0.991068
O O17 0.203264 0.166211 0.299744
#
# Coordination Sequence:
#
# PCOD9038634 Si02
#       8
#     2   2   2   2   2   2   2   2
#     4  12  25  41  71 110 143 170 229 293 358 416
#     4  12  27  48  67  99 141 187 243 292 330 406
#     4  12  23  41  74  99 134 188 221 291 359 399
#     4  11  23  46  68  97 138 188 234 283 332 415
#     4  11  22  44  69 106 144 172 230 285 354 418
#     4  10  23  43  70 103 138 179 228 280 348 417
#     4  10  23  41  72 103 142 178 216 286 357 418
#     4  12  25  46  69 102 142 179 229 286 346 420
#
# _framework density 22.070837999999998
#
# number of rings (size 3 to 8) (size 9 to 14) (size 15 to 20)
#    0.000    0.750    3.750    3.375    5.250    0.500 
#    2.250    2.500    0.000    0.000    0.000    0.000 
#    0.000    0.000    0.000    0.000    0.000    0.000 
#
# Total GULP energy -89597.146184 kJ/mol
# GULP energy per Si atom -5599.821637 kJ/mol
# Density = 2.202060 g / cm^3
# Si number density = 22.070838 Si / 1000 Ang^3
#
#
#
# Elastic Constant Matrix: (Units=GPa)
#
#
# Indices 1 2 3 4 5 6 
#
# 1 126.0677 13.6573 20.0118 -9.6535 -15.9213 -5.4238
# 2 13.6573 56.7719 8.1920 11.8208 5.1516 1.7490
# 3 20.0118 8.1920 54.2124 -2.1811 -14.5783 -12.2639
# 4 -9.6535 11.8208 -2.1811 31.9503 7.5478 4.3868
# 5 -15.9213 5.1516 -14.5783 7.5478 38.7549 -6.6951
# 6 -5.4238 1.7490 -12.2639 4.3868 -6.6951 30.1442
#
#
#
# Elastic Compliance Matrix: (Units=1/GPa)
#
#
# Indices 1 2 3 4 5 6 
#
# 1 0.009192 -0.002893 -0.001632 0.002761 0.003265 0.001481
# 2 -0.002893 0.021044 -0.004538 -0.007319 -0.004891 -0.003609
# 3 -0.001632 -0.004538 0.026092 -0.001847 0.012461 0.013621
# 4 0.002761 -0.007319 -0.001847 0.037313 -0.007033 -0.006822
# 5 0.003265 -0.004891 0.012461 -0.007033 0.036453 0.015061
# 6 0.001481 -0.003609 0.013621 -0.006822 0.015061 0.043529
#
#
# Mechanical properties :
#
#
# Convention : Reuss Voigt Hill
#
# Bulk Modulus (GPa) = 26.17630 35.64157 30.90893
# Shear Modulus (GPa) = 24.45187 33.18260 28.81723
#
# Velocity S-wave (km/s) = 3.33210 3.88165 3.61733
# Velocity P-wave (km/s) = 5.16621 6.02274 5.61084
#
# Compressibility (1/GPa) = 0.03820250
#
# Stress axis : x y z
#
# Youngs Moduli (GPa) = 108.78784 47.51961 38.32585
#
# Poissons Ratio (x) = 0.13746 0.06254
# Poissons Ratio (y) = 0.31470 0.17393
# Poissons Ratio (z) = 0.17753 0.21565
#
# Static dielectric constant tensor:
#      x y z
#    x 1.814290 0.008400 -0.028370 
#    y 0.008400 1.787970 -0.009480 
#    z -0.028370 -0.009480 1.831920 
# 
# From -- ./inp_files/532133.got.cif
#   From: 2010.05.17/outbox.cif.g08.bks.cpg/sg2_267_cif.got.tgz:532133.got - 2010.06.03 11:33:40.
