data_PCOD9038934
_publ_section_title
;
Structure prediction by ZEFSAII (Michael W. Deem and Ramdas Pophale) SiO2 
 PCOD9038934
Probable space group: P -1
;
_chemical_formula_sum "Si O2"
_cell_formula_units_Z 16
_cell_length_a 16.835314
_cell_length_b 8.433704
_cell_length_c 17.324404
_cell_angle_alpha 130.121200
_cell_angle_beta 146.045656
_cell_angle_gamma 36.789018
_cell_volume 821.315703
_symmetry_space_group_name_H-M "P -1"
_symmetry_group_IT_number 2
_symmetry_cell_setting 'triclinic'
loop_
_space_group_symop_operation_xyz
x,y,z
-x,-y,-z
loop_
_atom_site_type_symbol
_atom_site_label
_atom_site_fract_x
_atom_site_fract_y
_atom_site_fract_z
Si Si1 0.560538 0.874340 0.924146
Si Si2 0.773728 0.684235 0.312824
Si Si3 0.029786 0.923089 0.743120
Si Si4 0.486592 0.098210 0.687826
Si Si5 0.826781 0.787193 0.982741
Si Si6 0.619951 0.236888 0.565893
Si Si7 0.491469 0.482127 0.699380
Si Si8 0.090697 0.985174 0.489219
O O1 0.557751 0.628588 0.840861
O O2 0.396655 0.107258 0.812675
O O3 0.740879 0.783614 0.994055
O O4 0.500000 0.000000 0.000000
O O5 0.687651 0.740340 0.345647
O O6 0.861111 0.390717 0.264509
O O7 0.899463 0.774168 0.437669
O O8 0.824396 0.061219 0.645438
O O9 0.015249 0.003964 0.666932
O O10 0.113219 0.031275 0.894917
O O11 0.483387 0.302164 0.695962
O O12 0.466280 0.910961 0.561443
O O13 0.665953 0.923639 0.831835
O O14 0.000000 0.500000 0.000000
O O15 0.500000 0.500000 0.500000
O O16 0.616979 0.309866 0.674594
O O17 0.296228 0.713341 0.575885
O O18 0.000000 0.000000 0.500000
#
# Coordination Sequence:
#
# PCOD9038934 Si02
#       8
#     2   2   2   2   2   2   2   2
#     4  10  24  44  67  92 138 175 215 277 332 398
#     4  10  23  42  64  99 128 170 219 272 333 384
#     4  12  24  40  72  97 131 172 220 275 328 394
#     4  11  24  44  69  95 135 172 221 270 327 402
#     4  11  26  46  67  96 131 181 222 270 336 397
#     4  12  22  45  68  94 134 178 215 268 335 391
#     4  11  24  42  67  97 128 176 225 262 330 399
#     4  11  23  39  66  98 132 165 216 280 321 390
#
# _framework density 19.480937000000001
#
# number of rings (size 3 to 8) (size 9 to 14) (size 15 to 20)
#    0.000    1.000    2.500    4.500    8.750    1.000 
#    2.250    1.250    0.000    0.000    0.000    0.000 
#    0.000    0.000    0.000    0.000    0.000    0.000 
#
# Total GULP energy -89403.613479 kJ/mol
# GULP energy per Si atom -5587.725842 kJ/mol
# Density = 1.943660 g / cm^3
# Si number density = 19.480937 Si / 1000 Ang^3
#
#
#
# Elastic Constant Matrix: (Units=GPa)
#
#
# Indices 1 2 3 4 5 6 
#
# 1 138.5961 55.9875 34.8117 21.4042 -8.0112 1.5860
# 2 55.9875 133.1964 46.1702 28.3245 11.9772 -0.5178
# 3 34.8117 46.1702 95.0460 26.9801 3.2755 -4.4986
# 4 21.4042 28.3245 26.9801 35.9320 -5.7126 2.8127
# 5 -8.0112 11.9772 3.2755 -5.7126 29.7648 7.0773
# 6 1.5860 -0.5178 -4.4986 2.8127 7.0773 36.2692
#
#
#
# Elastic Compliance Matrix: (Units=1/GPa)
#
#
# Indices 1 2 3 4 5 6 
#
# 1 0.009507 -0.003662 -0.001747 -0.000638 0.004460 -0.001506
# 2 -0.003662 0.011937 -0.002130 -0.006962 -0.007377 0.002046
# 3 -0.001747 -0.002130 0.015223 -0.009609 -0.003953 0.003451
# 4 -0.000638 -0.006962 -0.009609 0.043686 0.013819 -0.007348
# 5 0.004460 -0.007377 -0.003953 0.013819 0.043305 -0.010312
# 6 -0.001506 0.002046 0.003451 -0.007348 -0.010312 0.030677
#
#
# Mechanical properties :
#
#
# Convention : Reuss Voigt Hill
#
# Bulk Modulus (GPa) = 46.31986 71.19747 58.75866
# Shear Modulus (GPa) = 28.31117 35.71782 32.01449
#
# Velocity S-wave (km/s) = 3.81632 4.28656 4.05825
# Velocity P-wave (km/s) = 6.57630 7.81831 7.22405
#
# Compressibility (1/GPa) = 0.02158901
#
# Stress axis : x y z
#
# Youngs Moduli (GPa) = 105.18824 83.77274 65.68937
#
# Poissons Ratio (x) = 0.30675 0.11477
# Poissons Ratio (y) = 0.38517 0.13993
# Poissons Ratio (z) = 0.18378 0.17845
#
# Static dielectric constant tensor:
#      x y z
#    x 1.690180 -0.021080 0.002510 
#    y -0.021080 1.674730 0.001270 
#    z 0.002510 0.001270 1.693580 
# 
# From -- ./inp_files/262812.got.cif
#   From: 2010.05.17/outbox.cif.g08.bks.cpg/sg2_132_cif.got.tgz:262812.got - 2010.06.03 11:33:40.
