data_PCOD9038844
_publ_section_title
;
Structure prediction by ZEFSAII (Michael W. Deem and Ramdas Pophale) SiO2 
 PCOD9038844
Probable space group: P -1
;
_chemical_formula_sum "Si O2"
_cell_formula_units_Z 12
_cell_length_a 15.008233
_cell_length_b 17.687978
_cell_length_c 9.191454
_cell_angle_alpha 143.177069
_cell_angle_beta 36.953434
_cell_angle_gamma 159.901250
_cell_volume 489.061141
_symmetry_space_group_name_H-M "P -1"
_symmetry_group_IT_number 2
_symmetry_cell_setting 'triclinic'
loop_
_space_group_symop_operation_xyz
x,y,z
-x,-y,-z
loop_
_atom_site_type_symbol
_atom_site_label
_atom_site_fract_x
_atom_site_fract_y
_atom_site_fract_z
Si Si1 0.231316 0.253909 0.911731
Si Si2 0.156772 0.610209 0.817883
Si Si3 0.226146 0.978107 0.655107
Si Si4 0.738032 0.636098 0.284739
Si Si5 0.226822 0.628996 0.287291
Si Si6 0.260158 0.960695 0.266001
O O1 0.217130 0.108988 0.786644
O O2 0.245486 0.276493 0.753893
O O3 0.500000 0.500000 0.000000
O O4 0.995366 0.170617 0.160491
O O5 0.922113 0.402608 0.696498
O O6 0.454637 0.765271 0.687276
O O7 0.253104 0.821276 0.975521
O O8 0.000000 0.500000 0.000000
O O9 0.500073 0.144581 0.638471
O O10 0.195798 0.881640 0.395676
O O11 0.500000 0.500000 0.500000
O O12 0.009580 0.850979 0.350860
O O13 0.725133 0.479511 0.005823
O O14 0.000000 0.500000 0.500000
#
# Coordination Sequence:
#
# PCOD9038844 Si02
#       6
#     2   2   2   2   2   2
#     4  11  24  44  69  99 137 178 229 284 341 405
#     4  10  23  42  65  94 138 183 223 275 345 405
#     4  11  24  42  71 100 134 179 232 281 341 406
#     4  11  25  45  71  99 141 181 226 283 347 406
#     4  11  23  45  68 101 136 177 230 281 335 413
#     4  10  23  42  63  97 137 173 229 282 335 410
#
# _framework density 24.536809000000002
#
# number of rings (size 3 to 8) (size 9 to 14) (size 15 to 20)
#    0.000    1.333    3.333    1.000    4.667    6.000 
#    0.000    1.667    0.000    0.000    0.000    0.000 
#    0.000    0.000    0.000    0.000    0.000    0.000 
#
# Total GULP energy -66889.778531 kJ/mol
# GULP energy per Si atom -5574.148211 kJ/mol
# Density = 2.448096 g / cm^3
# Si number density = 24.536809 Si / 1000 Ang^3
#
#
#
# Elastic Constant Matrix: (Units=GPa)
#
#
# Indices 1 2 3 4 5 6 
#
# 1 180.3858 100.7638 44.8438 -25.6782 55.2985 40.0625
# 2 100.7638 136.7666 61.7069 -43.1491 13.5580 46.2996
# 3 44.8438 61.7069 128.1154 -30.2107 16.6363 2.4209
# 4 -25.6782 -43.1491 -30.2107 61.7552 -5.8954 2.2997
# 5 55.2985 13.5580 16.6363 -5.8954 56.3680 4.7033
# 6 40.0625 46.2996 2.4209 2.2997 4.7033 62.9837
#
#
#
# Elastic Compliance Matrix: (Units=1/GPa)
#
#
# Indices 1 2 3 4 5 6 
#
# 1 0.014933 -0.010544 0.001071 -0.001803 -0.012553 -0.000786
# 2 -0.010544 0.024863 -0.006546 0.011056 0.008483 -0.012356
# 3 0.001071 -0.006546 0.011104 0.000873 -0.002987 0.003895
# 4 -0.001803 0.011056 0.000873 0.024090 0.002043 -0.008046
# 5 -0.012553 0.008483 -0.002987 0.002043 0.029143 -0.000387
# 6 -0.000786 -0.012356 0.003895 -0.008046 -0.000387 0.025633
#
#
# Mechanical properties :
#
#
# Convention : Reuss Voigt Hill
#
# Bulk Modulus (GPa) = 53.01306 95.54410 74.27858
# Shear Modulus (GPa) = 29.74586 52.08493 40.91540
#
# Velocity S-wave (km/s) = 3.48558 4.61230 4.08795
# Velocity P-wave (km/s) = 6.15235 8.20902 7.25395
#
# Compressibility (1/GPa) = 0.01886328
#
# Stress axis : x y z
#
# Youngs Moduli (GPa) = 66.96440 40.21977 90.06115
#
# Poissons Ratio (x) = 0.42407 -0.09647
# Poissons Ratio (y) = 0.70606 0.58952
# Poissons Ratio (z) = -0.07173 0.26327
#
# Static dielectric constant tensor:
#      x y z
#    x 1.909470 -0.039670 -0.149320 
#    y -0.039670 1.976340 0.062720 
#    z -0.149320 0.062720 2.027010 
# 
# From -- ./inp_files/27348.got.cif
#   From: 2010.05.17/outbox.cif.g08.bks.cpg/sg2_14_cif.got.tgz:27348.got - 2010.06.03 11:33:40.
