data_PCOD9038358
_publ_section_title
;
Structure prediction by ZEFSAII (Michael W. Deem and Ramdas Pophale) SiO2 
 PCOD9038358
Probable space group: P -1
;
_chemical_formula_sum "Si O2"
_cell_formula_units_Z 16
_cell_length_a 8.911025
_cell_length_b 13.119445
_cell_length_c 9.127096
_cell_angle_alpha 113.926045
_cell_angle_beta 113.518154
_cell_angle_gamma 105.877836
_cell_volume 764.166108
_symmetry_space_group_name_H-M "P -1"
_symmetry_group_IT_number 2
_symmetry_cell_setting 'triclinic'
loop_
_space_group_symop_operation_xyz
x,y,z
-x,-y,-z
loop_
_atom_site_type_symbol
_atom_site_label
_atom_site_fract_x
_atom_site_fract_y
_atom_site_fract_z
Si Si1 0.997061 0.618514 0.148544
Si Si2 0.231698 0.959934 0.748545
Si Si3 0.454483 0.300913 0.405464
Si Si4 0.247657 0.419654 0.216177
Si Si5 0.614280 0.210316 0.158852
Si Si6 0.104501 0.037607 0.220907
Si Si7 0.066459 0.551627 0.717999
Si Si8 0.277156 0.909691 0.400377
O O1 0.945122 0.565405 0.260867
O O2 0.193725 0.754926 0.286117
O O3 0.834412 0.628956 0.005492
O O4 0.000000 0.500000 0.000000
O O5 0.261473 0.852712 0.781083
O O6 0.243400 0.946492 0.571354
O O7 0.411140 0.096969 0.953239
O O8 0.036953 0.948549 0.716759
O O9 0.333991 0.341954 0.279479
O O10 0.591310 0.426949 0.629295
O O11 0.578596 0.269444 0.325684
O O12 0.305111 0.172909 0.359642
O O13 0.075426 0.408141 0.241309
O O14 0.725510 0.320732 0.144991
O O15 0.156872 0.935757 0.247700
O O16 0.000000 0.000000 0.000000
O O17 0.000000 0.500000 0.500000
O O18 0.500000 0.000000 0.500000
#
# Coordination Sequence:
#
# PCOD9038358 Si02
#       8
#     2   2   2   2   2   2   2   2
#     4  10  25  43  66  99 137 176 227 282 340 419
#     4  11  26  44  69 102 142 182 234 289 356 416
#     4  11  22  42  69 102 137 179 234 286 347 421
#     4  10  23  41  68  96 139 180 228 282 351 415
#     4  11  23  41  70 102 134 179 238 290 345 421
#     4  12  25  45  74  99 144 187 232 293 351 416
#     4  11  21  39  69  92 136 177 229 282 345 409
#     4  12  28  45  74 106 142 186 234 293 353 417
#
# _framework density 20.937854999999999
#
# number of rings (size 3 to 8) (size 9 to 14) (size 15 to 20)
#    0.000    1.000    2.500    3.375   10.500    0.000 
#    0.000    0.625    0.000    0.000    0.000    0.000 
#    0.000    0.000    0.000    0.000    0.000    0.000 
#
# Total GULP energy -89506.110106 kJ/mol
# GULP energy per Si atom -5594.131882 kJ/mol
# Density = 2.089020 g / cm^3
# Si number density = 20.937855 Si / 1000 Ang^3
#
#
#
# Elastic Constant Matrix: (Units=GPa)
#
#
# Indices 1 2 3 4 5 6 
#
# 1 104.8445 47.5955 8.9892 1.7212 7.5399 14.2597
# 2 47.5955 153.8632 44.4339 13.0367 10.9275 23.0379
# 3 8.9892 44.4339 74.1181 -11.0725 0.7804 11.9003
# 4 1.7212 13.0367 -11.0725 41.0902 4.0275 3.8995
# 5 7.5399 10.9275 0.7804 4.0275 26.7853 1.0652
# 6 14.2597 23.0379 11.9003 3.8995 1.0652 35.8203
#
#
#
# Elastic Compliance Matrix: (Units=1/GPa)
#
#
# Indices 1 2 3 4 5 6 
#
# 1 0.011529 -0.003532 0.001427 0.001489 -0.001955 -0.002896
# 2 -0.003532 0.010201 -0.005859 -0.004191 -0.002260 -0.002685
# 3 0.001427 -0.005859 0.018482 0.007081 0.000533 -0.003727
# 4 0.001489 -0.004191 0.007081 0.028113 -0.003015 -0.003220
# 5 -0.001955 -0.002260 0.000533 -0.003015 0.039195 0.001217
# 6 -0.002896 -0.002685 -0.003727 -0.003220 0.001217 0.032349
#
#
# Mechanical properties :
#
#
# Convention : Reuss Voigt Hill
#
# Bulk Modulus (GPa) = 41.17757 59.42920 50.30339
# Shear Modulus (GPa) = 30.50784 36.19298 33.35041
#
# Velocity S-wave (km/s) = 3.82129 4.16214 3.99536
# Velocity P-wave (km/s) = 6.25931 7.17936 6.73506
#
# Compressibility (1/GPa) = 0.02428506
#
# Stress axis : x y z
#
# Youngs Moduli (GPa) = 86.73727 98.02497 54.10775
#
# Poissons Ratio (x) = 0.34625 -0.07723
# Poissons Ratio (y) = 0.30638 0.31699
# Poissons Ratio (z) = -0.12380 0.57429
#
# Static dielectric constant tensor:
#      x y z
#    x 1.727930 -0.003530 0.011040 
#    y -0.003530 1.796790 -0.000300 
#    z 0.011040 -0.000300 1.781100 
# 
# From -- ./inp_files/189469.got.cif
#   From: 2010.05.17/outbox.cif.g08.bks.cpg/sg2_95_cif.got.tgz:189469.got - 2010.06.03 11:33:40.
