data_PCOD9038748
_publ_section_title
;
Structure prediction by ZEFSAII (Michael W. Deem and Ramdas Pophale) SiO2 
 PCOD9038748
Probable space group: P -1
;
_chemical_formula_sum "Si O2"
_cell_formula_units_Z 14
_cell_length_a 16.295469
_cell_length_b 8.216965
_cell_length_c 5.390153
_cell_angle_alpha 118.143699
_cell_angle_beta 71.663308
_cell_angle_gamma 100.785815
_cell_volume 603.443193
_symmetry_space_group_name_H-M "P -1"
_symmetry_group_IT_number 2
_symmetry_cell_setting 'triclinic'
loop_
_space_group_symop_operation_xyz
x,y,z
-x,-y,-z
loop_
_atom_site_type_symbol
_atom_site_label
_atom_site_fract_x
_atom_site_fract_y
_atom_site_fract_z
Si Si1 0.867104 0.553436 0.012082
Si Si2 0.369159 0.822357 0.993192
Si Si3 0.044442 0.078506 0.764775
Si Si4 0.811153 0.180834 0.632460
Si Si5 0.533114 0.861198 0.572261
Si Si6 0.400249 0.460396 0.009484
Si Si7 0.232698 0.493514 0.415660
O O1 0.812638 0.554388 0.318231
O O2 0.946353 0.699750 0.067960
O O3 0.879455 0.336905 0.790385
O O4 0.812984 0.604092 0.851891
O O5 0.266620 0.851310 0.118361
O O6 0.414094 0.012148 0.190234
O O7 0.440829 0.771152 0.685015
O O8 0.371144 0.642135 0.032256
O O9 0.141037 0.001414 0.608062
O O10 0.000000 0.000000 0.500000
O O11 0.000000 0.000000 0.000000
O O12 0.776978 0.289880 0.499025
O O13 0.597147 0.718455 0.293364
O O14 0.500000 0.000000 0.500000
O O15 0.500000 0.500000 0.000000
O O16 0.331938 0.437326 0.279589
#
# Coordination Sequence:
#
# PCOD9038748 Si02
#       7
#     2   2   2   2   2   2   2
#     4  10  23  46  68  99 131 171 222 268 336 397
#     4  10  23  42  60  93 127 179 224 266 330 381
#     4  12  28  47  72 106 133 167 217 276 348 413
#     4   9  25  43  71  94 133 180 216 275 330 407
#     4  11  23  37  59  94 132 174 224 278 316 376
#     4  11  22  38  61  93 133 182 222 278 322 377
#     4   9  23  43  67  98 133 181 224 270 324 389
#
# _framework density 23.200196999999999
#
# number of rings (size 3 to 8) (size 9 to 14) (size 15 to 20)
#    0.857    0.857    1.429    1.286    6.000    3.429 
#    0.000    0.000    0.000    0.000    0.000    0.000 
#    0.000    0.000    0.000    0.000    0.000    0.000 
#
# Total GULP energy -78047.132311 kJ/mol
# GULP energy per Si atom -5574.795165 kJ/mol
# Density = 2.314739 g / cm^3
# Si number density = 23.200197 Si / 1000 Ang^3
#
#
#
# Elastic Constant Matrix: (Units=GPa)
#
#
# Indices 1 2 3 4 5 6 
#
# 1 54.4464 -4.6364 10.5785 8.3063 1.6906 0.8745
# 2 -4.6364 60.2172 18.0546 -3.3551 2.0158 14.7874
# 3 10.5785 18.0546 73.0650 -13.1556 12.7189 -12.8453
# 4 8.3063 -3.3551 -13.1556 46.5619 1.6810 2.3521
# 5 1.6906 2.0158 12.7189 1.6810 36.5484 11.2654
# 6 0.8745 14.7874 -12.8453 2.3521 11.2654 21.8403
#
#
#
# Elastic Compliance Matrix: (Units=1/GPa)
#
#
# Indices 1 2 3 4 5 6 
#
# 1 0.021837 0.007763 -0.009904 -0.005630 0.006855 -0.014885
# 2 0.007763 0.034112 -0.021646 -0.003433 0.019590 -0.045873
# 3 -0.009904 -0.021646 0.034894 0.008573 -0.025644 0.047879
# 4 -0.005630 -0.003433 0.008573 0.024468 -0.006168 0.008138
# 5 0.006855 0.019590 -0.025644 -0.006168 0.052066 -0.054813
# 6 -0.014885 -0.045873 0.047879 0.008138 -0.054813 0.132999
#
#
# Mechanical properties :
#
#
# Convention : Reuss Voigt Hill
#
# Bulk Modulus (GPa) = 23.11107 26.19133 24.65120
# Shear Modulus (GPa) = 13.79792 31.90558 22.85175
#
# Velocity S-wave (km/s) = 2.44136 3.71243 3.14185
# Velocity P-wave (km/s) = 4.23441 5.44885 4.87956
#
# Compressibility (1/GPa) = 0.04326931
#
# Stress axis : x y z
#
# Youngs Moduli (GPa) = 45.79369 29.31501 28.65801
#
# Poissons Ratio (x) = -0.22756 0.28382
# Poissons Ratio (y) = -0.35548 0.62034
# Poissons Ratio (z) = 0.45353 0.63456
#
# Static dielectric constant tensor:
#      x y z
#    x 1.957590 0.060100 0.000680 
#    y 0.060100 1.890610 -0.047770 
#    z 0.000680 -0.047770 1.969700 
# 
# From -- ./inp_files/105721.got.cif
#   From: 2010.05.17/outbox.cif.g08.bks.cpg/sg2_53_cif.got.tgz:105721.got - 2010.06.03 11:33:40.
