data_PCOD9038481
_publ_section_title
;
Structure prediction by ZEFSAII (Michael W. Deem and Ramdas Pophale) SiO2 
 PCOD9038481
Probable space group: P -1
;
_chemical_formula_sum "Si O2"
_cell_formula_units_Z 16
_cell_length_a 8.578551
_cell_length_b 18.560577
_cell_length_c 13.744191
_cell_angle_alpha 23.435371
_cell_angle_beta 45.656795
_cell_angle_gamma 48.530186
_cell_volume 620.760262
_symmetry_space_group_name_H-M "P -1"
_symmetry_group_IT_number 2
_symmetry_cell_setting 'triclinic'
loop_
_space_group_symop_operation_xyz
x,y,z
-x,-y,-z
loop_
_atom_site_type_symbol
_atom_site_label
_atom_site_fract_x
_atom_site_fract_y
_atom_site_fract_z
Si Si1 0.126013 0.759306 0.638311
Si Si2 0.040204 0.974348 0.126885
Si Si3 0.545124 0.522984 0.099042
Si Si4 0.277116 0.077223 0.309119
Si Si5 0.378036 0.734812 0.358931
Si Si6 0.794544 0.634019 0.192570
Si Si7 0.115199 0.637197 0.209729
Si Si8 0.630929 0.789019 0.561321
O O1 0.209917 0.556773 0.885450
O O2 0.276287 0.781232 0.451292
O O3 0.870950 0.826977 0.659240
O O4 0.187104 0.893316 0.532604
O O5 0.884528 0.820423 0.419295
O O6 0.966395 0.159093 0.982408
O O7 0.288927 0.905388 0.122003
O O8 0.000000 0.000000 0.000000
O O9 0.376091 0.602220 0.155271
O O10 0.425411 0.344495 0.336835
O O11 0.547797 0.678049 0.825616
O O12 0.509248 0.989410 0.353387
O O13 0.252004 0.219982 0.054162
O O14 0.632931 0.694485 0.277664
O O15 0.274032 0.555060 0.586266
O O16 0.034091 0.614476 0.161091
O O17 0.000000 0.500000 0.500000
#
# Coordination Sequence:
#
# PCOD9038481 Si02
#       8
#     2   2   2   2   2   2   2   2
#     4  10  23  42  67 102 137 178 228 275 342 408
#     4  12  26  44  69 101 139 178 232 287 343 412
#     4  10  23  42  71 100 140 183 224 276 343 413
#     4  10  23  41  69  99 140 179 223 278 339 414
#     4  11  25  44  68 102 136 176 232 288 345 412
#     4  11  25  44  70  97 136 180 230 285 346 412
#     4  12  26  44  71  98 135 184 232 283 347 413
#     4  10  23  43  69 101 141 180 225 280 342 405
#
# _framework density 25.774846
#
# number of rings (size 3 to 8) (size 9 to 14) (size 15 to 20)
#    0.000    1.250    0.000    4.500   10.500    8.000 
#    0.000    0.000    0.000    0.000    0.000    0.000 
#    0.000    0.000    0.000    0.000    0.000    0.000 
#
# Total GULP energy -89554.554489 kJ/mol
# GULP energy per Si atom -5597.159656 kJ/mol
# Density = 2.571618 g / cm^3
# Si number density = 25.774846 Si / 1000 Ang^3
#
#
#
# Elastic Constant Matrix: (Units=GPa)
#
#
# Indices 1 2 3 4 5 6 
#
# 1 74.8130 34.0285 15.2706 -15.0994 5.9712 -13.3776
# 2 34.0285 153.7164 38.1406 -12.5069 7.2503 -24.4728
# 3 15.2706 38.1406 108.1327 -19.2786 11.1213 -3.8062
# 4 -15.0994 -12.5069 -19.2786 46.9802 4.6117 12.8135
# 5 5.9712 7.2503 11.1213 4.6117 50.2972 -11.0173
# 6 -13.3776 -24.4728 -3.8062 12.8135 -11.0173 40.2528
#
#
#
# Elastic Compliance Matrix: (Units=1/GPa)
#
#
# Indices 1 2 3 4 5 6 
#
# 1 0.015926 -0.002733 -0.000401 0.003804 -0.001314 0.002023
# 2 -0.002733 0.008364 -0.002674 -0.001046 0.000785 0.004472
# 3 -0.000401 -0.002674 0.011360 0.005000 -0.003229 -0.003160
# 4 0.003804 -0.001046 0.005000 0.027386 -0.005942 -0.009243
# 5 -0.001314 0.000785 -0.003229 -0.005942 0.022914 0.007898
# 6 0.002023 0.004472 -0.003160 -0.009243 0.007898 0.033039
#
#
# Mechanical properties :
#
#
# Convention : Reuss Voigt Hill
#
# Bulk Modulus (GPa) = 41.60616 56.83796 49.22206
# Shear Modulus (GPa) = 36.07147 44.12088 40.09618
#
# Velocity S-wave (km/s) = 3.74503 4.14186 3.94843
# Velocity P-wave (km/s) = 5.90572 6.70618 6.31864
#
# Compressibility (1/GPa) = 0.02403490
#
# Stress axis : x y z
#
# Youngs Moduli (GPa) = 62.79173 119.56468 88.02842
#
# Poissons Ratio (x) = 0.32671 0.03528
# Poissons Ratio (y) = 0.17158 0.23538
# Poissons Ratio (z) = 0.02516 0.31971
#
# Static dielectric constant tensor:
#      x y z
#    x 2.057490 -0.019070 0.014680 
#    y -0.019070 2.022360 0.025410 
#    z 0.014680 0.025410 1.981040 
# 
# From -- ./inp_files/508039.got.cif
#   From: 2010.05.17/outbox.cif.g08.bks.cpg/sg2_255_cif.got.tgz:508039.got - 2010.06.03 11:33:40.
