data_PCOD9038759
_publ_section_title
;
Structure prediction by ZEFSAII (Michael W. Deem and Ramdas Pophale) SiO2 
 PCOD9038759
Probable space group: P -1
;
_chemical_formula_sum "Si O2"
_cell_formula_units_Z 16
_cell_length_a 10.886569
_cell_length_b 10.878682
_cell_length_c 15.047963
_cell_angle_alpha 52.356211
_cell_angle_beta 147.446669
_cell_angle_gamma 133.845046
_cell_volume 689.949139
_symmetry_space_group_name_H-M "P -1"
_symmetry_group_IT_number 2
_symmetry_cell_setting 'triclinic'
loop_
_space_group_symop_operation_xyz
x,y,z
-x,-y,-z
loop_
_atom_site_type_symbol
_atom_site_label
_atom_site_fract_x
_atom_site_fract_y
_atom_site_fract_z
Si Si1 0.844113 0.919139 0.088422
Si Si2 0.830025 0.359689 0.387947
Si Si3 0.621311 0.049004 0.151653
Si Si4 0.795711 0.784861 0.319277
Si Si5 0.062974 0.428353 0.251164
Si Si6 0.791086 0.588961 0.110220
Si Si7 0.501470 0.535473 0.619713
Si Si8 0.589610 0.850981 0.646053
O O1 0.798139 0.828456 0.197708
O O2 0.867510 0.785098 0.092575
O O3 0.601800 0.961468 0.913646
O O4 0.114244 0.073683 0.190292
O O5 0.873726 0.478509 0.277861
O O6 0.559546 0.256742 0.311819
O O7 0.000000 0.500000 0.500000
O O8 0.939640 0.220859 0.498423
O O9 0.841932 0.237978 0.204080
O O10 0.739035 0.912200 0.292864
O O11 0.500000 0.000000 0.000000
O O12 0.589566 0.595899 0.296271
O O13 0.281048 0.462683 0.443556
O O14 0.231806 0.451791 0.256664
O O15 0.919266 0.553240 0.116923
O O16 0.500000 0.500000 0.000000
O O17 0.524007 0.718775 0.583336
O O18 0.500000 0.000000 0.500000
#
# Coordination Sequence:
#
# PCOD9038759 Si02
#       8
#     2   2   2   2   2   2   2   2
#     4  11  22  42  68  96 128 177 212 269 335 387
#     4  12  21  41  69 100 125 172 228 265 330 392
#     4  10  23  42  61  90 128 171 213 258 334 393
#     4  11  21  41  67  91 130 163 226 271 312 398
#     4  11  23  41  63  91 128 170 211 264 333 390
#     4  12  23  44  68  93 138 177 216 269 336 399
#     4  11  23  40  64  97 126 165 221 271 326 379
#     4  12  22  39  70 101 130 163 225 284 316 388
#
# _framework density 23.190114999999999
#
# number of rings (size 3 to 8) (size 9 to 14) (size 15 to 20)
#    0.000    0.750    6.250    2.250    0.000    0.500 
#    2.250    3.750    0.000    0.000    0.000    0.000 
#    0.000    0.000    0.000    0.000    0.000    0.000 
#
# Total GULP energy -89395.588287 kJ/mol
# GULP energy per Si atom -5587.224268 kJ/mol
# Density = 2.313733 g / cm^3
# Si number density = 23.190115 Si / 1000 Ang^3
#
#
#
# Elastic Constant Matrix: (Units=GPa)
#
#
# Indices 1 2 3 4 5 6 
#
# 1 113.4206 50.6537 36.5689 1.1049 53.9339 -9.5742
# 2 50.6537 124.8366 33.0160 26.7614 27.0536 -23.8289
# 3 36.5689 33.0160 72.8597 17.5863 39.6702 -11.8210
# 4 1.1049 26.7614 17.5863 41.7315 0.8874 15.9289
# 5 53.9339 27.0536 39.6702 0.8874 49.9233 -3.1332
# 6 -9.5742 -23.8289 -11.8210 15.9289 -3.1332 47.2043
#
#
#
# Elastic Compliance Matrix: (Units=1/GPa)
#
#
# Indices 1 2 3 4 5 6 
#
# 1 0.020450 -0.004135 0.004626 0.000027 -0.023425 0.001655
# 2 -0.004135 0.016572 0.005471 -0.018209 -0.007624 0.014535
# 3 0.004626 0.005471 0.038866 -0.026868 -0.037111 0.020036
# 4 0.000027 -0.018209 -0.026868 0.059380 0.027993 -0.034094
# 5 -0.023425 -0.007624 -0.037111 0.027993 0.077066 -0.022224
# 6 0.001655 0.014535 0.020036 -0.034094 -0.022224 0.043905
#
#
# Mechanical properties :
#
#
# Convention : Reuss Voigt Hill
#
# Bulk Modulus (GPa) = 11.38807 61.28824 36.33815
# Shear Modulus (GPa) = 18.27574 40.49703 29.38639
#
# Velocity S-wave (km/s) = 2.81033 4.18342 3.56363
# Velocity P-wave (km/s) = 3.93090 7.05837 5.71282
#
# Compressibility (1/GPa) = 0.08781121
#
# Stress axis : x y z
#
# Youngs Moduli (GPa) = 48.89857 60.34419 25.72931
#
# Poissons Ratio (x) = 0.24951 -0.11901
# Poissons Ratio (y) = 0.20219 -0.14075
# Poissons Ratio (z) = -0.22619 -0.33012
#
# Static dielectric constant tensor:
#      x y z
#    x 2.070650 0.007420 0.150700 
#    y 0.007420 1.862820 0.046840 
#    z 0.150700 0.046840 2.073480 
# 
# From -- ./inp_files/425239.got.cif
#   From: 2010.05.17/outbox.cif.g08.bks.cpg/sg2_213_cif.got.tgz:425239.got - 2010.06.03 11:33:40.
