data_PCOD9038462
_publ_section_title
;
Structure prediction by ZEFSAII (Michael W. Deem and Ramdas Pophale) SiO2 
 PCOD9038462
Probable space group: P -1
;
_chemical_formula_sum "Si O2"
_cell_formula_units_Z 14
_cell_length_a 9.242176
_cell_length_b 16.952219
_cell_length_c 5.540845
_cell_angle_alpha 61.089059
_cell_angle_beta 120.834565
_cell_angle_gamma 129.364347
_cell_volume 559.658289
_symmetry_space_group_name_H-M "P -1"
_symmetry_group_IT_number 2
_symmetry_cell_setting 'triclinic'
loop_
_space_group_symop_operation_xyz
x,y,z
-x,-y,-z
loop_
_atom_site_type_symbol
_atom_site_label
_atom_site_fract_x
_atom_site_fract_y
_atom_site_fract_z
Si Si1 0.667068 0.393992 0.403837
Si Si2 0.975964 0.572810 0.068099
Si Si3 0.373494 0.876907 0.647665
Si Si4 0.397588 0.220806 0.046109
Si Si5 0.296253 0.895203 0.053342
Si Si6 0.738703 0.684460 0.594464
Si Si7 0.064988 0.100962 0.249119
O O1 0.822455 0.503887 0.250326
O O2 0.554458 0.312121 0.215275
O O3 0.489817 0.392687 0.403016
O O4 0.805703 0.366162 0.721485
O O5 0.874054 0.633528 0.780735
O O6 0.000000 0.500000 0.000000
O O7 0.491564 0.825165 0.941259
O O8 0.314607 0.832279 0.388634
O O9 0.500000 0.000000 0.500000
O O10 0.226096 0.855606 0.775055
O O11 0.232624 0.116460 0.190256
O O12 0.283847 0.268802 0.743370
O O13 0.136186 0.917189 0.000238
O O14 0.500000 0.000000 0.000000
O O15 0.829314 0.785102 0.700137
O O16 0.000000 0.000000 0.500000
#
# Coordination Sequence:
#
# PCOD9038462 Si02
#       7
#     2   2   2   2   2   2   2
#     4  10  25  48  74 107 144 190 239 309 386 461
#     4  11  25  48  79 108 144 190 243 308 387 466
#     4  10  23  41  69  97 142 196 251 305 371 440
#     4  11  26  45  70 104 148 194 249 316 376 452
#     4  10  23  42  66  98 135 196 257 311 367 441
#     4  11  27  46  71 109 148 191 250 312 380 455
#     4  11  26  44  68 100 147 199 251 310 375 447
#
# _framework density 25.015264999999999
#
# number of rings (size 3 to 8) (size 9 to 14) (size 15 to 20)
#    0.000    1.429    0.000    3.000   12.000    8.571 
#    0.000    0.000    0.000    0.000    0.000    0.000 
#    0.000    0.000    0.000    0.000    0.000    0.000 
#
# Total GULP energy -78109.582748 kJ/mol
# GULP energy per Si atom -5579.255911 kJ/mol
# Density = 2.495833 g / cm^3
# Si number density = 25.015265 Si / 1000 Ang^3
#
#
#
# Elastic Constant Matrix: (Units=GPa)
#
#
# Indices 1 2 3 4 5 6 
#
# 1 93.0419 40.7890 22.9231 -3.6343 13.7047 7.9955
# 2 40.7890 73.7339 33.8418 1.8558 10.9828 10.8515
# 3 22.9231 33.8418 133.7368 -7.7336 19.0864 -9.2939
# 4 -3.6343 1.8558 -7.7336 38.2971 -1.4464 1.6206
# 5 13.7047 10.9828 19.0864 -1.4464 63.4080 -4.9238
# 6 7.9955 10.8515 -9.2939 1.6206 -4.9238 46.8759
#
#
#
# Elastic Compliance Matrix: (Units=1/GPa)
#
#
# Indices 1 2 3 4 5 6 
#
# 1 0.014540 -0.007523 -0.000310 0.001658 -0.001790 -0.001045
# 2 -0.007523 0.020499 -0.004187 -0.002410 -0.001055 -0.004320
# 3 -0.000310 -0.004187 0.009120 0.001841 -0.001710 0.002587
# 4 0.001658 -0.002410 0.001841 0.026773 0.000094 -0.000276
# 5 -0.001790 -0.001055 -0.001710 0.000094 0.017012 0.001994
# 6 -0.001045 -0.004320 0.002587 -0.000276 0.001994 0.023243
#
#
# Mechanical properties :
#
#
# Convention : Reuss Voigt Hill
#
# Bulk Modulus (GPa) = 49.70017 55.06892 52.38455
# Shear Modulus (GPa) = 35.22781 43.24680 39.23731
#
# Velocity S-wave (km/s) = 3.75674 4.16241 3.96477
# Velocity P-wave (km/s) = 6.22323 6.72033 6.47655
#
# Compressibility (1/GPa) = 0.02012066
#
# Stress axis : x y z
#
# Youngs Moduli (GPa) = 68.77424 48.78324 109.64549
#
# Poissons Ratio (x) = 0.36698 0.03399
# Poissons Ratio (y) = 0.51736 0.45906
# Poissons Ratio (z) = 0.02132 0.20425
#
# Static dielectric constant tensor:
#      x y z
#    x 1.865710 0.017640 -0.060450 
#    y 0.017640 2.023750 0.183460 
#    z -0.060450 0.183460 2.188360 
# 
# From -- ./inp_files/46872.got.cif
#   From: 2010.05.17/outbox.cif.g08.bks.cpg/sg2_24_cif.got.tgz:46872.got - 2010.06.03 11:33:40.
