data_PCOD9038067
_publ_section_title
;
Structure prediction by ZEFSAII (Michael W. Deem and Ramdas Pophale) SiO2 
 PCOD9038067
Probable space group: P -1
;
_chemical_formula_sum "Si O2"
_cell_formula_units_Z 14
_cell_length_a 12.120591
_cell_length_b 8.037886
_cell_length_c 8.107323
_cell_angle_alpha 57.008438
_cell_angle_beta 113.743993
_cell_angle_gamma 99.956536
_cell_volume 605.302080
_symmetry_space_group_name_H-M "P -1"
_symmetry_group_IT_number 2
_symmetry_cell_setting 'triclinic'
loop_
_space_group_symop_operation_xyz
x,y,z
-x,-y,-z
loop_
_atom_site_type_symbol
_atom_site_label
_atom_site_fract_x
_atom_site_fract_y
_atom_site_fract_z
Si Si1 0.413982 0.964452 0.814270
Si Si2 0.268533 0.357366 0.443933
Si Si3 0.223900 0.758375 0.029248
Si Si4 0.966364 0.844281 0.703136
Si Si5 0.221091 0.978519 0.261404
Si Si6 0.409342 0.308791 0.163290
Si Si7 0.349023 0.582221 0.680418
O O1 0.496956 0.833093 0.811878
O O2 0.364339 0.170443 0.593449
O O3 0.300661 0.862050 0.880800
O O4 0.500000 0.000000 0.000000
O O5 0.284099 0.545243 0.233667
O O6 0.135920 0.285882 0.365739
O O7 0.284111 0.439877 0.592826
O O8 0.217090 0.896345 0.116054
O O9 0.089836 0.731697 0.896597
O O10 0.904952 0.954410 0.765712
O O11 0.000000 0.000000 0.500000
O O12 0.280693 0.796679 0.502967
O O13 0.304447 0.165886 0.221578
O O14 0.509929 0.399150 0.293139
O O15 0.353041 0.479592 0.916577
#
# Coordination Sequence:
#
# PCOD9038067 Si02
#       7
#     2   2   2   2   2   2   2
#     4  12  22  42  72 103 143 176 219 283 339 406
#     4  11  24  45  68 103 136 182 232 280 338 402
#     4  11  25  46  72 103 136 182 231 278 341 403
#     4  12  26  49  73  95 139 181 234 287 342 399
#     4  11  24  46  69  99 136 180 228 277 342 404
#     4  11  23  42  67 102 144 178 221 271 347 405
#     4  10  23  41  66 104 138 179 221 279 337 409
#
# _framework density 23.128947
#
# number of rings (size 3 to 8) (size 9 to 14) (size 15 to 20)
#    0.000    0.857    4.286    2.143    0.000    4.000 
#    2.571    1.429    0.000    0.000    0.000    0.000 
#    0.000    0.000    0.000    0.000    0.000    0.000 
#
# Total GULP energy -78405.841375 kJ/mol
# GULP energy per Si atom -5600.417241 kJ/mol
# Density = 2.307630 g / cm^3
# Si number density = 23.128947 Si / 1000 Ang^3
#
#
#
# Elastic Constant Matrix: (Units=GPa)
#
#
# Indices 1 2 3 4 5 6 
#
# 1 121.5588 21.0030 35.8671 -5.1226 -0.8376 7.8493
# 2 21.0030 103.7293 32.4137 5.6329 0.9816 11.8784
# 3 35.8671 32.4137 119.3404 -9.3885 21.0023 0.9595
# 4 -5.1226 5.6329 -9.3885 50.8704 7.8498 6.9583
# 5 -0.8376 0.9816 21.0023 7.8498 41.6457 1.8859
# 6 7.8493 11.8784 0.9595 6.9583 1.8859 25.2703
#
#
#
# Elastic Compliance Matrix: (Units=1/GPa)
#
#
# Indices 1 2 3 4 5 6 
#
# 1 0.009411 -0.000751 -0.002842 0.000629 0.001647 -0.002758
# 2 -0.000751 0.011433 -0.003301 -0.001598 0.001895 -0.004717
# 3 -0.002842 -0.003301 0.011476 0.002957 -0.006399 0.001662
# 4 0.000629 -0.001598 0.002957 0.021982 -0.005349 -0.005210
# 5 0.001647 0.001895 -0.006399 -0.005349 0.028317 -0.001800
# 6 -0.002758 -0.004717 0.001662 -0.005210 -0.001800 0.044152
#
#
# Mechanical properties :
#
#
# Convention : Reuss Voigt Hill
#
# Bulk Modulus (GPa) = 53.96436 58.13290 56.04863
# Shear Modulus (GPa) = 34.07459 40.58026 37.32743
#
# Velocity S-wave (km/s) = 3.84245 4.19325 4.02168
# Velocity P-wave (km/s) = 6.56266 6.97375 6.77133
#
# Compressibility (1/GPa) = 0.01853075
#
# Stress axis : x y z
#
# Youngs Moduli (GPa) = 106.25918 87.46606 87.14067
#
# Poissons Ratio (x) = 0.06570 0.24770
# Poissons Ratio (y) = 0.07982 0.28763
# Poissons Ratio (z) = 0.30204 0.28871
#
# Static dielectric constant tensor:
#      x y z
#    x 1.899780 -0.016900 -0.054840 
#    y -0.016900 1.926780 0.022000 
#    z -0.054840 0.022000 1.857810 
# 
# From -- ./inp_files/179615.got.cif
#   From: 2010.05.17/outbox.cif.g08.bks.cpg/sg2_90_cif.got.tgz:179615.got - 2010.06.03 11:33:40.
