data_PCOD9038097
_publ_section_title
;
Structure prediction by ZEFSAII (Michael W. Deem and Ramdas Pophale) SiO2 
 PCOD9038097
Probable space group: P -1
;
_chemical_formula_sum "Si O2"
_cell_formula_units_Z 16
_cell_length_a 4.901639
_cell_length_b 9.802447
_cell_length_c 19.151685
_cell_angle_alpha 117.447666
_cell_angle_beta 105.771101
_cell_angle_gamma 113.790136
_cell_volume 617.199514
_symmetry_space_group_name_H-M "P -1"
_symmetry_group_IT_number 2
_symmetry_cell_setting 'triclinic'
loop_
_space_group_symop_operation_xyz
x,y,z
-x,-y,-z
loop_
_atom_site_type_symbol
_atom_site_label
_atom_site_fract_x
_atom_site_fract_y
_atom_site_fract_z
Si Si1 0.337344 0.441865 0.125408
Si Si2 0.741841 0.952873 0.610778
Si Si3 0.443756 0.807967 0.924061
Si Si4 0.134860 0.685468 0.601909
Si Si5 0.051869 0.355715 0.665687
Si Si6 0.309886 0.052584 0.183581
Si Si7 0.349890 0.154526 0.821030
Si Si8 0.519830 0.413423 0.588228
O O1 0.330419 0.266529 0.052403
O O2 0.651736 0.536050 0.227720
O O3 0.451909 0.616026 0.121615
O O4 0.967246 0.359933 0.119422
O O5 0.376422 0.864838 0.607586
O O6 0.666118 0.777501 0.518002
O O7 0.832889 0.127470 0.610809
O O8 0.071145 0.045138 0.710505
O O9 0.555280 0.858573 0.862475
O O10 0.500000 0.000000 0.000000
O O11 0.430885 0.768392 0.703185
O O12 0.000000 0.500000 0.500000
O O13 0.776450 0.604962 0.602806
O O14 0.233876 0.398848 0.613353
O O15 0.785401 0.409619 0.657185
O O16 0.377420 0.895781 0.168545
O O17 0.901984 0.949134 0.153021
#
# Coordination Sequence:
#
# PCOD9038097 Si02
#       8
#     2   2   2   2   2   2   2   2
#     4  11  23  44  68  96 130 168 214 266 325 395
#     4   9  21  37  56  85 126 168 214 265 313 367
#     4  12  26  46  71 100 130 165 210 269 333 397
#     4   9  20  37  58  87 124 167 211 258 310 369
#     4  11  22  37  60  86 119 167 216 262 314 370
#     4  11  22  42  65  95 131 172 218 270 324 386
#     4  10  23  41  66  94 129 174 216 264 325 387
#     4  11  22  36  55  87 124 169 218 266 310 367
#
# _framework density 25.923546000000002
#
# number of rings (size 3 to 8) (size 9 to 14) (size 15 to 20)
#    0.000    1.500    0.000    4.875    0.000   11.000 
#    0.000   10.000    0.000    0.000    0.000    0.000 
#    0.000    0.000    0.000    0.000    0.000    0.000 
#
# Total GULP energy -89650.396947 kJ/mol
# GULP energy per Si atom -5603.149809 kJ/mol
# Density = 2.586454 g / cm^3
# Si number density = 25.923546 Si / 1000 Ang^3
#
#
#
# Elastic Constant Matrix: (Units=GPa)
#
#
# Indices 1 2 3 4 5 6 
#
# 1 85.4622 28.3245 -1.7014 11.5017 -19.0336 0.5369
# 2 28.3245 169.5851 30.6065 27.2801 -28.1390 1.9669
# 3 -1.7014 30.6065 61.0679 3.6144 -30.3166 16.8645
# 4 11.5017 27.2801 3.6144 27.3561 0.9236 -3.3762
# 5 -19.0336 -28.1390 -30.3166 0.9236 37.7397 -1.6785
# 6 0.5369 1.9669 16.8645 -3.3762 -1.6785 45.9515
#
#
#
# Elastic Compliance Matrix: (Units=1/GPa)
#
#
# Indices 1 2 3 4 5 6 
#
# 1 0.017171 -0.000447 0.010951 -0.009326 0.017162 -0.004259
# 2 -0.000447 0.008382 -0.000861 -0.008298 0.005516 -0.000446
# 3 0.010951 -0.000861 0.039965 -0.012028 0.036643 -0.014304
# 4 -0.009326 -0.008298 -0.012028 0.052043 -0.021474 0.007918
# 5 0.017162 0.005516 0.036643 -0.021474 0.068651 -0.012955
# 6 -0.004259 -0.000446 -0.014304 0.007918 -0.012955 0.027189
#
#
# Mechanical properties :
#
#
# Convention : Reuss Voigt Hill
#
# Bulk Modulus (GPa) = 11.79192 47.84159 29.81675
# Shear Modulus (GPa) = 22.48366 39.46849 30.97608
#
# Velocity S-wave (km/s) = 2.94820 3.90615 3.46048
# Velocity P-wave (km/s) = 4.01843 6.23209 5.24341
#
# Compressibility (1/GPa) = 0.08480383
#
# Stress axis : x y z
#
# Youngs Moduli (GPa) = 58.23653 119.30142 25.02185
#
# Poissons Ratio (x) = 0.05334 -0.27400
# Poissons Ratio (y) = 0.02604 0.02154
# Poissons Ratio (z) = -0.63772 0.10270
#
# Static dielectric constant tensor:
#      x y z
#    x 2.020620 -0.048760 0.019860 
#    y -0.048760 1.969420 0.007560 
#    z 0.019860 0.007560 2.075020 
# 
# From -- ./inp_files/549510.got.cif
#   From: 2010.05.17/outbox.cif.g08.bks.cpg/sg2_275_cif.got.tgz:549510.got - 2010.06.03 11:33:40.
