data_PCOD9038113
_publ_section_title
;
Structure prediction by ZEFSAII (Michael W. Deem and Ramdas Pophale) SiO2 
 PCOD9038113
Probable space group: P -1
;
_chemical_formula_sum "Si O2"
_cell_formula_units_Z 14
_cell_length_a 16.571736
_cell_length_b 6.642157
_cell_length_c 7.168324
_cell_angle_alpha 96.786117
_cell_angle_beta 125.887659
_cell_angle_gamma 71.034729
_cell_volume 601.846321
_symmetry_space_group_name_H-M "P -1"
_symmetry_group_IT_number 2
_symmetry_cell_setting 'triclinic'
loop_
_space_group_symop_operation_xyz
x,y,z
-x,-y,-z
loop_
_atom_site_type_symbol
_atom_site_label
_atom_site_fract_x
_atom_site_fract_y
_atom_site_fract_z
Si Si1 0.458436 0.088865 0.656356
Si Si2 0.052311 0.493655 0.791988
Si Si3 0.670730 0.106899 0.056064
Si Si4 0.176582 0.324721 0.633154
Si Si5 0.689918 0.455914 0.401474
Si Si6 0.962976 0.809305 0.998990
Si Si7 0.272853 0.919325 0.312329
O O1 0.404042 0.343880 0.625958
O O2 0.500000 0.000000 0.500000
O O3 0.366694 0.983549 0.547098
O O4 0.564241 0.041592 0.914278
O O5 0.156779 0.459752 0.814552
O O6 0.944617 0.645194 0.574586
O O7 0.049493 0.610621 0.995345
O O8 0.036021 0.267157 0.795050
O O9 0.658099 0.323861 0.175789
O O10 0.760112 0.915453 0.255199
O O11 0.700480 0.117284 0.877336
O O12 0.228554 0.439068 0.567952
O O13 0.732473 0.288910 0.608186
O O14 0.837626 0.889952 0.794786
O O15 0.000000 0.000000 0.000000
#
# Coordination Sequence:
#
# PCOD9038113 Si02
#       7
#     2   2   2   2   2   2   2
#     4  10  25  47  71  98 140 182 224 284 346 408
#     4  10  23  41  66  95 136 182 222 274 343 399
#     4  11  25  45  71 101 137 181 232 283 339 410
#     4  11  24  44  66  99 139 179 224 281 340 405
#     4  12  25  42  72 102 135 179 230 283 343 404
#     4  11  22  40  68 101 133 176 228 277 333 402
#     4  11  25  46  68 103 142 178 230 284 339 408
#
# _framework density 23.261752999999999
#
# number of rings (size 3 to 8) (size 9 to 14) (size 15 to 20)
#    0.000    1.143    1.429    3.857    2.000    9.143 
#    0.000    3.571    0.000    0.000    0.000    0.000 
#    0.000    0.000    0.000    0.000    0.000    0.000 
#
# Total GULP energy -78129.357826 kJ/mol
# GULP energy per Si atom -5580.668416 kJ/mol
# Density = 2.320881 g / cm^3
# Si number density = 23.261753 Si / 1000 Ang^3
#
#
#
# Elastic Constant Matrix: (Units=GPa)
#
#
# Indices 1 2 3 4 5 6 
#
# 1 148.0808 55.2412 31.3403 -1.1670 -15.3581 -7.6916
# 2 55.2412 115.7178 32.6510 -6.5876 -10.2939 -6.4880
# 3 31.3403 32.6510 78.7115 -4.2428 -1.6737 4.6659
# 4 -1.1670 -6.5876 -4.2428 40.5130 4.0772 -2.2922
# 5 -15.3581 -10.2939 -1.6737 4.0772 40.2417 -7.9485
# 6 -7.6916 -6.4880 4.6659 -2.2922 -7.9485 48.0254
#
#
#
# Elastic Compliance Matrix: (Units=1/GPa)
#
#
# Indices 1 2 3 4 5 6 
#
# 1 0.008819 -0.003280 -0.002225 -0.000705 0.002825 0.001619
# 2 -0.003280 0.011513 -0.003462 0.001336 0.001754 0.001720
# 3 -0.002225 -0.003462 0.015194 0.000992 -0.001704 -0.002535
# 4 -0.000705 0.001336 0.000992 0.025260 -0.002288 0.000798
# 5 0.002825 0.001754 -0.001704 -0.002288 0.027587 0.005312
# 6 0.001619 0.001720 -0.002535 0.000798 0.005312 0.022478
#
#
# Mechanical properties :
#
#
# Convention : Reuss Voigt Hill
#
# Bulk Modulus (GPa) = 56.84522 64.55279 60.69900
# Shear Modulus (GPa) = 37.13345 40.64120 38.88733
#
# Velocity S-wave (km/s) = 3.99975 4.18440 4.09311
# Velocity P-wave (km/s) = 6.76911 7.15237 6.96338
#
# Compressibility (1/GPa) = 0.01759163
#
# Stress axis : x y z
#
# Youngs Moduli (GPa) = 113.38822 86.85712 65.81459
#
# Poissons Ratio (x) = 0.28493 0.14642
# Poissons Ratio (y) = 0.37196 0.22788
# Poissons Ratio (z) = 0.25225 0.30074
#
# Static dielectric constant tensor:
#      x y z
#    x 2.084910 0.022400 -0.191640 
#    y 0.022400 1.952850 0.044440 
#    z -0.191640 0.044440 2.087430 
# 
# From -- ./inp_files/323739.got.cif
#   From: 2010.05.17/outbox.cif.g08.bks.cpg/sg2_162_cif.got.tgz:323739.got - 2010.06.03 11:33:40.
