data_PCOD9038319
_publ_section_title
;
Structure prediction by ZEFSAII (Michael W. Deem and Ramdas Pophale) SiO2 
 PCOD9038319
Probable space group: P -1
;
_chemical_formula_sum "Si O2"
_cell_formula_units_Z 14
_cell_length_a 5.552493
_cell_length_b 25.487414
_cell_length_c 15.893424
_cell_angle_alpha 17.984021
_cell_angle_beta 89.944401
_cell_angle_gamma 82.271303
_cell_volume 626.112560
_symmetry_space_group_name_H-M "P -1"
_symmetry_group_IT_number 2
_symmetry_cell_setting 'triclinic'
loop_
_space_group_symop_operation_xyz
x,y,z
-x,-y,-z
loop_
_atom_site_type_symbol
_atom_site_label
_atom_site_fract_x
_atom_site_fract_y
_atom_site_fract_z
Si Si1 0.460887 0.416594 0.357447
Si Si2 0.726114 0.609841 0.142463
Si Si3 0.031277 0.171442 0.284072
Si Si4 0.235906 0.275914 0.722152
Si Si5 0.550181 0.295082 0.839367
Si Si6 0.070491 0.098509 0.592955
Si Si7 0.442796 0.856080 0.381357
O O1 0.709238 0.467394 0.290064
O O2 0.433501 0.315425 0.597414
O O3 0.469772 0.293005 0.466500
O O4 0.221385 0.624520 0.034580
O O5 0.479350 0.700164 0.068409
O O6 0.966198 0.463785 0.422281
O O7 0.754098 0.781990 0.836936
O O8 0.081417 0.140955 0.429846
O O9 0.000000 0.000000 0.500000
O O10 0.323492 0.260463 0.842716
O O11 0.273086 0.066185 0.022291
O O12 0.500000 0.500000 0.500000
O O13 0.818643 0.128899 0.059156
O O14 0.290877 0.147125 0.568254
O O15 0.769675 0.181246 0.502909
#
# Coordination Sequence:
#
# PCOD9038319 Si02
#       7
#     2   2   2   2   2   2   2
#     4  11  25  45  70 104 136 191 232 290 350 417
#     4  11  24  42  72 100 142 183 235 290 359 415
#     4  11  28  46  71 102 141 183 240 293 352 418
#     4  10  23  41  68 107 139 181 230 290 355 421
#     4  11  21  41  69 103 140 178 231 292 360 419
#     4  11  28  47  71 104 140 191 236 292 348 412
#     4  11  27  47  73 103 146 185 239 286 349 421
#
# _framework density 22.360198
#
# number of rings (size 3 to 8) (size 9 to 14) (size 15 to 20)
#    0.000    1.143    1.429    2.571   14.000    2.857 
#    0.000    0.000    0.000    0.000    0.000    0.000 
#    0.000    0.000    0.000    0.000    0.000    0.000 
#
# Total GULP energy -78151.172508 kJ/mol
# GULP energy per Si atom -5582.226608 kJ/mol
# Density = 2.230931 g / cm^3
# Si number density = 22.360198 Si / 1000 Ang^3
#
#
#
# Elastic Constant Matrix: (Units=GPa)
#
#
# Indices 1 2 3 4 5 6 
#
# 1 85.4496 52.4081 23.4740 -7.8701 -21.1543 -2.9369
# 2 52.4081 147.6954 61.5734 -20.9249 -23.3607 11.4456
# 3 23.4740 61.5734 92.9807 -6.4033 -16.9038 3.7456
# 4 -7.8701 -20.9249 -6.4033 38.0671 4.6847 -4.4349
# 5 -21.1543 -23.3607 -16.9038 4.6847 34.3954 -0.1725
# 6 -2.9369 11.4456 3.7456 -4.4349 -0.1725 28.1519
#
#
#
# Elastic Compliance Matrix: (Units=1/GPa)
#
#
# Indices 1 2 3 4 5 6 
#
# 1 0.016679 -0.005262 0.000379 0.000231 0.006859 0.003907
# 2 -0.005262 0.012310 -0.006100 0.003982 0.001564 -0.004105
# 3 0.000379 -0.006100 0.015291 -0.001127 0.003760 0.000331
# 4 0.000231 0.003982 -0.001127 0.028877 -0.001625 0.003094
# 5 0.006859 0.001564 0.003760 -0.001625 0.036422 -0.000453
# 6 0.003907 -0.004105 0.000331 0.003094 -0.000453 0.038039
#
#
# Mechanical properties :
#
#
# Convention : Reuss Voigt Hill
#
# Bulk Modulus (GPa) = 44.81052 66.78183 55.79617
# Shear Modulus (GPa) = 28.24495 32.70092 30.47294
#
# Velocity S-wave (km/s) = 3.55798 3.82836 3.69564
# Velocity P-wave (km/s) = 6.07970 7.03371 6.57403
#
# Compressibility (1/GPa) = 0.02231619
#
# Stress axis : x y z
#
# Youngs Moduli (GPa) = 59.95393 81.23165 65.39629
#
# Poissons Ratio (x) = 0.42742 -0.02478
# Poissons Ratio (y) = 0.31546 0.39891
# Poissons Ratio (z) = -0.02272 0.49550
#
# Static dielectric constant tensor:
#      x y z
#    x 2.007550 0.030410 0.007680 
#    y 0.030410 1.814990 -0.010500 
#    z 0.007680 -0.010500 1.813070 
# 
# From -- ./inp_files/28115.got.cif
#   From: 2010.05.17/outbox.cif.g08.bks.cpg/sg2_15_cif.got.tgz:28115.got - 2010.06.03 11:33:40.
