data_PCOD9038546
_publ_section_title
;
Structure prediction by ZEFSAII (Michael W. Deem and Ramdas Pophale) SiO2 
 PCOD9038546
Probable space group: P -1
;
_chemical_formula_sum "Si O2"
_cell_formula_units_Z 12
_cell_length_a 23.078496
_cell_length_b 11.722129
_cell_length_c 5.920047
_cell_angle_alpha 62.579322
_cell_angle_beta 66.448668
_cell_angle_gamma 22.624416
_cell_volume 545.349061
_symmetry_space_group_name_H-M "P -1"
_symmetry_group_IT_number 2
_symmetry_cell_setting 'triclinic'
loop_
_space_group_symop_operation_xyz
x,y,z
-x,-y,-z
loop_
_atom_site_type_symbol
_atom_site_label
_atom_site_fract_x
_atom_site_fract_y
_atom_site_fract_z
Si Si1 0.488764 0.230997 0.757754
Si Si2 0.617656 0.757062 0.734872
Si Si3 0.063926 0.290059 0.895299
Si Si4 0.035289 0.874386 0.308842
Si Si5 0.203270 0.879451 0.410551
Si Si6 0.764527 0.908631 0.584237
O O1 0.351503 0.519338 0.540032
O O2 0.585799 0.929667 0.804181
O O3 0.608036 0.126067 0.670748
O O4 0.412480 0.324282 0.024203
O O5 0.785714 0.466171 0.654747
O O6 0.500000 0.000000 0.500000
O O7 0.190923 0.130883 0.701511
O O8 0.910426 0.553765 0.752455
O O9 0.000000 0.500000 0.000000
O O10 0.141653 0.022352 0.126130
O O11 0.000000 0.000000 0.500000
O O12 0.935145 0.930816 0.417865
O O13 0.000000 0.000000 0.000000
O O14 0.237964 0.953559 0.398936
#
# Coordination Sequence:
#
# PCOD9038546 Si02
#       6
#     2   2   2   2   2   2
#     4  11  25  45  67 103 142 186 239 300 369 430
#     4  11  27  45  70 101 146 191 243 301 366 440
#     4   9  22  40  62 100 133 182 231 293 361 427
#     4  12  28  49  78 108 147 195 248 305 360 441
#     4  11  24  43  69 104 139 184 240 295 365 431
#     4  10  23  41  70  98 140 180 239 300 362 435
#
# _framework density 22.004255000000001
#
# number of rings (size 3 to 8) (size 9 to 14) (size 15 to 20)
#    0.000    1.333    1.667    1.500   14.000    3.333 
#    0.000    0.000    0.000    0.000    0.000    0.000 
#    0.000    0.000    0.000    0.000    0.000    0.000 
#
# Total GULP energy -66986.976877 kJ/mol
# GULP energy per Si atom -5582.248073 kJ/mol
# Density = 2.195417 g / cm^3
# Si number density = 22.004255 Si / 1000 Ang^3
#
#
#
# Elastic Constant Matrix: (Units=GPa)
#
#
# Indices 1 2 3 4 5 6 
#
# 1 65.4724 38.7935 29.1663 12.2822 -20.4816 -33.7363
# 2 38.7935 158.8706 59.7694 5.7247 -19.3881 -33.0041
# 3 29.1663 59.7694 150.1784 -16.4996 -20.5021 -26.8786
# 4 12.2822 5.7247 -16.4996 38.3002 -3.8099 1.3844
# 5 -20.4816 -19.3881 -20.5021 -3.8099 32.4016 19.1327
# 6 -33.7363 -33.0041 -26.8786 1.3844 19.1327 46.0127
#
#
#
# Elastic Compliance Matrix: (Units=1/GPa)
#
#
# Indices 1 2 3 4 5 6 
#
# 1 0.029951 -0.001768 -0.002487 -0.010587 0.004649 0.017624
# 2 -0.001768 0.008483 -0.002647 -0.001945 0.000140 0.003242
# 3 -0.002487 -0.002647 0.009277 0.005507 0.003257 0.000177
# 4 -0.010587 -0.001945 0.005507 0.032964 0.004769 -0.008915
# 5 0.004649 0.000140 0.003257 0.004769 0.044264 -0.013137
# 6 0.017624 0.003242 0.000177 -0.008915 -0.013137 0.042815
#
#
# Mechanical properties :
#
#
# Convention : Reuss Voigt Hill
#
# Bulk Modulus (GPa) = 29.49312 69.99775 49.74544
# Shear Modulus (GPa) = 25.92570 39.79571 32.86070
#
# Velocity S-wave (km/s) = 3.43623 4.25731 3.86862
# Velocity P-wave (km/s) = 5.40149 7.48641 6.52773
#
# Compressibility (1/GPa) = 0.03390621
#
# Stress axis : x y z
#
# Youngs Moduli (GPa) = 33.38835 117.88813 107.79870
#
# Poissons Ratio (x) = 0.20837 0.26813
# Poissons Ratio (y) = 0.05902 0.28533
# Poissons Ratio (z) = 0.08305 0.31203
#
# Static dielectric constant tensor:
#      x y z
#    x 1.841630 0.042820 0.031520 
#    y 0.042820 1.778100 -0.022000 
#    z 0.031520 -0.022000 1.870750 
# 
# From -- ./inp_files/21442.got.cif
#   From: 2010.05.17/outbox.cif.g08.bks.cpg/sg2_11_cif.got.tgz:21442.got - 2010.06.03 11:33:40.
