data_PCOD9038869
_publ_section_title
;
Structure prediction by ZEFSAII (Michael W. Deem and Ramdas Pophale) SiO2 
 PCOD9038869
Probable space group: P -1
;
_chemical_formula_sum "Si O2"
_cell_formula_units_Z 14
_cell_length_a 5.479196
_cell_length_b 14.440864
_cell_length_c 11.120156
_cell_angle_alpha 40.163910
_cell_angle_beta 95.390252
_cell_angle_gamma 102.011602
_cell_volume 552.110166
_symmetry_space_group_name_H-M "P -1"
_symmetry_group_IT_number 2
_symmetry_cell_setting 'triclinic'
loop_
_space_group_symop_operation_xyz
x,y,z
-x,-y,-z
loop_
_atom_site_type_symbol
_atom_site_label
_atom_site_fract_x
_atom_site_fract_y
_atom_site_fract_z
Si Si1 0.482003 0.443497 0.293053
Si Si2 0.545249 0.273894 0.867464
Si Si3 0.845891 0.346476 0.598576
Si Si4 0.349211 0.270690 0.111676
Si Si5 0.196377 0.125918 0.548448
Si Si6 0.146192 0.133530 0.797564
Si Si7 0.805906 0.145197 0.334725
O O1 0.354355 0.559568 0.244916
O O2 0.642718 0.388374 0.458903
O O3 0.320933 0.298149 0.372092
O O4 0.630485 0.556865 0.089501
O O5 0.767098 0.251318 0.812503
O O6 0.331817 0.239963 0.789814
O O7 0.405934 0.201662 0.052180
O O8 0.000000 0.500000 0.500000
O O9 0.979724 0.241969 0.631934
O O10 0.597943 0.243277 0.219478
O O11 0.069292 0.211794 0.208363
O O12 0.249651 0.080087 0.732263
O O13 0.910490 0.115668 0.499886
O O14 0.292139 0.011535 0.578906
O O15 0.000000 0.000000 0.000000
#
# Coordination Sequence:
#
# PCOD9038869 Si02
#       7
#     2   2   2   2   2   2   2
#     4  10  23  42  71 106 140 188 241 292 364 430
#     4  10  23  42  64 104 138 179 230 297 360 426
#     4  12  22  39  70 100 148 182 227 296 366 435
#     4  10  26  46  79 102 145 193 238 304 357 423
#     4  11  26  46  73 103 143 192 243 297 362 424
#     4  12  26  41  69 106 139 183 236 294 365 437
#     4  11  27  52  71 103 150 192 247 299 354 421
#
# _framework density 25.357257000000001
#
# number of rings (size 3 to 8) (size 9 to 14) (size 15 to 20)
#    0.857    0.286    2.857    2.143    6.000    7.429 
#    0.000    0.000    0.000    0.000    0.000    0.000 
#    0.000    0.000    0.000    0.000    0.000    0.000 
#
# Total GULP energy -78024.672609 kJ/mol
# GULP energy per Si atom -5573.190901 kJ/mol
# Density = 2.529954 g / cm^3
# Si number density = 25.357257 Si / 1000 Ang^3
#
#
#
# Elastic Constant Matrix: (Units=GPa)
#
#
# Indices 1 2 3 4 5 6 
#
# 1 81.5157 22.2001 32.7114 -1.7745 -14.4258 -2.7179
# 2 22.2001 149.3359 32.6897 -2.7493 -1.7253 2.1278
# 3 32.7114 32.6897 127.4206 -9.7913 -24.2318 7.1923
# 4 -1.7745 -2.7493 -9.7913 46.4770 2.8749 -1.0702
# 5 -14.4258 -1.7253 -24.2318 2.8749 33.4531 5.2078
# 6 -2.7179 2.1278 7.1923 -1.0702 5.2078 21.3471
#
#
#
# Elastic Compliance Matrix: (Units=1/GPa)
#
#
# Indices 1 2 3 4 5 6 
#
# 1 0.014537 -0.001554 -0.002716 -0.000308 0.003945 0.001943
# 2 -0.001554 0.007298 -0.001773 0.000099 -0.001597 0.000067
# 3 -0.002716 -0.001773 0.010815 0.001491 0.007302 -0.005520
# 4 -0.000308 0.000099 0.001491 0.021908 -0.001056 0.000804
# 5 0.003945 -0.001597 0.007302 -0.001056 0.038648 -0.011280
# 6 0.001943 0.000067 -0.005520 0.000804 -0.011280 0.051738
#
#
# Mechanical properties :
#
#
# Convention : Reuss Voigt Hill
#
# Bulk Modulus (GPa) = 48.63197 59.27495 53.95346
# Shear Modulus (GPa) = 30.50917 38.30017 34.40467
#
# Velocity S-wave (km/s) = 3.47244 3.89063 3.68747
# Velocity P-wave (km/s) = 5.94117 6.60374 6.28120
#
# Compressibility (1/GPa) = 0.02056260
#
# Stress axis : x y z
#
# Youngs Moduli (GPa) = 68.78934 137.02517 92.46343
#
# Poissons Ratio (x) = 0.21297 0.25117
# Poissons Ratio (y) = 0.10692 0.16395
# Poissons Ratio (z) = 0.18686 0.24297
#
# Static dielectric constant tensor:
#      x y z
#    x 2.100140 -0.047180 -0.133880 
#    y -0.047180 1.499320 -0.122850 
#    z -0.133880 -0.122850 2.022660 
# 
# From -- ./inp_files/367397.got.cif
#   From: 2010.05.17/outbox.cif.g08.bks.cpg/sg2_184_cif.got.tgz:367397.got - 2010.06.03 11:33:40.
