data_PCOD9038853
_publ_section_title
;
Structure prediction by ZEFSAII (Michael W. Deem and Ramdas Pophale) SiO2 
 PCOD9038853
Probable space group: P -1
;
_chemical_formula_sum "Si O2"
_cell_formula_units_Z 16
_cell_length_a 16.160314
_cell_length_b 8.925097
_cell_length_c 8.080209
_cell_angle_alpha 127.206795
_cell_angle_beta 46.992931
_cell_angle_gamma 115.834964
_cell_volume 678.230387
_symmetry_space_group_name_H-M "P -1"
_symmetry_group_IT_number 2
_symmetry_cell_setting 'triclinic'
loop_
_space_group_symop_operation_xyz
x,y,z
-x,-y,-z
loop_
_atom_site_type_symbol
_atom_site_label
_atom_site_fract_x
_atom_site_fract_y
_atom_site_fract_z
Si Si1 0.863344 0.307841 0.958533
Si Si2 0.234392 0.130233 0.818137
Si Si3 0.787053 0.069721 0.606446
Si Si4 0.357664 0.834762 0.639504
Si Si5 0.651235 0.342348 0.821908
Si Si6 0.445920 0.363252 0.620229
Si Si7 0.111660 0.423358 0.377842
Si Si8 0.895521 0.705952 0.318977
O O1 0.854947 0.218094 0.728663
O O2 0.748616 0.255435 0.176604
O O3 0.875945 0.533515 0.103759
O O4 0.973873 0.223620 0.837323
O O5 0.182761 0.978924 0.657514
O O6 0.321439 0.271412 0.694422
O O7 0.315940 0.037638 0.780072
O O8 0.140446 0.236794 0.113807
O O9 0.808115 0.870898 0.533584
O O10 0.666183 0.165144 0.807735
O O11 0.377792 0.731651 0.368980
O O12 0.469014 0.802590 0.571183
O O13 0.777297 0.439472 0.704048
O O14 0.572047 0.497544 0.107066
O O15 0.500000 0.500000 0.500000
O O16 0.104244 0.379529 0.553785
O O17 0.000000 0.500000 0.500000
#
# Coordination Sequence:
#
# PCOD9038853 Si02
#       8
#     2   2   2   2   2   2   2   2
#     4  11  24  42  69 101 137 180 228 279 336 398
#     4  10  26  43  68 101 137 179 229 279 343 409
#     4  11  24  42  68  98 140 174 227 280 332 409
#     4  11  22  45  68  94 137 178 229 281 339 404
#     4  10  23  42  63  99 132 176 223 277 341 398
#     4  11  24  42  71  99 134 176 224 291 345 400
#     4  11  23  42  67  97 137 181 225 274 334 405
#     4  11  25  42  69 101 138 182 227 275 343 395
#
# _framework density 23.590805
#
# number of rings (size 3 to 8) (size 9 to 14) (size 15 to 20)
#    0.000    1.250    1.250    3.375    8.750    1.000 
#    0.000   10.000    0.000    0.000    0.000    0.000 
#    0.000    0.000    0.000    0.000    0.000    0.000 
#
# Total GULP energy -89420.509087 kJ/mol
# GULP energy per Si atom -5588.781818 kJ/mol
# Density = 2.353711 g / cm^3
# Si number density = 23.590805 Si / 1000 Ang^3
#
#
#
# Elastic Constant Matrix: (Units=GPa)
#
#
# Indices 1 2 3 4 5 6 
#
# 1 84.3055 38.4950 45.6409 11.9373 1.5165 -17.9967
# 2 38.4950 52.3240 43.7807 12.3252 -7.5308 -22.2575
# 3 45.6409 43.7807 135.1100 19.5298 1.7018 -4.4575
# 4 11.9373 12.3252 19.5298 33.4803 6.8740 -9.6448
# 5 1.5165 -7.5308 1.7018 6.8740 46.7203 13.9208
# 6 -17.9967 -22.2575 -4.4575 -9.6448 13.9208 35.5500
#
#
#
# Elastic Compliance Matrix: (Units=1/GPa)
#
#
# Indices 1 2 3 4 5 6 
#
# 1 0.019134 -0.010353 -0.003030 0.000783 -0.003622 0.004456
# 2 -0.010353 0.044236 -0.009997 -0.001428 0.002082 0.019998
# 3 -0.003030 -0.009997 0.012084 -0.004843 0.001156 -0.008044
# 4 0.000783 -0.001428 -0.004843 0.038740 -0.009715 0.013210
# 5 -0.003622 0.002082 0.001156 -0.009715 0.027334 -0.013724
# 6 0.004456 0.019998 -0.008044 0.013210 -0.013724 0.050855
#
#
# Mechanical properties :
#
#
# Convention : Reuss Voigt Hill
#
# Bulk Modulus (GPa) = 34.84796 58.61920 46.73358
# Shear Modulus (GPa) = 20.10395 32.73832 26.42113
#
# Velocity S-wave (km/s) = 2.92240 3.72930 3.35023
# Velocity P-wave (km/s) = 5.11773 6.59135 5.90072
#
# Compressibility (1/GPa) = 0.02869609
#
# Stress axis : x y z
#
# Youngs Moduli (GPa) = 52.26175 22.60614 82.75202
#
# Poissons Ratio (x) = 0.23404 0.25071
# Poissons Ratio (y) = 0.54105 0.82725
# Poissons Ratio (z) = 0.15834 0.22599
#
# Static dielectric constant tensor:
#      x y z
#    x 1.896100 -0.016000 0.000280 
#    y -0.016000 1.959630 0.018300 
#    z 0.000280 0.018300 1.849390 
# 
# From -- ./inp_files/327780.got.cif
#   From: 2010.05.17/outbox.cif.g08.bks.cpg/sg2_164_cif.got.tgz:327780.got - 2010.06.03 11:33:40.
