data_PCOD9038031
_publ_section_title
;
Structure prediction by ZEFSAII (Michael W. Deem and Ramdas Pophale) SiO2 
 PCOD9038031
Probable space group: P -1
;
_chemical_formula_sum "Si O2"
_cell_formula_units_Z 16
_cell_length_a 9.025374
_cell_length_b 11.360671
_cell_length_c 14.993137
_cell_angle_alpha 96.629531
_cell_angle_beta 141.669843
_cell_angle_gamma 65.111219
_cell_volume 799.427178
_symmetry_space_group_name_H-M "P -1"
_symmetry_group_IT_number 2
_symmetry_cell_setting 'triclinic'
loop_
_space_group_symop_operation_xyz
x,y,z
-x,-y,-z
loop_
_atom_site_type_symbol
_atom_site_label
_atom_site_fract_x
_atom_site_fract_y
_atom_site_fract_z
Si Si1 0.740223 0.988550 0.546699
Si Si2 0.694541 0.064250 0.109974
Si Si3 0.752133 0.617205 0.282069
Si Si4 0.158645 0.864461 0.001508
Si Si5 0.780297 0.504359 0.106347
Si Si6 0.939122 0.315270 0.425087
Si Si7 0.740530 0.768183 0.760839
Si Si8 0.595972 0.684362 0.863229
O O1 0.882628 0.833176 0.555963
O O2 0.977246 0.008564 0.707730
O O3 0.500000 0.000000 0.500000
O O4 0.573414 0.113963 0.407504
O O5 0.712389 0.110786 0.023071
O O6 0.542274 0.183318 0.123946
O O7 0.500000 0.000000 0.000000
O O8 0.789605 0.604958 0.192439
O O9 0.910454 0.679699 0.413974
O O10 0.872724 0.456192 0.354049
O O11 0.419550 0.722942 0.155882
O O12 0.918941 0.839789 0.854883
O O13 0.000000 0.000000 0.000000
O O14 0.077956 0.357111 0.234322
O O15 0.500000 0.500000 0.000000
O O16 0.747536 0.559632 0.995332
O O17 0.639811 0.332068 0.298349
O O18 0.751232 0.709070 0.859008
#
# Coordination Sequence:
#
# PCOD9038031 Si02
#       8
#     2   2   2   2   2   2   2   2
#     4  11  23  43  69 100 137 178 228 284 340 406
#     4  11  24  43  68  98 138 179 227 279 341 410
#     4  11  22  39  68  96 129 177 226 272 336 402
#     4  12  23  40  65  98 133 175 230 281 337 402
#     4  12  21  43  70  95 131 180 229 277 341 411
#     4  10  23  41  65  98 135 177 223 275 343 407
#     4  12  24  40  69  99 132 178 227 283 342 407
#     4  11  23  43  66  98 136 177 228 276 343 410
#
# _framework density 20.014330000000001
#
# number of rings (size 3 to 8) (size 9 to 14) (size 15 to 20)
#    0.000    0.750    5.000    2.625    0.000    3.000 
#    0.000    0.625    0.000    0.000    0.000    0.000 
#    0.000    0.000    0.000    0.000    0.000    0.000 
#
# Total GULP energy -89209.852590 kJ/mol
# GULP energy per Si atom -5575.615787 kJ/mol
# Density = 1.996878 g / cm^3
# Si number density = 20.014330 Si / 1000 Ang^3
#
#
#
# Elastic Constant Matrix: (Units=GPa)
#
#
# Indices 1 2 3 4 5 6 
#
# 1 113.0874 35.8477 22.1426 1.9496 -5.5987 4.6354
# 2 35.8477 115.3205 62.2785 1.0595 7.5423 -16.0290
# 3 22.1426 62.2785 125.1467 5.5024 3.3035 2.2655
# 4 1.9496 1.0595 5.5024 43.5797 5.1153 7.1800
# 5 -5.5987 7.5423 3.3035 5.1153 26.0275 4.4268
# 6 4.6354 -16.0290 2.2655 7.1800 4.4268 35.2757
#
#
#
# Elastic Compliance Matrix: (Units=1/GPa)
#
#
# Indices 1 2 3 4 5 6 
#
# 1 0.010482 -0.004139 0.000175 -0.000259 0.004118 -0.003733
# 2 -0.004139 0.015252 -0.006856 -0.000055 -0.005903 0.008667
# 3 0.000175 -0.006856 0.011441 -0.000809 0.001392 -0.003883
# 4 -0.000259 -0.000055 -0.000809 0.024247 -0.003958 -0.004378
# 5 0.004118 -0.005903 0.001392 -0.003958 0.042962 -0.007899
# 6 -0.003733 0.008667 -0.003883 -0.004378 -0.007899 0.034908
#
#
# Mechanical properties :
#
#
# Convention : Reuss Voigt Hill
#
# Bulk Modulus (GPa) = 64.37185 66.01025 65.19105
# Shear Modulus (GPa) = 30.10053 36.52896 33.31475
#
# Velocity S-wave (km/s) = 3.88229 4.27680 4.08431
# Velocity P-wave (km/s) = 7.23387 7.57899 7.40844
#
# Compressibility (1/GPa) = 0.01553474
#
# Stress axis : x y z
#
# Youngs Moduli (GPa) = 95.40451 65.56501 87.40651
#
# Poissons Ratio (x) = 0.27136 -0.01533
# Poissons Ratio (y) = 0.39486 0.59930
# Poissons Ratio (z) = -0.01673 0.44954
#
# Static dielectric constant tensor:
#      x y z
#    x 1.682490 0.029320 -0.016700 
#    y 0.029320 1.762950 -0.100670 
#    z -0.016700 -0.100670 1.808690 
# 
# From -- ./inp_files/499215.got.cif
#   From: 2010.05.17/outbox.cif.g08.bks.cpg/sg2_250_cif.got.tgz:499215.got - 2010.06.03 11:33:40.
