data_PCOD9038812
_publ_section_title
;
Structure prediction by ZEFSAII (Michael W. Deem and Ramdas Pophale) SiO2 
 PCOD9038812
Probable space group: P -1
;
_chemical_formula_sum "Si O2"
_cell_formula_units_Z 13
_cell_length_a 13.151251
_cell_length_b 8.697655
_cell_length_c 11.830959
_cell_angle_alpha 55.564427
_cell_angle_beta 47.272989
_cell_angle_gamma 92.927679
_cell_volume 571.048975
_symmetry_space_group_name_H-M "P -1"
_symmetry_group_IT_number 2
_symmetry_cell_setting 'triclinic'
loop_
_space_group_symop_operation_xyz
x,y,z
-x,-y,-z
loop_
_atom_site_type_symbol
_atom_site_label
_atom_site_fract_x
_atom_site_fract_y
_atom_site_fract_z
Si Si1 0.350576 0.938159 0.274950
Si Si2 0.382220 0.258441 0.316748
Si Si3 0.179359 0.306416 0.278952
Si Si4 0.948881 0.392606 0.767404
Si Si5 0.325700 0.049445 0.999537
Si Si6 0.500000 0.500000 0.500000
Si Si7 0.378532 0.052203 0.626573
O O1 0.553775 0.022193 0.093465
O O2 0.180478 0.617731 0.526542
O O3 0.328462 0.043996 0.356745
O O4 0.338557 0.052874 0.123595
O O5 0.269802 0.326943 0.321909
O O6 0.313375 0.127288 0.544694
O O7 0.621837 0.506461 0.026836
O O8 0.100057 0.438518 0.287160
O O9 0.000000 0.000000 0.500000
O O10 0.889091 0.202358 0.787655
O O11 0.812835 0.201473 0.054807
O O12 0.415306 0.313378 0.758677
O O13 0.501586 0.296942 0.519616
O O14 0.500000 0.000000 0.500000
#
# Coordination Sequence:
#
# PCOD9038812 Si02
#       7
#     2   2   2   2   2   1   2
#     4  11  22  40  66  93 129 176 228 276 338 405
#     4  11  23  38  65  96 129 178 223 277 343 398
#     4  11  22  38  60  96 130 163 226 280 325 405
#     4  11  22  42  62  95 130 179 229 272 341 405
#     4  10  23  42  63  91 132 177 217 284 340 400
#     4  10  24  42  70  96 130 184 224 270 350 402
#     4  11  23  44  69  97 141 179 223 285 338 408
#
# _framework density 22.765122000000002
#
# number of rings (size 3 to 8) (size 9 to 14) (size 15 to 20)
#    0.000    1.231    4.615    1.385    4.308    0.615 
#    0.000    4.615    0.000    0.000    0.000    0.000 
#    0.000    0.000    0.000    0.000    0.000    0.000 
#
# Total GULP energy -72455.935049 kJ/mol
# GULP energy per Si atom -5573.533465 kJ/mol
# Density = 2.271331 g / cm^3
# Si number density = 22.765122 Si / 1000 Ang^3
#
#
#
# Elastic Constant Matrix: (Units=GPa)
#
#
# Indices 1 2 3 4 5 6 
#
# 1 50.3209 0.3834 39.9416 -0.9963 18.2323 10.8936
# 2 0.3834 95.3820 17.1285 -12.3405 4.7210 10.8365
# 3 39.9416 17.1285 109.6515 -17.9246 23.7376 14.0045
# 4 -0.9963 -12.3405 -17.9246 37.2033 5.4118 1.0114
# 5 18.2323 4.7210 23.7376 5.4118 48.6313 -1.1894
# 6 10.8936 10.8365 14.0045 1.0114 -1.1894 30.9917
#
#
#
# Elastic Compliance Matrix: (Units=1/GPa)
#
#
# Indices 1 2 3 4 5 6 
#
# 1 0.031967 0.002689 -0.009662 -0.001590 -0.007550 -0.008048
# 2 0.002689 0.011830 -0.001107 0.003908 -0.002168 -0.004792
# 3 -0.009662 -0.001107 0.015584 0.007685 -0.004823 -0.003695
# 4 -0.001590 0.003908 0.007685 0.033058 -0.007351 -0.005641
# 5 -0.007550 -0.002168 -0.004823 -0.007351 0.026944 0.006865
# 6 -0.008048 -0.004792 -0.003695 -0.005641 0.006865 0.038888
#
#
# Mechanical properties :
#
#
# Convention : Reuss Voigt Hill
#
# Bulk Modulus (GPa) = 23.13711 41.14017 32.13864
# Shear Modulus (GPa) = 26.47760 36.55864 31.51812
#
# Velocity S-wave (km/s) = 3.41409 4.01172 3.72491
# Velocity P-wave (km/s) = 5.07216 6.29042 5.71385
#
# Compressibility (1/GPa) = 0.04322060
#
# Stress axis : x y z
#
# Youngs Moduli (GPa) = 31.28196 84.53425 64.16708
#
# Poissons Ratio (x) = -0.22730 0.61999
# Poissons Ratio (y) = -0.08411 0.07104
# Poissons Ratio (z) = 0.30225 0.09359
#
# Static dielectric constant tensor:
#      x y z
#    x 1.850290 0.025830 -0.003330 
#    y 0.025830 1.837870 -0.008570 
#    z -0.003330 -0.008570 1.869730 
# 
# From -- ./inp_files/414332.got.cif
#   From: 2010.05.17/outbox.cif.g08.bks.cpg/sg2_208_cif.got.tgz:414332.got - 2010.06.03 11:33:40.
