data_PCOD9038525
_publ_section_title
;
Structure prediction by ZEFSAII (Michael W. Deem and Ramdas Pophale) SiO2 
 PCOD9038525
Probable space group: P -1
;
_chemical_formula_sum "Si O2"
_cell_formula_units_Z 12
_cell_length_a 8.897250
_cell_length_b 11.657178
_cell_length_c 20.460734
_cell_angle_alpha 148.752308
_cell_angle_beta 32.479776
_cell_angle_gamma 130.240694
_cell_volume 569.195574
_symmetry_space_group_name_H-M "P -1"
_symmetry_group_IT_number 2
_symmetry_cell_setting 'triclinic'
loop_
_space_group_symop_operation_xyz
x,y,z
-x,-y,-z
loop_
_atom_site_type_symbol
_atom_site_label
_atom_site_fract_x
_atom_site_fract_y
_atom_site_fract_z
Si Si1 0.635237 0.937561 0.990159
Si Si2 0.759435 0.743416 0.142587
Si Si3 0.088867 0.893080 0.486754
Si Si4 0.037941 0.791623 0.935202
Si Si5 0.156389 0.525586 0.639741
Si Si6 0.093046 0.794612 0.169390
O O1 0.410672 0.835456 0.063507
O O2 0.676744 0.179321 0.118975
O O3 0.945050 0.741911 0.783822
O O4 0.500000 0.000000 0.000000
O O5 0.431090 0.777378 0.300461
O O6 0.918077 0.855834 0.194761
O O7 0.900102 0.470575 0.953319
O O8 0.794936 0.830836 0.099099
O O9 0.915578 0.703188 0.469303
O O10 0.000000 0.000000 0.500000
O O11 0.037192 0.066800 0.650954
O O12 0.065424 0.573808 0.773212
O O13 0.000000 0.000000 0.000000
O O14 0.500000 0.500000 0.500000
#
# Coordination Sequence:
#
# PCOD9038525 Si02
#       6
#     2   2   2   2   2   2
#     4  11  22  44  71 100 132 185 231 281 347 410
#     4  11  24  46  67 101 137 178 229 284 345 407
#     4  12  27  41  70 103 135 181 231 280 346 413
#     4  10  23  41  70  93 138 181 225 280 347 405
#     4  11  25  44  65 102 142 177 231 284 342 416
#     4  11  24  45  71  97 139 178 228 287 344 411
#
# _framework density 21.082384000000001
#
# number of rings (size 3 to 8) (size 9 to 14) (size 15 to 20)
#    0.000    1.000    3.333    2.500    9.333    1.333 
#    0.000    5.000    0.000    0.000    0.000    0.000 
#    0.000    0.000    0.000    0.000    0.000    0.000 
#
# Total GULP energy -66974.929212 kJ/mol
# GULP energy per Si atom -5581.244101 kJ/mol
# Density = 2.103440 g / cm^3
# Si number density = 21.082384 Si / 1000 Ang^3
#
#
#
# Elastic Constant Matrix: (Units=GPa)
#
#
# Indices 1 2 3 4 5 6 
#
# 1 132.7081 16.8451 72.1460 -0.5564 22.3607 5.1684
# 2 16.8451 74.5583 32.4283 -11.8204 6.8588 5.9564
# 3 72.1460 32.4283 94.4434 -7.8457 15.9865 0.4489
# 4 -0.5564 -11.8204 -7.8457 35.5060 8.3729 2.2639
# 5 22.3607 6.8588 15.9865 8.3729 47.0674 -1.3792
# 6 5.1684 5.9564 0.4489 2.2639 -1.3792 45.8055
#
#
#
# Elastic Compliance Matrix: (Units=1/GPa)
#
#
# Indices 1 2 3 4 5 6 
#
# 1 0.013633 0.001832 -0.010569 -0.000674 -0.003085 -0.001733
# 2 0.001832 0.016994 -0.006456 0.004926 -0.002108 -0.002660
# 3 -0.010569 -0.006456 0.021391 0.002718 -0.001739 0.001636
# 4 -0.000674 0.004926 0.002718 0.032227 -0.007124 -0.002398
# 5 -0.003085 -0.002108 -0.001739 -0.007124 0.024928 0.001742
# 6 -0.001733 -0.002660 0.001636 -0.002398 0.001742 0.022528
#
#
# Mechanical properties :
#
#
# Convention : Reuss Voigt Hill
#
# Bulk Modulus (GPa) = 46.22668 60.50539 53.36603
# Shear Modulus (GPa) = 29.53389 37.69514 33.61452
#
# Velocity S-wave (km/s) = 3.74689 4.23305 3.99737
# Velocity P-wave (km/s) = 6.37912 7.25627 6.83179
#
# Compressibility (1/GPa) = 0.02163253
#
# Stress axis : x y z
#
# Youngs Moduli (GPa) = 73.35159 58.84515 46.74835
#
# Poissons Ratio (x) = -0.10781 0.49408
# Poissons Ratio (y) = -0.13439 0.30180
# Poissons Ratio (z) = 0.77525 0.37989
#
# Static dielectric constant tensor:
#      x y z
#    x 1.744990 0.026760 -0.035050 
#    y 0.026760 1.779270 0.029470 
#    z -0.035050 0.029470 1.746850 
# 
# From -- ./inp_files/63053.got.cif
#   From: 2010.05.17/outbox.cif.g08.bks.cpg/sg2_32_cif.got.tgz:63053.got - 2010.06.03 11:33:40.
