data_PCOD9038948
_publ_section_title
;
Structure prediction by ZEFSAII (Michael W. Deem and Ramdas Pophale) SiO2 
 PCOD9038948
Probable space group: P -1
;
_chemical_formula_sum "Si O2"
_cell_formula_units_Z 14
_cell_length_a 10.428109
_cell_length_b 8.708935
_cell_length_c 16.461568
_cell_angle_alpha 42.593228
_cell_angle_beta 137.370415
_cell_angle_gamma 108.235014
_cell_volume 593.834274
_symmetry_space_group_name_H-M "P -1"
_symmetry_group_IT_number 2
_symmetry_cell_setting 'triclinic'
loop_
_space_group_symop_operation_xyz
x,y,z
-x,-y,-z
loop_
_atom_site_type_symbol
_atom_site_label
_atom_site_fract_x
_atom_site_fract_y
_atom_site_fract_z
Si Si1 0.943700 0.511704 0.064054
Si Si2 0.659835 0.292915 0.955105
Si Si3 0.216975 0.671770 0.664539
Si Si4 0.254136 0.108443 0.604827
Si Si5 0.353967 0.476136 0.318922
Si Si6 0.090067 0.192818 0.660428
Si Si7 0.341011 0.874959 0.280913
O O1 0.176355 0.379897 0.268745
O O2 0.784573 0.391430 0.036614
O O3 0.000000 0.500000 0.000000
O O4 0.816587 0.816480 0.910854
O O5 0.420299 0.400729 0.838471
O O6 0.636452 0.416781 0.807274
O O7 0.814316 0.980688 0.148583
O O8 0.006862 0.683550 0.605869
O O9 0.104930 0.825612 0.468372
O O10 0.288383 0.844267 0.682753
O O11 0.280338 0.077139 0.726329
O O12 0.424973 0.181880 0.622188
O O13 0.272200 0.712339 0.253663
O O14 0.590325 0.253519 0.547644
O O15 0.000000 0.500000 0.500000
#
# Coordination Sequence:
#
# PCOD9038948 Si02
#       7
#     2   2   2   2   2   2   2
#     4  10  23  42  65 102 128 175 222 271 319 397
#     4  11  23  42  70  99 133 176 221 272 333 391
#     4   9  21  42  64 100 130 171 220 266 330 396
#     4   9  21  43  64  97 129 178 212 267 331 392
#     4  10  26  42  68 101 129 178 220 270 329 389
#     4  10  24  43  64  98 135 171 221 272 332 391
#     4  11  22  47  67  93 141 171 219 272 335 379
#
# _framework density 23.575600999999999
#
# number of rings (size 3 to 8) (size 9 to 14) (size 15 to 20)
#    0.857    1.143    1.429    0.429    4.000    5.714 
#   10.286    0.000    0.000    0.000    0.000    0.000 
#    0.000    0.000    0.000    0.000    0.000    0.000 
#
# Total GULP energy -78112.452056 kJ/mol
# GULP energy per Si atom -5579.460861 kJ/mol
# Density = 2.352194 g / cm^3
# Si number density = 23.575601 Si / 1000 Ang^3
#
#
#
# Elastic Constant Matrix: (Units=GPa)
#
#
# Indices 1 2 3 4 5 6 
#
# 1 52.9582 13.3955 20.0752 9.1495 7.9569 7.9983
# 2 13.3955 81.1210 11.4070 11.4290 1.1627 -0.7181
# 3 20.0752 11.4070 92.6682 -3.6980 0.8256 -9.1462
# 4 9.1495 11.4290 -3.6980 28.7965 0.0645 -1.2524
# 5 7.9569 1.1627 0.8256 0.0645 30.0837 5.1085
# 6 7.9983 -0.7181 -9.1462 -1.2524 5.1085 19.6682
#
#
#
# Elastic Compliance Matrix: (Units=1/GPa)
#
#
# Indices 1 2 3 4 5 6 
#
# 1 0.026384 -0.002143 -0.007111 -0.009025 -0.004380 -0.013551
# 2 -0.002143 0.013560 -0.001357 -0.004857 0.000019 0.000421
# 3 -0.007111 -0.001357 0.013637 0.004963 -0.000068 0.009517
# 4 -0.009025 -0.004857 0.004963 0.040510 0.000972 0.008128
# 5 -0.004380 0.000019 -0.000068 0.000972 0.035663 -0.007451
# 6 -0.013551 0.000421 0.009517 0.008128 -0.007451 0.063248
#
#
# Mechanical properties :
#
#
# Convention : Reuss Voigt Hill
#
# Bulk Modulus (GPa) = 30.90296 35.16699 33.03497
# Shear Modulus (GPa) = 22.22120 27.83433 25.02777
#
# Velocity S-wave (km/s) = 3.07343 3.43977 3.26175
# Velocity P-wave (km/s) = 5.07258 5.54303 5.31301
#
# Compressibility (1/GPa) = 0.03235936
#
# Stress axis : x y z
#
# Youngs Moduli (GPa) = 37.90128 73.74798 73.33164
#
# Poissons Ratio (x) = 0.15801 0.52144
# Poissons Ratio (y) = 0.08121 0.09954
# Poissons Ratio (z) = 0.26950 0.10011
#
# Static dielectric constant tensor:
#      x y z
#    x 1.933290 0.012640 -0.057350 
#    y 0.012640 1.937100 0.017040 
#    z -0.057350 0.017040 1.940150 
# 
# From -- ./inp_files/566448.got.cif
#   From: 2010.05.17/outbox.cif.g08.bks.cpg/sg2_284_cif.got.tgz:566448.got - 2010.06.03 11:33:40.
