data_PCOD9038013
_publ_section_title
;
Structure prediction by ZEFSAII (Michael W. Deem and Ramdas Pophale) SiO2 
 PCOD9038013
Probable space group: P -1
;
_chemical_formula_sum "Si O2"
_cell_formula_units_Z 16
_cell_length_a 13.626199
_cell_length_b 9.182321
_cell_length_c 8.984237
_cell_angle_alpha 93.282020
_cell_angle_beta 84.433513
_cell_angle_gamma 34.610460
_cell_volume 616.509134
_symmetry_space_group_name_H-M "P -1"
_symmetry_group_IT_number 2
_symmetry_cell_setting 'triclinic'
loop_
_space_group_symop_operation_xyz
x,y,z
-x,-y,-z
loop_
_atom_site_type_symbol
_atom_site_label
_atom_site_fract_x
_atom_site_fract_y
_atom_site_fract_z
Si Si1 0.112200 0.424650 0.784973
Si Si2 0.703126 0.663969 0.529444
Si Si3 0.757827 0.135092 0.580013
Si Si4 0.116996 0.714616 0.945430
Si Si5 0.218377 0.611132 0.251878
Si Si6 0.583001 0.048260 0.059901
Si Si7 0.640079 0.462114 0.357134
Si Si8 0.753688 0.853544 0.730912
O O1 0.223672 0.337469 0.620115
O O2 0.040723 0.663838 0.880523
O O3 0.247478 0.188891 0.870840
O O4 0.935439 0.564331 0.758873
O O5 0.844818 0.401648 0.595965
O O6 0.596842 0.657003 0.478604
O O7 0.641561 0.865745 0.664207
O O8 0.827383 0.166078 0.691646
O O9 0.769763 0.193496 0.416875
O O10 0.541618 0.395192 0.643377
O O11 0.809026 0.909536 0.608614
O O12 0.272764 0.577382 0.804543
O O13 0.163303 0.620717 0.101912
O O14 0.000000 0.000000 0.000000
O O15 0.433041 0.320066 0.189268
O O16 0.645207 0.049766 0.898593
O O17 0.500000 0.000000 0.000000
#
# Coordination Sequence:
#
# PCOD9038013 Si02
#       8
#     2   2   2   2   2   2   2   2
#     4  11  25  42  64 101 131 170 222 272 324 381
#     4  10  23  42  67  90 133 175 221 263 320 389
#     4  10  23  41  65  97 134 165 220 276 323 377
#     4  11  22  39  66  93 133 173 214 260 333 392
#     4  11  23  43  66  97 128 176 218 267 325 387
#     4  12  24  44  68  96 128 174 219 272 320 394
#     4   9  22  42  62  95 131 176 220 262 320 392
#     4  12  24  42  67  99 135 169 219 274 326 383
#
# _framework density 25.952573999999998
#
# number of rings (size 3 to 8) (size 9 to 14) (size 15 to 20)
#    0.000    1.250    2.500    2.250    1.750    8.000 
#    0.000    5.000    0.000    0.000    0.000    0.000 
#    0.000    0.000    0.000    0.000    0.000    0.000 
#
# Total GULP energy -89429.054715 kJ/mol
# GULP energy per Si atom -5589.315920 kJ/mol
# Density = 2.589351 g / cm^3
# Si number density = 25.952574 Si / 1000 Ang^3
#
#
#
# Elastic Constant Matrix: (Units=GPa)
#
#
# Indices 1 2 3 4 5 6 
#
# 1 85.1565 10.8115 30.2330 -9.2900 5.1147 12.5583
# 2 10.8115 100.8527 9.6312 -23.4743 12.8362 3.3367
# 3 30.2330 9.6312 143.9775 -20.6095 4.5731 11.4052
# 4 -9.2900 -23.4743 -20.6095 41.9874 8.1922 2.2548
# 5 5.1147 12.8362 4.5731 8.1922 39.5057 -1.2185
# 6 12.5583 3.3367 11.4052 2.2548 -1.2185 36.0394
#
#
#
# Elastic Compliance Matrix: (Units=1/GPa)
#
#
# Indices 1 2 3 4 5 6 
#
# 1 0.013533 -0.000279 -0.002069 0.002454 -0.002062 -0.004258
# 2 -0.000279 0.012752 0.000820 0.008771 -0.006086 -0.002098
# 3 -0.002069 0.000820 0.008221 0.004543 -0.001964 -0.002307
# 4 0.002454 0.008771 0.004543 0.033920 -0.010900 -0.005596
# 5 -0.002062 -0.006086 -0.001964 -0.010900 0.030156 0.003605
# 6 -0.004258 -0.002098 -0.002307 -0.005596 0.003605 0.030628
#
#
# Mechanical properties :
#
#
# Convention : Reuss Voigt Hill
#
# Bulk Modulus (GPa) = 31.79523 47.92645 39.86084
# Shear Modulus (GPa) = 35.02694 42.12723 38.57709
#
# Velocity S-wave (km/s) = 3.67775 4.03331 3.85963
# Velocity P-wave (km/s) = 5.50566 6.34013 5.93757
#
# Compressibility (1/GPa) = 0.03145126
#
# Stress axis : x y z
#
# Youngs Moduli (GPa) = 73.89610 78.41639 121.64697
#
# Poissons Ratio (x) = 0.02185 0.25168
# Poissons Ratio (y) = 0.02059 -0.09980
# Poissons Ratio (z) = 0.15288 -0.06433
#
# Static dielectric constant tensor:
#      x y z
#    x 1.970160 -0.055560 -0.057080 
#    y -0.055560 2.139140 -0.052720 
#    z -0.057080 -0.052720 2.105140 
# 
# From -- ./inp_files/283330.got.cif
#   From: 2010.05.17/outbox.cif.g08.bks.cpg/sg2_142_cif.got.tgz:283330.got - 2010.06.03 11:33:40.
