data_PCOD9038586
_publ_section_title
;
Structure prediction by ZEFSAII (Michael W. Deem and Ramdas Pophale) SiO2 
 PCOD9038586
Probable space group: P -1
;
_chemical_formula_sum "Si O2"
_cell_formula_units_Z 14
_cell_length_a 23.850932
_cell_length_b 14.746414
_cell_length_c 5.578478
_cell_angle_alpha 97.307825
_cell_angle_beta 72.692839
_cell_angle_gamma 159.740659
_cell_volume 576.120485
_symmetry_space_group_name_H-M "P -1"
_symmetry_group_IT_number 2
_symmetry_cell_setting 'triclinic'
loop_
_space_group_symop_operation_xyz
x,y,z
-x,-y,-z
loop_
_atom_site_type_symbol
_atom_site_label
_atom_site_fract_x
_atom_site_fract_y
_atom_site_fract_z
Si Si1 0.988078 0.874998 0.011011
Si Si2 0.071056 0.694631 0.233100
Si Si3 0.596722 0.545642 0.323716
Si Si4 0.233774 0.759933 0.934315
Si Si5 0.380275 0.741543 0.444609
Si Si6 0.117727 0.428445 0.282288
Si Si7 0.530023 0.652072 0.082388
O O1 0.801005 0.569020 0.293003
O O2 0.971506 0.798372 0.754624
O O3 0.000000 0.000000 0.000000
O O4 0.187888 0.132330 0.939545
O O5 0.882857 0.400038 0.215432
O O6 0.024135 0.710871 0.462904
O O7 0.146391 0.705177 0.208692
O O8 0.261213 0.014189 0.969781
O O9 0.500000 0.500000 0.500000
O O10 0.598378 0.507304 0.580946
O O11 0.491637 0.341499 0.162568
O O12 0.459132 0.097302 0.748599
O O13 0.181349 0.581326 0.025955
O O14 0.295737 0.665355 0.294013
O O15 0.500000 0.000000 0.500000
O O16 0.500000 0.500000 0.000000
#
# Coordination Sequence:
#
# PCOD9038586 Si02
#       7
#     2   2   2   2   2   2   2
#     4  12  30  48  74 112 150 203 255 324 386 471
#     4  11  25  44  75 110 153 187 264 319 390 458
#     4  10  24  45  72 106 148 196 258 307 393 457
#     4  11  26  46  73 113 147 200 250 324 384 469
#     4  12  26  49  75 108 153 201 256 308 393 470
#     4  12  24  47  79 102 154 197 256 315 396 458
#     4  10  23  41  71 107 146 200 244 320 382 465
#
# _framework density 24.300474000000001
#
# number of rings (size 3 to 8) (size 9 to 14) (size 15 to 20)
#    0.000    0.857    2.857    2.571   14.000    1.714 
#    0.000    0.000    0.000    0.000    0.000    0.000 
#    0.000    0.000    0.000    0.000    0.000    0.000 
#
# Total GULP energy -78057.470609 kJ/mol
# GULP energy per Si atom -5575.533615 kJ/mol
# Density = 2.424517 g / cm^3
# Si number density = 24.300474 Si / 1000 Ang^3
#
#
#
# Elastic Constant Matrix: (Units=GPa)
#
#
# Indices 1 2 3 4 5 6 
#
# 1 134.7565 53.8224 42.5144 -2.4134 -29.9974 -7.5087
# 2 53.8224 91.7431 25.8132 -6.6637 -20.0158 4.1770
# 3 42.5144 25.8132 138.2825 -13.4730 -31.6679 7.0857
# 4 -2.4134 -6.6637 -13.4730 54.7293 11.6443 -8.0689
# 5 -29.9974 -20.0158 -31.6679 11.6443 39.5767 0.1293
# 6 -7.5087 4.1770 7.0857 -8.0689 0.1293 44.2666
#
#
#
# Elastic Compliance Matrix: (Units=1/GPa)
#
#
# Indices 1 2 3 4 5 6 
#
# 1 0.011237 -0.005269 -0.001584 -0.001230 0.004939 0.002418
# 2 -0.005269 0.014897 -0.000271 0.000518 0.003178 -0.002171
# 3 -0.001584 -0.000271 0.009266 0.000689 0.005879 -0.001618
# 4 -0.001230 0.000518 0.000689 0.020237 -0.006084 0.003339
# 5 0.004939 0.003178 0.005879 -0.006084 0.037118 -0.001620
# 6 0.002418 -0.002171 -0.001618 0.003339 -0.001620 0.024078
#
#
# Mechanical properties :
#
#
# Convention : Reuss Voigt Hill
#
# Bulk Modulus (GPa) = 47.27743 67.67581 57.47662
# Shear Modulus (GPa) = 36.19767 43.88998 40.04383
#
# Velocity S-wave (km/s) = 3.86370 4.25448 4.06379
# Velocity P-wave (km/s) = 6.27709 7.21416 6.76188
#
# Compressibility (1/GPa) = 0.02115174
#
# Stress axis : x y z
#
# Youngs Moduli (GPa) = 88.99182 67.12701 107.92715
#
# Poissons Ratio (x) = 0.35366 0.17095
# Poissons Ratio (y) = 0.46886 0.02930
# Poissons Ratio (z) = 0.14096 0.01822
#
# Static dielectric constant tensor:
#      x y z
#    x 2.402800 1.213510 -0.294150 
#    y 1.213510 5.737800 -1.078180 
#    z -0.294150 -1.078180 2.378200 
# 
# From -- ./inp_files/117010.got.cif
#   From: 2010.05.17/outbox.cif.g08.bks.cpg/sg2_59_cif.got.tgz:117010.got - 2010.06.03 11:33:40.
