data_PCOD9038338
_publ_section_title
;
Structure prediction by ZEFSAII (Michael W. Deem and Ramdas Pophale) SiO2 
 PCOD9038338
Probable space group: P -1
;
_chemical_formula_sum "Si O2"
_cell_formula_units_Z 16
_cell_length_a 18.476825
_cell_length_b 8.986681
_cell_length_c 7.358662
_cell_angle_alpha 106.454455
_cell_angle_beta 103.138645
_cell_angle_gamma 136.078913
_cell_volume 618.849833
_symmetry_space_group_name_H-M "P -1"
_symmetry_group_IT_number 2
_symmetry_cell_setting 'triclinic'
loop_
_space_group_symop_operation_xyz
x,y,z
-x,-y,-z
loop_
_atom_site_type_symbol
_atom_site_label
_atom_site_fract_x
_atom_site_fract_y
_atom_site_fract_z
Si Si1 0.330430 0.954330 0.110965
Si Si2 0.948269 0.123640 0.985946
Si Si3 0.611027 0.366803 0.369733
Si Si4 0.345537 0.290191 0.785396
Si Si5 0.080933 0.149167 0.812201
Si Si6 0.817666 0.519754 0.343335
Si Si7 0.679853 0.724868 0.827200
Si Si8 0.146793 0.705347 0.254342
O O1 0.253798 0.817748 0.211438
O O2 0.451110 0.044389 0.166426
O O3 0.392775 0.235969 0.218168
O O4 0.219497 0.720295 0.811776
O O5 0.891377 0.878162 0.985522
O O6 0.081442 0.447421 0.243430
O O7 0.816694 0.000056 0.885211
O O8 0.985522 0.127703 0.809986
O O9 0.639841 0.544943 0.291838
O O10 0.719459 0.423386 0.404767
O O11 0.617913 0.468805 0.602571
O O12 0.238215 0.980900 0.525230
O O13 0.500000 0.500000 0.000000
O O14 0.289783 0.246152 0.934475
O O15 0.977504 0.839618 0.568244
O O16 0.196820 0.411901 0.836096
O O17 0.000000 0.500000 0.000000
#
# Coordination Sequence:
#
# PCOD9038338 Si02
#       8
#     2   2   2   2   2   2   2   2
#     4  12  24  42  69 100 138 183 233 292 349 420
#     4  11  22  42  66 100 136 175 230 296 353 410
#     4  12  24  47  69  98 144 191 234 289 357 430
#     4  12  26  44  72 105 140 187 237 292 354 427
#     4  10  23  41  68  94 136 179 230 291 352 422
#     4  11  24  43  68  98 133 189 235 282 363 423
#     4  12  24  44  72 103 136 188 235 290 363 423
#     4  12  25  44  73 106 144 182 237 299 359 419
#
# _framework density 25.854414999999999
#
# number of rings (size 3 to 8) (size 9 to 14) (size 15 to 20)
#    0.000    0.500    6.250    2.250    1.750    1.500 
#    0.000    0.000    0.000    3.750    0.000    0.000 
#    0.000    0.000    0.000    0.000    0.000    0.000 
#
# Total GULP energy -89255.953650 kJ/mol
# GULP energy per Si atom -5578.497103 kJ/mol
# Density = 2.579557 g / cm^3
# Si number density = 25.854415 Si / 1000 Ang^3
#
#
#
# Elastic Constant Matrix: (Units=GPa)
#
#
# Indices 1 2 3 4 5 6 
#
# 1 75.2946 14.1790 15.2921 -7.6656 2.0192 18.5570
# 2 14.1790 98.8997 30.2604 0.6571 -2.9500 28.6542
# 3 15.2921 30.2604 157.6109 -5.6521 -21.3132 11.0519
# 4 -7.6656 0.6571 -5.6521 41.1766 9.8388 -6.7317
# 5 2.0192 -2.9500 -21.3132 9.8388 34.2924 -5.0202
# 6 18.5570 28.6542 11.0519 -6.7317 -5.0202 40.3132
#
#
#
# Elastic Compliance Matrix: (Units=1/GPa)
#
#
# Indices 1 2 3 4 5 6 
#
# 1 0.015591 0.000072 -0.001432 0.002419 -0.003501 -0.006868
# 2 0.000072 0.013474 -0.002136 -0.001791 -0.001043 -0.009454
# 3 -0.001432 -0.002136 0.007475 -0.000221 0.004709 0.000678
# 4 0.002419 -0.001791 -0.000221 0.027191 -0.007678 0.003805
# 5 -0.003501 -0.001043 0.004709 -0.007678 0.035013 0.004140
# 6 -0.006868 -0.009454 0.000678 0.003805 0.004140 0.035652
#
#
# Mechanical properties :
#
#
# Convention : Reuss Voigt Hill
#
# Bulk Modulus (GPa) = 33.84227 50.14090 41.99159
# Shear Modulus (GPa) = 33.06047 41.29470 37.17758
#
# Velocity S-wave (km/s) = 3.57979 4.00084 3.79616
# Velocity P-wave (km/s) = 5.49587 6.38576 5.95745
#
# Compressibility (1/GPa) = 0.02954884
#
# Stress axis : x y z
#
# Youngs Moduli (GPa) = 64.13925 74.21433 133.77659
#
# Poissons Ratio (x) = -0.00535 0.19152
# Poissons Ratio (y) = -0.00462 0.28580
# Poissons Ratio (z) = 0.09183 0.15855
#
# Static dielectric constant tensor:
#      x y z
#    x 2.354470 -0.116530 0.096770 
#    y -0.116530 2.087600 -0.079710 
#    z 0.096770 -0.079710 2.107450 
# 
# From -- ./inp_files/345603.got.cif
#   From: 2010.05.17/outbox.cif.g08.bks.cpg/sg2_173_cif.got.tgz:345603.got - 2010.06.03 11:33:40.
