data_PCOD9038804
_publ_section_title
;
Structure prediction by ZEFSAII (Michael W. Deem and Ramdas Pophale) SiO2 
 PCOD9038804
Probable space group: P -1
;
_chemical_formula_sum "Si O2"
_cell_formula_units_Z 16
_cell_length_a 5.236832
_cell_length_b 12.896714
_cell_length_c 11.215241
_cell_angle_alpha 58.675154
_cell_angle_beta 100.873808
_cell_angle_gamma 89.866093
_cell_volume 630.856690
_symmetry_space_group_name_H-M "P -1"
_symmetry_group_IT_number 2
_symmetry_cell_setting 'triclinic'
loop_
_space_group_symop_operation_xyz
x,y,z
-x,-y,-z
loop_
_atom_site_type_symbol
_atom_site_label
_atom_site_fract_x
_atom_site_fract_y
_atom_site_fract_z
Si Si1 0.943047 0.201386 0.826551
Si Si2 0.577788 0.267133 0.553637
Si Si3 0.735587 0.037990 0.084026
Si Si4 0.255267 0.457842 0.275584
Si Si5 0.179384 0.808905 0.611300
Si Si6 0.292755 0.375988 0.843724
Si Si7 0.476954 0.360458 0.115754
Si Si8 0.658973 0.974231 0.384530
O O1 0.726257 0.277750 0.682103
O O2 0.193450 0.273508 0.813257
O O3 0.827225 0.161869 0.965209
O O4 0.032459 0.072702 0.847954
O O5 0.338357 0.370091 0.446888
O O6 0.765240 0.272641 0.452741
O O7 0.514324 0.128536 0.614447
O O8 0.697789 0.039445 0.221252
O O9 0.500000 0.000000 0.000000
O O10 0.467961 0.554657 0.220973
O O11 0.301719 0.372032 0.212921
O O12 0.967101 0.527695 0.217426
O O13 0.247281 0.714278 0.780545
O O14 0.907673 0.890003 0.514407
O O15 0.381814 0.909431 0.598635
O O16 0.357873 0.311739 0.015549
O O17 0.500000 0.500000 0.000000
#
# Coordination Sequence:
#
# PCOD9038804 Si02
#       8
#     2   2   2   2   2   2   2   2
#     4  11  26  42  67  97 137 180 229 286 350 412
#     4  11  23  43  67  96 140 179 223 291 349 414
#     4  11  24  43  66  96 136 181 225 283 349 411
#     4  10  25  43  71  98 139 180 230 288 351 406
#     4  10  23  42  63 106 129 183 229 289 346 411
#     4  11  25  45  68 104 135 181 237 284 343 421
#     4   9  21  42  68  94 140 177 230 287 350 404
#     4  11  23  41  72  94 141 177 239 281 347 417
#
# _framework density 25.362337
#
# number of rings (size 3 to 8) (size 9 to 14) (size 15 to 20)
#    0.000    1.500    2.500    0.750    8.750    2.000 
#   11.250    0.000    0.000    0.000    0.000    0.000 
#    0.000    0.000    0.000    0.000    0.000    0.000 
#
# Total GULP energy -89440.772108 kJ/mol
# GULP energy per Si atom -5590.048257 kJ/mol
# Density = 2.530461 g / cm^3
# Si number density = 25.362337 Si / 1000 Ang^3
#
#
#
# Elastic Constant Matrix: (Units=GPa)
#
#
# Indices 1 2 3 4 5 6 
#
# 1 92.4787 24.4777 37.0426 -3.7813 17.8108 19.4250
# 2 24.4777 77.2551 34.8025 3.0392 2.1857 15.0556
# 3 37.0426 34.8025 177.8276 -5.1346 31.3251 3.6898
# 4 -3.7813 3.0392 -5.1346 28.1062 4.2339 5.3871
# 5 17.8108 2.1857 31.3251 4.2339 27.7545 -11.7351
# 6 19.4250 15.0556 3.6898 5.3871 -11.7351 45.0164
#
#
#
# Elastic Compliance Matrix: (Units=1/GPa)
#
#
# Indices 1 2 3 4 5 6 
#
# 1 0.017949 -0.003353 0.000672 0.008080 -0.018519 -0.012473
# 2 -0.003353 0.015856 -0.003138 -0.002908 0.003949 -0.002222
# 3 0.000672 -0.003138 0.008379 0.004416 -0.011808 -0.003534
# 4 0.008080 -0.002908 0.004416 0.043870 -0.022555 -0.014006
# 5 -0.018519 0.003949 -0.011808 -0.022555 0.077258 0.030477
# 6 -0.012473 -0.002222 -0.003534 -0.014006 0.030477 0.038250
#
#
# Mechanical properties :
#
#
# Convention : Reuss Voigt Hill
#
# Bulk Modulus (GPa) = 32.73908 60.02302 46.38105
# Shear Modulus (GPa) = 22.38329 36.92465 29.65397
#
# Velocity S-wave (km/s) = 2.97398 3.81975 3.42309
# Velocity P-wave (km/s) = 4.97286 6.57050 5.82670
#
# Compressibility (1/GPa) = 0.03054454
#
# Stress axis : x y z
#
# Youngs Moduli (GPa) = 55.71442 63.06873 119.35130
#
# Poissons Ratio (x) = 0.21144 -0.08016
# Poissons Ratio (y) = 0.18679 0.37456
# Poissons Ratio (z) = -0.03742 0.19793
#
# Static dielectric constant tensor:
#      x y z
#    x 2.077920 0.015160 -0.082500 
#    y 0.015160 2.018760 0.002950 
#    z -0.082500 0.002950 2.033000 
# 
# From -- ./inp_files/94839.got.cif
#   From: 2010.05.17/outbox.cif.g08.bks.cpg/sg2_48_cif.got.tgz:94839.got - 2010.06.03 11:33:40.
