data_PCOD9038544
_publ_section_title
;
Structure prediction by ZEFSAII (Michael W. Deem and Ramdas Pophale) SiO2 
 PCOD9038544
Probable space group: P -1
;
_chemical_formula_sum "Si O2"
_cell_formula_units_Z 12
_cell_length_a 14.400985
_cell_length_b 20.157187
_cell_length_c 4.988044
_cell_angle_alpha 97.568108
_cell_angle_beta 106.909464
_cell_angle_gamma 21.134436
_cell_volume 456.775504
_symmetry_space_group_name_H-M "P -1"
_symmetry_group_IT_number 2
_symmetry_cell_setting 'triclinic'
loop_
_space_group_symop_operation_xyz
x,y,z
-x,-y,-z
loop_
_atom_site_type_symbol
_atom_site_label
_atom_site_fract_x
_atom_site_fract_y
_atom_site_fract_z
Si Si1 0.674259 0.545893 0.699304
Si Si2 0.812790 0.913782 0.347527
Si Si3 0.595074 0.013020 0.673460
Si Si4 0.523401 0.405503 0.919413
Si Si5 0.891701 0.008741 0.587764
Si Si6 0.180821 0.319643 0.956650
O O1 0.584668 0.574720 0.927129
O O2 0.436998 0.755475 0.500230
O O3 0.971249 0.393619 0.856012
O O4 0.633690 0.510415 0.444637
O O5 0.901777 0.831525 0.665361
O O6 0.883560 0.944513 0.379778
O O7 0.780017 0.891272 0.052656
O O8 0.467554 0.133163 0.294492
O O9 0.319823 0.229443 0.726547
O O10 0.500000 0.000000 0.500000
O O11 0.500000 0.500000 0.000000
O O12 0.872763 0.159554 0.073183
O O13 0.000000 0.000000 0.500000
O O14 0.000000 0.500000 0.000000
#
# Coordination Sequence:
#
# PCOD9038544 Si02
#       6
#     2   2   2   2   2   2
#     4  11  23  44  73  99 134 180 228 289 341 410
#     4  10  23  41  70  98 135 176 224 286 341 407
#     4  10  23  42  63  99 140 178 221 269 355 419
#     4  11  26  45  67 100 137 182 229 281 344 411
#     4  10  23  46  70 100 134 181 235 284 340 411
#     4  10  23  42  69 104 135 171 232 288 348 403
#
# _framework density 26.271111000000001
#
# number of rings (size 3 to 8) (size 9 to 14) (size 15 to 20)
#    1.000    0.667    1.667    1.500    2.333    8.667 
#    0.000    0.000    0.000    0.000    0.000    0.000 
#    0.000    0.000    0.000    0.000    0.000    0.000 
#
# Total GULP energy -66912.208348 kJ/mol
# GULP energy per Si atom -5576.017362 kJ/mol
# Density = 2.621132 g / cm^3
# Si number density = 26.271111 Si / 1000 Ang^3
#
#
#
# Elastic Constant Matrix: (Units=GPa)
#
#
# Indices 1 2 3 4 5 6 
#
# 1 150.7592 16.4194 55.4869 18.7831 21.5746 6.8250
# 2 16.4194 77.7507 32.9192 12.3994 -8.6463 9.7577
# 3 55.4869 32.9192 135.1761 26.4447 10.5780 -13.1315
# 4 18.7831 12.3994 26.4447 66.6218 -5.1328 7.1700
# 5 21.5746 -8.6463 10.5780 -5.1328 52.8199 7.4025
# 6 6.8250 9.7577 -13.1315 7.1700 7.4025 45.7001
#
#
#
# Elastic Compliance Matrix: (Units=1/GPa)
#
#
# Indices 1 2 3 4 5 6 
#
# 1 0.008407 -0.000446 -0.003032 -0.001150 -0.002816 -0.001395
# 2 -0.000446 0.016092 -0.004586 -0.000123 0.004479 -0.005393
# 3 -0.003032 -0.004586 0.011243 -0.003592 -0.002911 0.005698
# 4 -0.001150 -0.000123 -0.003592 0.017494 0.003449 -0.004137
# 5 -0.002816 0.004479 -0.002911 0.003449 0.022513 -0.005560
# 6 -0.001395 -0.005393 0.005698 -0.004137 -0.005560 0.026429
#
#
# Mechanical properties :
#
#
# Convention : Reuss Voigt Hill
#
# Bulk Modulus (GPa) = 50.98518 63.70411 57.34465
# Shear Modulus (GPa) = 40.04952 50.28574 45.16763
#
# Velocity S-wave (km/s) = 3.90868 4.37980 4.15093
# Velocity P-wave (km/s) = 6.31030 7.06245 6.69694
#
# Compressibility (1/GPa) = 0.01961354
#
# Stress axis : x y z
#
# Youngs Moduli (GPa) = 118.94504 62.14232 88.94143
#
# Poissons Ratio (x) = 0.02772 0.26971
# Poissons Ratio (y) = 0.05307 0.40788
# Poissons Ratio (z) = 0.36069 0.28498
#
# Static dielectric constant tensor:
#      x y z
#    x 2.125850 -0.319120 -0.012380 
#    y -0.319120 3.371900 -0.355020 
#    z -0.012380 -0.355020 2.218010 
# 
# From -- ./inp_files/80735.got.cif
#   From: 2010.05.17/outbox.cif.g08.bks.cpg/sg2_41_cif.got.tgz:80735.got - 2010.06.03 11:33:40.
