data_PCOD9038563
_publ_section_title
;
Structure prediction by ZEFSAII (Michael W. Deem and Ramdas Pophale) SiO2 
 PCOD9038563
Probable space group: P -1
;
_chemical_formula_sum "Si O2"
_cell_formula_units_Z 11
_cell_length_a 11.692964
_cell_length_b 8.355961
_cell_length_c 8.707917
_cell_angle_alpha 91.364789
_cell_angle_beta 109.800629
_cell_angle_gamma 39.648254
_cell_volume 469.295251
_symmetry_space_group_name_H-M "P -1"
_symmetry_group_IT_number 2
_symmetry_cell_setting 'triclinic'
loop_
_space_group_symop_operation_xyz
x,y,z
-x,-y,-z
loop_
_atom_site_type_symbol
_atom_site_label
_atom_site_fract_x
_atom_site_fract_y
_atom_site_fract_z
Si Si1 0.388812 0.944193 0.268404
Si Si2 0.500000 0.500000 0.500000
Si Si3 0.368928 0.799575 0.931887
Si Si4 0.313128 0.099413 0.679509
Si Si5 0.992234 0.364807 0.273955
Si Si6 0.012973 0.987321 0.320509
O O1 0.460292 0.721336 0.403973
O O2 0.540086 0.934711 0.342342
O O3 0.152626 0.238858 0.211452
O O4 0.398630 0.870404 0.098018
O O5 0.251662 0.726610 0.378163
O O6 0.429269 0.827726 0.804155
O O7 0.500000 0.500000 0.000000
O O8 0.130116 0.000858 0.807462
O O9 0.136821 0.221840 0.489195
O O10 0.198080 0.316584 0.770156
O O11 0.925813 0.251345 0.228383
O O12 0.000000 0.000000 0.500000
#
# Coordination Sequence:
#
# PCOD9038563 Si02
#       6
#     2   1   2   2   2   2
#     4  11  25  44  68 106 139 180 235 285 348 417
#     4  10  24  40  72  96 134 182 226 284 336 406
#     4  12  26  43  73 105 143 188 226 294 353 411
#     4  11  23  45  70 100 140 184 233 282 350 414
#     4  10  23  41  71 101 129 190 229 290 341 407
#     4  11  21  44  68  98 137 180 235 277 345 415
#
# _framework density 23.439402999999999
#
# number of rings (size 3 to 8) (size 9 to 14) (size 15 to 20)
#    0.000    1.091    1.818    4.364    5.091    3.636 
#    0.000    3.636    0.000    0.000    0.000    0.000 
#    0.000    0.000    0.000    0.000    0.000    0.000 
#
# Total GULP energy -61350.338333 kJ/mol
# GULP energy per Si atom -5577.303485 kJ/mol
# Density = 2.338605 g / cm^3
# Si number density = 23.439403 Si / 1000 Ang^3
#
#
#
# Elastic Constant Matrix: (Units=GPa)
#
#
# Indices 1 2 3 4 5 6 
#
# 1 175.3277 22.6751 27.3451 -23.8254 -4.4934 6.0668
# 2 22.6751 44.5287 24.9113 -6.2306 -8.3605 -9.7396
# 3 27.3451 24.9113 49.4392 -14.7835 -5.4840 10.4050
# 4 -23.8254 -6.2306 -14.7835 26.9092 8.7416 -2.1471
# 5 -4.4934 -8.3605 -5.4840 8.7416 35.3662 -3.1387
# 6 6.0668 -9.7396 10.4050 -2.1471 -3.1387 26.1207
#
#
#
# Elastic Compliance Matrix: (Units=1/GPa)
#
#
# Indices 1 2 3 4 5 6 
#
# 1 0.007001 -0.003775 0.000151 0.005715 -0.001643 -0.002821
# 2 -0.003775 0.050246 -0.031983 -0.010539 0.011966 0.032924
# 3 0.000151 -0.031983 0.047404 0.018804 -0.007519 -0.030202
# 4 0.005715 -0.010539 0.018804 0.053533 -0.012960 -0.009905
# 5 -0.001643 0.011966 -0.007519 -0.012960 0.033896 0.010846
# 6 -0.002821 0.032924 -0.030202 -0.009905 0.010846 0.063735
#
#
# Mechanical properties :
#
#
# Convention : Reuss Voigt Hill
#
# Bulk Modulus (GPa) = 29.90832 46.57317 38.24075
# Shear Modulus (GPa) = 14.78528 30.63683 22.71106
#
# Velocity S-wave (km/s) = 2.51427 3.61926 3.11614
# Velocity P-wave (km/s) = 4.60612 6.11376 5.41269
#
# Compressibility (1/GPa) = 0.03343552
#
# Stress axis : x y z
#
# Youngs Moduli (GPa) = 142.84677 19.90214 21.09516
#
# Poissons Ratio (x) = 0.07513 -0.00318
# Poissons Ratio (y) = 0.53921 0.67469
# Poissons Ratio (z) = -0.02151 0.63654
#
# Static dielectric constant tensor:
#      x y z
#    x 1.859560 0.012640 -0.005880 
#    y 0.012640 1.917290 0.029600 
#    z -0.005880 0.029600 1.868040 
# 
# From -- ./inp_files/160500.got.cif
#   From: 2010.05.17/outbox.cif.g08.bks.cpg/sg2_81_cif.got.tgz:160500.got - 2010.06.03 11:33:40.
