data_PCOD9038659
_publ_section_title
;
Structure prediction by ZEFSAII (Michael W. Deem and Ramdas Pophale) SiO2 
 PCOD9038659
Probable space group: P -1
;
_chemical_formula_sum "Si O2"
_cell_formula_units_Z 14
_cell_length_a 12.897089
_cell_length_b 11.551835
_cell_length_c 11.608030
_cell_angle_alpha 44.509706
_cell_angle_beta 78.411350
_cell_angle_gamma 115.443386
_cell_volume 654.957691
_symmetry_space_group_name_H-M "P -1"
_symmetry_group_IT_number 2
_symmetry_cell_setting 'triclinic'
loop_
_space_group_symop_operation_xyz
x,y,z
-x,-y,-z
loop_
_atom_site_type_symbol
_atom_site_label
_atom_site_fract_x
_atom_site_fract_y
_atom_site_fract_z
Si Si1 0.414679 0.832171 0.760843
Si Si2 0.943151 0.140340 0.613759
Si Si3 0.303674 0.645183 0.306600
Si Si4 0.705016 0.678376 0.805421
Si Si5 0.093407 0.673120 0.979397
Si Si6 0.175920 0.163628 0.598880
Si Si7 0.225058 0.761079 0.445730
O O1 0.277675 0.797535 0.859763
O O2 0.500000 0.000000 0.500000
O O3 0.579521 0.007350 0.692379
O O4 0.303473 0.514290 0.000910
O O5 0.794466 0.087899 0.722310
O O6 0.156354 0.487021 0.346072
O O7 0.973943 0.003162 0.766734
O O8 0.871350 0.998727 0.603563
O O9 0.316072 0.462277 0.431515
O O10 0.204002 0.586492 0.484355
O O11 0.500000 0.000000 0.000000
O O12 0.750027 0.724702 0.628207
O O13 0.500000 0.500000 0.000000
O O14 0.151879 0.940762 0.783117
O O15 0.000000 0.500000 0.000000
O O16 0.940101 0.447714 0.273994
#
# Coordination Sequence:
#
# PCOD9038659 Si02
#       7
#     2   2   2   2   2   2   2
#     4  12  25  42  68 105 141 177 224 285 355 412
#     4  10  23  41  72  96 133 176 229 288 342 396
#     4  10  25  45  70  99 136 178 243 285 328 414
#     4  12  21  40  68 103 133 170 233 287 342 405
#     4  12  24  44  69  99 147 175 224 287 348 418
#     4  10  24  44  66 101 131 179 232 277 345 401
#     4  12  24  45  68 101 135 190 221 282 354 396
#
# _framework density 21.375423999999999
#
# number of rings (size 3 to 8) (size 9 to 14) (size 15 to 20)
#    0.857    0.000    2.857    5.143    2.000    0.571 
#    0.000    0.714    0.000    0.000    0.000    0.000 
#    0.000    0.000    0.000    0.000    0.000    0.000 
#
# Total GULP energy -78116.459976 kJ/mol
# GULP energy per Si atom -5579.747141 kJ/mol
# Density = 2.132677 g / cm^3
# Si number density = 21.375424 Si / 1000 Ang^3
#
#
#
# Elastic Constant Matrix: (Units=GPa)
#
#
# Indices 1 2 3 4 5 6 
#
# 1 173.0357 41.6170 62.3627 -27.9269 5.0497 -13.0116
# 2 41.6170 119.2786 55.4626 -28.7918 -1.7317 -27.4649
# 3 62.3627 55.4626 95.0639 -13.6209 7.3572 -13.3853
# 4 -27.9269 -28.7918 -13.6209 38.4594 -6.4202 -0.1538
# 5 5.0497 -1.7317 7.3572 -6.4202 43.0151 -12.9749
# 6 -13.0116 -27.4649 -13.3853 -0.1538 -12.9749 40.7612
#
#
#
# Elastic Compliance Matrix: (Units=1/GPa)
#
#
# Indices 1 2 3 4 5 6 
#
# 1 0.008388 0.001496 -0.005352 0.005586 0.001563 0.002447
# 2 0.001496 0.017714 -0.008377 0.012684 0.007514 0.012102
# 3 -0.005352 -0.008377 0.018228 -0.004434 -0.004320 -0.002759
# 4 0.005586 0.012684 -0.004434 0.039744 0.010251 0.012287
# 5 0.001563 0.007514 -0.004320 0.010251 0.029754 0.013653
# 6 0.002447 0.012102 -0.002759 0.012287 0.013653 0.036955
#
#
# Mechanical properties :
#
#
# Convention : Reuss Voigt Hill
#
# Bulk Modulus (GPa) = 50.33682 78.47366 64.40524
# Shear Modulus (GPa) = 27.49254 39.64285 33.56769
#
# Velocity S-wave (km/s) = 3.59022 4.31118 3.96711
# Velocity P-wave (km/s) = 6.38641 7.84688 7.15401
#
# Compressibility (1/GPa) = 0.01986617
#
# Stress axis : x y z
#
# Youngs Moduli (GPa) = 119.21789 56.45269 54.86164
#
# Poissons Ratio (x) = -0.08447 0.29360
# Poissons Ratio (y) = -0.17839 0.45955
# Poissons Ratio (z) = 0.63801 0.47288
#
# Static dielectric constant tensor:
#      x y z
#    x 1.847030 -0.005180 0.015620 
#    y -0.005180 1.777560 -0.017000 
#    z 0.015620 -0.017000 1.793190 
# 
# From -- ./inp_files/425032.got.cif
#   From: 2010.05.17/outbox.cif.g08.bks.cpg/sg2_213_cif.got.tgz:425032.got - 2010.06.03 11:33:40.
