data_PCOD9038767
_publ_section_title
;
Structure prediction by ZEFSAII (Michael W. Deem and Ramdas Pophale) SiO2 
 PCOD9038767
Probable space group: P -1
;
_chemical_formula_sum "Si O2"
_cell_formula_units_Z 16
_cell_length_a 27.754863
_cell_length_b 8.857291
_cell_length_c 8.236272
_cell_angle_alpha 55.200607
_cell_angle_beta 40.154858
_cell_angle_gamma 37.719203
_cell_volume 795.848430
_symmetry_space_group_name_H-M "P -1"
_symmetry_group_IT_number 2
_symmetry_cell_setting 'triclinic'
loop_
_space_group_symop_operation_xyz
x,y,z
-x,-y,-z
loop_
_atom_site_type_symbol
_atom_site_label
_atom_site_fract_x
_atom_site_fract_y
_atom_site_fract_z
Si Si1 0.930985 0.199048 0.414117
Si Si2 0.700855 0.959554 0.313023
Si Si3 0.118078 0.975870 0.877269
Si Si4 0.805160 0.755319 0.511112
Si Si5 0.738461 0.533662 0.348218
Si Si6 0.761152 0.261679 0.942044
Si Si7 0.654719 0.763518 0.076569
Si Si8 0.547611 0.915529 0.752287
O O1 0.883717 0.468247 0.432536
O O2 0.836663 0.215982 0.639533
O O3 0.000000 0.000000 0.500000
O O4 0.003342 0.113202 0.128319
O O5 0.730022 0.912509 0.456343
O O6 0.772259 0.683188 0.221560
O O7 0.591369 0.047741 0.519142
O O8 0.715769 0.137752 0.097768
O O9 0.173358 0.748153 0.751442
O O10 0.136212 0.153567 0.663436
O O11 0.174921 0.866219 0.974554
O O12 0.734960 0.790172 0.811688
O O13 0.650924 0.628225 0.645198
O O14 0.675457 0.662938 0.265248
O O15 0.681928 0.550425 0.015542
O O16 0.540268 0.004165 0.189523
O O17 0.500000 0.000000 0.000000
#
# Coordination Sequence:
#
# PCOD9038767 Si02
#       8
#     2   2   2   2   2   2   2   2
#     4   9  17  31  55  82 102 134 175 213 253 311
#     4   9  19  34  52  75 108 137 174 212 260 307
#     4   9  17  33  52  77 106 136 172 217 257 303
#     4  10  18  32  56  78 104 138 175 208 258 311
#     4   9  20  34  53  75 110 136 171 220 260 297
#     4   8  17  31  53  77 104 135 176 213 255 311
#     4  10  17  33  54  78 103 139 172 221 255 296
#     4  10  19  34  56  74 106 140 179 208 261 312
#
# _framework density 20.104330999999998
#
# number of rings (size 3 to 8) (size 9 to 14) (size 15 to 20)
#    0.750    2.000    1.250    1.500    0.000    0.500 
#    0.000    5.625    0.000    0.000    0.000    0.000 
#    0.000    0.000    0.000    0.000    0.000    0.000 
#
# Total GULP energy -89117.284871 kJ/mol
# GULP energy per Si atom -5569.830304 kJ/mol
# Density = 2.005857 g / cm^3
# Si number density = 20.104331 Si / 1000 Ang^3
#
#
#
# Elastic Constant Matrix: (Units=GPa)
#
#
# Indices 1 2 3 4 5 6 
#
# 1 40.5676 6.0666 27.2143 3.8258 -0.5711 1.5219
# 2 6.0666 64.9111 63.4377 -4.2364 -17.3065 13.6256
# 3 27.2143 63.4377 149.0874 11.1373 -21.0106 28.9116
# 4 3.8258 -4.2364 11.1373 26.1873 3.8523 -6.4305
# 5 -0.5711 -17.3065 -21.0106 3.8523 22.8792 -4.3029
# 6 1.5219 13.6256 28.9116 -6.4305 -4.3029 32.8369
#
#
#
# Elastic Compliance Matrix: (Units=1/GPa)
#
#
# Indices 1 2 3 4 5 6 
#
# 1 0.029370 0.003665 -0.008373 0.001452 -0.003619 0.004300
# 2 0.003665 0.031256 -0.013649 0.009350 0.010006 0.002020
# 3 -0.008373 -0.013649 0.018024 -0.012337 0.005942 -0.011455
# 4 0.001452 0.009350 -0.012337 0.049952 -0.009731 0.015422
# 5 -0.003619 0.010006 0.005942 -0.009731 0.057609 -0.003572
# 6 0.004300 0.002020 -0.011455 0.015422 -0.003572 0.042054
#
#
# Mechanical properties :
#
#
# Convention : Reuss Voigt Hill
#
# Bulk Modulus (GPa) = 23.84539 49.77812 36.81176
# Shear Modulus (GPa) = 17.92387 26.90386 22.41387
#
# Velocity S-wave (km/s) = 2.98911 3.66213 3.34260
# Velocity P-wave (km/s) = 4.87848 6.53416 5.76606
#
# Compressibility (1/GPa) = 0.04193683
#
# Stress axis : x y z
#
# Youngs Moduli (GPa) = 34.04835 31.99384 55.48192
#
# Poissons Ratio (x) = -0.11727 0.46456
# Poissons Ratio (y) = -0.12480 0.75726
# Poissons Ratio (z) = 0.28509 0.43667
#
# Static dielectric constant tensor:
#      x y z
#    x 1.727000 -0.019080 0.019570 
#    y -0.019080 1.717750 -0.003160 
#    z 0.019570 -0.003160 1.733870 
# 
# From -- ./inp_files/358425.got.cif
#   From: 2010.05.17/outbox.cif.g08.bks.cpg/sg2_180_cif.got.tgz:358425.got - 2010.06.03 11:33:40.
