data_PCOD9038064
_publ_section_title
;
Structure prediction by ZEFSAII (Michael W. Deem and Ramdas Pophale) SiO2 
 PCOD9038064
Probable space group: P -1
;
_chemical_formula_sum "Si O2"
_cell_formula_units_Z 16
_cell_length_a 11.171357
_cell_length_b 19.577059
_cell_length_c 7.433892
_cell_angle_alpha 82.587399
_cell_angle_beta 121.329140
_cell_angle_gamma 145.067218
_cell_volume 631.520087
_symmetry_space_group_name_H-M "P -1"
_symmetry_group_IT_number 2
_symmetry_cell_setting 'triclinic'
loop_
_space_group_symop_operation_xyz
x,y,z
-x,-y,-z
loop_
_atom_site_type_symbol
_atom_site_label
_atom_site_fract_x
_atom_site_fract_y
_atom_site_fract_z
Si Si1 0.441498 0.877116 0.842047
Si Si2 0.645116 0.826899 0.460583
Si Si3 0.762150 0.229706 0.865746
Si Si4 0.691601 0.842566 0.055328
Si Si5 0.537288 0.495860 0.753239
Si Si6 0.091218 0.200854 0.353227
Si Si7 0.589433 0.647895 0.935463
Si Si8 0.194987 0.897019 0.461864
O O1 0.308518 0.811103 0.962475
O O2 0.524120 0.837319 0.851736
O O3 0.226740 0.832644 0.575023
O O4 0.767026 0.058891 0.050025
O O5 0.343871 0.739933 0.289117
O O6 0.663309 0.835895 0.252961
O O7 0.697319 0.769184 0.560524
O O8 0.939976 0.990301 0.732687
O O9 0.520884 0.073973 0.631471
O O10 0.109466 0.365024 0.054397
O O11 0.542532 0.708403 0.905037
O O12 0.300421 0.358977 0.475329
O O13 0.484280 0.425686 0.914502
O O14 0.452443 0.537822 0.717020
O O15 0.965213 0.133333 0.482563
O O16 0.956309 0.801286 0.149838
#
# Coordination Sequence:
#
# PCOD9038064 Si02
#       8
#     2   2   2   2   2   2   2   2
#     4   9  19  31  57  80  97 128 167 216 259 289
#     4   9  14  26  49  75  98 119 164 214 252 281
#     4  10  18  29  48  83 104 120 170 215 256 281
#     4   9  14  30  52  75  93 131 171 206 247 292
#     4  10  21  31  49  78 103 139 163 207 243 304
#     4   9  16  31  48  72 104 130 161 197 256 303
#     4  10  19  36  53  71 103 140 171 194 250 309
#     4  10  17  33  53  78 100 130 170 209 250 297
#
# _framework density 25.335695000000001
#
# number of rings (size 3 to 8) (size 9 to 14) (size 15 to 20)
#    0.000    2.500    3.750    3.000    0.000    1.000 
#    0.000    5.625    0.000    7.500    3.250    0.000 
#    0.000    0.000    0.000    0.000    0.000    0.000 
#
# Total GULP energy -89467.110668 kJ/mol
# GULP energy per Si atom -5591.694417 kJ/mol
# Density = 2.527803 g / cm^3
# Si number density = 25.335695 Si / 1000 Ang^3
#
#
#
# Elastic Constant Matrix: (Units=GPa)
#
#
# Indices 1 2 3 4 5 6 
#
# 1 113.9190 70.1262 26.2277 7.4918 6.1431 -33.1320
# 2 70.1262 77.6325 35.9003 20.9313 -2.1727 -33.3473
# 3 26.2277 35.9003 43.9316 19.3898 13.5061 -17.2217
# 4 7.4918 20.9313 19.3898 43.3692 -4.5107 1.2320
# 5 6.1431 -2.1727 13.5061 -4.5107 37.0550 -5.3934
# 6 -33.1320 -33.3473 -17.2217 1.2320 -5.3934 73.8382
#
#
#
# Elastic Compliance Matrix: (Units=1/GPa)
#
#
# Indices 1 2 3 4 5 6 
#
# 1 0.022882 -0.025653 0.007756 0.004170 -0.007637 -0.000137
# 2 -0.025653 0.055752 -0.029251 -0.007716 0.018456 0.008323
# 3 0.007756 -0.029251 0.057697 -0.015745 -0.025639 0.002117
# 4 0.004170 -0.007716 -0.015745 0.034080 0.007976 -0.005272
# 5 -0.007637 0.018456 -0.025639 0.007976 0.039900 0.001710
# 6 -0.000137 0.008323 0.002117 -0.005272 0.001710 0.017947
#
#
# Mechanical properties :
#
#
# Convention : Reuss Voigt Hill
#
# Bulk Modulus (GPa) = 23.78898 55.55461 39.67179
# Shear Modulus (GPa) = 14.85598 37.73441 26.29519
#
# Velocity S-wave (km/s) = 2.42413 3.86343 3.22510
# Velocity P-wave (km/s) = 4.15272 6.47120 5.43698
#
# Compressibility (1/GPa) = 0.04203627
#
# Stress axis : x y z
#
# Youngs Moduli (GPa) = 43.70331 17.93649 17.33195
#
# Poissons Ratio (x) = 0.46012 -0.13443
# Poissons Ratio (y) = 1.12111 0.50697
# Poissons Ratio (z) = -0.33898 0.52466
#
# Static dielectric constant tensor:
#      x y z
#    x 2.074320 0.029700 -0.037570 
#    y 0.029700 2.065930 -0.018050 
#    z -0.037570 -0.018050 1.944670 
# 
# From -- ./inp_files/435761.got.cif
#   From: 2010.05.17/outbox.cif.g08.bks.cpg/sg2_218_cif.got.tgz:435761.got - 2010.06.03 11:33:40.
