data_PCOD9038843
_publ_section_title
;
Structure prediction by ZEFSAII (Michael W. Deem and Ramdas Pophale) SiO2 
 PCOD9038843
Probable space group: P -1
;
_chemical_formula_sum "Si O2"
_cell_formula_units_Z 12
_cell_length_a 15.661642
_cell_length_b 15.608433
_cell_length_c 7.700776
_cell_angle_alpha 96.881675
_cell_angle_beta 105.804380
_cell_angle_gamma 18.634060
_cell_volume 516.934810
_symmetry_space_group_name_H-M "P -1"
_symmetry_group_IT_number 2
_symmetry_cell_setting 'triclinic'
loop_
_space_group_symop_operation_xyz
x,y,z
-x,-y,-z
loop_
_atom_site_type_symbol
_atom_site_label
_atom_site_fract_x
_atom_site_fract_y
_atom_site_fract_z
Si Si1 0.271283 0.017804 0.269103
Si Si2 0.953438 0.391471 0.870594
Si Si3 0.764242 0.683589 0.552728
Si Si4 0.833584 0.244910 0.429573
Si Si5 0.149132 0.937339 0.180248
Si Si6 0.737856 0.002145 0.343973
O O1 0.171116 0.111273 0.438098
O O2 0.616345 0.733235 0.406177
O O3 0.239814 0.948844 0.163749
O O4 0.090352 0.251916 0.102539
O O5 0.878613 0.552156 0.777237
O O6 0.194440 0.127519 0.802176
O O7 0.628262 0.642446 0.757938
O O8 0.000000 0.500000 0.500000
O O9 0.500000 0.000000 0.500000
O O10 0.473766 0.597072 0.352607
O O11 0.050192 0.113678 0.607952
O O12 0.000000 0.000000 0.500000
O O13 0.891038 0.199643 0.244412
O O14 0.000000 0.000000 0.000000
#
# Coordination Sequence:
#
# PCOD9038843 Si02
#       6
#     2   2   2   2   2   2
#     4  10  25  45  70  98 140 176 226 278 339 400
#     4  11  24  42  72  97 130 183 217 275 348 404
#     4  11  24  44  68  99 134 168 223 283 333 407
#     4  11  23  39  63  90 133 178 221 280 334 384
#     4  11  25  42  65  99 135 174 226 279 328 395
#     4  10  23  42  63  97 136 173 229 272 330 399
#
# _framework density 23.213760000000001
#
# number of rings (size 3 to 8) (size 9 to 14) (size 15 to 20)
#    0.000    1.333    0.000    6.000    4.667    9.333 
#    0.000    0.000    0.000    0.000    0.000    0.000 
#    0.000    0.000    0.000    0.000    0.000    0.000 
#
# Total GULP energy -66992.590590 kJ/mol
# GULP energy per Si atom -5582.715883 kJ/mol
# Density = 2.316092 g / cm^3
# Si number density = 23.213760 Si / 1000 Ang^3
#
#
#
# Elastic Constant Matrix: (Units=GPa)
#
#
# Indices 1 2 3 4 5 6 
#
# 1 111.8522 11.9336 24.1620 -14.0019 3.4116 -4.6856
# 2 11.9336 99.6863 6.0214 -10.5892 3.3779 -12.5716
# 3 24.1620 6.0214 100.6009 -11.4252 -16.1035 -8.4770
# 4 -14.0019 -10.5892 -11.4252 27.4603 9.6935 1.2602
# 5 3.4116 3.3779 -16.1035 9.6935 37.5907 -8.8233
# 6 -4.6856 -12.5716 -8.4770 1.2602 -8.8233 29.7064
#
#
#
# Elastic Compliance Matrix: (Units=1/GPa)
#
#
# Indices 1 2 3 4 5 6 
#
# 1 0.010256 -0.000471 -0.002425 0.005264 -0.003404 -0.000508
# 2 -0.000471 0.011093 0.000121 0.004257 -0.001021 0.004171
# 3 -0.002425 0.000121 0.012076 0.001436 0.006158 0.004883
# 4 0.005264 0.004257 0.001436 0.045955 -0.012726 -0.002688
# 5 -0.003404 -0.001021 0.006158 -0.012726 0.035725 0.011939
# 6 -0.000508 0.004171 0.004883 -0.002688 0.011939 0.040401
#
#
# Mechanical properties :
#
#
# Convention : Reuss Voigt Hill
#
# Bulk Modulus (GPa) = 35.87490 44.04147 39.95819
# Shear Modulus (GPa) = 29.35160 36.95297 33.15229
#
# Velocity S-wave (km/s) = 3.55971 3.99414 3.78316
# Velocity P-wave (km/s) = 5.69061 6.34698 6.02774
#
# Compressibility (1/GPa) = 0.02787464
#
# Stress axis : x y z
#
# Youngs Moduli (GPa) = 97.50472 90.14410 82.81055
#
# Poissons Ratio (x) = 0.04244 0.20081
# Poissons Ratio (y) = 0.04591 -0.00998
# Poissons Ratio (z) = 0.23644 -0.01087
#
# Static dielectric constant tensor:
#      x y z
#    x 1.938080 0.009540 -0.003590 
#    y 0.009540 1.855720 0.014520 
#    z -0.003590 0.014520 1.891320 
# 
# From -- ./inp_files/35685.got.cif
#   From: 2010.05.17/outbox.cif.g08.bks.cpg/sg2_18_cif.got.tgz:35685.got - 2010.06.03 11:33:40.
