data_PCOD9038761
_publ_section_title
;
Structure prediction by ZEFSAII (Michael W. Deem and Ramdas Pophale) SiO2 
 PCOD9038761
Probable space group: P -1
;
_chemical_formula_sum "Si O2"
_cell_formula_units_Z 16
_cell_length_a 25.980714
_cell_length_b 9.259112
_cell_length_c 7.943155
_cell_angle_alpha 48.412234
_cell_angle_beta 61.768946
_cell_angle_gamma 31.586591
_cell_volume 727.454006
_symmetry_space_group_name_H-M "P -1"
_symmetry_group_IT_number 2
_symmetry_cell_setting 'triclinic'
loop_
_space_group_symop_operation_xyz
x,y,z
-x,-y,-z
loop_
_atom_site_type_symbol
_atom_site_label
_atom_site_fract_x
_atom_site_fract_y
_atom_site_fract_z
Si Si1 0.720785 0.423565 0.739570
Si Si2 0.249809 0.330487 0.037648
Si Si3 0.053486 0.423187 0.310436
Si Si4 0.821018 0.536818 0.573134
Si Si5 0.112117 0.319157 0.846339
Si Si6 0.619877 0.660754 0.081781
Si Si7 0.291869 0.784594 0.400521
Si Si8 0.048650 0.804444 0.841474
O O1 0.753749 0.558744 0.563196
O O2 0.675794 0.444358 0.625754
O O3 0.659618 0.553808 0.908435
O O4 0.826165 0.028351 0.914209
O O5 0.214691 0.388216 0.239069
O O6 0.294751 0.001295 0.168685
O O7 0.329054 0.287919 0.952809
O O8 0.147017 0.665746 0.838076
O O9 0.000000 0.500000 0.500000
O O10 0.993207 0.469283 0.226959
O O11 0.172465 0.071518 0.396043
O O12 0.030646 0.712302 0.099720
O O13 0.816802 0.764701 0.334687
O O14 0.941915 0.170504 0.663048
O O15 0.090997 0.537356 0.847881
O O16 0.651452 0.408401 0.361702
O O17 0.500000 0.000000 0.000000
#
# Coordination Sequence:
#
# PCOD9038761 Si02
#       8
#     2   2   2   2   2   2   2   2
#     4  11  23  44  67  94 134 169 213 266 315 392
#     4  10  23  42  61  92 128 161 218 264 313 394
#     4  11  21  34  58  91 133 180 211 248 307 376
#     4  11  23  34  59  94 131 178 207 255 310 365
#     4  12  21  37  59  90 138 171 216 250 307 377
#     4  11  27  47  70  96 122 161 218 281 340 385
#     4  11  24  43  68  93 129 174 213 264 327 375
#     4  11  21  36  56  92 131 171 216 253 300 380
#
# _framework density 21.994517999999999
#
# number of rings (size 3 to 8) (size 9 to 14) (size 15 to 20)
#    0.000    1.000    3.750    4.875    5.250    1.000 
#    0.000    0.625    0.000    0.000    0.000    0.000 
#    0.000    0.000    0.000    0.000    0.000    0.000 
#
# Total GULP energy -89459.606306 kJ/mol
# GULP energy per Si atom -5591.225394 kJ/mol
# Density = 2.194446 g / cm^3
# Si number density = 21.994518 Si / 1000 Ang^3
#
#
#
# Elastic Constant Matrix: (Units=GPa)
#
#
# Indices 1 2 3 4 5 6 
#
# 1 71.8690 34.0684 -14.6007 -0.5588 -3.8051 4.6839
# 2 34.0684 78.7307 15.7740 2.7800 14.1521 -7.7846
# 3 -14.6007 15.7740 56.5474 -1.3789 0.5170 -7.9263
# 4 -0.5588 2.7800 -1.3789 22.8129 1.1698 5.2270
# 5 -3.8051 14.1521 0.5170 1.1698 31.5277 1.9489
# 6 4.6839 -7.7846 -7.9263 5.2270 1.9489 27.2635
#
#
#
# Elastic Compliance Matrix: (Units=1/GPa)
#
#
# Indices 1 2 3 4 5 6 
#
# 1 0.023767 -0.014707 0.009262 0.004058 0.009604 -0.007055
# 2 -0.014707 0.024297 -0.009371 -0.005212 -0.012870 0.008659
# 3 0.009262 -0.009371 0.022929 0.002132 0.004767 0.001650
# 4 0.004058 -0.005212 0.002132 0.047065 0.001710 -0.010711
# 5 0.009604 -0.012870 0.004767 0.001710 0.038948 -0.007051
# 6 -0.007055 0.008659 0.001650 -0.010711 -0.007051 0.043401
#
#
# Mechanical properties :
#
#
# Convention : Reuss Voigt Hill
#
# Bulk Modulus (GPa) = 24.17761 30.84783 27.51272
# Shear Modulus (GPa) = 20.50634 27.78118 24.14376
#
# Velocity S-wave (km/s) = 3.05673 3.55786 3.31678
# Velocity P-wave (km/s) = 4.84506 5.56179 5.21575
#
# Compressibility (1/GPa) = 0.04136058
#
# Stress axis : x y z
#
# Youngs Moduli (GPa) = 42.07439 41.15775 43.61219
#
# Poissons Ratio (x) = 0.60533 -0.40393
# Poissons Ratio (y) = 0.61881 0.40868
# Poissons Ratio (z) = -0.38968 0.38568
#
# Static dielectric constant tensor:
#      x y z
#    x 1.858790 0.081630 0.024270 
#    y 0.081630 1.804290 0.064670 
#    z 0.024270 0.064670 1.926850 
# 
# From -- ./inp_files/313840.got.cif
#   From: 2010.05.17/outbox.cif.g08.bks.cpg/sg2_157_cif.got.tgz:313840.got - 2010.06.03 11:33:40.
