data_PCOD9038902
_publ_section_title
;
Structure prediction by ZEFSAII (Michael W. Deem and Ramdas Pophale) SiO2 
 PCOD9038902
Probable space group: P -1
;
_chemical_formula_sum "Si O2"
_cell_formula_units_Z 14
_cell_length_a 7.506116
_cell_length_b 7.681515
_cell_length_c 10.608985
_cell_angle_alpha 70.545927
_cell_angle_beta 102.489687
_cell_angle_gamma 89.442777
_cell_volume 560.899777
_symmetry_space_group_name_H-M "P -1"
_symmetry_group_IT_number 2
_symmetry_cell_setting 'triclinic'
loop_
_space_group_symop_operation_xyz
x,y,z
-x,-y,-z
loop_
_atom_site_type_symbol
_atom_site_label
_atom_site_fract_x
_atom_site_fract_y
_atom_site_fract_z
Si Si1 0.537994 0.614231 0.140417
Si Si2 0.031559 0.189338 0.093102
Si Si3 0.349677 0.771443 0.852672
Si Si4 0.534363 0.703114 0.410531
Si Si5 0.837736 0.925254 0.412529
Si Si6 0.860725 0.490415 0.823044
Si Si7 0.854871 0.185862 0.708383
O O1 0.663062 0.429721 0.165213
O O2 0.567915 0.697483 0.263444
O O3 0.336771 0.536770 0.139823
O O4 0.519431 0.749821 0.982626
O O5 0.821611 0.168705 0.098713
O O6 0.102852 0.299122 0.198408
O O7 0.019280 0.348062 0.947050
O O8 0.129174 0.983976 0.146928
O O9 0.316860 0.919159 0.700745
O O10 0.500000 0.500000 0.500000
O O11 0.288278 0.224239 0.516244
O O12 0.343592 0.824300 0.381764
O O13 0.000000 0.000000 0.500000
O O14 0.963660 0.840269 0.338925
O O15 0.849609 0.391500 0.712686
#
# Coordination Sequence:
#
# PCOD9038902 Si02
#       7
#     2   2   2   2   2   2   2
#     4   9  20  40  66 100 136 173 224 288 350 414
#     4   9  18  34  61  96 134 176 218 276 351 416
#     4   9  20  40  66 100 136 173 224 288 350 414
#     4  11  27  46  69 103 137 188 235 289 351 420
#     4  11  27  46  69 103 137 188 235 289 351 420
#     4   9  18  34  61  96 134 176 218 276 351 416
#     4  10  23  42  64  94 133 180 232 288 338 416
#
# _framework density 24.959893999999998
#
# number of rings (size 3 to 8) (size 9 to 14) (size 15 to 20)
#    0.000    2.286    0.000    0.429    6.000    7.429 
#    0.000    0.000    0.000    0.000    0.000    0.000 
#    0.000    0.000    0.000    0.000    0.000    0.000 
#
# Total GULP energy -78076.478432 kJ/mol
# GULP energy per Si atom -5576.891317 kJ/mol
# Density = 2.490308 g / cm^3
# Si number density = 24.959894 Si / 1000 Ang^3
#
#
#
# Elastic Constant Matrix: (Units=GPa)
#
#
# Indices 1 2 3 4 5 6 
#
# 1 108.6117 24.7289 20.2810 -14.4146 18.7612 7.7515
# 2 24.7289 91.4055 22.0072 -21.9380 11.2002 -0.4280
# 3 20.2810 22.0072 62.8460 -17.8729 20.6962 10.5421
# 4 -14.4146 -21.9380 -17.8729 36.3572 2.1310 4.5956
# 5 18.7612 11.2002 20.6962 2.1310 23.0750 1.3403
# 6 7.7515 -0.4280 10.5421 4.5956 1.3403 35.9931
#
#
#
# Elastic Compliance Matrix: (Units=1/GPa)
#
#
# Indices 1 2 3 4 5 6 
#
# 1 0.012283 -0.000793 0.003406 0.007352 -0.013097 -0.004103
# 2 -0.000793 0.014088 0.000348 0.008864 -0.007288 -0.000624
# 3 0.003406 0.000348 0.034831 0.022340 -0.035518 -0.012461
# 4 0.007352 0.008864 0.022340 0.050422 -0.034208 -0.013185
# 5 -0.013097 -0.007288 -0.035518 -0.034208 0.091721 0.014089
# 6 -0.004103 -0.000624 -0.012461 -0.013185 0.014089 0.033468
#
#
# Mechanical properties :
#
#
# Convention : Reuss Voigt Hill
#
# Bulk Modulus (GPa) = 14.89753 44.09973 29.49863
# Shear Modulus (GPa) = 19.74212 32.14146 25.94179
#
# Velocity S-wave (km/s) = 2.81544 3.59238 3.22738
# Velocity P-wave (km/s) = 4.06823 5.90877 5.07267
#
# Compressibility (1/GPa) = 0.06712520
#
# Stress axis : x y z
#
# Youngs Moduli (GPa) = 81.41619 70.98002 28.70987
#
# Poissons Ratio (x) = 0.05628 -0.09780
# Poissons Ratio (y) = 0.06455 -0.00999
# Poissons Ratio (z) = -0.27733 -0.02470
#
# Static dielectric constant tensor:
#      x y z
#    x 1.999750 0.025590 0.020710 
#    y 0.025590 2.027700 -0.007890 
#    z 0.020710 -0.007890 2.187410 
# 
# From -- ./inp_files/310399.got.cif
#   From: 2010.05.17/outbox.cif.g08.bks.cpg/sg2_156_cif.got.tgz:310399.got - 2010.06.03 11:33:40.
