data_PCOD9038929
_publ_section_title
;
Structure prediction by ZEFSAII (Michael W. Deem and Ramdas Pophale) SiO2 
 PCOD9038929
Probable space group: P -1
;
_chemical_formula_sum "Si O2"
_cell_formula_units_Z 16
_cell_length_a 16.151199
_cell_length_b 14.918710
_cell_length_c 8.848436
_cell_angle_alpha 66.357261
_cell_angle_beta 60.294943
_cell_angle_gamma 25.948658
_cell_volume 804.740158
_symmetry_space_group_name_H-M "P -1"
_symmetry_group_IT_number 2
_symmetry_cell_setting 'triclinic'
loop_
_space_group_symop_operation_xyz
x,y,z
-x,-y,-z
loop_
_atom_site_type_symbol
_atom_site_label
_atom_site_fract_x
_atom_site_fract_y
_atom_site_fract_z
Si Si1 0.964147 0.153744 0.262281
Si Si2 0.768209 0.732262 0.580374
Si Si3 0.822644 0.066958 0.461534
Si Si4 0.520619 0.879679 0.976260
Si Si5 0.937582 0.777088 0.363644
Si Si6 0.362264 0.323525 0.419525
Si Si7 0.750150 0.984789 0.094610
Si Si8 0.607153 0.627062 0.301302
O O1 0.870086 0.133786 0.321542
O O2 0.797712 0.388944 0.247064
O O3 0.043849 0.075411 0.414803
O O4 0.150039 0.014701 0.081430
O O5 0.773240 0.844352 0.520006
O O6 0.654139 0.779684 0.515737
O O7 0.000000 0.500000 0.500000
O O8 0.690281 0.747901 0.787762
O O9 0.591937 0.259836 0.586524
O O10 0.877792 0.936127 0.375707
O O11 0.572855 0.744792 0.133213
O O12 0.500000 0.000000 0.000000
O O13 0.325503 0.022995 0.958751
O O14 0.914162 0.796170 0.191500
O O15 0.158240 0.551166 0.376535
O O16 0.367209 0.351629 0.568602
O O17 0.554728 0.182978 0.241886
#
# Coordination Sequence:
#
# PCOD9038929 Si02
#       8
#     2   2   2   2   2   2   2   2
#     4  11  26  43  69  97 128 176 223 278 330 381
#     4   9  22  39  62  94 129 171 211 255 321 390
#     4  11  23  46  68  95 132 171 226 276 330 389
#     4  11  25  41  66 100 135 172 220 268 322 392
#     4  11  22  43  69  91 136 175 218 265 329 394
#     4  10  23  42  64  98 131 177 212 264 328 394
#     4  11  25  41  67  95 136 172 216 272 323 390
#     4  12  23  44  70  96 134 173 219 272 330 392
#
# _framework density 19.882193999999998
#
# number of rings (size 3 to 8) (size 9 to 14) (size 15 to 20)
#    0.000    1.250    3.750    1.125    7.000    1.500 
#    0.000    3.750    0.000    0.000    0.000    0.000 
#    0.000    0.000    0.000    0.000    0.000    0.000 
#
# Total GULP energy -89359.469019 kJ/mol
# GULP energy per Si atom -5584.966814 kJ/mol
# Density = 1.983694 g / cm^3
# Si number density = 19.882194 Si / 1000 Ang^3
#
#
#
# Elastic Constant Matrix: (Units=GPa)
#
#
# Indices 1 2 3 4 5 6 
#
# 1 157.8261 50.3442 78.0930 -7.2850 -9.7634 0.7351
# 2 50.3442 68.2522 13.5906 -6.3690 3.1408 -6.0254
# 3 78.0930 13.5906 98.3562 -9.1049 -20.7913 1.1801
# 4 -7.2850 -6.3690 -9.1049 32.3186 -8.3103 4.2989
# 5 -9.7634 3.1408 -20.7913 -8.3103 34.9855 -1.3341
# 6 0.7351 -6.0254 1.1801 4.2989 -1.3341 27.3840
#
#
#
# Elastic Compliance Matrix: (Units=1/GPa)
#
#
# Indices 1 2 3 4 5 6 
#
# 1 0.014085 -0.008493 -0.010602 -0.001811 -0.002099 -0.001608
# 2 -0.008493 0.020818 0.003763 0.002358 -0.001282 0.004214
# 3 -0.010602 0.003763 0.021028 0.007124 0.010878 -0.000382
# 4 -0.001811 0.002358 0.007124 0.036761 0.012061 -0.004923
# 5 -0.002099 -0.001282 0.010878 0.012061 0.037413 -0.000765
# 6 -0.001608 0.004214 -0.000382 -0.004923 -0.000765 0.038240
#
#
# Mechanical properties :
#
#
# Convention : Reuss Voigt Hill
#
# Bulk Modulus (GPa) = 39.57490 67.61002 53.59246
# Shear Modulus (GPa) = 24.10451 31.09807 27.60129
#
# Velocity S-wave (km/s) = 3.48568 3.95918 3.72995
# Velocity P-wave (km/s) = 6.01231 7.41480 6.75008
#
# Compressibility (1/GPa) = 0.02526854
#
# Stress axis : x y z
#
# Youngs Moduli (GPa) = 70.99776 48.03636 47.55518
#
# Poissons Ratio (x) = 0.40796 0.50417
# Poissons Ratio (y) = 0.60296 -0.17897
# Poissons Ratio (z) = 0.75270 -0.18078
#
# Static dielectric constant tensor:
#      x y z
#    x 1.723230 -0.002680 0.005010 
#    y -0.002680 1.725210 -0.015240 
#    z 0.005010 -0.015240 1.702560 
# 
# From -- ./inp_files/312948.got.cif
#   From: 2010.05.17/outbox.cif.g08.bks.cpg/sg2_157_cif.got.tgz:312948.got - 2010.06.03 11:33:40.
