data_PCOD9038667
_publ_section_title
;
Structure prediction by ZEFSAII (Michael W. Deem and Ramdas Pophale) SiO2 
 PCOD9038667
Probable space group: P -1
;
_chemical_formula_sum "Si O2"
_cell_formula_units_Z 14
_cell_length_a 13.188944
_cell_length_b 8.649236
_cell_length_c 7.261645
_cell_angle_alpha 96.037063
_cell_angle_beta 130.021075
_cell_angle_gamma 63.127767
_cell_volume 544.606302
_symmetry_space_group_name_H-M "P -1"
_symmetry_group_IT_number 2
_symmetry_cell_setting 'triclinic'
loop_
_space_group_symop_operation_xyz
x,y,z
-x,-y,-z
loop_
_atom_site_type_symbol
_atom_site_label
_atom_site_fract_x
_atom_site_fract_y
_atom_site_fract_z
Si Si1 0.447718 0.094395 0.149324
Si Si2 0.667287 0.164832 0.996569
Si Si3 0.958576 0.171232 0.214340
Si Si4 0.038611 0.624280 0.430230
Si Si5 0.813972 0.578132 0.965873
Si Si6 0.659109 0.520515 0.450467
Si Si7 0.716841 0.141665 0.494365
O O1 0.314575 0.302480 0.016690
O O2 0.595602 0.085204 0.411232
O O3 0.370975 0.987332 0.129842
O O4 0.500000 0.000000 0.000000
O O5 0.513027 0.352055 0.798261
O O6 0.814970 0.144146 0.065586
O O7 0.694381 0.158362 0.247412
O O8 0.007312 0.199970 0.481767
O O9 0.898657 0.364967 0.074415
O O10 0.108950 0.007580 0.282806
O O11 0.214452 0.541483 0.570693
O O12 0.000000 0.500000 0.500000
O O13 0.939834 0.640209 0.136642
O O14 0.716015 0.617036 0.672277
O O15 0.675573 0.339314 0.533761
#
# Coordination Sequence:
#
# PCOD9038667 Si02
#       7
#     2   2   2   2   2   2   2
#     4  10  24  42  70 101 138 181 235 287 339 419
#     4  11  24  42  71 104 139 181 239 294 346 414
#     4  11  24  44  74 102 137 185 237 292 340 423
#     4  10  23  41  73 100 136 183 237 287 342 414
#     4  11  26  46  68 103 144 187 230 289 359 412
#     4  12  26  43  71 103 147 184 229 293 355 416
#     4  11  24  42  71 107 137 185 242 284 346 415
#
# _framework density 25.706645999999999
#
# number of rings (size 3 to 8) (size 9 to 14) (size 15 to 20)
#    0.000    1.143    1.429    3.857   14.000    3.429 
#    0.000    0.000    0.000    0.000    0.000    0.000 
#    0.000    0.000    0.000    0.000    0.000    0.000 
#
# Total GULP energy -78446.144662 kJ/mol
# GULP energy per Si atom -5603.296047 kJ/mol
# Density = 2.564814 g / cm^3
# Si number density = 25.706646 Si / 1000 Ang^3
#
#
#
# Elastic Constant Matrix: (Units=GPa)
#
#
# Indices 1 2 3 4 5 6 
#
# 1 68.8056 33.6545 40.5486 11.9361 28.4111 13.9433
# 2 33.6545 113.9885 57.9741 -15.6470 24.2577 5.2020
# 3 40.5486 57.9741 133.8097 -3.6579 36.0171 -2.6997
# 4 11.9361 -15.6470 -3.6579 49.0800 -2.1731 18.2464
# 5 28.4111 24.2577 36.0171 -2.1731 59.9902 14.5585
# 6 13.9433 5.2020 -2.6997 18.2464 14.5585 32.7353
#
#
#
# Elastic Compliance Matrix: (Units=1/GPa)
#
#
# Indices 1 2 3 4 5 6 
#
# 1 0.023258 -0.004390 -0.003608 -0.006526 -0.006598 -0.002935
# 2 -0.004390 0.013389 -0.004610 0.006821 0.000849 -0.004818
# 3 -0.003608 -0.004610 0.012132 -0.002608 -0.005551 0.007192
# 4 -0.006526 0.006821 -0.002608 0.031567 0.007793 -0.019580
# 5 -0.006598 0.000849 -0.005551 0.007793 0.026435 -0.013883
# 6 -0.002935 -0.004818 0.007192 -0.019580 -0.013883 0.050245
#
#
# Mechanical properties :
#
#
# Convention : Reuss Voigt Hill
#
# Bulk Modulus (GPa) = 42.43710 64.55093 53.49401
# Shear Modulus (GPa) = 26.30270 40.65619 33.47944
#
# Velocity S-wave (km/s) = 3.20220 3.98118 3.61274
# Velocity P-wave (km/s) = 5.49692 6.80427 6.18524
#
# Compressibility (1/GPa) = 0.02356429
#
# Stress axis : x y z
#
# Youngs Moduli (GPa) = 42.99563 74.68860 82.42843
#
# Poissons Ratio (x) = 0.32786 0.29738
# Poissons Ratio (y) = 0.18874 0.37998
# Poissons Ratio (z) = 0.15512 0.34431
#
# Static dielectric constant tensor:
#      x y z
#    x 2.022770 0.002490 -0.068480 
#    y 0.002490 2.000600 0.030310 
#    z -0.068480 0.030310 2.069290 
# 
# From -- ./inp_files/158880.got.cif
#   From: 2010.05.17/outbox.cif.g08.bks.cpg/sg2_80_cif.got.tgz:158880.got - 2010.06.03 11:33:40.
