data_PCOD9038238
_publ_section_title
;
Structure prediction by ZEFSAII (Michael W. Deem and Ramdas Pophale) SiO2 
 PCOD9038238
Probable space group: P -1
;
_chemical_formula_sum "Si O2"
_cell_formula_units_Z 16
_cell_length_a 27.268188
_cell_length_b 5.476781
_cell_length_c 9.409805
_cell_angle_alpha 120.592978
_cell_angle_beta 145.927346
_cell_angle_gamma 75.194011
_cell_volume 636.286369
_symmetry_space_group_name_H-M "P -1"
_symmetry_group_IT_number 2
_symmetry_cell_setting 'triclinic'
loop_
_space_group_symop_operation_xyz
x,y,z
-x,-y,-z
loop_
_atom_site_type_symbol
_atom_site_label
_atom_site_fract_x
_atom_site_fract_y
_atom_site_fract_z
Si Si1 0.169715 0.053021 0.887349
Si Si2 0.908586 0.703642 0.972125
Si Si3 0.429000 0.179534 0.395719
Si Si4 0.909187 0.100144 0.657311
Si Si5 0.774061 0.829877 0.490785
Si Si6 0.411563 0.195859 0.062935
Si Si7 0.257309 0.740679 0.244092
Si Si8 0.453501 0.149626 0.754796
O O1 0.099537 0.159135 0.852782
O O2 0.128135 0.886686 0.589994
O O3 0.239848 0.385403 0.104728
O O4 0.209251 0.849840 0.026618
O O5 0.992655 0.943894 0.154219
O O6 0.927544 0.396460 0.889075
O O7 0.811089 0.659470 0.647529
O O8 0.399210 0.118334 0.465407
O O9 0.500000 0.000000 0.500000
O O10 0.492055 0.525230 0.630897
O O11 0.366381 0.106446 0.085022
O O12 0.832296 0.853203 0.493863
O O13 0.664020 0.697168 0.164248
O O14 0.785649 0.153664 0.688076
O O15 0.455196 0.944337 0.054893
O O16 0.367559 0.934078 0.574643
O O17 0.500000 0.500000 0.000000
#
# Coordination Sequence:
#
# PCOD9038238 Si02
#       8
#     2   2   2   2   2   2   2   2
#     4  11  26  49  73 113 148 198 240 314 369 448
#     4  10  24  49  70 110 147 184 249 307 373 457
#     4   9  21  41  59  94 131 180 236 299 351 433
#     4  11  24  44  79 104 143 196 239 306 383 447
#     4  11  24  43  69 100 142 191 242 306 365 442
#     4  10  23  41  67  95 138 188 241 297 367 427
#     4  11  27  46  70 106 156 186 254 307 361 439
#     4  11  25  41  68  99 141 199 241 298 368 431
#
# _framework density 25.145910000000001
#
# number of rings (size 3 to 8) (size 9 to 14) (size 15 to 20)
#    0.000    1.500    1.250    1.500    7.000    5.000 
#    0.000    1.875    0.000    0.000    0.000    0.000 
#    0.000    0.000    0.000    0.000    0.000    0.000 
#
# Total GULP energy -89208.537553 kJ/mol
# GULP energy per Si atom -5575.533597 kJ/mol
# Density = 2.508868 g / cm^3
# Si number density = 25.145910 Si / 1000 Ang^3
#
#
#
# Elastic Constant Matrix: (Units=GPa)
#
#
# Indices 1 2 3 4 5 6 
#
# 1 137.1861 19.2374 48.7110 -3.5812 -12.8370 16.5363
# 2 19.2374 93.6952 20.4183 -2.9959 -1.2654 -2.7790
# 3 48.7110 20.4183 68.6149 -18.1930 2.9973 -1.6319
# 4 -3.5812 -2.9959 -18.1930 40.9178 6.6612 -9.7921
# 5 -12.8370 -1.2654 2.9973 6.6612 33.2350 -6.5142
# 6 16.5363 -2.7790 -1.6319 -9.7921 -6.5142 27.8303
#
#
#
# Elastic Compliance Matrix: (Units=1/GPa)
#
#
# Indices 1 2 3 4 5 6 
#
# 1 0.012889 -0.000615 -0.011334 -0.007156 0.005528 -0.009608
# 2 -0.000615 0.011514 -0.003096 -0.000390 0.000831 0.001391
# 3 -0.011334 -0.003096 0.028248 0.015410 -0.007845 0.011668
# 4 -0.007156 -0.000390 0.015410 0.035751 -0.008244 0.015766
# 5 0.005528 0.000831 -0.007845 -0.008244 0.034932 0.001614
# 6 -0.009608 0.001391 0.011668 0.015766 0.001614 0.048389
#
#
# Mechanical properties :
#
#
# Convention : Reuss Voigt Hill
#
# Bulk Modulus (GPa) = 44.32700 52.91440 48.62070
# Shear Modulus (GPa) = 23.88539 34.47194 29.17867
#
# Velocity S-wave (km/s) = 3.08534 3.70655 3.41012
# Velocity P-wave (km/s) = 5.50987 6.27747 5.90615
#
# Compressibility (1/GPa) = 0.02255961
#
# Stress axis : x y z
#
# Youngs Moduli (GPa) = 77.58734 86.85108 35.40102
#
# Poissons Ratio (x) = 0.05345 0.40124
# Poissons Ratio (y) = 0.04775 0.10960
# Poissons Ratio (z) = 0.87938 0.26888
#
# Static dielectric constant tensor:
#      x y z
#    x 2.059740 0.048140 -0.024970 
#    y 0.048140 1.879560 0.013900 
#    z -0.024970 0.013900 2.061040 
# 
# From -- ./inp_files/356065.got.cif
#   From: 2010.05.17/outbox.cif.g08.bks.cpg/sg2_179_cif.got.tgz:356065.got - 2010.06.03 11:33:40.
