data_PCOD9038992
_publ_section_title
;
Structure prediction by ZEFSAII (Michael W. Deem and Ramdas Pophale) SiO2 
 PCOD9038992
Probable space group: P -1
;
_chemical_formula_sum "Si O2"
_cell_formula_units_Z 16
_cell_length_a 8.310265
_cell_length_b 26.143866
_cell_length_c 6.505038
_cell_angle_alpha 79.615986
_cell_angle_beta 92.073664
_cell_angle_gamma 33.569804
_cell_volume 722.154409
_symmetry_space_group_name_H-M "P -1"
_symmetry_group_IT_number 2
_symmetry_cell_setting 'triclinic'
loop_
_space_group_symop_operation_xyz
x,y,z
-x,-y,-z
loop_
_atom_site_type_symbol
_atom_site_label
_atom_site_fract_x
_atom_site_fract_y
_atom_site_fract_z
Si Si1 0.194020 0.549275 0.437240
Si Si2 0.777870 0.126644 0.950199
Si Si3 0.343895 0.726120 0.972172
Si Si4 0.199806 0.277078 0.036969
Si Si5 0.929240 0.775272 0.655111
Si Si6 0.739710 0.652601 0.703975
Si Si7 0.432489 0.651292 0.444253
Si Si8 0.759758 0.062058 0.630372
O O1 0.500000 0.500000 0.500000
O O2 0.293411 0.465195 0.421858
O O3 0.973660 0.639279 0.198576
O O4 0.040862 0.581909 0.630774
O O5 0.718324 0.201805 0.969170
O O6 0.494182 0.172986 0.007951
O O7 0.753699 0.118108 0.716854
O O8 0.094498 0.018630 0.140458
O O9 0.376756 0.674267 0.186275
O O10 0.657749 0.639348 0.910572
O O11 0.056554 0.791819 0.761479
O O12 0.995621 0.290579 0.129239
O O13 0.327853 0.274808 0.237846
O O14 0.571248 0.867135 0.514425
O O15 0.132742 0.713724 0.504478
O O16 0.525538 0.682201 0.510111
O O17 0.000000 0.000000 0.500000
#
# Coordination Sequence:
#
# PCOD9038992 Si02
#       8
#     2   2   2   2   2   2   2   2
#     4  12  26  40  65 100 135 180 231 280 330 392
#     4  10  24  43  71  99 130 175 222 273 342 405
#     4  10  24  44  67  99 137 184 219 272 336 401
#     4  11  24  42  69  96 133 178 228 278 332 398
#     4  11  25  41  70  99 138 177 225 281 333 396
#     4  10  23  42  65  94 130 183 222 279 326 395
#     4  11  25  43  65  98 140 182 224 277 336 393
#     4  11  24  43  72 103 130 170 224 281 338 405
#
# _framework density 22.155927999999999
#
# number of rings (size 3 to 8) (size 9 to 14) (size 15 to 20)
#    0.000    1.250    1.250    3.375    7.000    6.500 
#    0.000    1.250    0.000    0.000    0.000    0.000 
#    0.000    0.000    0.000    0.000    0.000    0.000 
#
# Total GULP energy -89215.334238 kJ/mol
# GULP energy per Si atom -5575.958390 kJ/mol
# Density = 2.210550 g / cm^3
# Si number density = 22.155928 Si / 1000 Ang^3
#
#
#
# Elastic Constant Matrix: (Units=GPa)
#
#
# Indices 1 2 3 4 5 6 
#
# 1 98.1202 48.8572 55.2111 16.5644 2.2625 -14.5763
# 2 48.8572 120.3415 72.8999 22.9490 -4.4622 -20.6269
# 3 55.2111 72.8999 136.3104 13.7131 2.2237 -8.2286
# 4 16.5644 22.9490 13.7131 48.2680 -5.4241 -9.5073
# 5 2.2625 -4.4622 2.2237 -5.4241 39.1908 7.2644
# 6 -14.5763 -20.6269 -8.2286 -9.5073 7.2644 33.4507
#
#
#
# Elastic Compliance Matrix: (Units=1/GPa)
#
#
# Indices 1 2 3 4 5 6 
#
# 1 0.014726 -0.002483 -0.004166 -0.002181 -0.001874 0.003648
# 2 -0.002483 0.014613 -0.006176 -0.003208 0.000724 0.005341
# 3 -0.004166 -0.006176 0.012157 0.000369 -0.000659 -0.002386
# 4 -0.002181 -0.003208 0.000369 0.023829 0.002405 0.003412
# 5 -0.001874 0.000724 -0.000659 0.002405 0.027142 -0.005743
# 6 0.003648 0.005341 -0.002386 0.003412 -0.005743 0.036408
#
#
# Mechanical properties :
#
#
# Convention : Reuss Voigt Hill
#
# Bulk Modulus (GPa) = 63.11381 78.74540 70.92961
# Shear Modulus (GPa) = 31.28786 36.03550 33.66168
#
# Velocity S-wave (km/s) = 3.76196 4.03730 3.90206
# Velocity P-wave (km/s) = 6.88606 7.57309 7.23773
#
# Compressibility (1/GPa) = 0.01584439
#
# Stress axis : x y z
#
# Youngs Moduli (GPa) = 67.90878 68.43187 82.26037
#
# Poissons Ratio (x) = 0.16990 0.34273
# Poissons Ratio (y) = 0.16860 0.50806
# Poissons Ratio (z) = 0.28294 0.42265
#
# Static dielectric constant tensor:
#      x y z
#    x 1.877010 0.012880 -0.021600 
#    y 0.012880 1.802560 -0.006340 
#    z -0.021600 -0.006340 1.849210 
# 
# From -- ./inp_files/56873.got.cif
#   From: 2010.05.17/outbox.cif.g08.bks.cpg/sg2_29_cif.got.tgz:56873.got - 2010.06.03 11:33:40.
