data_PCOD9038133
_publ_section_title
;
Structure prediction by ZEFSAII (Michael W. Deem and Ramdas Pophale) SiO2 
 PCOD9038133
Probable space group: P -1
;
_chemical_formula_sum "Si O2"
_cell_formula_units_Z 12
_cell_length_a 12.517901
_cell_length_b 7.019094
_cell_length_c 8.291155
_cell_angle_alpha 57.955809
_cell_angle_beta 73.418370
_cell_angle_gamma 111.697779
_cell_volume 454.014084
_symmetry_space_group_name_H-M "P -1"
_symmetry_group_IT_number 2
_symmetry_cell_setting 'triclinic'
loop_
_space_group_symop_operation_xyz
x,y,z
-x,-y,-z
loop_
_atom_site_type_symbol
_atom_site_label
_atom_site_fract_x
_atom_site_fract_y
_atom_site_fract_z
Si Si1 0.149077 0.887449 0.954145
Si Si2 0.555341 0.718168 0.222656
Si Si3 0.334826 0.384639 0.194052
Si Si4 0.919887 0.850696 0.378618
Si Si5 0.919900 0.244267 0.433705
Si Si6 0.387675 0.861016 0.757714
O O1 0.997985 0.572787 0.202562
O O2 0.247749 0.850008 0.810045
O O3 0.270722 0.076279 0.953273
O O4 0.118862 0.090216 0.799733
O O5 0.500000 0.500000 0.500000
O O6 0.479134 0.557416 0.161175
O O7 0.532183 0.938024 0.206410
O O8 0.338335 0.548856 0.964917
O O9 0.231658 0.391358 0.359086
O O10 0.250709 0.037771 0.369020
O O11 0.018797 0.771173 0.417455
O O12 0.981249 0.145179 0.318903
O O13 0.500000 0.000000 0.500000
#
# Coordination Sequence:
#
# PCOD9038133 Si02
#       6
#     2   2   2   2   2   2
#     4  10  18  30  54  79 109 134 178 222 266 313
#     4  10  19  33  52  83 107 134 181 226 265 309
#     4  10  17  33  53  79 107 135 177 228 262 307
#     4   9  15  27  48  79 105 126 172 223 266 296
#     4   9  17  29  51  80 107 132 178 227 264 307
#     4  10  21  34  52  79 112 146 176 212 273 329
#
# _framework density 26.430900999999999
#
# number of rings (size 3 to 8) (size 9 to 14) (size 15 to 20)
#    2.000    0.333    3.333    1.000    0.000    0.000 
#    0.000    3.333    0.000    1.000    0.000    2.333 
#    0.000    0.000    0.000    0.000    0.000    0.000 
#
# Total GULP energy -66912.579851 kJ/mol
# GULP energy per Si atom -5576.048321 kJ/mol
# Density = 2.637074 g / cm^3
# Si number density = 26.430901 Si / 1000 Ang^3
#
#
#
# Elastic Constant Matrix: (Units=GPa)
#
#
# Indices 1 2 3 4 5 6 
#
# 1 111.5059 35.8610 56.5012 -4.3872 1.5756 15.5144
# 2 35.8610 62.7877 24.8641 -11.0630 -6.8955 -1.2752
# 3 56.5012 24.8641 162.3335 -29.8914 -14.2429 -3.7798
# 4 -4.3872 -11.0630 -29.8914 44.1083 0.2390 -13.4797
# 5 1.5756 -6.8955 -14.2429 0.2390 31.6942 -0.4815
# 6 15.5144 -1.2752 -3.7798 -13.4797 -0.4815 37.1670
#
#
#
# Elastic Compliance Matrix: (Units=1/GPa)
#
#
# Indices 1 2 3 4 5 6 
#
# 1 0.016662 -0.009243 -0.006755 -0.008618 -0.005979 -0.011162
# 2 -0.009243 0.022773 0.002066 0.008621 0.006400 0.008059
# 3 -0.006755 0.002066 0.010554 0.009224 0.005571 0.007381
# 4 -0.008618 0.008621 0.009224 0.035645 0.006451 0.017842
# 5 -0.005979 0.006400 0.005571 0.006451 0.035788 0.006086
# 6 -0.011162 0.008059 0.007381 0.017842 0.006086 0.039142
#
#
# Mechanical properties :
#
#
# Convention : Reuss Voigt Hill
#
# Bulk Modulus (GPa) = 45.19926 63.45329 54.32628
# Shear Modulus (GPa) = 25.53558 37.22063 31.37810
#
# Velocity S-wave (km/s) = 3.11163 3.75670 3.44928
# Velocity P-wave (km/s) = 5.48158 6.54801 6.03838
#
# Compressibility (1/GPa) = 0.02212426
#
# Stress axis : x y z
#
# Youngs Moduli (GPa) = 60.01635 43.91074 94.75098
#
# Poissons Ratio (x) = 0.40588 0.64004
# Poissons Ratio (y) = 0.55475 -0.19572
# Poissons Ratio (z) = 0.40541 -0.09070
#
# Static dielectric constant tensor:
#      x y z
#    x 2.164530 -0.008440 -0.054630 
#    y -0.008440 2.124270 0.035520 
#    z -0.054630 0.035520 2.142090 
# 
# From -- ./inp_files/230363.got.cif
#   From: 2010.05.17/outbox.cif.g08.bks.cpg/sg2_116_cif.got.tgz:230363.got - 2010.06.03 11:33:40.
