data_PCOD9038488
_publ_section_title
;
Structure prediction by ZEFSAII (Michael W. Deem and Ramdas Pophale) SiO2 
 PCOD9038488
Probable space group: P -1
;
_chemical_formula_sum "Si O2"
_cell_formula_units_Z 16
_cell_length_a 23.124067
_cell_length_b 28.871689
_cell_length_c 11.816673
_cell_angle_alpha 31.535897
_cell_angle_beta 32.321744
_cell_angle_gamma 10.139676
_cell_volume 724.854057
_symmetry_space_group_name_H-M "P -1"
_symmetry_group_IT_number 2
_symmetry_cell_setting 'triclinic'
loop_
_space_group_symop_operation_xyz
x,y,z
-x,-y,-z
loop_
_atom_site_type_symbol
_atom_site_label
_atom_site_fract_x
_atom_site_fract_y
_atom_site_fract_z
Si Si1 0.290980 0.453532 0.937378
Si Si2 0.600790 0.668067 0.733073
Si Si3 0.683120 0.273073 0.523673
Si Si4 0.351533 0.214552 0.952157
Si Si5 0.886224 0.926081 0.645554
Si Si6 0.468426 0.389126 0.235190
Si Si7 0.821448 0.284960 0.758898
Si Si8 0.228692 0.285103 0.747096
O O1 0.607690 0.246362 0.783027
O O2 0.031181 0.728667 0.754198
O O3 0.325269 0.431060 0.062033
O O4 0.124674 0.487961 0.120543
O O5 0.721253 0.514028 0.752233
O O6 0.756189 0.644274 0.508943
O O7 0.204283 0.982642 0.726065
O O8 0.397804 0.516726 0.398707
O O9 0.807701 0.262989 0.406400
O O10 0.000000 0.000000 0.500000
O O11 0.322994 0.248116 0.792991
O O12 0.594601 0.103738 0.828065
O O13 0.000000 0.500000 0.000000
O O14 0.526553 0.981721 0.150451
O O15 0.721495 0.126548 0.422632
O O16 0.238595 0.602199 0.271867
O O17 0.674236 0.307444 0.004351
#
# Coordination Sequence:
#
# PCOD9038488 Si02
#       8
#     2   2   2   2   2   2   2   2
#     4  11  26  45  67  99 138 181 225 284 341 402
#     4  12  24  45  71  96 140 180 228 281 339 407
#     4  12  25  41  67  98 137 175 223 281 339 406
#     4  10  23  41  70 101 136 174 225 283 335 403
#     4  11  22  44  68  99 133 179 228 271 347 401
#     4  11  23  43  66  99 134 179 224 276 337 404
#     4  11  26  42  69  99 139 176 231 278 345 402
#     4  10  24  42  69 100 133 179 229 274 341 404
#
# _framework density 22.073408000000001
#
# number of rings (size 3 to 8) (size 9 to 14) (size 15 to 20)
#    0.000    1.000    2.500    3.375    8.750    0.000 
#    0.000    0.000    0.000    3.750    0.000    0.000 
#    0.000    0.000    0.000    0.000    0.000    0.000 
#
# Total GULP energy -89359.932289 kJ/mol
# GULP energy per Si atom -5584.995768 kJ/mol
# Density = 2.202317 g / cm^3
# Si number density = 22.073408 Si / 1000 Ang^3
#
#
#
# Elastic Constant Matrix: (Units=GPa)
#
#
# Indices 1 2 3 4 5 6 
#
# 1 100.4158 25.1973 42.8091 13.8015 -4.3301 -8.2946
# 2 25.1973 68.7005 32.3691 27.4642 -2.6130 0.6058
# 3 42.8091 32.3691 132.5301 17.7553 0.6373 16.0477
# 4 13.8015 27.4642 17.7553 39.5919 -5.4733 0.6044
# 5 -4.3301 -2.6130 0.6373 -5.4733 24.9316 1.5995
# 6 -8.2946 0.6058 16.0477 0.6044 1.5995 23.5985
#
#
#
# Elastic Compliance Matrix: (Units=1/GPa)
#
#
# Indices 1 2 3 4 5 6 
#
# 1 0.013325 -0.002421 -0.004547 -0.000838 0.001495 0.007758
# 2 -0.002421 0.022115 -0.002949 -0.013330 -0.001018 0.000997
# 3 -0.004547 -0.002949 0.010992 -0.001315 -0.001098 -0.008890
# 4 -0.000838 -0.013330 -0.001315 0.036289 0.006485 -0.000427
# 5 0.001495 -0.001018 -0.001098 0.006485 0.041824 -0.001702
# 6 0.007758 0.000997 -0.008890 -0.000427 -0.001702 0.051249
#
#
# Mechanical properties :
#
#
# Convention : Reuss Voigt Hill
#
# Bulk Modulus (GPa) = 37.59811 55.82193 46.71002
# Shear Modulus (GPa) = 24.45042 31.04245 27.74644
#
# Velocity S-wave (km/s) = 3.33180 3.75417 3.54928
# Velocity P-wave (km/s) = 5.64548 6.64348 6.16471
#
# Compressibility (1/GPa) = 0.02659708
#
# Stress axis : x y z
#
# Youngs Moduli (GPa) = 75.04556 45.21821 90.97175
#
# Poissons Ratio (x) = 0.10949 0.41367
# Poissons Ratio (y) = 0.18171 0.26829
# Poissons Ratio (z) = 0.34125 0.13336
#
# Static dielectric constant tensor:
#      x y z
#    x 1.778240 0.025160 0.011800 
#    y 0.025160 1.831850 0.015890 
#    z 0.011800 0.015890 1.805350 
# 
# From -- ./inp_files/308749.got.cif
#   From: 2010.05.17/outbox.cif.g08.bks.cpg/sg2_155_cif.got.tgz:308749.got - 2010.06.03 11:33:40.
