data_PCOD9038213
_publ_section_title
;
Structure prediction by ZEFSAII (Michael W. Deem and Ramdas Pophale) SiO2 
 PCOD9038213
Probable space group: P -1
;
_chemical_formula_sum "Si O2"
_cell_formula_units_Z 16
_cell_length_a 14.322971
_cell_length_b 11.105290
_cell_length_c 7.876977
_cell_angle_alpha 42.999050
_cell_angle_beta 71.528343
_cell_angle_gamma 95.171568
_cell_volume 702.999012
_symmetry_space_group_name_H-M "P -1"
_symmetry_group_IT_number 2
_symmetry_cell_setting 'triclinic'
loop_
_space_group_symop_operation_xyz
x,y,z
-x,-y,-z
loop_
_atom_site_type_symbol
_atom_site_label
_atom_site_fract_x
_atom_site_fract_y
_atom_site_fract_z
Si Si1 0.024430 0.224687 0.213217
Si Si2 0.686310 0.479710 0.648242
Si Si3 0.278260 0.121431 0.642404
Si Si4 0.154877 0.686855 0.294355
Si Si5 0.407905 0.789578 0.359056
Si Si6 0.837359 0.332498 0.294462
Si Si7 0.489084 0.783032 0.687888
Si Si8 0.034200 0.873436 0.991268
O O1 0.910556 0.243934 0.258595
O O2 0.057144 0.231622 0.991914
O O3 0.000000 0.000000 0.500000
O O4 0.116758 0.433606 0.033439
O O5 0.713347 0.709874 0.406423
O O6 0.793750 0.449888 0.659138
O O7 0.639178 0.374133 0.600253
O O8 0.597667 0.368268 0.967553
O O9 0.388912 0.200469 0.384177
O O10 0.161993 0.040923 0.687001
O O11 0.258500 0.920208 0.962069
O O12 0.129978 0.656765 0.537757
O O13 0.055669 0.706030 0.240014
O O14 0.298033 0.793911 0.495609
O O15 0.456617 0.737342 0.553256
O O16 0.500000 0.000000 0.000000
O O17 0.500000 0.000000 0.500000
O O18 0.000000 0.000000 0.000000
#
# Coordination Sequence:
#
# PCOD9038213 Si02
#       8
#     2   2   2   2   2   2   2   2
#     4  11  25  44  65  99 138 175 221 284 334 402
#     4  11  23  42  68  96 139 174 226 277 340 409
#     4  10  24  42  65 100 131 173 226 278 335 403
#     4   9  21  42  65  94 129 173 214 282 327 397
#     4  11  24  41  71 102 130 187 224 277 353 397
#     4  10  24  43  68  98 134 176 227 274 344 406
#     4  12  21  42  67  93 139 174 222 282 333 404
#     4  10  23  41  67  93 126 175 218 271 338 390
#
# _framework density 22.759632
#
# number of rings (size 3 to 8) (size 9 to 14) (size 15 to 20)
#    0.750    0.750    2.500    1.875    7.000    2.000 
#    2.250    1.250    0.000    0.000    0.000    0.000 
#    0.000    0.000    0.000    0.000    0.000    0.000 
#
# Total GULP energy -89242.695707 kJ/mol
# GULP energy per Si atom -5577.668482 kJ/mol
# Density = 2.270783 g / cm^3
# Si number density = 22.759632 Si / 1000 Ang^3
#
#
#
# Elastic Constant Matrix: (Units=GPa)
#
#
# Indices 1 2 3 4 5 6 
#
# 1 74.0942 21.7205 29.7455 -3.6610 -15.4426 -22.5842
# 2 21.7205 108.8224 26.8105 -10.8006 -2.2496 -22.4575
# 3 29.7455 26.8105 100.8956 -3.4746 -7.6561 -20.1062
# 4 -3.6610 -10.8006 -3.4746 37.6286 -6.7542 7.1247
# 5 -15.4426 -2.2496 -7.6561 -6.7542 35.0870 8.1254
# 6 -22.5842 -22.4575 -20.1062 7.1247 8.1254 47.0756
#
#
#
# Elastic Compliance Matrix: (Units=1/GPa)
#
#
# Indices 1 2 3 4 5 6 
#
# 1 0.018279 -0.001455 -0.003423 0.001136 0.006179 0.005375
# 2 -0.001455 0.010821 -0.001727 0.001995 -0.000763 0.003556
# 3 -0.003423 -0.001727 0.011916 -0.000154 0.000354 0.002586
# 4 0.001136 0.001995 -0.000154 0.029349 0.007230 -0.004259
# 5 0.006179 -0.000763 0.000354 0.007230 0.033600 -0.004142
# 6 0.005375 0.003556 0.002586 -0.004259 -0.004142 0.027981
#
#
# Mechanical properties :
#
#
# Convention : Reuss Voigt Hill
#
# Bulk Modulus (GPa) = 35.96403 48.92947 42.44675
# Shear Modulus (GPa) = 32.37794 37.66062 35.01928
#
# Velocity S-wave (km/s) = 3.77583 4.07223 3.92683
# Velocity P-wave (km/s) = 5.90298 6.60725 6.26502
#
# Compressibility (1/GPa) = 0.02780556
#
# Stress axis : x y z
#
# Youngs Moduli (GPa) = 54.70634 92.40980 83.91970
#
# Poissons Ratio (x) = 0.13450 0.28728
# Poissons Ratio (y) = 0.07962 0.14492
# Poissons Ratio (z) = 0.18727 0.15959
#
# Static dielectric constant tensor:
#      x y z
#    x 1.909930 0.010020 -0.044620 
#    y 0.010020 1.837110 -0.056430 
#    z -0.044620 -0.056430 1.987580 
# 
# From -- ./inp_files/306233.got.cif
#   From: 2010.05.17/outbox.cif.g08.bks.cpg/sg2_154_cif.got.tgz:306233.got - 2010.06.03 11:33:40.
