data_PCOD9038942
_publ_section_title
;
Structure prediction by ZEFSAII (Michael W. Deem and Ramdas Pophale) SiO2 
 PCOD9038942
Probable space group: P -1
;
_chemical_formula_sum "Si O2"
_cell_formula_units_Z 12
_cell_length_a 10.359986
_cell_length_b 10.879230
_cell_length_c 8.896967
_cell_angle_alpha 40.992760
_cell_angle_beta 135.210920
_cell_angle_gamma 131.372710
_cell_volume 446.051922
_symmetry_space_group_name_H-M "P -1"
_symmetry_group_IT_number 2
_symmetry_cell_setting 'triclinic'
loop_
_space_group_symop_operation_xyz
x,y,z
-x,-y,-z
loop_
_atom_site_type_symbol
_atom_site_label
_atom_site_fract_x
_atom_site_fract_y
_atom_site_fract_z
Si Si1 0.670107 0.641208 0.415766
Si Si2 0.286946 0.760249 0.267659
Si Si3 0.067294 0.015067 0.747184
Si Si4 0.575100 0.300620 0.096610
Si Si5 0.929927 0.282008 0.578283
Si Si6 0.648380 0.768212 0.718006
O O1 0.500000 0.500000 0.500000
O O2 0.757647 0.472041 0.576773
O O3 0.845716 0.815556 0.462006
O O4 0.549482 0.750918 0.108396
O O5 0.187135 0.814982 0.283697
O O6 0.509544 0.824065 0.428978
O O7 0.196003 0.866429 0.970943
O O8 0.083749 0.174472 0.751969
O O9 0.859927 0.882282 0.744955
O O10 0.778484 0.264628 0.333481
O O11 0.445152 0.214648 0.212831
O O12 0.623716 0.536526 0.911765
O O13 0.000000 0.500000 0.500000
#
# Coordination Sequence:
#
# PCOD9038942 Si02
#       6
#     2   2   2   2   2   2
#     4  11  26  47  66  91 135 186 223 266 319 382
#     4  10  23  42  65 100 136 162 213 281 333 392
#     4  12  25  38  74 100 128 174 219 270 335 399
#     4   9  21  41  65  96 143 167 206 280 331 388
#     4  11  21  38  69 106 133 162 211 278 347 390
#     4   9  21  39  66 104 130 164 211 275 346 389
#
# _framework density 26.902697
#
# number of rings (size 3 to 8) (size 9 to 14) (size 15 to 20)
#    0.000    1.667    1.667    2.500    7.000    2.000 
#    0.000    4.167    0.000    0.000    0.000    0.000 
#    0.000    0.000    0.000    0.000    0.000    0.000 
#
# Total GULP energy -66920.534202 kJ/mol
# GULP energy per Si atom -5576.711183 kJ/mol
# Density = 2.684147 g / cm^3
# Si number density = 26.902697 Si / 1000 Ang^3
#
#
#
# Elastic Constant Matrix: (Units=GPa)
#
#
# Indices 1 2 3 4 5 6 
#
# 1 79.5648 12.8812 31.5978 -7.3726 0.0721 27.3815
# 2 12.8812 154.5305 53.1045 -27.2736 0.2909 55.8943
# 3 31.5978 53.1045 146.5604 3.1011 28.1174 16.1581
# 4 -7.3726 -27.2736 3.1011 46.9760 0.8866 1.8940
# 5 0.0721 0.2909 28.1174 0.8866 35.2169 -0.9404
# 6 27.3815 55.8943 16.1581 1.8940 -0.9404 44.2946
#
#
#
# Elastic Compliance Matrix: (Units=1/GPa)
#
#
# Indices 1 2 3 4 5 6 
#
# 1 0.026522 0.015626 -0.009151 0.015071 0.005855 -0.033295
# 2 0.015626 0.027034 -0.010330 0.020352 0.006392 -0.040739
# 3 -0.009151 -0.010330 0.013029 -0.008679 -0.009703 0.014104
# 4 0.015071 0.020352 -0.008679 0.037293 0.004902 -0.033322
# 5 0.005855 0.006392 -0.009703 0.004902 0.035752 -0.007596
# 6 -0.033295 -0.040739 0.014104 -0.033322 -0.007596 0.090685
#
#
# Mechanical properties :
#
#
# Convention : Reuss Voigt Hill
#
# Bulk Modulus (GPa) = 16.98518 63.98031 40.48275
# Shear Modulus (GPa) = 19.40619 44.16898 31.78759
#
# Velocity S-wave (km/s) = 2.68870 4.05632 3.44114
# Velocity P-wave (km/s) = 3.99576 6.76550 5.55599
#
# Compressibility (1/GPa) = 0.05887486
#
# Stress axis : x y z
#
# Youngs Moduli (GPa) = 37.70435 36.99040 76.75042
#
# Poissons Ratio (x) = -0.57800 0.70236
# Poissons Ratio (y) = -0.58916 0.79281
# Poissons Ratio (z) = 0.34504 0.38210
#
# Static dielectric constant tensor:
#      x y z
#    x 2.222760 -0.035700 -0.066240 
#    y -0.035700 2.244960 0.077460 
#    z -0.066240 0.077460 2.180810 
# 
# From -- ./inp_files/425346.got.cif
#   From: 2010.05.17/outbox.cif.g08.bks.cpg/sg2_213_cif.got.tgz:425346.got - 2010.06.03 11:33:40.
