data_PCOD9038009
_publ_section_title
;
Structure prediction by ZEFSAII (Michael W. Deem and Ramdas Pophale) SiO2 
 PCOD9038009
Probable space group: P -1
;
_chemical_formula_sum "Si O2"
_cell_formula_units_Z 16
_cell_length_a 9.189227
_cell_length_b 11.438937
_cell_length_c 16.866865
_cell_angle_alpha 47.504779
_cell_angle_beta 139.176601
_cell_angle_gamma 140.676418
_cell_volume 716.883356
_symmetry_space_group_name_H-M "P -1"
_symmetry_group_IT_number 2
_symmetry_cell_setting 'triclinic'
loop_
_space_group_symop_operation_xyz
x,y,z
-x,-y,-z
loop_
_atom_site_type_symbol
_atom_site_label
_atom_site_fract_x
_atom_site_fract_y
_atom_site_fract_z
Si Si1 0.446501 0.406675 0.704729
Si Si2 0.268376 0.566375 0.034618
Si Si3 0.871342 0.285451 0.516768
Si Si4 0.200377 0.840834 0.623222
Si Si5 0.793994 0.445391 0.686361
Si Si6 0.574715 0.881830 0.898480
Si Si7 0.528443 0.775435 0.501413
Si Si8 0.092486 0.281195 0.954291
O O1 0.516341 0.384557 0.832100
O O2 0.603322 0.371121 0.718061
O O3 0.550823 0.627392 0.631762
O O4 0.129929 0.274173 0.624373
O O5 0.358902 0.749789 0.934873
O O6 0.000000 0.500000 0.000000
O O7 0.211098 0.397094 0.030567
O O8 0.763100 0.251341 0.398741
O O9 0.648906 0.171252 0.543441
O O10 0.000000 0.500000 0.500000
O O11 0.431522 0.904981 0.753450
O O12 0.929447 0.669422 0.627583
O O13 0.220087 0.027713 0.514110
O O14 0.635583 0.342467 0.589182
O O15 0.026106 0.407889 0.814332
O O16 0.809922 0.082599 0.936620
O O17 0.710299 0.768826 0.979906
#
# Coordination Sequence:
#
# PCOD9038009 Si02
#       8
#     2   2   2   2   2   2   2   2
#     4  11  25  45  67  98 141 178 214 276 340 395
#     4  12  25  46  69  99 140 178 220 276 343 398
#     4  10  23  41  65  97 130 175 214 274 331 386
#     4  12  23  42  73  98 133 169 229 274 331 393
#     4  12  23  46  68  97 139 174 224 276 332 399
#     4  11  26  43  73 102 128 182 229 278 333 393
#     4  11  25  43  70  98 134 176 225 275 327 398
#     4  11  25  44  69 102 131 179 229 277 330 397
#
# _framework density 22.318833999999999
#
# number of rings (size 3 to 8) (size 9 to 14) (size 15 to 20)
#    0.000    0.750    6.250    1.125    5.250    1.000 
#    2.250    0.000    0.000    0.000    0.000    0.000 
#    0.000    0.000    0.000    0.000    0.000    0.000 
#
# Total GULP energy -89476.060753 kJ/mol
# GULP energy per Si atom -5592.253797 kJ/mol
# Density = 2.226804 g / cm^3
# Si number density = 22.318834 Si / 1000 Ang^3
#
#
#
# Elastic Constant Matrix: (Units=GPa)
#
#
# Indices 1 2 3 4 5 6 
#
# 1 55.7237 19.4611 4.0813 -2.0065 -9.4281 12.6118
# 2 19.4611 72.6799 10.9942 -3.9622 -18.8404 8.3576
# 3 4.0813 10.9942 88.5257 5.4072 -17.3565 -6.0470
# 4 -2.0065 -3.9622 5.4072 36.7042 -8.1846 -2.8106
# 5 -9.4281 -18.8404 -17.3565 -8.1846 32.9922 0.6383
# 6 12.6118 8.3576 -6.0470 -2.8106 0.6383 25.8162
#
#
#
# Elastic Compliance Matrix: (Units=1/GPa)
#
#
# Indices 1 2 3 4 5 6 
#
# 1 0.022246 -0.003502 -0.000429 0.001178 0.004614 -0.009820
# 2 -0.003502 0.018063 -0.000634 0.003765 0.009994 -0.004122
# 3 -0.000429 -0.000634 0.012837 -0.000372 0.006114 0.003230
# 4 0.001178 0.003765 -0.000372 0.030025 0.009717 0.001147
# 5 0.004614 0.009994 0.006114 0.009717 0.043041 -0.004064
# 6 -0.009820 -0.004122 0.003230 0.001147 -0.004064 0.045849
#
#
# Mechanical properties :
#
#
# Convention : Reuss Voigt Hill
#
# Bulk Modulus (GPa) = 22.71939 31.77807 27.24873
# Shear Modulus (GPa) = 25.52812 31.26204 28.39508
#
# Velocity S-wave (km/s) = 3.38567 3.74666 3.57073
# Velocity P-wave (km/s) = 5.04829 5.74332 5.40698
#
# Compressibility (1/GPa) = 0.04401526
#
# Stress axis : x y z
#
# Youngs Moduli (GPa) = 44.95222 55.36288 77.90177
#
# Poissons Ratio (x) = 0.19390 0.03340
# Poissons Ratio (y) = 0.15744 0.04938
# Poissons Ratio (z) = 0.01928 0.03509
#
# Static dielectric constant tensor:
#      x y z
#    x 1.880330 0.002250 0.048880 
#    y 0.002250 1.829980 -0.021300 
#    z 0.048880 -0.021300 1.921170 
# 
# From -- ./inp_files/500103.got.cif
#   From: 2010.05.17/outbox.cif.g08.bks.cpg/sg2_251_cif.got.tgz:500103.got - 2010.06.03 11:33:40.
