data_PCOD9038909
_publ_section_title
;
Structure prediction by ZEFSAII (Michael W. Deem and Ramdas Pophale) SiO2 
 PCOD9038909
Probable space group: P -1
;
_chemical_formula_sum "Si O2"
_cell_formula_units_Z 14
_cell_length_a 18.334606
_cell_length_b 9.074404
_cell_length_c 27.224616
_cell_angle_alpha 28.345837
_cell_angle_beta 161.581465
_cell_angle_gamma 147.900626
_cell_volume 677.268987
_symmetry_space_group_name_H-M "P -1"
_symmetry_group_IT_number 2
_symmetry_cell_setting 'triclinic'
loop_
_space_group_symop_operation_xyz
x,y,z
-x,-y,-z
loop_
_atom_site_type_symbol
_atom_site_label
_atom_site_fract_x
_atom_site_fract_y
_atom_site_fract_z
Si Si1 0.429285 0.171465 0.825699
Si Si2 0.508769 0.631261 0.830022
Si Si3 0.949602 0.310278 0.246371
Si Si4 0.315057 0.400031 0.867928
Si Si5 0.392839 0.148691 0.530622
Si Si6 0.845991 0.246201 0.671550
Si Si7 0.541233 0.726417 0.661324
O O1 0.415573 0.367684 0.809023
O O2 0.509449 0.408144 0.764518
O O3 0.188224 0.959491 0.730288
O O4 0.614638 0.916668 0.019437
O O5 0.353662 0.642107 0.776802
O O6 0.504418 0.947301 0.703863
O O7 0.757552 0.518163 0.038722
O O8 0.118104 0.155006 0.362050
O O9 0.107343 0.538278 0.314859
O O10 0.065582 0.329897 0.752608
O O11 0.500000 0.500000 0.000000
O O12 0.500000 0.500000 0.500000
O O13 0.443242 0.980775 0.561056
O O14 0.618038 0.316221 0.475643
O O15 0.792770 0.885894 0.759937
#
# Coordination Sequence:
#
# PCOD9038909 Si02
#       7
#     2   2   2   2   2   2   2
#     4  10  23  42  64  96 127 169 221 269 326 381
#     4  10  24  42  65 102 128 162 226 274 318 387
#     4  11  22  42  67  96 128 170 216 273 321 386
#     4  11  21  40  65  96 129 168 216 267 324 389
#     4  11  24  44  68  93 127 175 219 265 331 383
#     4  11  23  42  61  93 138 168 213 268 325 392
#     4  10  25  43  60  95 134 169 220 268 322 396
#
# _framework density 20.671254999999999
#
# number of rings (size 3 to 8) (size 9 to 14) (size 15 to 20)
#    0.000    1.429    4.286    1.714    6.000    4.000 
#    0.000    0.000    0.000    0.000    0.000    0.000 
#    0.000    0.000    0.000    0.000    0.000    0.000 
#
# Total GULP energy -78130.269771 kJ/mol
# GULP energy per Si atom -5580.733555 kJ/mol
# Density = 2.062421 g / cm^3
# Si number density = 20.671255 Si / 1000 Ang^3
#
#
#
# Elastic Constant Matrix: (Units=GPa)
#
#
# Indices 1 2 3 4 5 6 
#
# 1 90.0139 -0.6901 1.3350 -9.3590 -36.4288 -7.2339
# 2 -0.6901 162.3428 91.6551 22.8819 9.9089 75.3452
# 3 1.3350 91.6551 120.8012 26.9214 39.5802 89.5758
# 4 -9.3590 22.8819 26.9214 44.3109 21.1343 30.0129
# 5 -36.4288 9.9089 39.5802 21.1343 73.8565 57.3496
# 6 -7.2339 75.3452 89.5758 30.0129 57.3496 115.8386
#
#
#
# Elastic Compliance Matrix: (Units=1/GPa)
#
#
# Indices 1 2 3 4 5 6 
#
# 1 0.016289 0.003643 -0.003379 0.001032 0.013467 -0.005674
# 2 0.003643 0.013636 -0.008282 -0.001414 0.010174 -0.006908
# 3 -0.003379 -0.008282 0.024922 -0.001675 -0.004587 -0.011391
# 4 0.001032 -0.001414 -0.001675 0.028610 -0.004231 -0.003038
# 5 0.013467 0.010174 -0.004587 -0.004231 0.037959 -0.019926
# 6 -0.005674 -0.006908 -0.011391 -0.003038 -0.019926 0.032232
#
#
# Mechanical properties :
#
#
# Convention : Reuss Voigt Hill
#
# Bulk Modulus (GPa) = 25.76688 61.97311 43.87000
# Shear Modulus (GPa) = 27.37931 65.52507 46.45219
#
# Velocity S-wave (km/s) = 3.64333 5.63626 4.74559
# Velocity P-wave (km/s) = 5.49460 8.50894 7.16215
#
# Compressibility (1/GPa) = 0.03880951
#
# Stress axis : x y z
#
# Youngs Moduli (GPa) = 61.39181 73.33798 40.12547
#
# Poissons Ratio (x) = -0.26716 0.13559
# Poissons Ratio (y) = -0.22364 0.33232
# Poissons Ratio (z) = 0.20745 0.60739
#
# Static dielectric constant tensor:
#      x y z
#    x 1.783290 0.043340 0.011540 
#    y 0.043340 1.746960 -0.006460 
#    z 0.011540 -0.006460 1.736580 
# 
# From -- ./inp_files/154338.got.cif
#   From: 2010.05.17/outbox.cif.g08.bks.cpg/sg2_78_cif.got.tgz:154338.got - 2010.06.03 11:33:40.
