data_PCOD9038096
_publ_section_title
;
Structure prediction by ZEFSAII (Michael W. Deem and Ramdas Pophale) SiO2 
 PCOD9038096
Probable space group: P -1
;
_chemical_formula_sum "Si O2"
_cell_formula_units_Z 16
_cell_length_a 7.934915
_cell_length_b 21.314328
_cell_length_c 10.854067
_cell_angle_alpha 29.107564
_cell_angle_beta 51.984933
_cell_angle_gamma 50.038410
_cell_volume 677.044437
_symmetry_space_group_name_H-M "P -1"
_symmetry_group_IT_number 2
_symmetry_cell_setting 'triclinic'
loop_
_space_group_symop_operation_xyz
x,y,z
-x,-y,-z
loop_
_atom_site_type_symbol
_atom_site_label
_atom_site_fract_x
_atom_site_fract_y
_atom_site_fract_z
Si Si1 0.937455 0.440879 0.827808
Si Si2 0.084900 0.026474 0.577433
Si Si3 0.625629 0.534644 0.498120
Si Si4 0.630677 0.700410 0.413602
Si Si5 0.732523 0.667427 0.691496
Si Si6 0.303925 0.717608 0.942903
Si Si7 0.326699 0.050548 0.189026
Si Si8 0.836695 0.920447 0.267504
O O1 0.842142 0.569992 0.558499
O O2 0.864938 0.514438 0.864590
O O3 0.193990 0.397240 0.756675
O O4 0.813190 0.330713 0.039045
O O5 0.200766 0.867386 0.777242
O O6 0.140831 0.070067 0.611714
O O7 0.823851 0.037428 0.654989
O O8 0.195431 0.091151 0.307357
O O9 0.500000 0.500000 0.500000
O O10 0.492920 0.637055 0.486978
O O11 0.723351 0.388294 0.762889
O O12 0.579946 0.717023 0.552245
O O13 0.675389 0.829971 0.109940
O O14 0.563105 0.689096 0.842887
O O15 0.888287 0.766043 0.466629
O O16 0.582506 0.983068 0.227037
O O17 0.000000 0.000000 0.000000
#
# Coordination Sequence:
#
# PCOD9038096 Si02
#       8
#     2   2   2   2   2   2   2   2
#     4   9  21  41  66  93 125 168 218 262 334 388
#     4  11  25  42  71 100 129 178 223 280 335 389
#     4  11  23  36  66  98 124 171 218 275 331 391
#     4   9  21  39  66  91 128 168 222 267 325 395
#     4  10  23  41  66  94 127 177 218 265 346 383
#     4  11  21  44  69  90 131 169 220 280 325 398
#     4  11  23  45  67  96 133 174 230 269 325 410
#     4  12  27  43  66  98 139 179 219 279 335 395
#
# _framework density 23.632128999999999
#
# number of rings (size 3 to 8) (size 9 to 14) (size 15 to 20)
#    0.750    0.750    1.250    4.500    3.500    2.000 
#    0.000    0.625    0.000    0.000    0.000    0.000 
#    0.000    0.000    0.000    0.000    0.000    0.000 
#
# Total GULP energy -89261.836443 kJ/mol
# GULP energy per Si atom -5578.864778 kJ/mol
# Density = 2.357834 g / cm^3
# Si number density = 23.632129 Si / 1000 Ang^3
#
#
#
# Elastic Constant Matrix: (Units=GPa)
#
#
# Indices 1 2 3 4 5 6 
#
# 1 76.6831 24.2871 3.3416 -0.5577 -20.5442 10.0605
# 2 24.2871 69.6807 5.4909 -12.0825 -5.7564 15.0108
# 3 3.3416 5.4909 81.5324 -1.8210 -9.7615 -2.4146
# 4 -0.5577 -12.0825 -1.8210 32.7180 3.3373 -10.9604
# 5 -20.5442 -5.7564 -9.7615 3.3373 30.9070 -1.0379
# 6 10.0605 15.0108 -2.4146 -10.9604 -1.0379 38.0664
#
#
#
# Elastic Compliance Matrix: (Units=1/GPa)
#
#
# Indices 1 2 3 4 5 6 
#
# 1 0.018288 -0.005416 0.000826 -0.004003 0.011724 -0.003478
# 2 -0.005416 0.018050 -0.001162 0.005203 -0.001311 -0.004298
# 3 0.000826 -0.001162 0.012881 0.000272 0.004414 0.001256
# 4 -0.004003 0.005203 0.000272 0.036066 -0.005189 0.009267
# 5 0.011724 -0.001311 0.004414 -0.005189 0.041769 -0.002657
# 6 -0.003478 -0.004298 0.001256 0.009267 -0.002657 0.031559
#
#
# Mechanical properties :
#
#
# Convention : Reuss Voigt Hill
#
# Bulk Modulus (GPa) = 26.51294 32.68170 29.59732
# Shear Modulus (GPa) = 27.36897 33.32339 30.34618
#
# Velocity S-wave (km/s) = 3.40682 3.75919 3.58733
# Velocity P-wave (km/s) = 5.16900 5.71851 5.45069
#
# Compressibility (1/GPa) = 0.03771743
#
# Stress axis : x y z
#
# Youngs Moduli (GPa) = 54.68002 55.40144 77.63268
#
# Poissons Ratio (x) = 0.30004 -0.06416
# Poissons Ratio (y) = 0.29613 0.09019
# Poissons Ratio (z) = -0.04519 0.06436
#
# Static dielectric constant tensor:
#      x y z
#    x 0.179170 0.803070 -0.632660 
#    y 0.803070 1.610200 0.243400 
#    z -0.632660 0.243400 1.629700 
# 
# From -- ./inp_files/405250.got.cif
#   From: 2010.05.17/outbox.cif.g08.bks.cpg/sg2_203_cif.got.tgz:405250.got - 2010.06.03 11:33:40.
