data_PCOD9038323
_publ_section_title
;
Structure prediction by ZEFSAII (Michael W. Deem and Ramdas Pophale) SiO2 
 PCOD9038323
Probable space group: P -1
;
_chemical_formula_sum "Si O2"
_cell_formula_units_Z 12
_cell_length_a 11.201302
_cell_length_b 10.378886
_cell_length_c 9.834936
_cell_angle_alpha 140.895455
_cell_angle_beta 114.555580
_cell_angle_gamma 55.858056
_cell_volume 596.442504
_symmetry_space_group_name_H-M "P -1"
_symmetry_group_IT_number 2
_symmetry_cell_setting 'triclinic'
loop_
_space_group_symop_operation_xyz
x,y,z
-x,-y,-z
loop_
_atom_site_type_symbol
_atom_site_label
_atom_site_fract_x
_atom_site_fract_y
_atom_site_fract_z
Si Si1 0.445751 0.671571 0.459418
Si Si2 0.271502 0.290811 0.278052
Si Si3 0.188020 0.930152 0.386355
Si Si4 0.616104 0.196072 0.161395
Si Si5 0.155753 0.980036 0.095143
Si Si6 0.052759 0.635448 0.243061
O O1 0.606521 0.655929 0.545609
O O2 0.352369 0.842927 0.442972
O O3 0.470676 0.413948 0.234571
O O4 0.362433 0.759462 0.634741
O O5 0.164811 0.473901 0.274638
O O6 0.365550 0.058212 0.052133
O O7 0.177582 0.208955 0.267509
O O8 0.126915 0.768282 0.300308
O O9 0.185220 0.910945 0.208068
O O10 0.084305 0.179084 0.591432
O O11 0.734522 0.188693 0.100792
O O12 0.000000 0.000000 0.000000
O O13 0.000000 0.500000 0.000000
#
# Coordination Sequence:
#
# PCOD9038323 Si02
#       6
#     2   2   2   2   2   2
#     4  11  21  41  68  95 125 175 213 265 314 388
#     4  10  23  41  68  91 127 172 216 258 318 386
#     4  11  26  40  65  99 132 164 218 269 322 375
#     4   9  22  40  66  93 129 167 215 258 321 377
#     4  10  24  44  63  95 137 167 208 274 324 378
#     4  11  23  42  67  96 128 174 220 262 310 388
#
# _framework density 20.119289999999999
#
# number of rings (size 3 to 8) (size 9 to 14) (size 15 to 20)
#    1.000    0.667    0.000    4.500    7.000    3.333 
#    3.000    0.000    0.000    0.000    0.000    0.000 
#    0.000    0.000    0.000    0.000    0.000    0.000 
#
# Total GULP energy -66900.958472 kJ/mol
# GULP energy per Si atom -5575.079873 kJ/mol
# Density = 2.007350 g / cm^3
# Si number density = 20.119290 Si / 1000 Ang^3
#
#
#
# Elastic Constant Matrix: (Units=GPa)
#
#
# Indices 1 2 3 4 5 6 
#
# 1 79.5469 68.8845 38.1293 -16.1319 5.6200 -7.6135
# 2 68.8845 174.0552 60.7834 -17.0239 -0.2860 -22.4052
# 3 38.1293 60.7834 83.3703 3.0332 -1.7655 -18.9823
# 4 -16.1319 -17.0239 3.0332 47.7092 0.2420 -2.5266
# 5 5.6200 -0.2860 -1.7655 0.2420 33.4360 -5.1652
# 6 -7.6135 -22.4052 -18.9823 -2.5266 -5.1652 36.1367
#
#
#
# Elastic Compliance Matrix: (Units=1/GPa)
#
#
# Indices 1 2 3 4 5 6 
#
# 1 0.022479 -0.006452 -0.006559 0.005581 -0.004682 -0.002989
# 2 -0.006452 0.010239 -0.003791 0.001882 0.001474 0.003340
# 3 -0.006559 -0.003791 0.019503 -0.004474 0.003160 0.006651
# 4 0.005581 0.001882 -0.004474 0.023889 -0.001099 0.001506
# 5 -0.004682 0.001474 0.003160 -0.001099 0.031818 0.006059
# 6 -0.002989 0.003340 0.006651 0.001506 0.006059 0.033579
#
#
# Mechanical properties :
#
#
# Convention : Reuss Voigt Hill
#
# Bulk Modulus (GPa) = 53.71841 74.72963 64.22402
# Shear Modulus (GPa) = 27.57588 34.73474 31.15531
#
# Velocity S-wave (km/s) = 3.70620 4.15955 3.93940
# Velocity P-wave (km/s) = 6.71361 7.76486 7.25829
#
# Compressibility (1/GPa) = 0.01861559
#
# Stress axis : x y z
#
# Youngs Moduli (GPa) = 44.48521 97.66302 51.27534
#
# Poissons Ratio (x) = 0.63016 0.33633
# Poissons Ratio (y) = 0.28704 0.19439
# Poissons Ratio (z) = 0.29180 0.37024
#
# Static dielectric constant tensor:
#      x y z
#    x 1.764220 0.009520 0.029400 
#    y 0.009520 1.720990 0.050660 
#    z 0.029400 0.050660 1.725540 
# 
# From -- ./inp_files/246105.got.cif
#   From: 2010.05.17/outbox.cif.g08.bks.cpg/sg2_124_cif.got.tgz:246105.got - 2010.06.03 11:33:40.
