data_PCOD9038500
_publ_section_title
;
Structure prediction by ZEFSAII (Michael W. Deem and Ramdas Pophale) SiO2 
 PCOD9038500
Probable space group: P -1
;
_chemical_formula_sum "Si O2"
_cell_formula_units_Z 14
_cell_length_a 5.430423
_cell_length_b 11.049316
_cell_length_c 20.492967
_cell_angle_alpha 148.013892
_cell_angle_beta 118.369872
_cell_angle_gamma 65.801360
_cell_volume 573.060296
_symmetry_space_group_name_H-M "P -1"
_symmetry_group_IT_number 2
_symmetry_cell_setting 'triclinic'
loop_
_space_group_symop_operation_xyz
x,y,z
-x,-y,-z
loop_
_atom_site_type_symbol
_atom_site_label
_atom_site_fract_x
_atom_site_fract_y
_atom_site_fract_z
Si Si1 0.897749 0.361867 0.987453
Si Si2 0.905167 0.900826 0.513460
Si Si3 0.410005 0.338161 0.823975
Si Si4 0.605893 0.366079 0.727112
Si Si5 0.443100 0.389787 0.290631
Si Si6 0.048028 0.158576 0.239458
Si Si7 0.543944 0.186452 0.419909
O O1 0.584565 0.300868 0.895084
O O2 0.020091 0.111067 0.898240
O O3 0.857678 0.524233 0.119468
O O4 0.000000 0.500000 0.000000
O O5 0.693683 0.710142 0.375400
O O6 0.123464 0.781625 0.537685
O O7 0.774104 0.124664 0.633877
O O8 0.000000 0.000000 0.500000
O O9 0.554788 0.460853 0.837014
O O10 0.409953 0.080851 0.679326
O O11 0.689083 0.551443 0.769113
O O12 0.216192 0.248844 0.238970
O O13 0.491054 0.630636 0.444094
O O14 0.747639 0.271600 0.268917
O O15 0.285366 0.202767 0.345774
#
# Coordination Sequence:
#
# PCOD9038500 Si02
#       7
#     2   2   2   2   2   2   2
#     4  10  25  48  73  96 128 175 246 310 335 396
#     4  11  20  38  64 101 148 178 236 281 341 419
#     4  10  23  41  70 103 126 176 240 299 348 391
#     4  11  23  38  65 103 143 189 223 287 351 415
#     4  12  25  45  66 105 154 189 220 276 348 455
#     4  11  28  45  72  99 145 192 237 275 353 418
#     4  11  22  42  71 105 141 180 230 286 353 406
#
# _framework density 24.430237999999999
#
# number of rings (size 3 to 8) (size 9 to 14) (size 15 to 20)
#    0.000    1.143    2.857    2.571    8.000    2.286 
#    0.000    1.429    0.000    0.000    0.000    0.000 
#    0.000    0.000    0.000    0.000    0.000    0.000 
#
# Total GULP energy -78052.240554 kJ/mol
# GULP energy per Si atom -5575.160040 kJ/mol
# Density = 2.437463 g / cm^3
# Si number density = 24.430238 Si / 1000 Ang^3
#
#
#
# Elastic Constant Matrix: (Units=GPa)
#
#
# Indices 1 2 3 4 5 6 
#
# 1 128.1830 50.9070 34.1994 20.5752 -38.7744 7.6958
# 2 50.9070 110.4402 54.6920 8.3070 -21.4550 -9.1057
# 3 34.1994 54.6920 113.9664 22.1594 -26.2629 6.4954
# 4 20.5752 8.3070 22.1594 40.4302 -9.8222 -1.5477
# 5 -38.7744 -21.4550 -26.2629 -9.8222 45.5565 -2.0732
# 6 7.6958 -9.1057 6.4954 -1.5477 -2.0732 56.8365
#
#
#
# Elastic Compliance Matrix: (Units=1/GPa)
#
#
# Indices 1 2 3 4 5 6 
#
# 1 0.012687 -0.004802 0.001387 -0.004309 0.008295 -0.002460
# 2 -0.004802 0.014467 -0.006334 0.003065 -0.000093 0.003772
# 3 0.001387 -0.006334 0.013802 -0.005921 0.004752 -0.002768
# 4 -0.004309 0.003065 -0.005921 0.029865 0.000920 0.002598
# 5 0.008295 -0.000093 0.004752 0.000920 0.031883 -0.000493
# 6 -0.002460 0.003772 -0.002768 0.002598 -0.000493 0.018901
#
#
# Mechanical properties :
#
#
# Convention : Reuss Voigt Hill
#
# Bulk Modulus (GPa) = 46.60275 70.24295 58.42285
# Shear Modulus (GPa) = 33.72537 42.75070 38.23803
#
# Velocity S-wave (km/s) = 3.71951 4.18773 3.96054
# Velocity P-wave (km/s) = 6.12891 7.22479 6.69930
#
# Compressibility (1/GPa) = 0.02145796
#
# Stress axis : x y z
#
# Youngs Moduli (GPa) = 78.82024 69.12083 72.45345
#
# Poissons Ratio (x) = 0.33193 -0.10050
# Poissons Ratio (y) = 0.37851 0.45893
# Poissons Ratio (z) = -0.10933 0.43782
#
# Static dielectric constant tensor:
#      x y z
#    x 2.190110 -0.056450 0.140690 
#    y -0.056450 1.960520 -0.043470 
#    z 0.140690 -0.043470 2.062880 
# 
# From -- ./inp_files/583396.got.cif
#   From: 2010.05.17/outbox.cif.g08.bks.cpg/sg2_292_cif.got.tgz:583396.got - 2010.06.03 11:33:40.
