data_PCOD9038306
_publ_section_title
;
Structure prediction by ZEFSAII (Michael W. Deem and Ramdas Pophale) SiO2 
 PCOD9038306
Probable space group: P -1
;
_chemical_formula_sum "Si O2"
_cell_formula_units_Z 16
_cell_length_a 15.645679
_cell_length_b 7.602989
_cell_length_c 7.209105
_cell_angle_alpha 74.224853
_cell_angle_beta 99.043412
_cell_angle_gamma 53.291109
_cell_volume 602.116701
_symmetry_space_group_name_H-M "P -1"
_symmetry_group_IT_number 2
_symmetry_cell_setting 'triclinic'
loop_
_space_group_symop_operation_xyz
x,y,z
-x,-y,-z
loop_
_atom_site_type_symbol
_atom_site_label
_atom_site_fract_x
_atom_site_fract_y
_atom_site_fract_z
Si Si1 0.300755 0.515880 0.183282
Si Si2 0.822907 0.861454 0.755731
Si Si3 0.282796 0.968818 0.968347
Si Si4 0.024036 0.454072 0.698537
Si Si5 0.483295 0.216974 0.028083
Si Si6 0.058592 0.760273 0.558944
Si Si7 0.037737 0.790652 0.919510
Si Si8 0.706716 0.390611 0.422975
O O1 0.285048 0.748616 0.049615
O O2 0.322413 0.494011 0.416356
O O3 0.413522 0.290653 0.172917
O O4 0.179001 0.592136 0.069958
O O5 0.895939 0.625830 0.714189
O O6 0.926736 0.805124 0.936881
O O7 0.722256 0.949872 0.841746
O O8 0.769534 0.104466 0.548983
O O9 0.388939 0.878268 0.902573
O O10 0.161002 0.209933 0.782683
O O11 0.055250 0.614096 0.781051
O O12 0.985425 0.359487 0.538258
O O13 0.402115 0.452710 0.795229
O O14 0.500000 0.000000 0.000000
O O15 0.192972 0.619614 0.618494
O O16 0.991278 0.026744 0.337674
O O17 0.000000 0.000000 0.000000
#
# Coordination Sequence:
#
# PCOD9038306 Si02
#       8
#     2   2   2   2   2   2   2   2
#     4  11  25  43  73 101 128 185 228 275 342 407
#     4  10  23  41  68 102 135 180 216 281 347 400
#     4  11  25  46  64 100 138 174 228 274 342 404
#     4  11  25  39  64 105 140 172 219 279 343 403
#     4  12  28  49  69  93 138 183 227 288 331 395
#     4  11  20  37  65  96 138 177 219 272 333 401
#     4  11  18  36  68 104 133 168 223 271 341 402
#     4  11  22  43  72  97 129 176 239 265 333 409
#
# _framework density 26.572921000000001
#
# number of rings (size 3 to 8) (size 9 to 14) (size 15 to 20)
#    0.000    1.000    6.250    1.500    5.250    3.500 
#    4.500    0.000    0.000    0.000    0.000    0.000 
#    0.000    0.000    0.000    0.000    0.000    0.000 
#
# Total GULP energy -89366.819741 kJ/mol
# GULP energy per Si atom -5585.426234 kJ/mol
# Density = 2.651244 g / cm^3
# Si number density = 26.572921 Si / 1000 Ang^3
#
#
#
# Elastic Constant Matrix: (Units=GPa)
#
#
# Indices 1 2 3 4 5 6 
#
# 1 128.6095 63.4391 15.4767 10.8691 -8.5933 -25.7528
# 2 63.4391 211.4436 42.9518 36.1751 5.5644 -28.0658
# 3 15.4767 42.9518 58.2052 20.7446 21.5426 -27.9455
# 4 10.8691 36.1751 20.7446 58.6254 5.5852 -2.0907
# 5 -8.5933 5.5644 21.5426 5.5852 30.6025 6.9907
# 6 -25.7528 -28.0658 -27.9455 -2.0907 6.9907 62.4971
#
#
#
# Elastic Compliance Matrix: (Units=1/GPa)
#
#
# Indices 1 2 3 4 5 6 
#
# 1 0.009800 -0.002532 -0.000940 -0.000174 0.003428 0.002092
# 2 -0.002532 0.006644 -0.003802 -0.002397 0.001189 0.000027
# 3 -0.000940 -0.003802 0.049580 -0.010546 -0.038027 0.023976
# 4 -0.000174 -0.002397 -0.010546 0.021603 0.005174 -0.005720
# 5 0.003428 0.001189 -0.038027 0.005174 0.064291 -0.022076
# 6 0.002092 0.000027 0.023976 -0.005720 -0.022076 0.029873
#
#
# Mechanical properties :
#
#
# Convention : Reuss Voigt Hill
#
# Bulk Modulus (GPa) = 19.42643 71.33261 45.37952
# Shear Modulus (GPa) = 23.41928 48.77103 36.09515
#
# Velocity S-wave (km/s) = 2.97193 4.28876 3.68957
# Velocity P-wave (km/s) = 4.37069 7.17127 5.93843
#
# Compressibility (1/GPa) = 0.05147626
#
# Stress axis : x y z
#
# Youngs Moduli (GPa) = 102.03844 150.51396 20.16926
#
# Poissons Ratio (x) = 0.38115 0.01895
# Poissons Ratio (y) = 0.25839 0.07669
# Poissons Ratio (z) = 0.09587 0.57230
#
# Static dielectric constant tensor:
#      x y z
#    x 2.019880 0.063390 0.076580 
#    y 0.063390 2.065300 0.103720 
#    z 0.076580 0.103720 1.284990 
# 
# From -- ./inp_files/294862.got.cif
#   From: 2010.05.17/outbox.cif.g08.bks.cpg/sg2_148_cif.got.tgz:294862.got - 2010.06.03 11:33:40.
