data_PCOD9038243
_publ_section_title
;
Structure prediction by ZEFSAII (Michael W. Deem and Ramdas Pophale) SiO2 
 PCOD9038243
Probable space group: P -1
;
_chemical_formula_sum "Si O2"
_cell_formula_units_Z 16
_cell_length_a 11.882771
_cell_length_b 9.166671
_cell_length_c 8.831531
_cell_angle_alpha 61.010512
_cell_angle_beta 97.863682
_cell_angle_gamma 117.442743
_cell_volume 742.109149
_symmetry_space_group_name_H-M "P -1"
_symmetry_group_IT_number 2
_symmetry_cell_setting 'triclinic'
loop_
_space_group_symop_operation_xyz
x,y,z
-x,-y,-z
loop_
_atom_site_type_symbol
_atom_site_label
_atom_site_fract_x
_atom_site_fract_y
_atom_site_fract_z
Si Si1 0.506279 0.833003 0.675086
Si Si2 0.175199 0.249605 0.653597
Si Si3 0.005606 0.846258 0.760186
Si Si4 0.647410 0.412265 0.967485
Si Si5 0.864010 0.505229 0.722312
Si Si6 0.547662 0.540165 0.317115
Si Si7 0.945404 0.194925 0.861123
Si Si8 0.239943 0.163803 0.163173
O O1 0.460332 0.651501 0.652096
O O2 0.649501 0.879730 0.729244
O O3 0.500000 0.000000 0.500000
O O4 0.415373 0.759471 0.842689
O O5 0.193091 0.411755 0.456953
O O6 0.308245 0.300865 0.730381
O O7 0.066973 0.231883 0.762137
O O8 0.119924 0.051206 0.657504
O O9 0.987681 0.684274 0.721980
O O10 0.872918 0.861621 0.727963
O O11 0.019490 0.790626 0.962965
O O12 0.765534 0.424246 0.884938
O O13 0.541206 0.406156 0.832813
O O14 0.693906 0.611279 0.964876
O O15 0.897921 0.348788 0.742450
O O16 0.500000 0.500000 0.500000
O O17 0.836254 0.988179 0.902724
#
# Coordination Sequence:
#
# PCOD9038243 Si02
#       8
#     2   2   2   2   2   2   2   2
#     4  11  26  44  69  99 134 174 218 278 337 388
#     4  11  23  41  68  95 132 176 224 261 329 399
#     4  10  23  41  67  96 127 177 224 266 325 391
#     4  10  23  44  70  93 135 179 217 273 327 399
#     4  11  23  44  61 100 138 167 215 282 333 378
#     4  11  23  44  70 101 129 174 228 267 324 400
#     4  11  24  40  68  98 129 177 220 275 325 387
#     4   9  20  41  67  92 129 169 223 262 322 395
#
# _framework density 21.560169999999999
#
# number of rings (size 3 to 8) (size 9 to 14) (size 15 to 20)
#    0.000    1.500    1.250    4.125   10.500    0.000 
#    2.250    1.250    0.000    0.000    0.000    0.000 
#    0.000    0.000    0.000    0.000    0.000    0.000 
#
# Total GULP energy -89501.630917 kJ/mol
# GULP energy per Si atom -5593.851932 kJ/mol
# Density = 2.151110 g / cm^3
# Si number density = 21.560170 Si / 1000 Ang^3
#
#
#
# Elastic Constant Matrix: (Units=GPa)
#
#
# Indices 1 2 3 4 5 6 
#
# 1 68.2119 50.4640 16.4836 -16.3599 -4.0587 27.6268
# 2 50.4640 97.4912 25.3344 -3.5069 -5.1331 13.3040
# 3 16.4836 25.3344 103.7419 -10.1086 -9.2096 4.1550
# 4 -16.3599 -3.5069 -10.1086 28.7333 -4.5368 2.9276
# 5 -4.0587 -5.1331 -9.2096 -4.5368 15.8728 -3.3096
# 6 27.6268 13.3040 4.1550 2.9276 -3.3096 29.7329
#
#
#
# Elastic Compliance Matrix: (Units=1/GPa)
#
#
# Indices 1 2 3 4 5 6 
#
# 1 0.063136 -0.024441 0.002945 0.040932 0.011026 -0.050942
# 2 -0.024441 0.021136 -0.003506 -0.014479 -0.002482 0.014892
# 3 0.002945 -0.003506 0.011470 0.006758 0.007667 -0.002582
# 4 0.040932 -0.014479 0.006758 0.065745 0.020855 -0.036650
# 5 0.011026 -0.002482 0.007667 0.020855 0.074602 -0.003955
# 6 -0.050942 0.014892 -0.002582 -0.036650 -0.003955 0.077832
#
#
# Mechanical properties :
#
#
# Convention : Reuss Voigt Hill
#
# Bulk Modulus (GPa) = 21.86402 50.44545 36.15474
# Shear Modulus (GPa) = 13.18658 26.67867 19.93263
#
# Velocity S-wave (km/s) = 2.47577 3.52149 3.04388
# Velocity P-wave (km/s) = 4.28200 6.32320 5.39993
#
# Compressibility (1/GPa) = 0.04573724
#
# Stress axis : x y z
#
# Youngs Moduli (GPa) = 15.83878 47.31242 87.18319
#
# Poissons Ratio (x) = 1.15638 -0.25671
# Poissons Ratio (y) = 0.38712 0.30563
# Poissons Ratio (z) = -0.04664 0.16586
#
# Static dielectric constant tensor:
#      x y z
#    x 1.771570 0.015940 -0.018460 
#    y 0.015940 1.776800 0.008580 
#    z -0.018460 0.008580 1.822900 
# 
# From -- ./inp_files/242590.got.cif
#   From: 2010.05.17/outbox.cif.g08.bks.cpg/sg2_122_cif.got.tgz:242590.got - 2010.06.03 11:33:40.
