data_PCOD9038422
_publ_section_title
;
Structure prediction by ZEFSAII (Michael W. Deem and Ramdas Pophale) SiO2 
 PCOD9038422
Probable space group: P -1
;
_chemical_formula_sum "Si O2"
_cell_formula_units_Z 13
_cell_length_a 10.627592
_cell_length_b 5.262988
_cell_length_c 9.320463
_cell_angle_alpha 85.109370
_cell_angle_beta 93.704820
_cell_angle_gamma 79.916850
_cell_volume 509.715842
_symmetry_space_group_name_H-M "P -1"
_symmetry_group_IT_number 2
_symmetry_cell_setting 'triclinic'
loop_
_space_group_symop_operation_xyz
x,y,z
-x,-y,-z
loop_
_atom_site_type_symbol
_atom_site_label
_atom_site_fract_x
_atom_site_fract_y
_atom_site_fract_z
Si Si1 0.344163 0.908502 0.242499
Si Si2 0.926090 0.850043 0.892865
Si Si3 0.681374 0.499891 0.383946
Si Si4 0.895740 0.608364 0.188698
Si Si5 0.521858 0.625430 0.841113
Si Si6 0.939977 0.259949 0.565443
Si Si7 0.500000 0.000000 0.500000
O O1 0.196380 0.999780 0.200679
O O2 0.425428 0.105550 0.157708
O O3 0.381566 0.611446 0.212818
O O4 0.376262 0.969034 0.402535
O O5 0.024376 0.680633 0.802218
O O6 0.868396 0.672946 0.016561
O O7 0.000000 0.000000 0.000000
O O8 0.765975 0.625487 0.267186
O O9 0.597017 0.331157 0.286705
O O10 0.790113 0.351066 0.507438
O O11 0.580942 0.724430 0.441356
O O12 0.995606 0.758241 0.270027
O O13 0.500000 0.500000 0.000000
O O14 0.000000 0.500000 0.500000
O O15 0.000000 0.000000 0.500000
#
# Coordination Sequence:
#
# PCOD9038422 Si02
#       7
#     2   2   2   2   2   2   1
#     4  11  26  46  71 102 148 184 248 299 366 434
#     4  11  26  44  73 105 141 196 245 309 370 434
#     4  10  23  45  74 105 150 188 249 296 372 442
#     4  10  24  45  68 107 145 190 241 309 370 436
#     4  11  25  44  73 106 139 195 237 304 362 437
#     4  10  23  41  69 107 145 190 237 298 367 438
#     4  10  24  50  72 112 142 206 238 308 362 442
#
# _framework density 25.504405999999999
#
# number of rings (size 3 to 8) (size 9 to 14) (size 15 to 20)
#    0.000    1.538    0.000    2.308   10.769    8.615 
#    2.769    0.000    0.000    0.000    0.000    0.000 
#    0.000    0.000    0.000    0.000    0.000    0.000 
#
# Total GULP energy -72485.992161 kJ/mol
# GULP energy per Si atom -5575.845551 kJ/mol
# Density = 2.544636 g / cm^3
# Si number density = 25.504406 Si / 1000 Ang^3
#
#
#
# Elastic Constant Matrix: (Units=GPa)
#
#
# Indices 1 2 3 4 5 6 
#
# 1 129.5287 32.0321 28.3988 -2.5279 25.6211 -4.7860
# 2 32.0321 110.7924 31.6882 15.3159 9.9923 -9.3685
# 3 28.3988 31.6882 108.7455 10.5879 22.9081 -15.6476
# 4 -2.5279 15.3159 10.5879 46.4609 -1.7521 1.5744
# 5 25.6211 9.9923 22.9081 -1.7521 49.3751 -16.8578
# 6 -4.7860 -9.3685 -15.6476 1.5744 -16.8578 38.3023
#
#
#
# Elastic Compliance Matrix: (Units=1/GPa)
#
#
# Indices 1 2 3 4 5 6 
#
# 1 0.009405 -0.002323 -0.001265 0.001464 -0.004426 -0.001918
# 2 -0.002323 0.010857 -0.002073 -0.003278 0.000492 0.001870
# 3 -0.001265 -0.002073 0.011440 -0.002210 -0.003425 0.002592
# 4 0.001464 -0.003278 -0.002210 0.023296 0.001070 -0.002008
# 5 -0.004426 0.000492 -0.003425 0.001070 0.027582 0.010263
# 6 -0.001918 0.001870 0.002592 -0.002008 0.010263 0.031984
#
#
# Mechanical properties :
#
#
# Convention : Reuss Voigt Hill
#
# Bulk Modulus (GPa) = 49.06569 59.25608 54.16088
# Shear Modulus (GPa) = 37.68500 43.95751 40.82126
#
# Velocity S-wave (km/s) = 3.84811 4.15604 4.00504
# Velocity P-wave (km/s) = 6.24691 6.80546 6.53216
#
# Compressibility (1/GPa) = 0.02038084
#
# Stress axis : x y z
#
# Youngs Moduli (GPa) = 106.32223 92.10564 87.41428
#
# Poissons Ratio (x) = 0.21393 0.11062
# Poissons Ratio (y) = 0.24695 0.18117
# Poissons Ratio (z) = 0.13455 0.19089
#
# Static dielectric constant tensor:
#      x y z
#    x 2.011500 0.160800 -0.178310 
#    y 0.160800 2.151930 -0.313040 
#    z -0.178310 -0.313040 2.256200 
# 
# From -- ./inp_files/229257.got.cif
#   From: 2010.05.17/outbox.cif.g08.bks.cpg/sg2_115_cif.got.tgz:229257.got - 2010.06.03 11:33:40.
