data_PCOD9038030
_publ_section_title
;
Structure prediction by ZEFSAII (Michael W. Deem and Ramdas Pophale) SiO2 
 PCOD9038030
Probable space group: P -1
;
_chemical_formula_sum "Si O2"
_cell_formula_units_Z 16
_cell_length_a 8.707588
_cell_length_b 10.471197
_cell_length_c 17.236995
_cell_angle_alpha 43.223732
_cell_angle_beta 34.092965
_cell_angle_gamma 60.007474
_cell_volume 580.962513
_symmetry_space_group_name_H-M "P -1"
_symmetry_group_IT_number 2
_symmetry_cell_setting 'triclinic'
loop_
_space_group_symop_operation_xyz
x,y,z
-x,-y,-z
loop_
_atom_site_type_symbol
_atom_site_label
_atom_site_fract_x
_atom_site_fract_y
_atom_site_fract_z
Si Si1 0.960436 0.291157 0.070444
Si Si2 0.505343 0.249082 0.878013
Si Si3 0.472985 0.099563 0.784518
Si Si4 0.699317 0.898281 0.565727
Si Si5 0.232892 0.696823 0.100011
Si Si6 0.241722 0.379401 0.458488
Si Si7 0.278952 0.452061 0.705278
Si Si8 0.796450 0.811505 0.731476
O O1 0.642602 0.152983 0.270414
O O2 0.000000 0.500000 0.000000
O O3 0.174718 0.176580 0.068248
O O4 0.077144 0.349410 0.907960
O O5 0.544498 0.160319 0.817778
O O6 0.732381 0.247427 0.849096
O O7 0.539039 0.475972 0.754460
O O8 0.408979 0.283484 0.691205
O O9 0.719680 0.020142 0.680836
O O10 0.222234 0.901464 0.976647
O O11 0.809935 0.819532 0.476323
O O12 0.745116 0.777293 0.677152
O O13 0.880595 0.123477 0.401820
O O14 0.965186 0.526297 0.261575
O O15 0.542656 0.679308 0.948665
O O16 0.437423 0.398415 0.445120
O O17 0.000000 0.500000 0.500000
#
# Coordination Sequence:
#
# PCOD9038030 Si02
#       8
#     2   2   2   2   2   2   2   2
#     4  10  17  33  53  77 103 143 184 219 251 319
#     4  10  20  33  56  83 105 143 175 225 274 304
#     4   8  17  34  52  77 110 138 178 211 262 320
#     4  11  17  35  53  79 106 139 182 220 259 314
#     4  10  19  33  51  87 113 131 179 222 273 313
#     4  10  21  36  58  78 105 138 188 218 260 324
#     4  10  18  32  57  81 104 143 181 219 260 310
#     4   9  21  29  56  80 108 138 171 224 268 309
#
# _framework density 27.540505
#
# number of rings (size 3 to 8) (size 9 to 14) (size 15 to 20)
#    0.750    1.750    3.750    2.250    0.000    0.000 
#    0.000    3.750    0.000    0.000    3.250    0.000 
#    0.000    0.000    0.000    0.000    0.000    0.000 
#
# Total GULP energy -89142.040726 kJ/mol
# GULP energy per Si atom -5571.377545 kJ/mol
# Density = 2.747782 g / cm^3
# Si number density = 27.540505 Si / 1000 Ang^3
#
#
#
# Elastic Constant Matrix: (Units=GPa)
#
#
# Indices 1 2 3 4 5 6 
#
# 1 116.8488 24.8533 50.2733 -2.4010 -40.8039 29.5431
# 2 24.8533 64.9712 22.7859 -9.6264 -10.6658 25.4579
# 3 50.2733 22.7859 142.5615 8.9682 -43.1233 14.3371
# 4 -2.4010 -9.6264 8.9682 39.9415 4.5431 -9.2185
# 5 -40.8039 -10.6658 -43.1233 4.5431 55.3654 -8.3661
# 6 29.5431 25.4579 14.3371 -9.2185 -8.3661 37.4465
#
#
#
# Elastic Compliance Matrix: (Units=1/GPa)
#
#
# Indices 1 2 3 4 5 6 
#
# 1 0.014418 -0.000311 -0.001522 -0.001924 0.008143 -0.009235
# 2 -0.000311 0.021816 -0.002221 0.002719 0.000048 -0.013055
# 3 -0.001522 -0.002221 0.010217 -0.003827 0.006622 -0.000664
# 4 -0.001924 0.002719 -0.003827 0.028646 -0.005163 0.007034
# 5 0.008143 0.000048 0.006622 -0.005163 0.029085 -0.003765
# 6 -0.009235 -0.013055 -0.000664 0.007034 -0.003765 0.044011
#
#
# Mechanical properties :
#
#
# Convention : Reuss Voigt Hill
#
# Bulk Modulus (GPa) = 26.08045 57.80074 41.94060
# Shear Modulus (GPa) = 29.57165 41.64861 35.61013
#
# Velocity S-wave (km/s) = 3.28037 3.89301 3.59974
# Velocity P-wave (km/s) = 4.88244 6.42187 5.70432
#
# Compressibility (1/GPa) = 0.03834289
#
# Stress axis : x y z
#
# Youngs Moduli (GPa) = 69.35791 45.83881 97.87879
#
# Poissons Ratio (x) = 0.01427 0.14893
# Poissons Ratio (y) = 0.02159 0.21737
# Poissons Ratio (z) = 0.10553 0.10180
#
# Static dielectric constant tensor:
#      x y z
#    x 2.274590 -0.013400 -0.050220 
#    y -0.013400 2.153030 0.016080 
#    z -0.050220 0.016080 2.374420 
# 
# From -- ./inp_files/589036.got.cif
#   From: 2010.05.17/outbox.cif.g08.bks.cpg/sg2_295_cif.got.tgz:589036.got - 2010.06.03 11:33:40.
