data_PCOD9038699
_publ_section_title
;
Structure prediction by ZEFSAII (Michael W. Deem and Ramdas Pophale) SiO2 
 PCOD9038699
Probable space group: P -1
;
_chemical_formula_sum "Si O2"
_cell_formula_units_Z 16
_cell_length_a 4.953733
_cell_length_b 12.186403
_cell_length_c 21.316512
_cell_angle_alpha 37.082594
_cell_angle_beta 64.596413
_cell_angle_gamma 72.628138
_cell_volume 698.639141
_symmetry_space_group_name_H-M "P -1"
_symmetry_group_IT_number 2
_symmetry_cell_setting 'triclinic'
loop_
_space_group_symop_operation_xyz
x,y,z
-x,-y,-z
loop_
_atom_site_type_symbol
_atom_site_label
_atom_site_fract_x
_atom_site_fract_y
_atom_site_fract_z
Si Si1 0.538739 0.746395 0.770549
Si Si2 0.867537 0.633825 0.901691
Si Si3 0.850266 0.029380 0.935626
Si Si4 0.614637 0.872199 0.346990
Si Si5 0.385874 0.256343 0.730559
Si Si6 0.783282 0.936971 0.857536
Si Si7 0.026038 0.218748 0.402063
Si Si8 0.399361 0.350235 0.421460
O O1 0.650922 0.609559 0.874679
O O2 0.729685 0.718863 0.702527
O O3 0.185763 0.721031 0.802702
O O4 0.583969 0.956437 0.697058
O O5 0.688760 0.767475 0.901864
O O6 0.000000 0.500000 0.000000
O O7 0.885912 0.888095 0.939258
O O8 0.032864 0.212487 0.804057
O O9 0.500000 0.000000 0.000000
O O10 0.000000 0.000000 0.000000
O O11 0.536899 0.748814 0.349288
O O12 0.640408 0.758367 0.459462
O O13 0.934765 0.964416 0.251287
O O14 0.534968 0.079047 0.822293
O O15 0.534129 0.437794 0.664667
O O16 0.132418 0.295859 0.424501
O O17 0.701956 0.285793 0.390029
O O18 0.000000 0.000000 0.500000
#
# Coordination Sequence:
#
# PCOD9038699 Si02
#       8
#     2   2   2   2   2   2   2   2
#     4  11  23  45  73  98 139 183 232 292 355 416
#     4  11  24  45  70 104 131 174 240 300 354 412
#     4  11  23  44  70  95 135 187 231 281 354 433
#     4  10  23  41  74 103 140 188 232 293 359 423
#     4  11  24  46  69 110 144 179 245 292 359 426
#     4  10  23  42  71  98 137 181 230 290 364 419
#     4  12  27  47  71 102 145 197 243 280 356 432
#     4  12  28  43  72 106 147 190 239 295 349 430
#
# _framework density 22.901664
#
# number of rings (size 3 to 8) (size 9 to 14) (size 15 to 20)
#    0.000    1.000    3.750    1.875    8.750    0.500 
#    6.750    0.000    0.000    0.000    0.000    0.000 
#    0.000    0.000    0.000    0.000    0.000    0.000 
#
# Total GULP energy -89302.548834 kJ/mol
# GULP energy per Si atom -5581.409302 kJ/mol
# Density = 2.284954 g / cm^3
# Si number density = 22.901664 Si / 1000 Ang^3
#
#
#
# Elastic Constant Matrix: (Units=GPa)
#
#
# Indices 1 2 3 4 5 6 
#
# 1 97.6712 2.5404 10.6148 12.8978 5.4671 4.7299
# 2 2.5404 63.9729 37.9758 17.2591 2.5592 5.2060
# 3 10.6148 37.9758 78.0097 28.1593 12.4979 4.4507
# 4 12.8978 17.2591 28.1593 39.7994 -2.8740 4.2948
# 5 5.4671 2.5592 12.4979 -2.8740 32.2791 5.5690
# 6 4.7299 5.2060 4.4507 4.2948 5.5690 43.1681
#
#
#
# Elastic Compliance Matrix: (Units=1/GPa)
#
#
# Indices 1 2 3 4 5 6 
#
# 1 0.010891 0.000811 -0.000096 -0.003899 -0.002112 -0.000621
# 2 0.000811 0.022500 -0.010524 -0.002218 0.002265 -0.001789
# 3 -0.000096 -0.010524 0.024361 -0.013517 -0.010028 0.001406
# 4 -0.003899 -0.002218 -0.013517 0.037955 0.009962 -0.002973
# 5 -0.002112 0.002265 -0.010028 0.009962 0.036745 -0.004739
# 6 -0.000621 -0.001789 0.001406 -0.002973 -0.004739 0.024211
#
#
# Mechanical properties :
#
#
# Convention : Reuss Voigt Hill
#
# Bulk Modulus (GPa) = 26.22264 37.99062 32.10663
# Shear Modulus (GPa) = 26.45633 35.61750 31.03691
#
# Velocity S-wave (km/s) = 3.40253 3.94793 3.68533
# Velocity P-wave (km/s) = 5.18761 6.11605 5.67086
#
# Compressibility (1/GPa) = 0.03813498
#
# Stress axis : x y z
#
# Youngs Moduli (GPa) = 91.81981 44.44483 41.04998
#
# Poissons Ratio (x) = -0.03605 0.00392
# Poissons Ratio (y) = -0.07448 0.43200
# Poissons Ratio (z) = 0.00878 0.46773
#
# Static dielectric constant tensor:
#      x y z
#    x 1.894050 0.021340 0.001880 
#    y 0.021340 1.877280 -0.023780 
#    z 0.001880 -0.023780 1.916430 
# 
# From -- ./inp_files/583253.got.cif
#   From: 2010.05.17/outbox.cif.g08.bks.cpg/sg2_292_cif.got.tgz:583253.got - 2010.06.03 11:33:40.
