data_PCOD9038464
_publ_section_title
;
Structure prediction by ZEFSAII (Michael W. Deem and Ramdas Pophale) SiO2 
 PCOD9038464
Probable space group: P -1
;
_chemical_formula_sum "Si O2"
_cell_formula_units_Z 16
_cell_length_a 10.755024
_cell_length_b 9.167038
_cell_length_c 10.609012
_cell_angle_alpha 76.995092
_cell_angle_beta 47.500477
_cell_angle_gamma 104.651615
_cell_volume 620.614716
_symmetry_space_group_name_H-M "P -1"
_symmetry_group_IT_number 2
_symmetry_cell_setting 'triclinic'
loop_
_space_group_symop_operation_xyz
x,y,z
-x,-y,-z
loop_
_atom_site_type_symbol
_atom_site_label
_atom_site_fract_x
_atom_site_fract_y
_atom_site_fract_z
Si Si1 0.915061 0.361501 0.811000
Si Si2 0.912536 0.606956 0.946745
Si Si3 0.500129 0.175746 0.989892
Si Si4 0.119886 0.209596 0.585378
Si Si5 0.262889 0.959451 0.555161
Si Si6 0.267085 0.321933 0.191209
Si Si7 0.655197 0.293130 0.597086
Si Si8 0.477802 0.662514 0.586309
O O1 0.936804 0.445176 0.918257
O O2 0.699148 0.300981 0.915001
O O3 0.114438 0.533040 0.575524
O O4 0.945069 0.201640 0.788498
O O5 0.837073 0.651285 0.860903
O O6 0.129242 0.797316 0.778649
O O7 0.725182 0.515637 0.187640
O O8 0.533031 0.260630 0.812974
O O9 0.500000 0.000000 0.000000
O O10 0.151535 0.290222 0.408224
O O11 0.326949 0.333978 0.502311
O O12 0.120057 0.030437 0.606175
O O13 0.693401 0.837278 0.817444
O O14 0.321716 0.871216 0.423885
O O15 0.464290 0.146575 0.428970
O O16 0.500000 0.500000 0.000000
O O17 0.549124 0.315901 0.545360
#
# Coordination Sequence:
#
# PCOD9038464 Si02
#       8
#     2   2   2   2   2   2   2   2
#     4  11  25  43  65 103 137 175 232 278 345 402
#     4  11  24  43  73  99 137 184 229 281 338 409
#     4  12  27  42  67 104 135 174 228 285 340 405
#     4  10  23  41  69  97 143 177 222 295 333 407
#     4   9  23  43  67 104 131 181 229 278 337 406
#     4  12  21  42  68  98 133 183 231 279 342 406
#     4  11  24  44  73  94 136 184 221 286 339 405
#     4  10  23  47  71  99 136 182 234 272 345 407
#
# _framework density 25.780889999999999
#
# number of rings (size 3 to 8) (size 9 to 14) (size 15 to 20)
#    0.750    0.500    2.500    2.250    7.000    3.000 
#    2.250    0.000    0.000    3.000    0.000    0.000 
#    0.000    0.000    0.000    0.000    0.000    0.000 
#
# Total GULP energy -89510.502650 kJ/mol
# GULP energy per Si atom -5594.406416 kJ/mol
# Density = 2.572221 g / cm^3
# Si number density = 25.780890 Si / 1000 Ang^3
#
#
#
# Elastic Constant Matrix: (Units=GPa)
#
#
# Indices 1 2 3 4 5 6 
#
# 1 126.6396 7.7543 5.8002 5.4733 -9.8790 6.7088
# 2 7.7543 80.3291 1.7336 -16.4772 0.1697 -25.2523
# 3 5.8002 1.7336 68.9214 -3.8619 3.8173 3.5044
# 4 5.4733 -16.4772 -3.8619 41.0286 -2.1165 -10.5101
# 5 -9.8790 0.1697 3.8173 -2.1165 39.4713 -3.3572
# 6 6.7088 -25.2523 3.5044 -10.5101 -3.3572 46.8224
#
#
#
# Elastic Compliance Matrix: (Units=1/GPa)
#
#
# Indices 1 2 3 4 5 6 
#
# 1 0.008484 -0.002277 -0.000766 -0.002761 0.001815 -0.002876
# 2 -0.002277 0.019240 -0.000393 0.011483 0.001140 0.013391
# 3 -0.000766 -0.000393 0.014786 0.000966 -0.001663 -0.001111
# 4 -0.002761 0.011483 0.000966 0.033171 0.002145 0.014116
# 5 0.001815 0.001140 -0.001663 0.002145 0.026302 0.002847
# 6 -0.002876 0.013391 -0.001111 0.014116 0.002847 0.032447
#
#
# Mechanical properties :
#
#
# Convention : Reuss Voigt Hill
#
# Bulk Modulus (GPa) = 28.05908 34.05181 31.05544
# Shear Modulus (GPa) = 32.64118 42.83792 37.73955
#
# Velocity S-wave (km/s) = 3.56209 4.08071 3.83019
# Velocity P-wave (km/s) = 5.27497 5.95313 5.62428
#
# Compressibility (1/GPa) = 0.03563909
#
# Stress axis : x y z
#
# Youngs Moduli (GPa) = 117.86671 51.97608 67.63009
#
# Poissons Ratio (x) = 0.11834 0.05179
# Poissons Ratio (y) = 0.26836 0.02658
# Poissons Ratio (z) = 0.09025 0.02043
#
# Static dielectric constant tensor:
#      x y z
#    x 2.086990 -0.040120 0.058640 
#    y -0.040120 2.077350 -0.070710 
#    z 0.058640 -0.070710 1.984950 
# 
# From -- ./inp_files/456142.got.cif
#   From: 2010.05.17/outbox.cif.g08.bks.cpg/sg2_229_cif.got.tgz:456142.got - 2010.06.03 11:33:40.
