data_PCOD9038313
_publ_section_title
;
Structure prediction by ZEFSAII (Michael W. Deem and Ramdas Pophale) SiO2 
 PCOD9038313
Probable space group: P -1
;
_chemical_formula_sum "Si O2"
_cell_formula_units_Z 16
_cell_length_a 8.442936
_cell_length_b 12.614678
_cell_length_c 9.059118
_cell_angle_alpha 70.219827
_cell_angle_beta 119.080969
_cell_angle_gamma 123.873016
_cell_volume 697.056384
_symmetry_space_group_name_H-M "P -1"
_symmetry_group_IT_number 2
_symmetry_cell_setting 'triclinic'
loop_
_space_group_symop_operation_xyz
x,y,z
-x,-y,-z
loop_
_atom_site_type_symbol
_atom_site_label
_atom_site_fract_x
_atom_site_fract_y
_atom_site_fract_z
Si Si1 0.317238 0.857774 0.029697
Si Si2 0.052267 0.294043 0.602256
Si Si3 0.220789 0.574820 0.153330
Si Si4 0.322532 0.668829 0.480742
Si Si5 0.474478 0.512353 0.808027
Si Si6 0.866548 0.055230 0.831272
Si Si7 0.964146 0.158303 0.346912
Si Si8 0.300337 0.072204 0.465407
O O1 0.343254 0.729863 0.102541
O O2 0.221308 0.881881 0.122969
O O3 0.134908 0.814379 0.849468
O O4 0.500000 0.000000 0.000000
O O5 0.861645 0.321680 0.524645
O O6 0.006863 0.163822 0.727268
O O7 0.084808 0.275955 0.455039
O O8 0.250891 0.400850 0.717695
O O9 0.223672 0.579459 0.333030
O O10 0.354013 0.509956 0.186672
O O11 0.000000 0.500000 0.000000
O O12 0.454622 0.630412 0.671455
O O13 0.490364 0.810952 0.440483
O O14 0.500000 0.500000 0.000000
O O15 0.689883 0.954378 0.690812
O O16 0.000000 0.000000 0.000000
O O17 0.114819 0.105425 0.386709
O O18 0.774153 0.052816 0.407953
#
# Coordination Sequence:
#
# PCOD9038313 Si02
#       8
#     2   2   2   2   2   2   2   2
#     4  12  27  43  75 108 148 184 250 297 369 430
#     4  11  26  46  70 104 147 189 246 299 370 438
#     4  12  29  50  76 107 150 195 248 304 373 445
#     4  12  26  48  75 104 146 194 249 302 367 444
#     4  12  30  47  75 103 143 192 251 306 372 435
#     4  11  24  43  72 104 148 190 237 303 370 441
#     4  10  23  41  68 104 146 190 231 302 359 441
#     4  10  23  42  70 104 144 190 239 289 376 426
#
# _framework density 22.953668
#
# number of rings (size 3 to 8) (size 9 to 14) (size 15 to 20)
#    0.000    0.750    2.500    3.000   10.500    1.000 
#    0.000    0.000    0.000    0.000    0.000    0.000 
#    0.000    0.000    0.000    0.000    0.000    0.000 
#
# Total GULP energy -89459.526349 kJ/mol
# GULP energy per Si atom -5591.220397 kJ/mol
# Density = 2.290142 g / cm^3
# Si number density = 22.953668 Si / 1000 Ang^3
#
#
#
# Elastic Constant Matrix: (Units=GPa)
#
#
# Indices 1 2 3 4 5 6 
#
# 1 50.1793 3.9015 21.0529 -15.2158 8.0348 -16.9889
# 2 3.9015 94.2680 25.1479 2.6490 6.3284 -0.1413
# 3 21.0529 25.1479 135.6276 2.0379 -11.1441 -23.0205
# 4 -15.2158 2.6490 2.0379 32.9098 -14.7118 11.3069
# 5 8.0348 6.3284 -11.1441 -14.7118 41.1978 4.8371
# 6 -16.9889 -0.1413 -23.0205 11.3069 4.8371 38.5838
#
#
#
# Elastic Compliance Matrix: (Units=1/GPa)
#
#
# Indices 1 2 3 4 5 6 
#
# 1 0.027222 -0.000185 -0.003270 0.008094 -0.004237 0.008193
# 2 -0.000185 0.011522 -0.002411 -0.002067 -0.003067 -0.000488
# 3 -0.003270 -0.002411 0.009317 -0.002543 0.002081 0.004594
# 4 0.008094 -0.002067 -0.002543 0.046359 0.016200 -0.013577
# 5 -0.004237 -0.003067 0.002081 0.016200 0.033037 -0.009524
# 6 0.008193 -0.000488 0.004594 -0.013577 -0.009524 0.037437
#
#
# Mechanical properties :
#
#
# Convention : Reuss Voigt Hill
#
# Bulk Modulus (GPa) = 27.52736 42.25329 34.89033
# Shear Modulus (GPa) = 26.49192 37.86980 32.18086
#
# Velocity S-wave (km/s) = 3.40096 4.06622 3.74838
# Velocity P-wave (km/s) = 5.23838 6.36346 5.82813
#
# Compressibility (1/GPa) = 0.03632749
#
# Stress axis : x y z
#
# Youngs Moduli (GPa) = 36.73527 86.78837 107.33171
#
# Poissons Ratio (x) = 0.01605 0.35101
# Poissons Ratio (y) = 0.00680 0.25883
# Poissons Ratio (z) = 0.12014 0.20929
#
# Static dielectric constant tensor:
#      x y z
#    x 1.798430 0.018010 -0.023170 
#    y 0.018010 2.073570 -0.076900 
#    z -0.023170 -0.076900 1.903630 
# 
# From -- ./inp_files/186964.got.cif
#   From: 2010.05.17/outbox.cif.g08.bks.cpg/sg2_94_cif.got.tgz:186964.got - 2010.06.03 11:33:40.
