data_PCOD9038813
_publ_section_title
;
Structure prediction by ZEFSAII (Michael W. Deem and Ramdas Pophale) SiO2 
 PCOD9038813
Probable space group: P -1
;
_chemical_formula_sum "Si O2"
_cell_formula_units_Z 16
_cell_length_a 12.483112
_cell_length_b 16.741214
_cell_length_c 8.474801
_cell_angle_alpha 75.599828
_cell_angle_beta 55.071296
_cell_angle_gamma 37.327339
_cell_volume 800.848535
_symmetry_space_group_name_H-M "P -1"
_symmetry_group_IT_number 2
_symmetry_cell_setting 'triclinic'
loop_
_space_group_symop_operation_xyz
x,y,z
-x,-y,-z
loop_
_atom_site_type_symbol
_atom_site_label
_atom_site_fract_x
_atom_site_fract_y
_atom_site_fract_z
Si Si1 0.193836 0.785465 0.403190
Si Si2 0.178138 0.492783 0.500371
Si Si3 0.243727 0.967686 0.850608
Si Si4 0.107833 0.942626 0.677778
Si Si5 0.240889 0.272911 0.493735
Si Si6 0.582541 0.547649 0.954821
Si Si7 0.760781 0.397415 0.371603
Si Si8 0.964904 0.747350 0.111030
O O1 0.230406 0.814118 0.523083
O O2 0.156220 0.709806 0.512552
O O3 0.410636 0.677310 0.159155
O O4 0.984385 0.936798 0.415565
O O5 0.177800 0.394659 0.562203
O O6 0.376975 0.416363 0.247374
O O7 0.228648 0.517780 0.602742
O O8 0.941704 0.642545 0.537400
O O9 0.246532 0.908516 0.722553
O O10 0.502743 0.856669 0.726853
O O11 0.098564 0.125682 0.857813
O O12 0.108989 0.990540 0.091397
O O13 0.231879 0.209250 0.671760
O O14 0.821143 0.404266 0.906011
O O15 0.500000 0.500000 0.000000
O O16 0.500000 0.500000 0.500000
O O17 0.940771 0.300475 0.123770
#
# Coordination Sequence:
#
# PCOD9038813 Si02
#       8
#     2   2   2   2   2   2   2   2
#     4  11  21  39  56  99 127 153 195 254 328 358
#     4  10  23  42  63  92 122 162 213 251 308 372
#     4  11  22  42  64  89 124 163 213 252 315 364
#     4  10  24  37  65  93 126 160 201 269 309 373
#     4  10  24  42  62  85 123 172 210 253 297 378
#     4  11  19  35  64  91 119 158 199 259 316 361
#     4  12  23  39  67  95 127 157 202 267 313 362
#     4  11  23  38  59  91 122 162 212 248 302 373
#
# _framework density 19.978808000000001
#
# number of rings (size 3 to 8) (size 9 to 14) (size 15 to 20)
#    0.000    1.250    3.750    1.875    3.500    1.500 
#    0.000    5.625    0.000    0.000    0.000    0.000 
#    0.000    0.000    0.000    0.000    0.000    0.000 
#
# Total GULP energy -89299.775030 kJ/mol
# GULP energy per Si atom -5581.235939 kJ/mol
# Density = 1.993334 g / cm^3
# Si number density = 19.978808 Si / 1000 Ang^3
#
#
#
# Elastic Constant Matrix: (Units=GPa)
#
#
# Indices 1 2 3 4 5 6 
#
# 1 81.0212 -6.1187 24.1200 14.8621 7.5904 11.9375
# 2 -6.1187 38.8889 -10.2674 -4.1968 -1.8715 4.2055
# 3 24.1200 -10.2674 81.6410 3.3353 2.7199 -1.3529
# 4 14.8621 -4.1968 3.3353 40.0144 12.0122 -2.5600
# 5 7.5904 -1.8715 2.7199 12.0122 29.4252 4.7038
# 6 11.9375 4.2055 -1.3529 -2.5600 4.7038 20.0360
#
#
#
# Elastic Compliance Matrix: (Units=1/GPa)
#
#
# Indices 1 2 3 4 5 6 
#
# 1 0.016746 0.002003 -0.004647 -0.006619 0.000818 -0.011749
# 2 0.002003 0.027692 0.002676 0.000959 0.001742 -0.007112
# 3 -0.004647 0.002676 0.013996 0.001388 -0.001064 0.003579
# 4 -0.006619 0.000959 0.001388 0.032115 -0.013236 0.011047
# 5 0.000818 0.001742 -0.001064 -0.013236 0.041356 -0.012325
# 6 -0.011749 -0.007112 0.003579 0.011047 -0.012325 0.062950
#
#
# Mechanical properties :
#
#
# Convention : Reuss Voigt Hill
#
# Bulk Modulus (GPa) = 17.09437 24.11322 20.60380
# Shear Modulus (GPa) = 23.33284 30.81626 27.07455
#
# Velocity S-wave (km/s) = 3.42113 3.93166 3.68525
# Velocity P-wave (km/s) = 4.91735 5.71893 5.33322
#
# Compressibility (1/GPa) = 0.05849880
#
# Stress axis : x y z
#
# Youngs Moduli (GPa) = 59.71621 36.11096 71.44808
#
# Poissons Ratio (x) = -0.07235 0.33202
# Poissons Ratio (y) = -0.11964 -0.19117
# Poissons Ratio (z) = 0.27750 -0.09662
#
# Static dielectric constant tensor:
#      x y z
#    x 1.694220 -0.002690 -0.009750 
#    y -0.002690 1.708580 -0.001440 
#    z -0.009750 -0.001440 1.754330 
# 
# From -- ./inp_files/262735.got.cif
#   From: 2010.05.17/outbox.cif.g08.bks.cpg/sg2_132_cif.got.tgz:262735.got - 2010.06.03 11:33:40.
