data_PCOD9038410
_publ_section_title
;
Structure prediction by ZEFSAII (Michael W. Deem and Ramdas Pophale) SiO2 
 PCOD9038410
Probable space group: P -1
;
_chemical_formula_sum "Si O2"
_cell_formula_units_Z 12
_cell_length_a 5.503112
_cell_length_b 15.926749
_cell_length_c 24.141251
_cell_angle_alpha 18.994532
_cell_angle_beta 65.934789
_cell_angle_gamma 55.865335
_cell_volume 507.361157
_symmetry_space_group_name_H-M "P -1"
_symmetry_group_IT_number 2
_symmetry_cell_setting 'triclinic'
loop_
_space_group_symop_operation_xyz
x,y,z
-x,-y,-z
loop_
_atom_site_type_symbol
_atom_site_label
_atom_site_fract_x
_atom_site_fract_y
_atom_site_fract_z
Si Si1 0.919047 0.664046 0.555606
Si Si2 0.609628 0.002601 0.903771
Si Si3 0.325571 0.723809 0.172882
Si Si4 0.482058 0.207261 0.172611
Si Si5 0.786306 0.048110 0.435101
Si Si6 0.764783 0.591651 0.046494
O O1 0.653558 0.592264 0.639394
O O2 0.247043 0.318059 0.726180
O O3 0.772064 0.906729 0.366981
O O4 0.978030 0.811159 0.511980
O O5 0.741453 0.159629 0.830347
O O6 0.593906 0.762003 0.096710
O O7 0.791360 0.800088 0.959380
O O8 0.000000 0.000000 0.000000
O O9 0.128120 0.320221 0.158967
O O10 0.500000 0.500000 0.000000
O O11 0.460904 0.188335 0.120505
O O12 0.637291 0.403525 0.204633
O O13 0.500000 0.000000 0.500000
O O14 0.000000 0.000000 0.500000
#
# Coordination Sequence:
#
# PCOD9038410 Si02
#       6
#     2   2   2   2   2   2
#     4  11  24  44  69 100 142 187 236 300 356 438
#     4  10  23  41  69 103 141 178 239 299 366 431
#     4   9  21  40  67  99 146 181 223 292 373 433
#     4  11  25  48  70  96 145 196 247 296 360 429
#     4  12  27  43  75 112 147 189 245 304 378 442
#     4  11  26  45  71 103 141 193 245 303 359 437
#
# _framework density 23.651790999999999
#
# number of rings (size 3 to 8) (size 9 to 14) (size 15 to 20)
#    0.000    1.333    1.667    2.000   11.667    3.333 
#    0.000    1.667    0.000    0.000    0.000    0.000 
#    0.000    0.000    0.000    0.000    0.000    0.000 
#
# Total GULP energy -67099.673438 kJ/mol
# GULP energy per Si atom -5591.639453 kJ/mol
# Density = 2.359796 g / cm^3
# Si number density = 23.651791 Si / 1000 Ang^3
#
#
#
# Elastic Constant Matrix: (Units=GPa)
#
#
# Indices 1 2 3 4 5 6 
#
# 1 119.1380 33.0000 43.4343 17.5560 -4.0274 33.8465
# 2 33.0000 106.3176 33.9440 8.1809 7.1838 43.7381
# 3 43.4343 33.9440 161.7522 16.5465 15.2759 17.5516
# 4 17.5560 8.1809 16.5465 28.5945 12.2823 2.6067
# 5 -4.0274 7.1838 15.2759 12.2823 43.2926 2.6135
# 6 33.8465 43.7381 17.5516 2.6067 2.6135 49.4047
#
#
#
# Elastic Compliance Matrix: (Units=1/GPa)
#
#
# Indices 1 2 3 4 5 6 
#
# 1 0.012722 0.000392 -0.002253 -0.007873 0.004635 -0.008092
# 2 0.000392 0.015456 -0.001631 -0.002297 -0.000503 -0.013225
# 3 -0.002253 -0.001631 0.007435 -0.001580 -0.002147 0.000543
# 4 -0.007873 -0.002297 -0.001580 0.046555 -0.013378 0.006240
# 5 0.004635 -0.000503 -0.002147 -0.013378 0.028333 -0.002761
# 6 -0.008092 -0.013225 0.000543 0.006240 -0.002761 0.037117
#
#
# Mechanical properties :
#
#
# Convention : Reuss Voigt Hill
#
# Bulk Modulus (GPa) = 34.92920 67.55159 51.24040
# Shear Modulus (GPa) = 30.46096 42.71366 36.58731
#
# Velocity S-wave (km/s) = 3.59261 4.25424 3.93735
# Velocity P-wave (km/s) = 5.65768 7.26322 6.51013
#
# Compressibility (1/GPa) = 0.02862934
#
# Stress axis : x y z
#
# Youngs Moduli (GPa) = 78.60288 64.69923 134.49915
#
# Poissons Ratio (x) = -0.02537 0.30300
# Poissons Ratio (y) = -0.03082 0.21941
# Poissons Ratio (z) = 0.17708 0.10555
#
# Static dielectric constant tensor:
#      x y z
#    x 2.067110 -0.126820 0.042800 
#    y -0.126820 1.993040 -0.003490 
#    z 0.042800 -0.003490 1.888910 
# 
# From -- ./inp_files/40301.got.cif
#   From: 2010.05.17/outbox.cif.g08.bks.cpg/sg2_21_cif.got.tgz:40301.got - 2010.06.03 11:33:40.
