data_PCOD9038116
_publ_section_title
;
Structure prediction by ZEFSAII (Michael W. Deem and Ramdas Pophale) SiO2 
 PCOD9038116
Probable space group: P -1
;
_chemical_formula_sum "Si O2"
_cell_formula_units_Z 16
_cell_length_a 8.235666
_cell_length_b 16.611580
_cell_length_c 15.769486
_cell_angle_alpha 34.931230
_cell_angle_beta 107.219748
_cell_angle_gamma 132.815811
_cell_volume 709.684612
_symmetry_space_group_name_H-M "P -1"
_symmetry_group_IT_number 2
_symmetry_cell_setting 'triclinic'
loop_
_space_group_symop_operation_xyz
x,y,z
-x,-y,-z
loop_
_atom_site_type_symbol
_atom_site_label
_atom_site_fract_x
_atom_site_fract_y
_atom_site_fract_z
Si Si1 0.299756 0.497848 0.574976
Si Si2 0.291824 0.322488 0.197770
Si Si3 0.163149 0.800356 0.119719
Si Si4 0.802102 0.412474 0.813270
Si Si5 0.375591 0.933498 0.444146
Si Si6 0.357891 0.169315 0.497480
Si Si7 0.283320 0.631590 0.974064
Si Si8 0.650827 0.789841 0.214700
O O1 0.496415 0.654382 0.553210
O O2 0.452636 0.670151 0.370343
O O3 0.259274 0.310280 0.699459
O O4 0.993853 0.344526 0.693131
O O5 0.398605 0.279245 0.319856
O O6 0.500000 0.500000 0.000000
O O7 0.263751 0.451694 0.130762
O O8 0.980671 0.069969 0.336547
O O9 0.065103 0.633960 0.173809
O O10 0.500000 0.000000 0.000000
O O11 0.114412 0.933593 0.980894
O O12 0.538130 0.295059 0.821890
O O13 0.043832 0.689259 0.610925
O O14 0.708866 0.307638 0.982206
O O15 0.513450 0.901643 0.435092
O O16 0.500000 0.000000 0.500000
O O17 0.461139 0.138309 0.240247
O O18 0.000000 0.500000 0.000000
#
# Coordination Sequence:
#
# PCOD9038116 Si02
#       8
#     2   2   2   2   2   2   2   2
#     4  11  23  44  69  95 136 175 227 281 339 405
#     4  11  25  43  66  98 139 177 222 274 335 403
#     4  10  23  41  66  96 129 173 226 278 333 399
#     4  11  24  42  65  97 132 172 222 278 336 396
#     4  12  23  41  69  96 134 176 220 274 336 399
#     4  11  24  42  67  99 133 179 221 276 333 402
#     4  12  24  40  65  96 133 172 223 273 330 406
#     4  10  25  43  67  97 132 175 226 282 342 398
#
# _framework density 22.545226
#
# number of rings (size 3 to 8) (size 9 to 14) (size 15 to 20)
#    0.000    1.000    3.750    1.875    1.750    8.000 
#    0.000    3.750    0.000    0.000    0.000    0.000 
#    0.000    0.000    0.000    0.000    0.000    0.000 
#
# Total GULP energy -89474.662859 kJ/mol
# GULP energy per Si atom -5592.166429 kJ/mol
# Density = 2.249391 g / cm^3
# Si number density = 22.545226 Si / 1000 Ang^3
#
#
#
# Elastic Constant Matrix: (Units=GPa)
#
#
# Indices 1 2 3 4 5 6 
#
# 1 48.7420 5.9733 5.7804 5.5724 -7.1930 -13.9288
# 2 5.9733 72.1020 22.9853 14.0315 -16.1328 -13.8630
# 3 5.7804 22.9853 126.9795 8.6394 -14.6476 -8.0788
# 4 5.5724 14.0315 8.6394 43.3553 -11.5114 -2.9067
# 5 -7.1930 -16.1328 -14.6476 -11.5114 44.7132 3.1854
# 6 -13.9288 -13.8630 -8.0788 -2.9067 3.1854 31.5494
#
#
#
# Elastic Compliance Matrix: (Units=1/GPa)
#
#
# Indices 1 2 3 4 5 6 
#
# 1 0.024090 0.001137 -0.000152 -0.001930 0.002983 0.010617
# 2 0.001137 0.017446 -0.002014 -0.003774 0.004357 0.006865
# 3 -0.000152 -0.002014 0.008557 -0.000473 0.001859 0.001008
# 4 -0.001930 -0.003774 -0.000473 0.025877 0.004888 -0.000741
# 5 0.002983 0.004357 0.001859 0.004888 0.026176 0.001515
# 6 0.010617 0.006865 0.001008 -0.000741 0.001515 0.039437
#
#
# Mechanical properties :
#
#
# Convention : Reuss Voigt Hill
#
# Bulk Modulus (GPa) = 20.81734 35.25574 28.03654
# Shear Modulus (GPa) = 31.31804 38.12921 34.72362
#
# Velocity S-wave (km/s) = 3.73113 4.11692 3.92877
# Velocity P-wave (km/s) = 5.27404 6.18631 5.74830
#
# Compressibility (1/GPa) = 0.04803687
#
# Stress axis : x y z
#
# Youngs Moduli (GPa) = 41.51148 57.31898 116.85741
#
# Poissons Ratio (x) = -0.06517 0.01771
# Poissons Ratio (y) = -0.04720 0.23531
# Poissons Ratio (z) = 0.00629 0.11542
#
# Static dielectric constant tensor:
#      x y z
#    x 1.868510 -0.008770 0.035050 
#    y -0.008770 1.699570 -0.135750 
#    z 0.035050 -0.135750 1.717650 
# 
# From -- ./inp_files/505289.got.cif
#   From: 2010.05.17/outbox.cif.g08.bks.cpg/sg2_253_cif.got.tgz:505289.got - 2010.06.03 11:33:40.
