data_PCOD9038950
_publ_section_title
;
Structure prediction by ZEFSAII (Michael W. Deem and Ramdas Pophale) SiO2 
 PCOD9038950
Probable space group: P -1
;
_chemical_formula_sum "Si O2"
_cell_formula_units_Z 16
_cell_length_a 13.017285
_cell_length_b 8.017043
_cell_length_c 9.241521
_cell_angle_alpha 109.467164
_cell_angle_beta 132.028635
_cell_angle_gamma 87.329809
_cell_volume 653.635228
_symmetry_space_group_name_H-M "P -1"
_symmetry_group_IT_number 2
_symmetry_cell_setting 'triclinic'
loop_
_space_group_symop_operation_xyz
x,y,z
-x,-y,-z
loop_
_atom_site_type_symbol
_atom_site_label
_atom_site_fract_x
_atom_site_fract_y
_atom_site_fract_z
Si Si1 0.388079 0.527382 0.281368
Si Si2 0.073971 0.041920 0.427291
Si Si3 0.855033 0.523323 0.437259
Si Si4 0.857635 0.494569 0.770359
Si Si5 0.630632 0.873500 0.907346
Si Si6 0.433465 0.653315 0.048862
Si Si7 0.645096 0.035690 0.273740
Si Si8 0.863535 0.904073 0.940944
O O1 0.500000 0.500000 0.500000
O O2 0.269549 0.604808 0.273040
O O3 0.334012 0.323407 0.101137
O O4 0.441867 0.648333 0.228194
O O5 0.133002 0.258076 0.506435
O O6 0.206353 0.950739 0.503511
O O7 0.000000 0.000000 0.500000
O O8 0.943941 0.940724 0.177809
O O9 0.851907 0.453689 0.581531
O O10 0.724902 0.402716 0.185336
O O11 0.000000 0.500000 0.500000
O O12 0.829665 0.696890 0.799177
O O13 0.000000 0.500000 0.000000
O O14 0.457413 0.833916 0.745224
O O15 0.679822 0.006485 0.129127
O O16 0.712534 0.950304 0.856331
O O17 0.500000 0.500000 0.000000
O O18 0.534692 0.843886 0.152142
O O19 0.000000 0.000000 0.000000
#
# Coordination Sequence:
#
# PCOD9038950 Si02
#       8
#     2   2   2   2   2   2   2   2
#     4  11  24  43  68  97 140 181 223 279 349 410
#     4  12  25  44  70 102 136 185 230 282 346 411
#     4  12  27  44  73 104 134 181 238 286 345 416
#     4  11  26  45  66  99 139 176 226 287 348 408
#     4  10  23  42  65 102 134 177 225 285 339 403
#     4  12  23  43  69  99 138 179 232 280 338 409
#     4  11  24  42  70 100 138 172 236 284 335 403
#     4  11  24  45  68  94 141 180 222 283 348 415
#
# _framework density 24.478486
#
# number of rings (size 3 to 8) (size 9 to 14) (size 15 to 20)
#    0.000    0.750    5.000    1.500    5.250    2.000 
#    0.000    1.250    0.000    0.000    0.000    0.000 
#    0.000    0.000    0.000    0.000    0.000    0.000 
#
# Total GULP energy -89309.654375 kJ/mol
# GULP energy per Si atom -5581.853398 kJ/mol
# Density = 2.442277 g / cm^3
# Si number density = 24.478486 Si / 1000 Ang^3
#
#
#
# Elastic Constant Matrix: (Units=GPa)
#
#
# Indices 1 2 3 4 5 6 
#
# 1 206.5673 17.9604 41.8827 -29.5304 -4.7676 5.6206
# 2 17.9604 67.2619 -3.7809 -0.0536 -7.6931 10.3456
# 3 41.8827 -3.7809 108.5219 -16.8082 0.0886 5.7662
# 4 -29.5304 -0.0536 -16.8082 33.7855 0.6454 1.7725
# 5 -4.7676 -7.6931 0.0886 0.6454 53.8629 -9.6612
# 6 5.6206 10.3456 5.7662 1.7725 -9.6612 35.9730
#
#
#
# Elastic Compliance Matrix: (Units=1/GPa)
#
#
# Indices 1 2 3 4 5 6 
#
# 1 0.005959 -0.001603 -0.001655 0.004399 0.000182 -0.000373
# 2 -0.001603 0.016179 0.001324 -0.000523 0.001418 -0.004208
# 3 -0.001655 0.001324 0.010627 0.003962 -0.000404 -0.002129
# 4 0.004399 -0.000523 0.003962 0.035589 -0.000676 -0.003107
# 5 0.000182 0.001418 -0.000404 -0.000676 0.019680 0.004947
# 6 -0.000373 -0.004208 -0.002129 -0.003107 0.004947 0.030890
#
#
# Mechanical properties :
#
#
# Convention : Reuss Voigt Hill
#
# Bulk Modulus (GPa) = 34.60578 54.94174 44.77376
# Shear Modulus (GPa) = 37.75751 46.47688 42.11719
#
# Velocity S-wave (km/s) = 3.93170 4.36211 4.15249
# Velocity P-wave (km/s) = 5.89737 6.91841 6.42819
#
# Compressibility (1/GPa) = 0.02889691
#
# Stress axis : x y z
#
# Youngs Moduli (GPa) = 167.81145 61.80999 94.10395
#
# Poissons Ratio (x) = 0.09906 0.15571
# Poissons Ratio (y) = 0.26893 -0.12456
# Poissons Ratio (z) = 0.27768 -0.08181
#
# Static dielectric constant tensor:
#      x y z
#    x 2.374660 -0.064330 -0.074970 
#    y -0.064330 2.068890 -0.012420 
#    z -0.074970 -0.012420 1.926460 
# 
# From -- ./inp_files/209054.got.cif
#   From: 2010.05.17/outbox.cif.g08.bks.cpg/sg2_105_cif.got.tgz:209054.got - 2010.06.03 11:33:40.
