data_PCOD9038163
_publ_section_title
;
Structure prediction by ZEFSAII (Michael W. Deem and Ramdas Pophale) SiO2 
 PCOD9038163
Probable space group: P -1
;
_chemical_formula_sum "Si O2"
_cell_formula_units_Z 16
_cell_length_a 5.363598
_cell_length_b 14.767987
_cell_length_c 14.850295
_cell_angle_alpha 40.818598
_cell_angle_beta 86.512475
_cell_angle_gamma 79.997377
_cell_volume 752.640611
_symmetry_space_group_name_H-M "P -1"
_symmetry_group_IT_number 2
_symmetry_cell_setting 'triclinic'
loop_
_space_group_symop_operation_xyz
x,y,z
-x,-y,-z
loop_
_atom_site_type_symbol
_atom_site_label
_atom_site_fract_x
_atom_site_fract_y
_atom_site_fract_z
Si Si1 0.142459 0.642011 0.120962
Si Si2 0.528050 0.066987 0.796215
Si Si3 0.244352 0.878591 0.069646
Si Si4 0.586901 0.526621 0.079283
Si Si5 0.441520 0.256002 0.489394
Si Si6 0.806298 0.811502 0.863753
Si Si7 0.260331 0.999331 0.442804
Si Si8 0.118495 0.599619 0.676629
O O1 0.205658 0.736926 0.128982
O O2 0.364483 0.529335 0.155104
O O3 0.924450 0.560032 0.219441
O O4 0.061567 0.742585 0.961171
O O5 0.634909 0.147435 0.814816
O O6 0.394473 0.181595 0.640948
O O7 0.714608 0.952915 0.817612
O O8 0.392491 0.958656 0.935434
O O9 0.000000 0.000000 0.000000
O O10 0.812833 0.411826 0.208066
O O11 0.500000 0.500000 0.000000
O O12 0.655029 0.682448 0.964866
O O13 0.158012 0.305437 0.415119
O O14 0.639701 0.364580 0.410401
O O15 0.629889 0.138938 0.514303
O O16 0.801915 0.866131 0.722183
O O17 0.500000 0.000000 0.500000
O O18 0.000000 0.000000 0.500000
#
# Coordination Sequence:
#
# PCOD9038163 Si02
#       8
#     2   2   2   2   2   2   2   2
#     4  11  23  43  71 100 139 177 231 292 343 404
#     4  10  23  41  70 107 135 180 222 296 353 414
#     4  11  22  41  75 104 136 170 237 290 358 409
#     4  11  25  42  71  97 136 186 235 283 337 403
#     4  11  25  45  70  95 146 186 231 276 358 417
#     4  10  23  41  66  99 135 173 233 285 346 406
#     4  11  26  41  65  98 133 180 228 291 344 407
#     4  11  25  46  68  97 139 190 230 279 338 420
#
# _framework density 21.258488
#
# number of rings (size 3 to 8) (size 9 to 14) (size 15 to 20)
#    0.000    1.250    3.750    0.750    5.250    4.000 
#    0.000    1.250    0.000    0.000    0.000    0.000 
#    0.000    0.000    0.000    0.000    0.000    0.000 
#
# Total GULP energy -89097.385504 kJ/mol
# GULP energy per Si atom -5568.586594 kJ/mol
# Density = 2.121010 g / cm^3
# Si number density = 21.258488 Si / 1000 Ang^3
#
#
#
# Elastic Constant Matrix: (Units=GPa)
#
#
# Indices 1 2 3 4 5 6 
#
# 1 95.4212 31.8217 48.5828 17.9504 29.1463 8.6705
# 2 31.8217 109.1077 27.9240 13.9767 9.1165 28.9878
# 3 48.5828 27.9240 135.6287 23.5933 31.5153 14.5074
# 4 17.9504 13.9767 23.5933 23.1686 2.4160 0.4757
# 5 29.1463 9.1165 31.5153 2.4160 33.8032 -1.2968
# 6 8.6705 28.9878 14.5074 0.4757 -1.2968 30.0160
#
#
#
# Elastic Compliance Matrix: (Units=1/GPa)
#
#
# Indices 1 2 3 4 5 6 
#
# 1 0.017902 -0.001495 -0.000582 -0.010851 -0.013864 -0.003873
# 2 -0.001495 0.014392 0.001435 -0.008289 -0.003883 -0.014197
# 3 -0.000582 0.001435 0.012854 -0.012168 -0.011296 -0.007726
# 4 -0.010851 -0.008289 -0.012168 0.066654 0.018816 0.016777
# 5 -0.013864 -0.003883 -0.011296 0.018816 0.052353 0.015178
# 6 -0.003873 -0.014197 -0.007726 0.016777 0.015178 0.052269
#
#
# Mechanical properties :
#
#
# Convention : Reuss Voigt Hill
#
# Bulk Modulus (GPa) = 22.79705 61.86828 42.33266
# Shear Modulus (GPa) = 21.52122 32.85285 27.18704
#
# Velocity S-wave (km/s) = 3.18521 3.93542 3.58002
# Velocity P-wave (km/s) = 4.92691 7.05805 6.08648
#
# Compressibility (1/GPa) = 0.04386533
#
# Stress axis : x y z
#
# Youngs Moduli (GPa) = 55.85848 69.48230 77.79809
#
# Poissons Ratio (x) = 0.10387 0.04525
# Poissons Ratio (y) = 0.08351 -0.11164
# Poissons Ratio (z) = 0.03249 -0.09971
#
# Static dielectric constant tensor:
#      x y z
#    x 1.821730 0.050520 -0.021320 
#    y 0.050520 1.702780 -0.058260 
#    z -0.021320 -0.058260 1.854870 
# 
# From -- ./inp_files/484249.got.cif
#   From: 2010.05.17/outbox.cif.g08.bks.cpg/sg2_243_cif.got.tgz:484249.got - 2010.06.03 11:33:40.
