data_PCOD9038270
_publ_section_title
;
Structure prediction by ZEFSAII (Michael W. Deem and Ramdas Pophale) SiO2 
 PCOD9038270
Probable space group: P -1
;
_chemical_formula_sum "Si O2"
_cell_formula_units_Z 16
_cell_length_a 11.737982
_cell_length_b 12.333214
_cell_length_c 10.428990
_cell_angle_alpha 98.121179
_cell_angle_beta 47.808008
_cell_angle_gamma 60.559473
_cell_volume 665.181939
_symmetry_space_group_name_H-M "P -1"
_symmetry_group_IT_number 2
_symmetry_cell_setting 'triclinic'
loop_
_space_group_symop_operation_xyz
x,y,z
-x,-y,-z
loop_
_atom_site_type_symbol
_atom_site_label
_atom_site_fract_x
_atom_site_fract_y
_atom_site_fract_z
Si Si1 0.525807 0.699322 0.692047
Si Si2 0.702864 0.626414 0.258162
Si Si3 0.937520 0.139066 0.845774
Si Si4 0.413698 0.989320 0.437958
Si Si5 0.734347 0.932620 0.983071
Si Si6 0.782126 0.299791 0.725002
Si Si7 0.991883 0.375847 0.458518
Si Si8 0.751338 0.251561 0.442632
O O1 0.625617 0.683253 0.476606
O O2 0.747597 0.515127 0.572574
O O3 0.305022 0.733590 0.858523
O O4 0.395064 0.873395 0.901070
O O5 0.558534 0.790693 0.297467
O O6 0.550833 0.596898 0.335874
O O7 0.000000 0.500000 0.000000
O O8 0.860537 0.174611 0.759384
O O9 0.112500 0.145751 0.710621
O O10 0.120041 0.937823 0.719923
O O11 0.500000 0.000000 0.500000
O O12 0.529773 0.990912 0.236466
O O13 0.781214 0.817042 0.816969
O O14 0.026719 0.792459 0.789462
O O15 0.939994 0.323928 0.606546
O O16 0.787226 0.249060 0.568830
O O17 0.500000 0.500000 0.000000
O O18 0.000000 0.500000 0.500000
#
# Coordination Sequence:
#
# PCOD9038270 Si02
#       8
#     2   2   2   2   2   2   2   2
#     4  11  23  45  69  99 137 184 226 282 352 405
#     4  11  24  43  69 102 138 176 228 287 346 409
#     4  10  23  41  67  98 133 180 227 279 341 408
#     4  11  23  40  65 102 134 178 230 283 338 412
#     4  10  23  45  66 100 139 174 234 274 347 406
#     4  11  22  43  66  97 135 176 232 281 341 409
#     4  11  26  44  67 101 139 181 229 288 345 408
#     4   9  23  43  70  97 135 181 226 282 342 414
#
# _framework density 24.053569
#
# number of rings (size 3 to 8) (size 9 to 14) (size 15 to 20)
#    0.000    1.500    2.500    1.125    3.500    6.000 
#    4.500    3.125    0.000    0.000    0.000    0.000 
#    0.000    0.000    0.000    0.000    0.000    0.000 
#
# Total GULP energy -89079.798942 kJ/mol
# GULP energy per Si atom -5567.487434 kJ/mol
# Density = 2.399882 g / cm^3
# Si number density = 24.053569 Si / 1000 Ang^3
#
#
#
# Elastic Constant Matrix: (Units=GPa)
#
#
# Indices 1 2 3 4 5 6 
#
# 1 59.1762 9.5038 45.7701 -2.4309 -16.9106 13.1127
# 2 9.5038 95.8923 40.6848 -10.4460 -2.2842 17.3198
# 3 45.7701 40.6848 171.9448 -29.6022 -27.1768 8.8262
# 4 -2.4309 -10.4460 -29.6022 48.3794 4.5221 -1.6271
# 5 -16.9106 -2.2842 -27.1768 4.5221 36.9449 2.3178
# 6 13.1127 17.3198 8.8262 -1.6271 2.3178 35.2344
#
#
#
# Elastic Compliance Matrix: (Units=1/GPa)
#
#
# Indices 1 2 3 4 5 6 
#
# 1 0.025602 0.001543 -0.005888 -0.003093 0.008459 -0.009511
# 2 0.001543 0.012730 -0.003052 0.000801 -0.000473 -0.005999
# 3 -0.005888 -0.003052 0.009340 0.004492 0.003353 0.001338
# 4 -0.003093 0.000801 0.004492 0.023555 -0.000995 0.000785
# 5 0.008459 -0.000473 0.003353 -0.000995 0.033876 -0.006030
# 6 -0.009511 -0.005999 0.001338 0.000785 -0.006030 0.034967
#
#
# Mechanical properties :
#
#
# Convention : Reuss Voigt Hill
#
# Bulk Modulus (GPa) = 30.41460 57.65898 44.03679
# Shear Modulus (GPa) = 30.15262 39.51536 34.83399
#
# Velocity S-wave (km/s) = 3.54441 4.05755 3.80963
# Velocity P-wave (km/s) = 5.42424 6.78047 6.13992
#
# Compressibility (1/GPa) = 0.03287894
#
# Stress axis : x y z
#
# Youngs Moduli (GPa) = 39.05899 78.55615 107.07062
#
# Poissons Ratio (x) = -0.12120 0.63039
# Poissons Ratio (y) = -0.06026 0.32674
# Poissons Ratio (z) = 0.22996 0.23973
#
# Static dielectric constant tensor:
#      x y z
#    x 2.098940 0.132660 -0.082180 
#    y 0.132660 1.795990 -0.036120 
#    z -0.082180 -0.036120 1.987180 
# 
# From -- ./inp_files/428321.got.cif
#   From: 2010.05.17/outbox.cif.g08.bks.cpg/sg2_215_cif.got.tgz:428321.got - 2010.06.03 11:33:40.
