data_PCOD9038486
_publ_section_title
;
Structure prediction by ZEFSAII (Michael W. Deem and Ramdas Pophale) SiO2 
 PCOD9038486
Probable space group: P -1
;
_chemical_formula_sum "Si O2"
_cell_formula_units_Z 11
_cell_length_a 15.534756
_cell_length_b 8.218056
_cell_length_c 15.603845
_cell_angle_alpha 62.803293
_cell_angle_beta 160.502175
_cell_angle_gamma 129.541942
_cell_volume 426.209949
_symmetry_space_group_name_H-M "P -1"
_symmetry_group_IT_number 2
_symmetry_cell_setting 'triclinic'
loop_
_space_group_symop_operation_xyz
x,y,z
-x,-y,-z
loop_
_atom_site_type_symbol
_atom_site_label
_atom_site_fract_x
_atom_site_fract_y
_atom_site_fract_z
Si Si1 0.830680 0.300961 0.639776
Si Si2 0.160750 0.714725 0.712719
Si Si3 0.000000 0.000000 0.500000
Si Si4 0.802370 0.900829 0.657558
Si Si5 0.347234 0.383816 0.247241
Si Si6 0.659796 0.772641 0.058188
O O1 0.070686 0.504257 0.739551
O O2 0.598067 0.353614 0.445576
O O3 0.083486 0.348388 0.940972
O O4 0.640154 0.023343 0.492655
O O5 0.862859 0.720288 0.440951
O O6 0.324204 0.742386 0.768285
O O7 0.500000 0.000000 0.000000
O O8 0.957694 0.970549 0.361576
O O9 0.568566 0.653021 0.438004
O O10 0.846140 0.821118 0.808073
O O11 0.171898 0.118804 0.902039
O O12 0.500000 0.500000 0.000000
#
# Coordination Sequence:
#
# PCOD9038486 Si02
#       6
#     2   2   1   2   2   2
#     4  12  26  50  78 107 155 198 250 310 374 444
#     4  10  23  41  70 100 140 189 237 295 372 431
#     4  10  24  44  64 100 142 192 228 306 366 428
#     4  11  26  48  76 113 149 198 255 307 368 457
#     4  11  28  50  76 113 149 201 251 310 371 435
#     4  11  23  44  67 107 140 187 243 296 370 441
#
# _framework density 25.808875
#
# number of rings (size 3 to 8) (size 9 to 14) (size 15 to 20)
#    0.000    1.091    1.818    3.273   10.182    5.091 
#    6.545    0.000    0.000    0.000    0.000    0.000 
#    0.000    0.000    0.000    0.000    0.000    0.000 
#
# Total GULP energy -61297.060356 kJ/mol
# GULP energy per Si atom -5572.460032 kJ/mol
# Density = 2.575013 g / cm^3
# Si number density = 25.808875 Si / 1000 Ang^3
#
#
#
# Elastic Constant Matrix: (Units=GPa)
#
#
# Indices 1 2 3 4 5 6 
#
# 1 163.3665 76.3803 58.8469 -9.6574 20.3545 10.5308
# 2 76.3803 199.4912 42.8210 -12.6684 15.9539 0.6128
# 3 58.8469 42.8210 83.1162 -4.3515 0.1298 -12.1867
# 4 -9.6574 -12.6684 -4.3515 37.5483 -6.8865 4.8195
# 5 20.3545 15.9539 0.1298 -6.8865 34.0477 -1.9465
# 6 10.5308 0.6128 -12.1867 4.8195 -1.9465 74.4148
#
#
#
# Elastic Compliance Matrix: (Units=1/GPa)
#
#
# Indices 1 2 3 4 5 6 
#
# 1 0.010326 -0.002075 -0.006599 0.000581 -0.005213 -0.002699
# 2 -0.002075 0.006385 -0.001782 0.001157 -0.001520 -0.000165
# 3 -0.006599 -0.001782 0.018218 0.000207 0.004984 0.004049
# 4 0.000581 0.001157 0.000207 0.028290 0.004731 -0.001766
# 5 -0.005213 -0.001520 0.004984 0.004731 0.034260 0.002156
# 6 -0.002699 -0.000165 0.004049 -0.001766 0.002156 0.014655
#
#
# Mechanical properties :
#
#
# Convention : Reuss Voigt Hill
#
# Bulk Modulus (GPa) = 71.33804 89.11893 80.22848
# Shear Modulus (GPa) = 36.30539 47.06388 41.68463
#
# Velocity S-wave (km/s) = 3.75467 4.27494 4.02323
# Velocity P-wave (km/s) = 6.81892 7.67933 7.26188
#
# Compressibility (1/GPa) = 0.01401777
#
# Stress axis : x y z
#
# Youngs Moduli (GPa) = 96.84001 156.61109 54.88980
#
# Poissons Ratio (x) = 0.32498 0.36223
# Poissons Ratio (y) = 0.20095 0.09780
# Poissons Ratio (z) = 0.63906 0.27905
#
# Static dielectric constant tensor:
#      x y z
#    x 2.056970 -0.058670 -0.018070 
#    y -0.058670 2.028550 -0.066360 
#    z -0.018070 -0.066360 2.197020 
# 
# From -- ./inp_files/575033.got.cif
#   From: 2010.05.17/outbox.cif.g08.bks.cpg/sg2_288_cif.got.tgz:575033.got - 2010.06.03 11:33:40.
