data_PCOD9038891
_publ_section_title
;
Structure prediction by ZEFSAII (Michael W. Deem and Ramdas Pophale) SiO2 
 PCOD9038891
Probable space group: P -1
;
_chemical_formula_sum "Si O2"
_cell_formula_units_Z 12
_cell_length_a 9.523781
_cell_length_b 9.313307
_cell_length_c 10.374709
_cell_angle_alpha 114.447339
_cell_angle_beta 45.434488
_cell_angle_gamma 84.487672
_cell_volume 479.293186
_symmetry_space_group_name_H-M "P -1"
_symmetry_group_IT_number 2
_symmetry_cell_setting 'triclinic'
loop_
_space_group_symop_operation_xyz
x,y,z
-x,-y,-z
loop_
_atom_site_type_symbol
_atom_site_label
_atom_site_fract_x
_atom_site_fract_y
_atom_site_fract_z
Si Si1 0.713723 0.931285 0.935950
Si Si2 0.140569 0.839921 0.960297
Si Si3 0.790867 0.550680 0.260479
Si Si4 0.910545 0.516229 0.712793
Si Si5 0.372485 0.897716 0.506174
Si Si6 0.848282 0.196753 0.583347
O O1 0.759357 0.751795 0.922793
O O2 0.966364 0.842196 0.664966
O O3 0.666049 0.124461 0.101408
O O4 0.500000 0.000000 0.000000
O O5 0.915253 0.921195 0.234482
O O6 0.215905 0.633809 0.791535
O O7 0.000000 0.000000 0.000000
O O8 0.520675 0.721323 0.447040
O O9 0.878707 0.582640 0.350841
O O10 0.000000 0.500000 0.000000
O O11 0.791846 0.397126 0.753296
O O12 0.000000 0.500000 0.500000
O O13 0.373406 0.792965 0.336349
O O14 0.500000 0.000000 0.500000
O O15 0.000000 0.000000 0.500000
#
# Coordination Sequence:
#
# PCOD9038891 Si02
#       6
#     2   2   2   2   2   2
#     4  10  23  42  64  93 136 177 220 283 341 407
#     4  11  24  44  67 102 137 179 240 280 345 421
#     4  12  25  44  74 102 139 186 235 288 348 418
#     4  10  23  45  64  97 139 179 226 281 348 413
#     4  11  24  44  70 101 142 182 228 296 350 404
#     4  10  23  42  67  96 134 180 226 278 348 410
#
# _framework density 25.036867000000001
#
# number of rings (size 3 to 8) (size 9 to 14) (size 15 to 20)
#    0.000    1.333    3.333    1.000    4.667    6.000 
#    0.000    1.667    0.000    0.000    0.000    0.000 
#    0.000    0.000    0.000    0.000    0.000    0.000 
#
# Total GULP energy -66941.028597 kJ/mol
# GULP energy per Si atom -5578.419050 kJ/mol
# Density = 2.497988 g / cm^3
# Si number density = 25.036867 Si / 1000 Ang^3
#
#
#
# Elastic Constant Matrix: (Units=GPa)
#
#
# Indices 1 2 3 4 5 6 
#
# 1 248.9193 78.7942 22.4181 16.1889 2.3553 36.9114
# 2 78.7942 186.4993 25.3082 31.7095 7.3592 38.2407
# 3 22.4181 25.3082 60.0666 -11.1315 -3.9908 14.8796
# 4 16.1889 31.7095 -11.1315 42.2939 2.4112 10.9061
# 5 2.3553 7.3592 -3.9908 2.4112 30.5205 9.6671
# 6 36.9114 38.2407 14.8796 10.9061 9.6671 64.4488
#
#
#
# Elastic Compliance Matrix: (Units=1/GPa)
#
#
# Indices 1 2 3 4 5 6 
#
# 1 0.004851 -0.001525 -0.000824 -0.000527 0.000454 -0.001662
# 2 -0.001525 0.007860 -0.003407 -0.005656 -0.001184 -0.001869
# 3 -0.000824 -0.003407 0.021644 0.009546 0.004479 -0.004791
# 4 -0.000527 -0.005656 0.009546 0.031575 0.001459 -0.004108
# 5 0.000454 -0.001184 0.004479 0.001459 0.035435 -0.006153
# 6 -0.001662 -0.001869 -0.004791 -0.004108 -0.006153 0.020301
#
#
# Mechanical properties :
#
#
# Convention : Reuss Voigt Hill
#
# Bulk Modulus (GPa) = 43.77375 83.16958 63.47167
# Shear Modulus (GPa) = 35.51322 52.05027 43.78175
#
# Velocity S-wave (km/s) = 3.77030 4.56449 4.18627
# Velocity P-wave (km/s) = 6.03947 7.81476 6.98375
#
# Compressibility (1/GPa) = 0.02284474
#
# Stress axis : x y z
#
# Youngs Moduli (GPa) = 206.15354 127.22190 46.20121
#
# Poissons Ratio (x) = 0.19402 0.03806
# Poissons Ratio (y) = 0.31440 0.15739
# Poissons Ratio (z) = 0.16982 0.43338
#
# Static dielectric constant tensor:
#      x y z
#    x 1.954560 -0.032290 0.142360 
#    y -0.032290 2.042670 -0.171920 
#    z 0.142360 -0.171920 2.340050 
# 
# From -- ./inp_files/144669.got.cif
#   From: 2010.05.17/outbox.cif.g08.bks.cpg/sg2_73_cif.got.tgz:144669.got - 2010.06.03 11:33:40.
