data_PCOD9038701
_publ_section_title
;
Structure prediction by ZEFSAII (Michael W. Deem and Ramdas Pophale) SiO2 
 PCOD9038701
Probable space group: P -1
;
_chemical_formula_sum "Si O2"
_cell_formula_units_Z 14
_cell_length_a 9.122574
_cell_length_b 9.378660
_cell_length_c 11.939796
_cell_angle_alpha 108.765807
_cell_angle_beta 59.561341
_cell_angle_gamma 65.885821
_cell_volume 595.443631
_symmetry_space_group_name_H-M "P -1"
_symmetry_group_IT_number 2
_symmetry_cell_setting 'triclinic'
loop_
_space_group_symop_operation_xyz
x,y,z
-x,-y,-z
loop_
_atom_site_type_symbol
_atom_site_label
_atom_site_fract_x
_atom_site_fract_y
_atom_site_fract_z
Si Si1 0.965107 0.862101 0.422507
Si Si2 0.012354 0.321701 0.003751
Si Si3 0.150612 0.558521 0.454863
Si Si4 0.048613 0.128211 0.176906
Si Si5 0.517603 0.952645 0.608527
Si Si6 0.280361 0.693948 0.050899
Si Si7 0.434926 0.694911 0.633491
O O1 0.135355 0.639998 0.360588
O O2 0.043428 0.823843 0.254995
O O3 0.710100 0.951361 0.575705
O O4 0.000000 0.000000 0.500000
O O5 0.037529 0.257986 0.111011
O O6 0.789929 0.370909 0.043611
O O7 0.000000 0.500000 0.000000
O O8 0.272461 0.111258 0.807633
O O9 0.431661 0.374337 0.319537
O O10 0.000000 0.500000 0.500000
O O11 0.036592 0.735796 0.641044
O O12 0.846673 0.133994 0.216231
O O13 0.265919 0.880428 0.065547
O O14 0.500000 0.000000 0.500000
O O15 0.577187 0.739783 0.529004
O O16 0.500000 0.500000 0.000000
O O17 0.500000 0.500000 0.500000
#
# Coordination Sequence:
#
# PCOD9038701 Si02
#       7
#     2   2   2   2   2   2   2
#     4  12  26  47  75 109 147 192 254 312 382 435
#     4  12  30  47  76 111 152 204 253 310 377 456
#     4  11  24  42  74 110 146 190 250 315 372 446
#     4  11  25  51  72 108 154 201 253 301 386 448
#     4  12  25  47  73 103 148 195 254 306 365 451
#     4  12  28  50  75 110 152 200 249 316 381 448
#     4  10  23  41  74 105 140 195 245 306 363 449
#
# _framework density 23.511880000000001
#
# number of rings (size 3 to 8) (size 9 to 14) (size 15 to 20)
#    0.000    0.571    5.714    0.429   12.000    0.000 
#    0.000    1.429    0.000    0.000    0.000    0.000 
#    0.000    0.000    0.000    0.000    0.000    0.000 
#
# Total GULP energy -77977.511350 kJ/mol
# GULP energy per Si atom -5569.822239 kJ/mol
# Density = 2.345837 g / cm^3
# Si number density = 23.511880 Si / 1000 Ang^3
#
#
#
# Elastic Constant Matrix: (Units=GPa)
#
#
# Indices 1 2 3 4 5 6 
#
# 1 127.5801 42.1353 8.9375 7.9550 -14.0931 14.8425
# 2 42.1353 152.3375 26.9953 -7.4622 3.8456 7.6195
# 3 8.9375 26.9953 76.7156 -18.4026 1.4736 2.1162
# 4 7.9550 -7.4622 -18.4026 38.4735 -4.7055 1.0581
# 5 -14.0931 3.8456 1.4736 -4.7055 28.5737 0.9000
# 6 14.8425 7.6195 2.1162 1.0581 0.9000 55.6462
#
#
#
# Elastic Compliance Matrix: (Units=1/GPa)
#
#
# Indices 1 2 3 4 5 6 
#
# 1 0.009714 -0.002673 -0.000758 -0.002230 0.004893 -0.002233
# 2 -0.002673 0.007797 -0.002203 0.000759 -0.002121 -0.000251
# 3 -0.000758 -0.002203 0.015639 0.007255 0.000318 -0.000234
# 4 -0.002230 0.000759 0.007255 0.030505 0.003461 -0.000421
# 5 0.004893 -0.002121 0.000318 0.003461 0.038303 -0.001712
# 6 -0.002233 -0.000251 -0.000234 -0.000421 -0.001712 0.018645
#
#
# Mechanical properties :
#
#
# Convention : Reuss Voigt Hill
#
# Bulk Modulus (GPa) = 45.69984 56.97438 51.33711
# Shear Modulus (GPa) = 35.92813 43.10968 39.51891
#
# Velocity S-wave (km/s) = 3.91331 4.28662 4.10421
# Velocity P-wave (km/s) = 6.31647 6.98462 6.65893
#
# Compressibility (1/GPa) = 0.02188191
#
# Stress axis : x y z
#
# Youngs Moduli (GPa) = 102.94906 128.24757 63.94126
#
# Poissons Ratio (x) = 0.34286 0.04848
# Poissons Ratio (y) = 0.27522 0.14084
# Poissons Ratio (z) = 0.07806 0.28248
#
# Static dielectric constant tensor:
#      x y z
#    x 1.101180 -0.374110 0.605560 
#    y -0.374110 1.921290 0.356650 
#    z 0.605560 0.356650 1.352740 
# 
# From -- ./inp_files/382840.got.cif
#   From: 2010.05.17/outbox.cif.g08.bks.cpg/sg2_192_cif.got.tgz:382840.got - 2010.06.03 11:33:40.
