data_PCOD9038632
_publ_section_title
;
Structure prediction by ZEFSAII (Michael W. Deem and Ramdas Pophale) SiO2 
 PCOD9038632
Probable space group: P -1
;
_chemical_formula_sum "Si O2"
_cell_formula_units_Z 12
_cell_length_a 14.740487
_cell_length_b 5.035501
_cell_length_c 11.061620
_cell_angle_alpha 106.063103
_cell_angle_beta 121.020676
_cell_angle_gamma 114.081036
_cell_volume 502.795436
_symmetry_space_group_name_H-M "P -1"
_symmetry_group_IT_number 2
_symmetry_cell_setting 'triclinic'
loop_
_space_group_symop_operation_xyz
x,y,z
-x,-y,-z
loop_
_atom_site_type_symbol
_atom_site_label
_atom_site_fract_x
_atom_site_fract_y
_atom_site_fract_z
Si Si1 0.874349 0.848365 0.186202
Si Si2 0.199437 0.849478 0.666230
Si Si3 0.375201 0.929309 0.978261
Si Si4 0.605611 0.815169 0.516099
Si Si5 0.372181 0.728345 0.210656
Si Si6 0.181003 0.206333 0.467827
O O1 0.777331 0.497277 0.167772
O O2 0.912602 0.204141 0.322784
O O3 0.768264 0.684364 0.979395
O O4 0.020348 0.945951 0.275060
O O5 0.335256 0.111696 0.885149
O O6 0.214443 0.574587 0.581920
O O7 0.192484 0.037769 0.572354
O O8 0.409702 0.990705 0.153176
O O9 0.500000 0.000000 0.000000
O O10 0.500000 0.500000 0.500000
O O11 0.509543 0.781063 0.339819
O O12 0.715121 0.771034 0.548130
O O13 0.668050 0.176810 0.683765
#
# Coordination Sequence:
#
# PCOD9038632 Si02
#       6
#     2   2   2   2   2   2
#     4  10  25  44  70 107 144 180 233 294 347 420
#     4  12  25  45  72 108 144 186 227 287 357 423
#     4  10  23  41  72 102 140 180 227 291 346 415
#     4  11  26  46  72  97 140 191 238 294 340 421
#     4   9  24  46  69 101 139 181 242 284 352 407
#     4  12  27  43  74 106 144 186 234 282 357 414
#
# _framework density 23.866564
#
# number of rings (size 3 to 8) (size 9 to 14) (size 15 to 20)
#    1.000    0.333    1.667    2.000   11.667    1.333 
#    0.000    0.833    0.000    0.000    0.000    0.000 
#    0.000    0.000    0.000    0.000    0.000    0.000 
#
# Total GULP energy -66899.171921 kJ/mol
# GULP energy per Si atom -5574.930993 kJ/mol
# Density = 2.381224 g / cm^3
# Si number density = 23.866564 Si / 1000 Ang^3
#
#
#
# Elastic Constant Matrix: (Units=GPa)
#
#
# Indices 1 2 3 4 5 6 
#
# 1 233.5213 38.9005 87.3225 7.8302 25.1697 -24.5436
# 2 38.9005 72.1994 31.6258 3.6254 -3.2893 -23.9966
# 3 87.3225 31.6258 149.0350 2.0675 -3.5887 -10.5308
# 4 7.8302 3.6254 2.0675 32.6182 -4.6840 -1.3863
# 5 25.1697 -3.2893 -3.5887 -4.6840 33.8094 0.5665
# 6 -24.5436 -23.9966 -10.5308 -1.3863 0.5665 39.9654
#
#
#
# Elastic Compliance Matrix: (Units=1/GPa)
#
#
# Indices 1 2 3 4 5 6 
#
# 1 0.006850 -0.001473 -0.003648 -0.002002 -0.005947 0.002375
# 2 -0.001473 0.019149 -0.002431 -0.000853 0.002418 0.009888
# 3 -0.003648 -0.002431 0.009348 0.001022 0.003634 -0.001253
# 4 -0.002002 -0.000853 0.001022 0.032005 0.005958 -0.000447
# 5 -0.005947 0.002418 0.003634 0.005958 0.035477 -0.001539
# 6 0.002375 0.009888 -0.001253 -0.000447 -0.001539 0.032094
#
#
# Mechanical properties :
#
#
# Convention : Reuss Voigt Hill
#
# Bulk Modulus (GPa) = 49.40559 85.60593 67.50576
# Shear Modulus (GPa) = 31.89260 41.07239 36.48250
#
# Velocity S-wave (km/s) = 3.65949 4.15289 3.91398
# Velocity P-wave (km/s) = 6.21301 7.67736 6.98367
#
# Compressibility (1/GPa) = 0.02024062
#
# Stress axis : x y z
#
# Youngs Moduli (GPa) = 145.99021 52.22212 106.97250
#
# Poissons Ratio (x) = 0.07694 0.39027
# Poissons Ratio (y) = 0.21510 0.26010
# Poissons Ratio (z) = 0.53262 0.12697
#
# Static dielectric constant tensor:
#      x y z
#    x 1.955560 -0.069950 -0.020030 
#    y -0.069950 2.082230 0.104390 
#    z -0.020030 0.104390 2.023070 
# 
# From -- ./inp_files/408036.got.cif
#   From: 2010.05.17/outbox.cif.g08.bks.cpg/sg2_205_cif.got.tgz:408036.got - 2010.06.03 11:33:40.
