data_PCOD9038379
_publ_section_title
;
Structure prediction by ZEFSAII (Michael W. Deem and Ramdas Pophale) SiO2 
 PCOD9038379
Probable space group: P -1
;
_chemical_formula_sum "Si O2"
_cell_formula_units_Z 10
_cell_length_a 5.669479
_cell_length_b 13.883267
_cell_length_c 11.402778
_cell_angle_alpha 31.970355
_cell_angle_beta 116.950054
_cell_angle_gamma 126.358785
_cell_volume 380.095905
_symmetry_space_group_name_H-M "P -1"
_symmetry_group_IT_number 2
_symmetry_cell_setting 'triclinic'
loop_
_space_group_symop_operation_xyz
x,y,z
-x,-y,-z
loop_
_atom_site_type_symbol
_atom_site_label
_atom_site_fract_x
_atom_site_fract_y
_atom_site_fract_z
Si Si1 0.314559 0.440340 0.899380
Si Si2 0.079816 0.404743 0.229170
Si Si3 0.067035 0.032628 0.677048
Si Si4 0.627223 0.043225 0.853141
Si Si5 0.230990 0.289753 0.689802
O O1 0.565160 0.520430 0.772360
O O2 0.072760 0.529008 0.767331
O O3 0.500000 0.500000 0.000000
O O4 0.147010 0.198718 0.112544
O O5 0.956835 0.162240 0.436752
O O6 0.000000 0.500000 0.000000
O O7 0.384281 0.040512 0.711230
O O8 0.129164 0.162265 0.677071
O O9 0.913794 0.258368 0.697541
O O10 0.500000 0.000000 0.000000
O O11 0.691276 0.848259 0.058769
O O12 0.500000 0.500000 0.500000
#
# Coordination Sequence:
#
# PCOD9038379 Si02
#       5
#     2   2   2   2   2
#     4  10  25  45  68  99 139 181 236 287 344 409
#     4  10  25  44  68 100 137 184 234 286 345 409
#     4  11  25  39  72  99 136 185 229 284 348 418
#     4   9  22  42  63  99 135 178 227 287 342 417
#     4  10  23  41  68  98 141 178 230 288 351 418
#
# _framework density 26.309146999999999
#
# number of rings (size 3 to 8) (size 9 to 14) (size 15 to 20)
#    0.000    2.000    0.000    0.000    8.400   12.800 
#    0.000    0.000    0.000    0.000    0.000    0.000 
#    0.000    0.000    0.000    0.000    0.000    0.000 
#
# Total GULP energy -55872.707991 kJ/mol
# GULP energy per Si atom -5587.270799 kJ/mol
# Density = 2.624927 g / cm^3
# Si number density = 26.309147 Si / 1000 Ang^3
#
#
#
# Elastic Constant Matrix: (Units=GPa)
#
#
# Indices 1 2 3 4 5 6 
#
# 1 189.5191 39.8928 73.3339 -28.6205 -20.0572 31.3335
# 2 39.8928 96.4948 44.8706 -39.3306 -4.9922 5.5285
# 3 73.3339 44.8706 176.4772 -29.9482 7.9651 22.9817
# 4 -28.6205 -39.3306 -29.9482 59.0078 14.9435 -12.8062
# 5 -20.0572 -4.9922 7.9651 14.9435 44.9849 -5.8942
# 6 31.3335 5.5285 22.9817 -12.8062 -5.8942 28.7498
#
#
#
# Elastic Compliance Matrix: (Units=1/GPa)
#
#
# Indices 1 2 3 4 5 6 
#
# 1 0.007754 -0.001992 -0.002203 -0.000775 0.003095 -0.006017
# 2 -0.001992 0.015873 -0.002094 0.009986 -0.001425 0.004948
# 3 -0.002203 -0.002094 0.008052 0.001779 -0.003703 -0.003600
# 4 -0.000775 0.009986 0.001779 0.027898 -0.007726 0.008345
# 5 0.003095 -0.001425 -0.003703 -0.007726 0.026928 0.001940
# 6 -0.006017 0.004948 -0.003600 0.008345 0.001940 0.047381
#
#
# Mechanical properties :
#
#
# Convention : Reuss Voigt Hill
#
# Bulk Modulus (GPa) = 52.35142 86.52061 69.43601
# Shear Modulus (GPa) = 32.71598 46.84141 39.77869
#
# Velocity S-wave (km/s) = 3.53019 4.22408 3.89263
# Velocity P-wave (km/s) = 6.04632 7.53313 6.83030
#
# Compressibility (1/GPa) = 0.01910168
#
# Stress axis : x y z
#
# Youngs Moduli (GPa) = 128.97158 62.99865 124.19161
#
# Poissons Ratio (x) = 0.12549 0.27361
# Poissons Ratio (y) = 0.25691 0.26001
# Poissons Ratio (z) = 0.28414 0.13189
#
# Static dielectric constant tensor:
#      x y z
#    x 2.375160 -0.031270 0.015020 
#    y -0.031270 2.061320 0.028480 
#    z 0.015020 0.028480 2.096890 
# 
# From -- ./inp_files/1861.got.cif
#   From: 2010.05.17/outbox.cif.g08.bks.cpg/sg2_1_cif.got.tgz:1861.got - 2010.06.03 11:33:40.
