data_PCOD9038558
_publ_section_title
;
Structure prediction by ZEFSAII (Michael W. Deem and Ramdas Pophale) SiO2 
 PCOD9038558
Probable space group: P -1
;
_chemical_formula_sum "Si O2"
_cell_formula_units_Z 12
_cell_length_a 8.363422
_cell_length_b 14.309385
_cell_length_c 7.165356
_cell_angle_alpha 98.854686
_cell_angle_beta 81.592803
_cell_angle_gamma 44.227423
_cell_volume 548.538180
_symmetry_space_group_name_H-M "P -1"
_symmetry_group_IT_number 2
_symmetry_cell_setting 'triclinic'
loop_
_space_group_symop_operation_xyz
x,y,z
-x,-y,-z
loop_
_atom_site_type_symbol
_atom_site_label
_atom_site_fract_x
_atom_site_fract_y
_atom_site_fract_z
Si Si1 0.931378 0.044888 0.739127
Si Si2 0.645401 0.516172 0.863259
Si Si3 0.358817 0.288145 0.863052
Si Si4 0.738514 0.827619 0.880163
Si Si5 0.877486 0.645204 0.462883
Si Si6 0.152784 0.789897 0.875304
O O1 0.644011 0.143764 0.822518
O O2 0.931885 0.145138 0.878074
O O3 0.000000 0.000000 0.500000
O O4 0.101705 0.902633 0.790615
O O5 0.902058 0.387679 0.672553
O O6 0.439253 0.639185 0.787159
O O7 0.500000 0.500000 0.000000
O O8 0.699289 0.582715 0.006591
O O9 0.293885 0.311713 0.665075
O O10 0.225032 0.263759 0.988538
O O11 0.724809 0.773017 0.677373
O O12 0.981590 0.783888 0.825006
O O13 0.500000 0.000000 0.000000
O O14 0.000000 0.500000 0.500000
#
# Coordination Sequence:
#
# PCOD9038558 Si02
#       6
#     2   2   2   2   2   2
#     4  10  23  41  70  99 139 188 232 293 357 417
#     4  11  25  48  74 104 146 187 237 302 350 430
#     4  11  25  46  70 105 144 181 243 303 347 426
#     4  12  26  47  73 106 145 186 240 300 352 423
#     4  12  28  45  77 104 144 200 233 286 372 424
#     4  10  24  43  68 101 142 178 236 297 351 415
#
# _framework density 21.876324
#
# number of rings (size 3 to 8) (size 9 to 14) (size 15 to 20)
#    0.000    1.000    3.333    1.500    7.000    5.333 
#    0.000    0.000    0.000    0.000    0.000    0.000 
#    0.000    0.000    0.000    0.000    0.000    0.000 
#
# Total GULP energy -67081.764577 kJ/mol
# GULP energy per Si atom -5590.147048 kJ/mol
# Density = 2.182653 g / cm^3
# Si number density = 21.876324 Si / 1000 Ang^3
#
#
#
# Elastic Constant Matrix: (Units=GPa)
#
#
# Indices 1 2 3 4 5 6 
#
# 1 51.2967 14.8775 -1.4569 -2.5779 13.7347 9.8499
# 2 14.8775 103.4618 31.4780 -6.2661 7.7090 -8.8844
# 3 -1.4569 31.4780 105.0785 -0.5717 18.3910 5.6861
# 4 -2.5779 -6.2661 -0.5717 35.6662 -5.0681 3.6653
# 5 13.7347 7.7090 18.3910 -5.0681 38.6022 -8.5523
# 6 9.8499 -8.8844 5.6861 3.6653 -8.5523 36.7011
#
#
#
# Elastic Compliance Matrix: (Units=1/GPa)
#
#
# Indices 1 2 3 4 5 6 
#
# 1 0.027455 -0.005559 0.005174 0.000430 -0.013903 -0.012799
# 2 -0.005559 0.012212 -0.004600 0.001534 0.003207 0.005755
# 3 0.005174 -0.004600 0.012804 -0.000785 -0.008543 -0.006398
# 4 0.000430 0.001534 -0.000785 0.028978 0.003334 -0.001740
# 5 -0.013903 0.003207 -0.008543 0.003334 0.037893 0.014328
# 6 -0.012799 0.005755 -0.006398 -0.001740 0.014328 0.036579
#
#
# Mechanical properties :
#
#
# Convention : Reuss Voigt Hill
#
# Bulk Modulus (GPa) = 23.52869 38.84824 31.18846
# Shear Modulus (GPa) = 27.76862 36.52313 32.14587
#
# Velocity S-wave (km/s) = 3.56665 4.09042 3.83748
# Velocity P-wave (km/s) = 5.26688 6.33288 5.82432
#
# Compressibility (1/GPa) = 0.04250131
#
# Stress axis : x y z
#
# Youngs Moduli (GPa) = 36.42279 81.88336 78.10331
#
# Poissons Ratio (x) = 0.45521 -0.40412
# Poissons Ratio (y) = 0.20249 0.35927
# Poissons Ratio (z) = -0.18846 0.37666
#
# Static dielectric constant tensor:
#      x y z
#    x 1.819270 0.004770 -0.032030 
#    y 0.004770 1.824620 0.019300 
#    z -0.032030 0.019300 1.809230 
# 
# From -- ./inp_files/21693.got.cif
#   From: 2010.05.17/outbox.cif.g08.bks.cpg/sg2_11_cif.got.tgz:21693.got - 2010.06.03 11:33:40.
