data_PCOD9038164
_publ_section_title
;
Structure prediction by ZEFSAII (Michael W. Deem and Ramdas Pophale) SiO2 
 PCOD9038164
Probable space group: P -1
;
_chemical_formula_sum "Si O2"
_cell_formula_units_Z 16
_cell_length_a 19.251610
_cell_length_b 8.781082
_cell_length_c 21.912068
_cell_angle_alpha 39.947357
_cell_angle_beta 18.781598
_cell_angle_gamma 37.676405
_cell_volume 726.108096
_symmetry_space_group_name_H-M "P -1"
_symmetry_group_IT_number 2
_symmetry_cell_setting 'triclinic'
loop_
_space_group_symop_operation_xyz
x,y,z
-x,-y,-z
loop_
_atom_site_type_symbol
_atom_site_label
_atom_site_fract_x
_atom_site_fract_y
_atom_site_fract_z
Si Si1 0.860813 0.450291 0.245558
Si Si2 0.944775 0.225903 0.928177
Si Si3 0.664935 0.758131 0.721938
Si Si4 0.483336 0.840299 0.382147
Si Si5 0.448554 0.559752 0.262439
Si Si6 0.693457 0.927629 0.993603
Si Si7 0.679841 0.883216 0.440061
Si Si8 0.843890 0.219526 0.677752
O O1 0.741914 0.665693 0.229737
O O2 0.665424 0.332780 0.461991
O O3 0.945392 0.578611 0.192304
O O4 0.080693 0.226803 0.110318
O O5 0.074739 0.135961 0.784867
O O6 0.676570 0.361915 0.104633
O O7 0.000000 0.000000 0.000000
O O8 0.750285 0.472193 0.718144
O O9 0.887526 0.827144 0.537139
O O10 0.562913 0.933144 0.695210
O O11 0.468080 0.829410 0.913656
O O12 0.392044 0.949401 0.491263
O O13 0.544567 0.743167 0.165557
O O14 0.331875 0.390284 0.449248
O O15 0.282175 0.718555 0.300715
O O16 0.781526 0.004937 0.832715
O O17 0.500000 0.000000 0.500000
#
# Coordination Sequence:
#
# PCOD9038164 Si02
#       8
#     2   2   2   2   2   2   2   2
#     4  10  23  41  66  99 137 166 222 271 338 394
#     4  11  23  43  66  98 135 175 217 274 327 404
#     4  11  25  43  72  92 139 175 227 273 336 390
#     4  11  22  44  67 100 133 182 212 282 333 400
#     4  11  25  41  69 101 132 178 224 277 333 391
#     4  11  25  43  69 100 135 178 223 278 333 392
#     4  12  23  42  69  95 137 178 221 265 343 405
#     4  11  24  48  65  97 138 175 232 276 320 398
#
# _framework density 22.035285999999999
#
# number of rings (size 3 to 8) (size 9 to 14) (size 15 to 20)
#    0.000    1.000    5.000    0.750    1.750    3.000 
#    0.000    0.000    0.000    0.000    0.000    0.000 
#    0.000    0.000    0.000    0.000    0.000    0.000 
#
# Total GULP energy -89517.004244 kJ/mol
# GULP energy per Si atom -5594.812765 kJ/mol
# Density = 2.198513 g / cm^3
# Si number density = 22.035286 Si / 1000 Ang^3
#
#
#
# Elastic Constant Matrix: (Units=GPa)
#
#
# Indices 1 2 3 4 5 6 
#
# 1 63.8297 10.1965 30.6906 1.2913 -9.0191 -29.3469
# 2 10.1965 85.8491 29.7855 2.6029 -0.8961 -27.2099
# 3 30.6906 29.7855 77.7437 3.4296 6.3207 -18.6770
# 4 1.2913 2.6029 3.4296 48.6321 -4.1418 -8.9110
# 5 -9.0191 -0.8961 6.3207 -4.1418 30.2613 -2.6302
# 6 -29.3469 -27.2099 -18.6770 -8.9110 -2.6302 30.1326
#
#
#
# Elastic Compliance Matrix: (Units=1/GPa)
#
#
# Indices 1 2 3 4 5 6 
#
# 1 0.056464 0.021270 -0.016431 0.013933 0.028939 0.070660
# 2 0.021270 0.025421 -0.009718 0.007448 0.013709 0.041046
# 3 -0.016431 -0.009718 0.020788 -0.004052 -0.011305 -0.014078
# 4 0.013933 0.007448 -0.004052 0.025858 0.011053 0.026396
# 5 0.028939 0.013709 -0.011305 0.011053 0.049527 0.041148
# 6 0.070660 0.041046 -0.014078 0.026396 0.041148 0.141740
#
#
# Mechanical properties :
#
#
# Convention : Reuss Voigt Hill
#
# Bulk Modulus (GPa) = 10.76269 40.97418 25.86844
# Shear Modulus (GPa) = 13.86857 32.25520 23.06188
#
# Velocity S-wave (km/s) = 2.51147 3.83011 3.23861
# Velocity P-wave (km/s) = 3.64758 6.18020 5.07443
#
# Compressibility (1/GPa) = 0.09291356
#
# Stress axis : x y z
#
# Youngs Moduli (GPa) = 17.71048 39.33810 48.10395
#
# Poissons Ratio (x) = -0.83672 0.79041
# Poissons Ratio (y) = -0.37670 0.46749
# Poissons Ratio (z) = 0.29100 0.38230
#
# Static dielectric constant tensor:
#      x y z
#    x 1.771560 0.025630 -0.010500 
#    y 0.025630 1.826580 0.015310 
#    z -0.010500 0.015310 1.798850 
# 
# From -- ./inp_files/599701.got.cif
#   From: 2010.05.17/outbox.cif.g08.bks.cpg/sg2_300_cif.got.tgz:599701.got - 2010.06.03 11:33:40.
