data_PCOD9038322
_publ_section_title
;
Structure prediction by ZEFSAII (Michael W. Deem and Ramdas Pophale) SiO2 
 PCOD9038322
Probable space group: P -1
;
_chemical_formula_sum "Si O2"
_cell_formula_units_Z 14
_cell_length_a 20.920901
_cell_length_b 13.747502
_cell_length_c 11.671952
_cell_angle_alpha 158.258991
_cell_angle_beta 139.618085
_cell_angle_gamma 33.683235
_cell_volume 688.602347
_symmetry_space_group_name_H-M "P -1"
_symmetry_group_IT_number 2
_symmetry_cell_setting 'triclinic'
loop_
_space_group_symop_operation_xyz
x,y,z
-x,-y,-z
loop_
_atom_site_type_symbol
_atom_site_label
_atom_site_fract_x
_atom_site_fract_y
_atom_site_fract_z
Si Si1 0.602227 0.211570 0.614229
Si Si2 0.472003 0.936024 0.264374
Si Si3 0.580422 0.143755 0.252153
Si Si4 0.091893 0.890934 0.607739
Si Si5 0.035333 0.757391 0.953734
Si Si6 0.854962 0.937609 0.700100
Si Si7 0.749153 0.831583 0.925616
O O1 0.633099 0.133667 0.437519
O O2 0.537653 0.043245 0.386116
O O3 0.720938 0.091265 0.711935
O O4 0.521207 0.575446 0.919769
O O5 0.500000 0.000000 0.500000
O O6 0.338626 0.116606 0.241182
O O7 0.500000 0.500000 0.500000
O O8 0.500000 0.000000 0.000000
O O9 0.672115 0.973262 0.089945
O O10 0.160820 0.526379 0.322463
O O11 0.000000 0.000000 0.500000
O O12 0.183287 0.994955 0.820066
O O13 0.019638 0.061635 0.808263
O O14 0.097386 0.393036 0.654745
O O15 0.931716 0.867819 0.841728
O O16 0.122918 0.844250 0.112210
#
# Coordination Sequence:
#
# PCOD9038322 Si02
#       7
#     2   2   2   2   2   2   2
#     4  12  24  43  70 100 130 176 222 274 335 394
#     4  12  27  44  68 102 139 174 225 266 341 412
#     4  12  23  44  67  96 133 167 222 266 324 396
#     4  12  28  44  69  95 133 175 225 267 334 395
#     4  10  23  44  62  94 126 167 221 266 328 380
#     4  10  23  41  68  91 126 166 215 277 318 379
#     4  12  26  46  68  96 134 179 213 280 329 390
#
# _framework density 20.331036000000001
#
# number of rings (size 3 to 8) (size 9 to 14) (size 15 to 20)
#    0.000    0.571    2.857    4.286    8.000    0.000 
#    0.000    0.000    0.000    0.000    0.000    0.000 
#    0.000    0.000    0.000    0.000    0.000    0.000 
#
# Total GULP energy -78373.295884 kJ/mol
# GULP energy per Si atom -5598.092563 kJ/mol
# Density = 2.028476 g / cm^3
# Si number density = 20.331036 Si / 1000 Ang^3
#
#
#
# Elastic Constant Matrix: (Units=GPa)
#
#
# Indices 1 2 3 4 5 6 
#
# 1 29.1219 -3.9162 -11.4924 -17.4912 -1.5039 6.8165
# 2 -3.9162 78.7576 3.7605 -3.5725 -4.1537 -5.5866
# 3 -11.4924 3.7605 61.8024 6.4855 -11.0571 15.8303
# 4 -17.4912 -3.5725 6.4855 30.2198 1.7744 4.2074
# 5 -1.5039 -4.1537 -11.0571 1.7744 48.9342 -12.6880
# 6 6.8165 -5.5866 15.8303 4.2074 -12.6880 28.1906
#
#
#
# Elastic Compliance Matrix: (Units=1/GPa)
#
#
# Indices 1 2 3 4 5 6 
#
# 1 0.079659 0.002246 0.018663 0.048041 -0.004915 -0.038679
# 2 0.002246 0.013288 -0.001162 0.002593 0.001643 0.003095
# 3 0.018663 -0.001162 0.023864 0.008163 0.000624 -0.019081
# 4 0.048041 0.002593 0.008163 0.063687 -0.006000 -0.027892
# 5 -0.004915 0.001643 0.000624 -0.006000 0.024133 0.012921
# 6 -0.038679 0.003095 -0.019081 -0.027892 0.012921 0.066132
#
#
# Mechanical properties :
#
#
# Convention : Reuss Voigt Hill
#
# Bulk Modulus (GPa) = 6.39767 16.26507 11.33137
# Shear Modulus (GPa) = 17.64467 33.55758 25.60113
#
# Velocity S-wave (km/s) = 2.94916 4.06712 3.55239
# Velocity P-wave (km/s) = 3.84061 5.48386 4.73408
#
# Compressibility (1/GPa) = 0.15630683
#
# Stress axis : x y z
#
# Youngs Moduli (GPa) = 12.55343 75.25490 41.90358
#
# Poissons Ratio (x) = -0.16904 -0.78205
# Poissons Ratio (y) = -0.02820 0.04868
# Poissons Ratio (z) = -0.23428 0.08743
#
# Static dielectric constant tensor:
#      x y z
#    x 1.692120 0.008980 0.004420 
#    y 0.008980 1.721070 -0.032720 
#    z 0.004420 -0.032720 1.711400 
# 
# From -- ./inp_files/433867.got.cif
#   From: 2010.05.17/outbox.cif.g08.bks.cpg/sg2_217_cif.got.tgz:433867.got - 2010.06.03 11:33:40.
