data_PCOD9038139
_publ_section_title
;
Structure prediction by ZEFSAII (Michael W. Deem and Ramdas Pophale) SiO2 
 PCOD9038139
Probable space group: P -1
;
_chemical_formula_sum "Si O2"
_cell_formula_units_Z 12
_cell_length_a 8.694392
_cell_length_b 11.437946
_cell_length_c 5.064707
_cell_angle_alpha 85.718738
_cell_angle_beta 91.000047
_cell_angle_gamma 86.049176
_cell_volume 500.936491
_symmetry_space_group_name_H-M "P -1"
_symmetry_group_IT_number 2
_symmetry_cell_setting 'triclinic'
loop_
_space_group_symop_operation_xyz
x,y,z
-x,-y,-z
loop_
_atom_site_type_symbol
_atom_site_label
_atom_site_fract_x
_atom_site_fract_y
_atom_site_fract_z
Si Si1 0.389805 0.361797 0.490551
Si Si2 0.810856 0.458998 0.235364
Si Si3 0.937313 0.936288 0.256487
Si Si4 0.938076 0.675838 0.366358
Si Si5 0.596097 0.036133 0.243598
Si Si6 0.414160 0.698003 0.987105
O O1 0.328715 0.488753 0.585369
O O2 0.244733 0.040682 0.740230
O O3 0.227462 0.300405 0.496906
O O4 0.455933 0.359225 0.199787
O O5 0.933447 0.381837 0.425844
O O6 0.895576 0.579266 0.161160
O O7 0.732114 0.381620 0.027934
O O8 0.987596 0.799545 0.254483
O O9 0.000000 0.000000 0.500000
O O10 0.000000 0.000000 0.000000
O O11 0.500000 0.000000 0.500000
O O12 0.490211 0.697310 0.280141
O O13 0.623665 0.173492 0.166165
O O14 0.500000 0.000000 0.000000
#
# Coordination Sequence:
#
# PCOD9038139 Si02
#       6
#     2   2   2   2   2   2
#     4  10  23  41  66  98 131 169 218 272 341 393
#     4   9  21  42  68  98 132 172 220 277 340 394
#     4  12  26  46  70 100 137 183 229 279 337 405
#     4   9  21  44  66  96 134 173 221 276 336 399
#     4  12  26  45  69 102 136 182 228 279 337 402
#     4  12  22  42  68  97 132 171 223 276 332 399
#
# _framework density 23.955131000000002
#
# number of rings (size 3 to 8) (size 9 to 14) (size 15 to 20)
#    1.000    0.333    0.000    6.000    0.000    2.667 
#    0.000    6.667    0.000    0.000    0.000    0.000 
#    0.000    0.000    0.000    0.000    0.000    0.000 
#
# Total GULP energy -67138.010158 kJ/mol
# GULP energy per Si atom -5594.834180 kJ/mol
# Density = 2.390061 g / cm^3
# Si number density = 23.955131 Si / 1000 Ang^3
#
#
#
# Elastic Constant Matrix: (Units=GPa)
#
#
# Indices 1 2 3 4 5 6 
#
# 1 85.9802 28.1952 24.9942 -1.5643 25.6455 -8.0621
# 2 28.1952 166.9509 34.8717 -29.7751 11.7313 -0.6673
# 3 24.9942 34.8717 134.0024 -5.1577 5.8704 4.3518
# 4 -1.5643 -29.7751 -5.1577 37.6929 -0.9500 4.4284
# 5 25.6455 11.7313 5.8704 -0.9500 33.8649 0.1278
# 6 -8.0621 -0.6673 4.3518 4.4284 0.1278 33.0331
#
#
#
# Elastic Compliance Matrix: (Units=1/GPa)
#
#
# Indices 1 2 3 4 5 6 
#
# 1 0.016843 -0.001848 -0.002372 -0.001933 -0.011776 0.004690
# 2 -0.001848 0.007696 -0.001364 0.005900 -0.000861 -0.000903
# 3 -0.002372 -0.001364 0.008286 0.000182 0.000844 -0.001726
# 4 -0.001933 0.005900 0.000182 0.031687 0.000295 -0.004626
# 5 -0.011776 -0.000861 0.000844 0.000295 0.038619 -0.003191
# 6 0.004690 -0.000903 -0.001726 -0.004626 -0.003191 0.032259
#
#
# Mechanical properties :
#
#
# Convention : Reuss Voigt Hill
#
# Bulk Modulus (GPa) = 46.17138 62.56175 54.36656
# Shear Modulus (GPa) = 32.51495 40.84301 36.67898
#
# Velocity S-wave (km/s) = 3.68819 4.13362 3.91724
# Velocity P-wave (km/s) = 6.11988 6.99681 6.57298
#
# Compressibility (1/GPa) = 0.02165844
#
# Stress axis : x y z
#
# Youngs Moduli (GPa) = 59.37228 129.93834 120.68662
#
# Poissons Ratio (x) = 0.24008 0.28622
# Poissons Ratio (y) = 0.10970 0.16461
# Poissons Ratio (z) = 0.14081 0.17723
#
# Static dielectric constant tensor:
#      x y z
#    x 1.895590 0.027280 -0.054350 
#    y 0.027280 1.963750 -0.043140 
#    z -0.054350 -0.043140 1.866980 
# 
# From -- ./inp_files/26856.got.cif
#   From: 2010.05.17/outbox.cif.g08.bks.cpg/sg2_14_cif.got.tgz:26856.got - 2010.06.03 11:33:40.
