data_PCOD9038411
_publ_section_title
;
Structure prediction by ZEFSAII (Michael W. Deem and Ramdas Pophale) SiO2 
 PCOD9038411
Probable space group: P -1
;
_chemical_formula_sum "Si O2"
_cell_formula_units_Z 16
_cell_length_a 6.843943
_cell_length_b 21.781880
_cell_length_c 5.262885
_cell_angle_alpha 81.247491
_cell_angle_beta 107.520608
_cell_angle_gamma 58.147953
_cell_volume 586.779094
_symmetry_space_group_name_H-M "P -1"
_symmetry_group_IT_number 2
_symmetry_cell_setting 'triclinic'
loop_
_space_group_symop_operation_xyz
x,y,z
-x,-y,-z
loop_
_atom_site_type_symbol
_atom_site_label
_atom_site_fract_x
_atom_site_fract_y
_atom_site_fract_z
Si Si1 0.450988 0.760116 0.262742
Si Si2 0.738795 0.687030 0.918707
Si Si3 0.624718 0.872391 0.010643
Si Si4 0.249490 0.026980 0.063793
Si Si5 0.779864 0.087210 0.591819
Si Si6 0.883450 0.522068 0.164495
Si Si7 0.113693 0.704184 0.320950
Si Si8 0.490944 0.469679 0.240083
O O1 0.528358 0.747162 0.007704
O O2 0.345777 0.845185 0.279229
O O3 0.270319 0.733694 0.255161
O O4 0.681228 0.703970 0.588443
O O5 0.750697 0.613666 0.040706
O O6 0.996078 0.678352 0.084062
O O7 0.410119 0.882526 0.737122
O O8 0.496887 0.941955 0.121919
O O9 0.743088 0.906005 0.860828
O O10 0.849515 0.787050 0.261203
O O11 0.061519 0.065173 0.721225
O O12 0.151907 0.996031 0.252414
O O13 0.654817 0.502425 0.128665
O O14 0.000000 0.500000 0.500000
O O15 0.815851 0.512745 0.841124
O O16 0.297814 0.626368 0.611719
O O17 0.500000 0.500000 0.500000
#
# Coordination Sequence:
#
# PCOD9038411 Si02
#       8
#     2   2   2   2   2   2   2   2
#     4  12  27  48  74 114 154 202 263 313 383 467
#     4  12  27  49  76 109 156 199 255 321 386 461
#     4  11  22  44  68 106 143 199 253 312 392 458
#     4  10  23  41  69 103 147 194 256 313 383 457
#     4  11  22  43  67 101 150 199 251 318 378 460
#     4  12  25  48  76 110 152 198 254 319 397 476
#     4  12  26  49  78 112 159 203 260 329 389 473
#     4  12  28  50  78 117 154 201 262 326 399 473
#
# _framework density 27.267500999999999
#
# number of rings (size 3 to 8) (size 9 to 14) (size 15 to 20)
#    0.000    0.500    3.750    4.500    1.750    2.000 
#    4.500    0.000    0.000    0.000    0.000    0.000 
#    0.000    0.000    0.000    0.000    0.000    0.000 
#
# Total GULP energy -89237.268583 kJ/mol
# GULP energy per Si atom -5577.329286 kJ/mol
# Density = 2.720544 g / cm^3
# Si number density = 27.267501 Si / 1000 Ang^3
#
#
#
# Elastic Constant Matrix: (Units=GPa)
#
#
# Indices 1 2 3 4 5 6 
#
# 1 133.4235 55.3840 84.9699 4.4925 19.8970 16.5827
# 2 55.3840 184.1981 71.2548 -19.6781 11.7948 23.9694
# 3 84.9699 71.2548 193.8676 8.9678 29.1198 11.8067
# 4 4.4925 -19.6781 8.9678 56.6273 3.1378 0.2554
# 5 19.8970 11.7948 29.1198 3.1378 73.3489 8.6923
# 6 16.5827 23.9694 11.8067 0.2554 8.6923 59.1700
#
#
#
# Elastic Compliance Matrix: (Units=1/GPa)
#
#
# Indices 1 2 3 4 5 6 
#
# 1 0.011053 -0.001604 -0.003987 -0.000744 -0.000947 -0.001510
# 2 -0.001604 0.007270 -0.002005 0.002970 0.000188 -0.002136
# 3 -0.003987 -0.002005 0.007940 -0.001543 -0.001755 0.000609
# 4 -0.000744 0.002970 -0.001543 0.019020 -0.000393 -0.000711
# 5 -0.000947 0.000188 -0.001755 -0.000393 0.014767 -0.001628
# 6 -0.001510 -0.002136 0.000609 -0.000711 -0.001628 0.018310
#
#
# Mechanical properties :
#
#
# Convention : Reuss Voigt Hill
#
# Bulk Modulus (GPa) = 90.30474 103.85629 97.08051
# Shear Modulus (GPa) = 51.41916 57.82128 54.62022
#
# Velocity S-wave (km/s) = 4.34721 4.60991 4.48048
# Velocity P-wave (km/s) = 7.64118 8.15510 7.90232
#
# Compressibility (1/GPa) = 0.01107362
#
# Stress axis : x y z
#
# Youngs Moduli (GPa) = 90.47017 137.55528 125.94380
#
# Poissons Ratio (x) = 0.22058 0.50208
# Poissons Ratio (y) = 0.14508 0.25248
# Poissons Ratio (z) = 0.36066 0.27575
#
# Static dielectric constant tensor:
#      x y z
#    x 2.891530 0.027080 0.061070 
#    y 0.027080 2.111740 -0.028520 
#    z 0.061070 -0.028520 2.013190 
# 
# From -- ./inp_files/53357.got.cif
#   From: 2010.05.17/outbox.cif.g08.bks.cpg/sg2_27_cif.got.tgz:53357.got - 2010.06.03 11:33:40.
