data_PCOD9038713
_publ_section_title
;
Structure prediction by ZEFSAII (Michael W. Deem and Ramdas Pophale) SiO2 
 PCOD9038713
Probable space group: P -1
;
_chemical_formula_sum "Si O2"
_cell_formula_units_Z 16
_cell_length_a 9.076005
_cell_length_b 8.671266
_cell_length_c 19.101296
_cell_angle_alpha 40.617517
_cell_angle_beta 137.129610
_cell_angle_gamma 122.723065
_cell_volume 665.393012
_symmetry_space_group_name_H-M "P -1"
_symmetry_group_IT_number 2
_symmetry_cell_setting 'triclinic'
loop_
_space_group_symop_operation_xyz
x,y,z
-x,-y,-z
loop_
_atom_site_type_symbol
_atom_site_label
_atom_site_fract_x
_atom_site_fract_y
_atom_site_fract_z
Si Si1 0.788374 0.880819 0.903270
Si Si2 0.217831 0.665271 0.880979
Si Si3 0.704051 0.177278 0.298898
Si Si4 0.140321 0.136312 0.211246
Si Si5 0.487420 0.488020 0.228045
Si Si6 0.528094 0.037688 0.875124
Si Si7 0.141035 0.240458 0.569498
Si Si8 0.729406 0.272379 0.512182
O O1 0.543980 0.883217 0.784752
O O2 0.922434 0.952133 0.857286
O O3 0.748798 0.032924 0.907492
O O4 0.828170 0.607316 0.029899
O O5 0.195500 0.712829 0.774040
O O6 0.058645 0.816525 0.823235
O O7 0.454327 0.765106 0.950908
O O8 0.672749 0.368553 0.283613
O O9 0.820997 0.916072 0.432552
O O10 0.261349 0.383213 0.162040
O O11 0.301914 0.948177 0.372110
O O12 0.470440 0.771841 0.128174
O O13 0.535913 0.382271 0.359507
O O14 0.329328 0.147864 0.720663
O O15 0.177155 0.518156 0.479963
O O16 0.917519 0.207709 0.543595
#
# Coordination Sequence:
#
# PCOD9038713 Si02
#       8
#     2   2   2   2   2   2   2   2
#     4   9  19  34  58  77 101 138 179 218 257 305
#     4  10  18  36  60  76  99 138 184 218 250 301
#     4   9  17  35  52  82 104 134 174 214 258 313
#     4  11  20  35  51  82 109 135 171 215 266 309
#     4  10  22  33  53  78 115 138 162 214 272 313
#     4   9  17  37  55  77 103 136 180 215 251 307
#     4   8  16  31  56  77  99 132 182 217 237 302
#     4  10  17  33  54  77 108 139 170 210 261 303
#
# _framework density 24.045936999999999
#
# number of rings (size 3 to 8) (size 9 to 14) (size 15 to 20)
#    0.000    2.750    2.500    2.250    0.000    0.500 
#    0.000   18.750    0.000    0.000    0.000    0.000 
#    0.000    0.000    0.000    0.000    0.000    0.000 
#
# Total GULP energy -89175.834838 kJ/mol
# GULP energy per Si atom -5573.489677 kJ/mol
# Density = 2.399121 g / cm^3
# Si number density = 24.045937 Si / 1000 Ang^3
#
#
#
# Elastic Constant Matrix: (Units=GPa)
#
#
# Indices 1 2 3 4 5 6 
#
# 1 117.9981 25.7428 12.1532 -10.3935 1.2242 -38.5621
# 2 25.7428 70.7905 12.4137 -14.5285 -11.1472 -31.6339
# 3 12.1532 12.4137 41.7147 -10.8805 -5.1492 -15.0591
# 4 -10.3935 -14.5285 -10.8805 35.8140 -2.6999 5.0122
# 5 1.2242 -11.1472 -5.1492 -2.6999 28.4192 -4.0742
# 6 -38.5621 -31.6339 -15.0591 5.0122 -4.0742 39.7860
#
#
#
# Elastic Compliance Matrix: (Units=1/GPa)
#
#
# Indices 1 2 3 4 5 6 
#
# 1 0.013120 0.003614 0.002618 0.004069 0.004077 0.016486
# 2 0.003614 0.031147 0.006560 0.012753 0.018918 0.031081
# 3 0.002618 0.006560 0.033065 0.011593 0.012432 0.020081
# 4 0.004069 0.012753 0.011593 0.036627 0.012579 0.015146
# 5 0.004077 0.018918 0.012432 0.012579 0.049781 0.027211
# 6 0.016486 0.031081 0.020081 0.015146 0.027211 0.074305
#
#
# Mechanical properties :
#
#
# Convention : Reuss Voigt Hill
#
# Bulk Modulus (GPa) = 9.71659 36.79143 23.25401
# Shear Modulus (GPa) = 20.26201 32.81674 26.53937
#
# Velocity S-wave (km/s) = 2.90597 3.69826 3.32579
# Velocity P-wave (km/s) = 3.91269 5.79395 4.94364
#
# Compressibility (1/GPa) = 0.10291679
#
# Stress axis : x y z
#
# Youngs Moduli (GPa) = 76.21700 32.10569 30.24323
#
# Poissons Ratio (x) = -0.11602 -0.07918
# Poissons Ratio (y) = -0.27542 -0.19840
# Poissons Ratio (z) = -0.19954 -0.21062
#
# Static dielectric constant tensor:
#      x y z
#    x 1.978650 -0.041480 0.008290 
#    y -0.041480 2.043400 0.029200 
#    z 0.008290 0.029200 1.968610 
# 
# From -- ./inp_files/211898.got.cif
#   From: 2010.05.17/outbox.cif.g08.bks.cpg/sg2_106_cif.got.tgz:211898.got - 2010.06.03 11:33:40.
