data_PCOD9038259
_publ_section_title
;
Structure prediction by ZEFSAII (Michael W. Deem and Ramdas Pophale) SiO2 
 PCOD9038259
Probable space group: P -1
;
_chemical_formula_sum "Si O2"
_cell_formula_units_Z 16
_cell_length_a 15.106846
_cell_length_b 24.180456
_cell_length_c 5.233138
_cell_angle_alpha 102.343755
_cell_angle_beta 104.625856
_cell_angle_gamma 22.001762
_cell_volume 691.859551
_symmetry_space_group_name_H-M "P -1"
_symmetry_group_IT_number 2
_symmetry_cell_setting 'triclinic'
loop_
_space_group_symop_operation_xyz
x,y,z
-x,-y,-z
loop_
_atom_site_type_symbol
_atom_site_label
_atom_site_fract_x
_atom_site_fract_y
_atom_site_fract_z
Si Si1 0.415854 0.112501 0.049616
Si Si2 0.704342 0.328717 0.692568
Si Si3 0.232480 0.990214 0.800246
Si Si4 0.268248 0.853674 0.460386
Si Si5 0.178188 0.298890 0.544922
Si Si6 0.399524 0.486729 0.123081
Si Si7 0.543342 0.750898 0.193115
Si Si8 0.715053 0.561995 0.778187
O O1 0.647520 0.019076 0.180033
O O2 0.236714 0.230617 0.265574
O O3 0.306102 0.195640 0.781207
O O4 0.500000 0.000000 0.000000
O O5 0.606841 0.376614 0.381687
O O6 0.747400 0.371003 0.815848
O O7 0.510854 0.421268 0.856551
O O8 0.948821 0.156189 0.751435
O O9 0.316405 0.893369 0.573089
O O10 0.345601 0.902396 0.056022
O O11 0.380691 0.788906 0.199173
O O12 0.447307 0.715217 0.620939
O O13 0.000000 0.000000 0.500000
O O14 0.285481 0.300885 0.597193
O O15 0.902260 0.458414 0.581768
O O16 0.258474 0.511146 0.119742
O O17 0.724775 0.613941 0.999385
#
# Coordination Sequence:
#
# PCOD9038259 Si02
#       8
#     2   2   2   2   2   2   2   2
#     4  11  25  46  71 104 136 181 231 285 343 414
#     4  10  23  43  68  90 139 178 221 284 344 409
#     4  10  23  41  67  97 133 181 222 287 344 405
#     4  11  24  41  68 100 137 183 231 283 346 409
#     4  11  25  47  70 101 139 179 232 283 348 409
#     4  10  24  43  62 101 130 177 230 276 343 407
#     4  10  24  44  65 101 137 183 231 282 349 408
#     4  11  26  40  70 102 138 182 232 290 335 416
#
# _framework density 23.126083000000001
#
# number of rings (size 3 to 8) (size 9 to 14) (size 15 to 20)
#    0.000    1.500    1.250    1.500   10.500    1.500 
#    4.500    0.000    0.000    0.000    0.000    0.000 
#    0.000    0.000    0.000    0.000    0.000    0.000 
#
# Total GULP energy -89342.330638 kJ/mol
# GULP energy per Si atom -5583.895665 kJ/mol
# Density = 2.307345 g / cm^3
# Si number density = 23.126083 Si / 1000 Ang^3
#
#
#
# Elastic Constant Matrix: (Units=GPa)
#
#
# Indices 1 2 3 4 5 6 
#
# 1 120.4124 34.8085 12.9526 11.8728 -10.8516 7.9430
# 2 34.8085 72.9919 13.4702 11.3140 -0.6405 -6.5952
# 3 12.9526 13.4702 68.8361 1.6837 -18.0596 0.5381
# 4 11.8728 11.3140 1.6837 21.5507 -6.2761 2.5512
# 5 -10.8516 -0.6405 -18.0596 -6.2761 29.1507 9.7783
# 6 7.9430 -6.5952 0.5381 2.5512 9.7783 40.4854
#
#
#
# Elastic Compliance Matrix: (Units=1/GPa)
#
#
# Indices 1 2 3 4 5 6 
#
# 1 0.010657 -0.005342 0.000499 -0.001055 0.005337 -0.004190
# 2 -0.005342 0.019353 -0.005030 -0.010388 -0.009322 0.007174
# 3 0.000499 -0.005030 0.019247 0.005837 0.014987 -0.005161
# 4 -0.001055 -0.010388 0.005837 0.058655 0.018921 -0.009829
# 5 0.005337 -0.009322 0.014987 0.018921 0.055249 -0.017301
# 6 -0.004190 0.007174 -0.005161 -0.009829 -0.017301 0.031558
#
#
# Mechanical properties :
#
#
# Convention : Reuss Voigt Hill
#
# Bulk Modulus (GPa) = 33.88593 42.74476 38.31535
# Shear Modulus (GPa) = 22.29151 31.63796 26.96474
#
# Velocity S-wave (km/s) = 3.10806 3.70275 3.41836
# Velocity P-wave (km/s) = 5.25020 6.06662 5.67312
#
# Compressibility (1/GPa) = 0.02951077
#
# Stress axis : x y z
#
# Youngs Moduli (GPa) = 93.83538 51.67265 51.95582
#
# Poissons Ratio (x) = 0.27606 -0.02593
# Poissons Ratio (y) = 0.50131 0.26131
# Poissons Ratio (z) = -0.04683 0.25989
#
# Static dielectric constant tensor:
#      x y z
#    x 1.968720 -0.066500 -0.140320 
#    y -0.066500 1.846110 0.104760 
#    z -0.140320 0.104760 2.238230 
# 
# From -- ./inp_files/101062.got.cif
#   From: 2010.05.17/outbox.cif.g08.bks.cpg/sg2_51_cif.got.tgz:101062.got - 2010.06.03 11:33:40.
