data_PCOD9038059
_publ_section_title
;
Structure prediction by ZEFSAII (Michael W. Deem and Ramdas Pophale) SiO2 
 PCOD9038059
Probable space group: P -1
;
_chemical_formula_sum "Si O2"
_cell_formula_units_Z 16
_cell_length_a 16.448528
_cell_length_b 8.444346
_cell_length_c 10.670562
_cell_angle_alpha 119.047764
_cell_angle_beta 112.874118
_cell_angle_gamma 32.048821
_cell_volume 686.710030
_symmetry_space_group_name_H-M "P -1"
_symmetry_group_IT_number 2
_symmetry_cell_setting 'triclinic'
loop_
_space_group_symop_operation_xyz
x,y,z
-x,-y,-z
loop_
_atom_site_type_symbol
_atom_site_label
_atom_site_fract_x
_atom_site_fract_y
_atom_site_fract_z
Si Si1 0.342130 0.276350 0.862943
Si Si2 0.344094 0.195839 0.278399
Si Si3 0.979592 0.683151 0.449916
Si Si4 0.049862 0.566404 0.154841
Si Si5 0.482656 0.326019 0.150313
Si Si6 0.532791 0.631904 0.327749
Si Si7 0.855763 0.260681 0.292593
Si Si8 0.670054 0.386966 0.565235
O O1 0.192515 0.562886 0.800552
O O2 0.491855 0.031110 0.768977
O O3 0.369465 0.041944 0.861872
O O4 0.378510 0.380990 0.017915
O O5 0.233575 0.281787 0.149438
O O6 0.266092 0.517317 0.382364
O O7 0.389218 0.996649 0.345607
O O8 0.000000 0.500000 0.500000
O O9 0.024576 0.563451 0.287078
O O10 0.066615 0.717717 0.565226
O O11 0.799467 0.028799 0.471769
O O12 0.963513 0.902512 0.206254
O O13 0.000000 0.500000 0.000000
O O14 0.525949 0.453713 0.181655
O O15 0.380667 0.531238 0.291336
O O16 0.693469 0.457305 0.323076
O O17 0.535336 0.595885 0.463868
#
# Coordination Sequence:
#
# PCOD9038059 Si02
#       8
#     2   2   2   2   2   2   2   2
#     4   9  23  43  68 100 141 179 228 289 353 412
#     4  10  23  42  67  98 136 180 234 286 344 412
#     4  12  28  48  72 102 146 188 235 291 355 425
#     4  12  27  46  72 105 144 186 237 290 354 420
#     4  10  23  41  66 102 142 176 226 291 354 412
#     4  11  23  39  73  97 133 175 238 285 341 408
#     4  11  24  47  74  99 137 187 237 289 347 418
#     4  11  22  44  64 100 134 186 226 290 343 423
#
# _framework density 23.299499999999998
#
# number of rings (size 3 to 8) (size 9 to 14) (size 15 to 20)
#    0.000    1.250    2.500    1.875    7.000    3.000 
#    4.500    1.250    0.000    0.000    0.000    0.000 
#    0.000    0.000    0.000    0.000    0.000    0.000 
#
# Total GULP energy -89448.677314 kJ/mol
# GULP energy per Si atom -5590.542332 kJ/mol
# Density = 2.324647 g / cm^3
# Si number density = 23.299500 Si / 1000 Ang^3
#
#
#
# Elastic Constant Matrix: (Units=GPa)
#
#
# Indices 1 2 3 4 5 6 
#
# 1 55.3822 28.4051 24.9877 7.5615 8.6630 18.1729
# 2 28.4051 114.1887 35.8999 -17.8265 -4.1593 11.5913
# 3 24.9877 35.8999 131.7622 -4.3098 14.0539 14.1724
# 4 7.5615 -17.8265 -4.3098 29.7522 1.1587 0.8834
# 5 8.6630 -4.1593 14.0539 1.1587 39.4697 -3.6889
# 6 18.1729 11.5913 14.1724 0.8834 -3.6889 23.0193
#
#
#
# Elastic Compliance Matrix: (Units=1/GPa)
#
#
# Indices 1 2 3 4 5 6 
#
# 1 0.033152 -0.007865 -0.001108 -0.012260 -0.009461 -0.022575
# 2 -0.007865 0.012855 -0.002257 0.009188 0.003743 0.001373
# 3 -0.001108 -0.002257 0.009296 0.000549 -0.003725 -0.004330
# 4 -0.012260 0.009188 0.000549 0.042108 0.002555 0.003508
# 5 -0.009461 0.003743 -0.003725 0.002555 0.030238 0.012625
# 6 -0.022575 0.001373 -0.004330 0.003508 0.012625 0.065127
#
#
# Mechanical properties :
#
#
# Convention : Reuss Voigt Hill
#
# Bulk Modulus (GPa) = 30.44942 53.32427 41.88685
# Shear Modulus (GPa) = 22.10603 32.58426 27.34515
#
# Velocity S-wave (km/s) = 3.08356 3.74370 3.42955
# Velocity P-wave (km/s) = 5.07690 6.45161 5.80509
#
# Compressibility (1/GPa) = 0.03284135
#
# Stress axis : x y z
#
# Youngs Moduli (GPa) = 30.16452 77.79128 107.57799
#
# Poissons Ratio (x) = 0.61185 0.11916
# Poissons Ratio (y) = 0.23725 0.24284
# Poissons Ratio (z) = 0.03341 0.17560
#
# Static dielectric constant tensor:
#      x y z
#    x 2.017870 0.040130 0.008250 
#    y 0.040130 1.874990 0.008080 
#    z 0.008250 0.008080 1.903250 
# 
# From -- ./inp_files/209233.got.cif
#   From: 2010.05.17/outbox.cif.g08.bks.cpg/sg2_105_cif.got.tgz:209233.got - 2010.06.03 11:33:40.
