data_PCOD9038144
_publ_section_title
;
Structure prediction by ZEFSAII (Michael W. Deem and Ramdas Pophale) SiO2 
 PCOD9038144
Probable space group: P -1
;
_chemical_formula_sum "Si O2"
_cell_formula_units_Z 16
_cell_length_a 11.683659
_cell_length_b 18.831061
_cell_length_c 8.733933
_cell_angle_alpha 113.050964
_cell_angle_beta 37.996998
_cell_angle_gamma 137.321435
_cell_volume 716.138697
_symmetry_space_group_name_H-M "P -1"
_symmetry_group_IT_number 2
_symmetry_cell_setting 'triclinic'
loop_
_space_group_symop_operation_xyz
x,y,z
-x,-y,-z
loop_
_atom_site_type_symbol
_atom_site_label
_atom_site_fract_x
_atom_site_fract_y
_atom_site_fract_z
Si Si1 0.190228 0.871479 0.180128
Si Si2 0.857861 0.878912 0.728778
Si Si3 0.246180 0.727192 0.146208
Si Si4 0.195449 0.523181 0.442716
Si Si5 0.812481 0.750681 0.954451
Si Si6 0.165602 0.768902 0.815572
Si Si7 0.200519 0.096753 0.738178
Si Si8 0.861538 0.386168 0.140042
O O1 0.158320 0.786076 0.248417
O O2 0.963406 0.864809 0.458719
O O3 0.174892 0.837050 0.993749
O O4 0.500000 0.000000 0.000000
O O5 0.537567 0.808900 0.999177
O O6 0.877475 0.821691 0.796370
O O7 0.066852 0.015169 0.660568
O O8 0.987199 0.602987 0.397976
O O9 0.310128 0.707626 0.895887
O O10 0.516802 0.613134 0.125024
O O11 0.000000 0.500000 0.500000
O O12 0.240608 0.600380 0.593115
O O13 0.804112 0.813538 0.151077
O O14 0.042932 0.762396 0.781824
O O15 0.481373 0.834760 0.519648
O O16 0.985374 0.640876 0.968924
O O17 0.000000 0.000000 0.000000
O O18 0.000000 0.500000 0.000000
#
# Coordination Sequence:
#
# PCOD9038144 Si02
#       8
#     2   2   2   2   2   2   2   2
#     4  11  25  43  64  98 138 176 226 276 324 395
#     4  11  24  42  67 102 133 180 222 269 339 395
#     4  10  24  44  67  96 138 174 221 278 330 399
#     4  11  21  44  71  99 130 173 224 275 337 400
#     4  11  25  42  71 102 132 176 222 278 343 394
#     4  11  23  44  68 100 132 174 225 273 333 400
#     4  10  23  41  66  98 134 178 216 269 337 391
#     4   9  21  43  67  89 132 175 211 273 329 389
#
# _framework density 22.342040000000001
#
# number of rings (size 3 to 8) (size 9 to 14) (size 15 to 20)
#    0.000    1.500    3.750    0.000    3.500    5.500 
#    4.500    3.125    0.000    0.000    0.000    0.000 
#    0.000    0.000    0.000    0.000    0.000    0.000 
#
# Total GULP energy -89258.999968 kJ/mol
# GULP energy per Si atom -5578.687498 kJ/mol
# Density = 2.229119 g / cm^3
# Si number density = 22.342040 Si / 1000 Ang^3
#
#
#
# Elastic Constant Matrix: (Units=GPa)
#
#
# Indices 1 2 3 4 5 6 
#
# 1 126.5956 18.6885 22.9650 -21.1483 -1.0174 -11.2348
# 2 18.6885 79.1336 32.8697 -20.7049 -3.4291 -15.2249
# 3 22.9650 32.8697 71.5140 -8.1536 -7.4273 -7.2895
# 4 -21.1483 -20.7049 -8.1536 39.0730 2.6116 5.3096
# 5 -1.0174 -3.4291 -7.4273 2.6116 30.6910 -0.5180
# 6 -11.2348 -15.2249 -7.2895 5.3096 -0.5180 11.5120
#
#
#
# Elastic Compliance Matrix: (Units=1/GPa)
#
#
# Indices 1 2 3 4 5 6 
#
# 1 0.009538 0.001333 -0.002454 0.004364 -0.000374 0.007488
# 2 0.001333 0.021492 -0.007182 0.007638 0.000423 0.021673
# 3 -0.002454 -0.007182 0.018335 -0.001642 0.003704 0.000641
# 4 0.004364 0.007638 -0.001642 0.032013 -0.002150 -0.001541
# 5 -0.000374 0.000423 0.003704 -0.002150 0.033782 0.005052
# 6 0.007488 0.021673 0.000641 -0.001541 0.005052 0.124181
#
#
# Mechanical properties :
#
#
# Convention : Reuss Voigt Hill
#
# Bulk Modulus (GPa) = 30.52586 47.36550 38.94568
# Shear Modulus (GPa) = 18.73594 29.76986 24.25290
#
# Velocity S-wave (km/s) = 2.89899 3.65425 3.29831
# Velocity P-wave (km/s) = 4.98981 6.24907 5.65460
#
# Compressibility (1/GPa) = 0.03275911
#
# Stress axis : x y z
#
# Youngs Moduli (GPa) = 104.84307 46.52917 54.54012
#
# Poissons Ratio (x) = -0.06202 0.13382
# Poissons Ratio (y) = -0.13975 0.39173
# Poissons Ratio (z) = 0.25724 0.33419
#
# Static dielectric constant tensor:
#      x y z
#    x 1.789560 0.021590 0.047900 
#    y 0.021590 1.848130 0.006330 
#    z 0.047900 0.006330 1.823070 
# 
# From -- ./inp_files/283124.got.cif
#   From: 2010.05.17/outbox.cif.g08.bks.cpg/sg2_142_cif.got.tgz:283124.got - 2010.06.03 11:33:40.
