data_PCOD9038222
_publ_section_title
;
Structure prediction by ZEFSAII (Michael W. Deem and Ramdas Pophale) SiO2 
 PCOD9038222
Probable space group: P -1
;
_chemical_formula_sum "Si O2"
_cell_formula_units_Z 16
_cell_length_a 8.555984
_cell_length_b 5.085952
_cell_length_c 25.427185
_cell_angle_alpha 83.840266
_cell_angle_beta 33.987699
_cell_angle_gamma 80.759769
_cell_volume 609.838297
_symmetry_space_group_name_H-M "P -1"
_symmetry_group_IT_number 2
_symmetry_cell_setting 'triclinic'
loop_
_space_group_symop_operation_xyz
x,y,z
-x,-y,-z
loop_
_atom_site_type_symbol
_atom_site_label
_atom_site_fract_x
_atom_site_fract_y
_atom_site_fract_z
Si Si1 0.226899 0.437229 0.298661
Si Si2 0.686766 0.194784 0.340014
Si Si3 0.311024 0.333543 0.592836
Si Si4 0.226778 0.108440 0.398239
Si Si5 0.675601 0.718841 0.217424
Si Si6 0.244068 0.152304 0.002051
Si Si7 0.683709 0.166257 0.115749
Si Si8 0.853597 0.137589 0.855996
O O1 0.510582 0.488821 0.247812
O O2 0.367914 0.306507 0.210093
O O3 0.995056 0.682670 0.347395
O O4 0.087868 0.255271 0.382603
O O5 0.587065 0.964338 0.410673
O O6 0.412650 0.279460 0.378798
O O7 0.947862 0.036574 0.237837
O O8 0.751881 0.457309 0.346020
O O9 0.500000 0.500000 0.500000
O O10 0.459031 0.884597 0.314230
O O11 0.000000 0.000000 0.500000
O O12 0.964058 0.656616 0.170297
O O13 0.702856 0.910142 0.155356
O O14 0.548236 0.257574 0.916490
O O15 0.283785 0.919292 0.951787
O O16 0.950075 0.308303 0.059153
O O17 0.195876 0.052775 0.076454
#
# Coordination Sequence:
#
# PCOD9038222 Si02
#       8
#     2   2   2   2   2   2   2   2
#     4  11  24  40  69  93 138 176 228 285 352 407
#     4  11  26  46  71 102 144 181 230 289 350 410
#     4  12  28  46  72 104 141 185 234 286 344 421
#     4  10  23  41  67  94 129 179 231 285 342 414
#     4   9  21  37  59  92 129 171 223 278 341 410
#     4   9  17  36  67  89 128 174 226 284 333 418
#     4   9  19  38  62  92 127 174 223 282 340 407
#     4   9  19  38  64  93 131 177 222 282 345 404
#
# _framework density 26.236466
#
# number of rings (size 3 to 8) (size 9 to 14) (size 15 to 20)
#    0.000    2.000    0.000    2.625   10.500    0.500 
#    0.000    6.250    5.500    0.000    0.000    0.000 
#    0.000    0.000    0.000    0.000    0.000    0.000 
#
# Total GULP energy -89444.158463 kJ/mol
# GULP energy per Si atom -5590.259904 kJ/mol
# Density = 2.617675 g / cm^3
# Si number density = 26.236466 Si / 1000 Ang^3
#
#
#
# Elastic Constant Matrix: (Units=GPa)
#
#
# Indices 1 2 3 4 5 6 
#
# 1 86.1719 16.5831 42.9485 -1.8297 -13.8971 3.2708
# 2 16.5831 65.0648 -0.7456 -12.8750 8.1437 -5.2562
# 3 42.9485 -0.7456 99.0335 -17.8982 12.9305 -3.3535
# 4 -1.8297 -12.8750 -17.8982 21.7858 -3.5119 5.6085
# 5 -13.8971 8.1437 12.9305 -3.5119 48.7601 -7.2459
# 6 3.2708 -5.2562 -3.3535 5.6085 -7.2459 38.1277
#
#
#
# Elastic Compliance Matrix: (Units=1/GPa)
#
#
# Indices 1 2 3 4 5 6 
#
# 1 0.021163 -0.009314 -0.012838 -0.012535 0.010017 -0.000481
# 2 -0.009314 0.022364 0.008434 0.018044 -0.007239 0.000594
# 3 -0.012838 0.008434 0.020400 0.019324 -0.009164 -0.000526
# 4 -0.012535 0.018044 0.019324 0.071910 -0.007534 -0.006747
# 5 0.010017 -0.007239 -0.009164 -0.007534 0.026991 0.003574
# 6 -0.000481 0.000594 -0.000526 -0.006747 0.003574 0.027976
#
#
# Mechanical properties :
#
#
# Convention : Reuss Voigt Hill
#
# Bulk Modulus (GPa) = 27.40401 40.87136 34.13769
# Shear Modulus (GPa) = 21.70097 34.50035 28.10066
#
# Velocity S-wave (km/s) = 2.87911 3.63019 3.27625
# Velocity P-wave (km/s) = 4.63897 5.76047 5.22987
#
# Compressibility (1/GPa) = 0.03649101
#
# Stress axis : x y z
#
# Youngs Moduli (GPa) = 47.25173 44.71401 49.02067
#
# Poissons Ratio (x) = 0.41647 0.62932
# Poissons Ratio (y) = 0.44011 -0.41344
# Poissons Ratio (z) = 0.60661 -0.37712
#
# Static dielectric constant tensor:
#      x y z
#    x 2.117180 0.066650 0.033320 
#    y 0.066650 2.023830 -0.033240 
#    z 0.033320 -0.033240 2.137860 
# 
# From -- ./inp_files/553477.got.cif
#   From: 2010.05.17/outbox.cif.g08.bks.cpg/sg2_277_cif.got.tgz:553477.got - 2010.06.03 11:33:40.
