data_PCOD9038612
_publ_section_title
;
Structure prediction by ZEFSAII (Michael W. Deem and Ramdas Pophale) SiO2 
 PCOD9038612
Probable space group: P -1
;
_chemical_formula_sum "Si O2"
_cell_formula_units_Z 10
_cell_length_a 6.672621
_cell_length_b 10.925374
_cell_length_c 6.682160
_cell_angle_alpha 62.121560
_cell_angle_beta 63.320529
_cell_angle_gamma 81.396720
_cell_volume 383.629194
_symmetry_space_group_name_H-M "P -1"
_symmetry_group_IT_number 2
_symmetry_cell_setting 'triclinic'
loop_
_space_group_symop_operation_xyz
x,y,z
-x,-y,-z
loop_
_atom_site_type_symbol
_atom_site_label
_atom_site_fract_x
_atom_site_fract_y
_atom_site_fract_z
Si Si1 0.229687 0.521792 0.499632
Si Si2 0.060095 0.303960 0.060524
Si Si3 0.567490 0.311398 0.406114
Si Si4 0.752533 0.977935 0.846383
Si Si5 0.183531 0.148926 0.494265
O O1 0.417250 0.443605 0.357444
O O2 0.339453 0.668344 0.422305
O O3 0.000000 0.500000 0.500000
O O4 0.165620 0.437027 0.797583
O O5 0.155990 0.169110 0.020293
O O6 0.139026 0.281396 0.271122
O O7 0.790653 0.302996 0.180452
O O8 0.389812 0.187038 0.516656
O O9 0.760688 0.966770 0.607252
O O10 0.946541 0.093272 0.736380
O O11 0.500000 0.000000 0.000000
#
# Coordination Sequence:
#
# PCOD9038612 Si02
#       5
#     2   2   2   2   2
#     4  11  26  43  65 102 138 184 228 271 337 411
#     4  10  23  41  71  98 135 183 219 279 346 393
#     4  11  24  43  70  98 141 175 229 284 336 402
#     4   9  21  44  72 101 138 173 224 285 342 410
#     4   9  22  42  68 103 133 175 226 280 343 397
#
# _framework density 26.066837
#
# number of rings (size 3 to 8) (size 9 to 14) (size 15 to 20)
#    1.200    0.800    0.000    1.800    2.800    7.200 
#    0.000    2.000    0.000    1.200    0.000    0.000 
#    0.000    0.000    0.000    0.000    0.000    0.000 
#
# Total GULP energy -55874.783815 kJ/mol
# GULP energy per Si atom -5587.478382 kJ/mol
# Density = 2.600751 g / cm^3
# Si number density = 26.066837 Si / 1000 Ang^3
#
#
#
# Elastic Constant Matrix: (Units=GPa)
#
#
# Indices 1 2 3 4 5 6 
#
# 1 205.4349 84.9068 78.7505 3.1889 -63.0571 22.7956
# 2 84.9068 91.3381 53.5285 8.9509 -37.2451 7.6539
# 3 78.7505 53.5285 136.0785 16.4888 -56.1661 -3.9576
# 4 3.1889 8.9509 16.4888 44.5166 -16.9741 -17.9623
# 5 -63.0571 -37.2451 -56.1661 -16.9741 64.1748 1.1494
# 6 22.7956 7.6539 -3.9576 -17.9623 1.1494 56.3316
#
#
#
# Elastic Compliance Matrix: (Units=1/GPa)
#
#
# Indices 1 2 3 4 5 6 
#
# 1 0.009892 -0.006098 -0.001344 0.002047 0.005594 -0.002730
# 2 -0.006098 0.019592 -0.003065 -0.001966 0.002196 -0.001081
# 3 -0.001344 -0.003065 0.012667 -0.000341 0.007868 0.001581
# 4 0.002047 -0.001966 -0.000341 0.029454 0.008207 0.008639
# 5 0.005594 0.002196 0.007868 0.008207 0.031411 -0.000033
# 6 -0.002730 -0.001081 0.001581 0.008639 -0.000033 0.021870
#
#
# Mechanical properties :
#
#
# Convention : Reuss Voigt Hill
#
# Bulk Modulus (GPa) = 47.31077 96.35813 71.83445
# Shear Modulus (GPa) = 32.69158 47.38233 40.03695
#
# Velocity S-wave (km/s) = 3.54523 4.26810 3.92335
# Velocity P-wave (km/s) = 5.91163 7.83167 6.93839
#
# Compressibility (1/GPa) = 0.02113683
#
# Stress axis : x y z
#
# Youngs Moduli (GPa) = 101.09652 51.04220 78.94519
#
# Poissons Ratio (x) = 0.31126 0.10611
# Poissons Ratio (y) = 0.61649 0.24193
# Poissons Ratio (z) = 0.13588 0.15642
#
# Static dielectric constant tensor:
#      x y z
#    x 2.061220 -0.003490 0.047350 
#    y -0.003490 2.140650 -0.005030 
#    z 0.047350 -0.005030 2.049740 
# 
# From -- ./inp_files/62739.got.cif
#   From: 2010.05.17/outbox.cif.g08.bks.cpg/sg2_32_cif.got.tgz:62739.got - 2010.06.03 11:33:40.
