data_PCOD9038879
_publ_section_title
;
Structure prediction by ZEFSAII (Michael W. Deem and Ramdas Pophale) SiO2 
 PCOD9038879
Probable space group: P -1
;
_chemical_formula_sum "Si O2"
_cell_formula_units_Z 16
_cell_length_a 16.004594
_cell_length_b 9.976546
_cell_length_c 4.991611
_cell_angle_alpha 69.769353
_cell_angle_beta 78.843808
_cell_angle_gamma 113.096864
_cell_volume 635.916691
_symmetry_space_group_name_H-M "P -1"
_symmetry_group_IT_number 2
_symmetry_cell_setting 'triclinic'
loop_
_space_group_symop_operation_xyz
x,y,z
-x,-y,-z
loop_
_atom_site_type_symbol
_atom_site_label
_atom_site_fract_x
_atom_site_fract_y
_atom_site_fract_z
Si Si1 0.583629 0.852074 0.197216
Si Si2 0.048096 0.285583 0.293670
Si Si3 0.103387 0.111170 0.008914
Si Si4 0.561834 0.308092 0.105320
Si Si5 0.726795 0.235880 0.907382
Si Si6 0.390039 0.428528 0.512886
Si Si7 0.908644 0.201872 0.925130
Si Si8 0.777239 0.519458 0.273263
O O1 0.509544 0.783704 0.541377
O O2 0.647699 0.761553 0.271892
O O3 0.511446 0.790133 0.030125
O O4 0.653838 0.046452 0.002284
O O5 0.994476 0.294376 0.585057
O O6 0.966862 0.240736 0.141426
O O7 0.083892 0.151092 0.297557
O O8 0.150161 0.446296 0.042916
O O9 0.165142 0.299099 0.734339
O O10 0.142722 0.986650 0.022575
O O11 0.000000 0.000000 0.000000
O O12 0.655328 0.282167 0.082483
O O13 0.600634 0.497011 0.842795
O O14 0.822695 0.243852 0.966299
O O15 0.763658 0.365172 0.551926
O O16 0.500000 0.500000 0.500000
O O17 0.328047 0.492127 0.674222
#
# Coordination Sequence:
#
# PCOD9038879 Si02
#       8
#     2   2   2   2   2   2   2   2
#     4  11  22  42  66  90 126 168 209 259 316 379
#     4   9  22  39  64  86 125 160 206 260 309 364
#     4   8  17  38  64  87 120 163 208 260 309 361
#     4  10  23  42  64  91 128 166 206 262 319 370
#     4  11  24  38  64  92 129 166 212 256 314 380
#     4   9  19  39  68  96 124 162 213 264 311 372
#     4  11  21  40  64  91 119 164 211 256 310 369
#     4   9  20  41  60  94 129 166 209 259 319 373
#
# _framework density 25.160527999999999
#
# number of rings (size 3 to 8) (size 9 to 14) (size 15 to 20)
#    0.750    1.500    0.000    2.250    0.000    3.000 
#    0.000   11.250    0.000    0.000    0.000    0.000 
#    0.000    0.000    0.000    0.000    0.000    0.000 
#
# Total GULP energy -89261.917016 kJ/mol
# GULP energy per Si atom -5578.869814 kJ/mol
# Density = 2.510326 g / cm^3
# Si number density = 25.160528 Si / 1000 Ang^3
#
#
#
# Elastic Constant Matrix: (Units=GPa)
#
#
# Indices 1 2 3 4 5 6 
#
# 1 143.9241 29.5616 22.1595 -12.6139 -8.1883 -16.7297
# 2 29.5616 108.2239 49.3045 -28.4253 -4.7887 -20.4136
# 3 22.1595 49.3045 118.1298 -17.3702 -0.0953 12.8232
# 4 -12.6139 -28.4253 -17.3702 53.5139 8.8961 5.0098
# 5 -8.1883 -4.7887 -0.0953 8.8961 28.4704 -9.7490
# 6 -16.7297 -20.4136 12.8232 5.0098 -9.7490 37.3312
#
#
#
# Elastic Compliance Matrix: (Units=1/GPa)
#
#
# Indices 1 2 3 4 5 6 
#
# 1 0.008152 -0.000066 -0.002086 0.000006 0.004182 0.005425
# 2 -0.000066 0.016396 -0.007574 0.004120 0.005697 0.012472
# 3 -0.002086 -0.007574 0.013589 0.002071 -0.006488 -0.011717
# 4 0.000006 0.004120 0.002071 0.023178 -0.007772 -0.003596
# 5 0.004182 0.005697 -0.006488 -0.007772 0.046696 0.020455
# 6 0.005425 0.012472 -0.011717 -0.003596 0.020455 0.045887
#
#
# Mechanical properties :
#
#
# Convention : Reuss Voigt Hill
#
# Bulk Modulus (GPa) = 53.52355 63.59210 58.55782
# Shear Modulus (GPa) = 27.84287 41.81325 34.82806
#
# Velocity S-wave (km/s) = 3.33018 4.08101 3.72457
# Velocity P-wave (km/s) = 6.00881 6.89461 6.46690
#
# Compressibility (1/GPa) = 0.01868337
#
# Stress axis : x y z
#
# Youngs Moduli (GPa) = 122.66958 60.99170 73.58869
#
# Poissons Ratio (x) = 0.00406 0.15351
# Poissons Ratio (y) = 0.00816 0.55737
# Poissons Ratio (z) = 0.25590 0.46196
#
# Static dielectric constant tensor:
#      x y z
#    x 2.010310 -0.009730 0.027050 
#    y -0.009730 2.180560 -0.012880 
#    z 0.027050 -0.012880 2.046270 
# 
# From -- ./inp_files/108417.got.cif
#   From: 2010.05.17/outbox.cif.g08.bks.cpg/sg2_55_cif.got.tgz:108417.got - 2010.06.03 11:33:40.
