data_PCOD9038668
_publ_section_title
;
Structure prediction by ZEFSAII (Michael W. Deem and Ramdas Pophale) SiO2 
 PCOD9038668
Probable space group: P -1
;
_chemical_formula_sum "Si O2"
_cell_formula_units_Z 16
_cell_length_a 5.496567
_cell_length_b 16.410342
_cell_length_c 13.949489
_cell_angle_alpha 31.425509
_cell_angle_beta 108.842415
_cell_angle_gamma 99.279652
_cell_volume 603.984118
_symmetry_space_group_name_H-M "P -1"
_symmetry_group_IT_number 2
_symmetry_cell_setting 'triclinic'
loop_
_space_group_symop_operation_xyz
x,y,z
-x,-y,-z
loop_
_atom_site_type_symbol
_atom_site_label
_atom_site_fract_x
_atom_site_fract_y
_atom_site_fract_z
Si Si1 0.495225 0.822763 0.467923
Si Si2 0.195835 0.653888 0.915633
Si Si3 0.200528 0.167946 0.792886
Si Si4 0.584797 0.810630 0.705406
Si Si5 0.059856 0.082329 0.072212
Si Si6 0.236191 0.563758 0.609902
Si Si7 0.018566 0.406508 0.249574
Si Si8 0.573629 0.341614 0.734334
O O1 0.477280 0.768166 0.630370
O O2 0.394431 0.704935 0.500067
O O3 0.811125 0.777379 0.537512
O O4 0.314019 0.999824 0.250668
O O5 0.430268 0.742155 0.838653
O O6 0.903476 0.762022 0.793727
O O7 0.163793 0.576271 0.884911
O O8 0.220921 0.517759 0.135645
O O9 0.486906 0.205525 0.795121
O O10 0.009302 0.344234 0.578134
O O11 0.117684 0.051386 0.821550
O O12 0.161715 0.100699 0.959886
O O13 0.500000 0.000000 0.500000
O O14 0.865926 0.255149 0.894344
O O15 0.393463 0.402131 0.742891
O O16 0.125698 0.541508 0.722941
O O17 0.500000 0.500000 0.500000
#
# Coordination Sequence:
#
# PCOD9038668 Si02
#       8
#     2   2   2   2   2   2   2   2
#     4  10  24  44  69 101 142 182 250 293 363 443
#     4  10  23  44  75 104 143 185 248 304 369 444
#     4  10  23  43  68  93 142 189 238 284 363 435
#     4  11  23  47  73 104 148 197 239 300 377 448
#     4  10  23  45  69 101 135 192 237 291 362 433
#     4  11  23  41  70 103 140 187 237 307 359 429
#     4  10  23  41  73 102 135 183 242 304 362 434
#     4  12  25  42  69 103 143 187 238 306 361 427
#
# _framework density 26.490762
#
# number of rings (size 3 to 8) (size 9 to 14) (size 15 to 20)
#    0.000    1.500    2.500    1.125    3.500    3.500 
#    4.500    0.000    0.000    0.000    0.000    0.000 
#    0.000    0.000    0.000    0.000    0.000    0.000 
#
# Total GULP energy -89509.369278 kJ/mol
# GULP energy per Si atom -5594.335580 kJ/mol
# Density = 2.643047 g / cm^3
# Si number density = 26.490762 Si / 1000 Ang^3
#
#
#
# Elastic Constant Matrix: (Units=GPa)
#
#
# Indices 1 2 3 4 5 6 
#
# 1 105.9757 33.3763 65.6085 0.4394 6.9675 -31.2924
# 2 33.3763 63.3820 21.4428 -6.4992 -1.6859 -12.1851
# 3 65.6085 21.4428 165.2835 7.5056 33.6531 -32.9930
# 4 0.4394 -6.4992 7.5056 40.8101 -4.1570 -0.9052
# 5 6.9675 -1.6859 33.6531 -4.1570 67.8942 -2.1178
# 6 -31.2924 -12.1851 -32.9930 -0.9052 -2.1178 47.8894
#
#
#
# Elastic Compliance Matrix: (Units=1/GPa)
#
#
# Indices 1 2 3 4 5 6 
#
# 1 0.015607 -0.005597 -0.004453 -0.000048 0.000643 0.005733
# 2 -0.005597 0.019520 -0.000584 0.003462 0.001593 0.001043
# 3 -0.004453 -0.000584 0.009522 -0.002162 -0.004307 0.003270
# 4 -0.000048 0.003462 -0.002162 0.025731 0.002737 -0.000033
# 5 0.000643 0.001593 -0.004307 0.002737 0.016963 -0.001340
# 6 0.005733 0.001043 0.003270 -0.000033 -0.001340 0.027086
#
#
# Mechanical properties :
#
#
# Convention : Reuss Voigt Hill
#
# Bulk Modulus (GPa) = 42.77213 63.94405 53.35809
# Shear Modulus (GPa) = 34.84531 45.59965 40.22248
#
# Velocity S-wave (km/s) = 3.63075 4.15341 3.90084
# Velocity P-wave (km/s) = 5.81012 6.86962 6.36197
#
# Compressibility (1/GPa) = 0.02337971
#
# Stress axis : x y z
#
# Youngs Moduli (GPa) = 64.07506 51.22881 105.02465
#
# Poissons Ratio (x) = 0.28675 0.46768
# Poissons Ratio (y) = 0.35865 0.06133
# Poissons Ratio (z) = 0.28533 0.02992
#
# Static dielectric constant tensor:
#      x y z
#    x 2.172380 0.050800 0.026640 
#    y 0.050800 2.095560 -0.035300 
#    z 0.026640 -0.035300 2.112780 
# 
# From -- ./inp_files/141281.got.cif
#   From: 2010.05.17/outbox.cif.g08.bks.cpg/sg2_71_cif.got.tgz:141281.got - 2010.06.03 11:33:40.
