data_PCOD9038080
_publ_section_title
;
Structure prediction by ZEFSAII (Michael W. Deem and Ramdas Pophale) SiO2 
 PCOD9038080
Probable space group: P -1
;
_chemical_formula_sum "Si O2"
_cell_formula_units_Z 15
_cell_length_a 9.253073
_cell_length_b 17.075182
_cell_length_c 6.786877
_cell_angle_alpha 53.174524
_cell_angle_beta 112.176868
_cell_angle_gamma 136.606466
_cell_volume 586.392790
_symmetry_space_group_name_H-M "P -1"
_symmetry_group_IT_number 2
_symmetry_cell_setting 'triclinic'
loop_
_space_group_symop_operation_xyz
x,y,z
-x,-y,-z
loop_
_atom_site_type_symbol
_atom_site_label
_atom_site_fract_x
_atom_site_fract_y
_atom_site_fract_z
Si Si1 0.916996 0.095386 0.386973
Si Si2 0.094147 0.813253 0.361585
Si Si3 0.857561 0.862033 0.903986
Si Si4 0.483698 0.870923 0.297277
Si Si5 0.175301 0.440588 0.641737
Si Si6 0.400395 0.667552 0.876516
Si Si7 0.500000 0.500000 0.000000
Si Si8 0.220362 0.674263 0.140023
O O1 0.888706 0.165186 0.429636
O O2 0.120138 0.192722 0.205156
O O3 0.930373 0.999123 0.659839
O O4 0.719004 0.002443 0.278093
O O5 0.318531 0.879408 0.285442
O O6 0.929474 0.661151 0.440745
O O7 0.999173 0.871185 0.125993
O O8 0.612691 0.761873 0.978134
O O9 0.443919 0.756609 0.579145
O O10 0.416136 0.817489 0.120291
O O11 0.218528 0.568444 0.405086
O O12 0.988946 0.361901 0.829674
O O13 0.384940 0.477420 0.767482
O O14 0.383789 0.551230 0.963136
O O15 0.230820 0.650880 0.951473
#
# Coordination Sequence:
#
# PCOD9038080 Si02
#       8
#     2   2   2   2   2   2   1   2
#     4  10  23  41  66  91 132 171 210 272 316 374
#     4  11  22  41  66  94 129 169 217 265 320 382
#     4  10  23  42  60  97 127 169 215 266 315 382
#     4  10  23  43  63  97 130 166 222 262 313 392
#     4  10  23  44  64  99 130 164 218 265 313 396
#     4  11  24  42  67  94 131 174 208 268 320 381
#     4  12  22  44  66 100 128 164 224 264 314 392
#     4  10  23  45  66  92 134 173 207 261 328 375
#
# _framework density 25.580123
#
# number of rings (size 3 to 8) (size 9 to 14) (size 15 to 20)
#    0.000    1.600    2.667    0.800    0.000   10.133 
#    0.000    0.000    0.000    0.000    0.000    0.000 
#    0.000    0.000    0.000    0.000    0.000    0.000 
#
# Total GULP energy -83755.510372 kJ/mol
# GULP energy per Si atom -5583.700691 kJ/mol
# Density = 2.552190 g / cm^3
# Si number density = 25.580123 Si / 1000 Ang^3
#
#
#
# Elastic Constant Matrix: (Units=GPa)
#
#
# Indices 1 2 3 4 5 6 
#
# 1 83.0229 35.0635 20.2301 10.6524 7.0881 -30.8466
# 2 35.0635 83.2863 32.4636 26.1919 -5.5981 -13.2750
# 3 20.2301 32.4636 45.2035 6.1411 10.0050 -10.4700
# 4 10.6524 26.1919 6.1411 27.5403 -8.0445 1.4606
# 5 7.0881 -5.5981 10.0050 -8.0445 58.8836 20.7427
# 6 -30.8466 -13.2750 -10.4700 1.4606 20.7427 43.5818
#
#
#
# Elastic Compliance Matrix: (Units=1/GPa)
#
#
# Indices 1 2 3 4 5 6 
#
# 1 0.024871 -0.005458 0.002597 -0.010215 -0.013583 0.023372
# 2 -0.005458 0.025832 -0.014415 -0.018290 0.003192 -0.000364
# 3 0.002597 -0.014415 0.036734 0.000337 -0.012115 0.012027
# 4 -0.010215 -0.018290 0.000337 0.063451 0.016018 -0.022470
# 5 -0.013583 0.003192 -0.012115 0.016018 0.032951 -0.027772
# 6 0.023372 -0.000364 0.012027 -0.022470 -0.027772 0.056237
#
#
# Mechanical properties :
#
#
# Convention : Reuss Voigt Hill
#
# Bulk Modulus (GPa) = 18.90931 43.00300 30.95616
# Shear Modulus (GPa) = 17.10832 34.25152 25.67992
#
# Velocity S-wave (km/s) = 2.58895 3.66319 3.17188
# Velocity P-wave (km/s) = 4.04291 5.89403 5.05394
#
# Compressibility (1/GPa) = 0.05288399
#
# Stress axis : x y z
#
# Youngs Moduli (GPa) = 40.20712 38.71239 27.22310
#
# Poissons Ratio (x) = 0.21130 -0.07069
# Poissons Ratio (y) = 0.21946 0.39241
# Poissons Ratio (z) = -0.10440 0.55802
#
# Static dielectric constant tensor:
#      x y z
#    x 2.008770 -0.026590 0.013100 
#    y -0.026590 2.079690 -0.009160 
#    z 0.013100 -0.009160 2.025020 
# 
# From -- ./inp_files/46798.got.cif
#   From: 2010.05.17/outbox.cif.g08.bks.cpg/sg2_24_cif.got.tgz:46798.got - 2010.06.03 11:33:40.
