data_PCOD9038875
_publ_section_title
;
Structure prediction by ZEFSAII (Michael W. Deem and Ramdas Pophale) SiO2 
 PCOD9038875
Probable space group: P -1
;
_chemical_formula_sum "Si O2"
_cell_formula_units_Z 12
_cell_length_a 7.058351
_cell_length_b 11.973576
_cell_length_c 9.138130
_cell_angle_alpha 137.089205
_cell_angle_beta 114.631333
_cell_angle_gamma 90.757880
_cell_volume 409.837913
_symmetry_space_group_name_H-M "P -1"
_symmetry_group_IT_number 2
_symmetry_cell_setting 'triclinic'
loop_
_space_group_symop_operation_xyz
x,y,z
-x,-y,-z
loop_
_atom_site_type_symbol
_atom_site_label
_atom_site_fract_x
_atom_site_fract_y
_atom_site_fract_z
Si Si1 0.798468 0.177977 0.562374
Si Si2 0.113143 0.274245 0.261972
Si Si3 0.868005 0.893862 0.619138
Si Si4 0.470463 0.659490 0.053664
Si Si5 0.577685 0.140722 0.017630
Si Si6 0.931952 0.569017 0.863453
O O1 0.936001 0.129077 0.435076
O O2 0.797869 0.370448 0.711429
O O3 0.520402 0.012618 0.294797
O O4 0.982046 0.250609 0.828375
O O5 0.867106 0.256800 0.228213
O O6 0.016144 0.086397 0.947179
O O7 0.216972 0.439186 0.334202
O O8 0.245221 0.263791 0.437351
O O9 0.662559 0.846952 0.388053
O O10 0.506829 0.718077 0.947499
O O11 0.500000 0.500000 0.000000
O O12 0.192775 0.600688 0.930614
O O13 0.500000 0.000000 0.000000
#
# Coordination Sequence:
#
# PCOD9038875 Si02
#       6
#     2   2   2   2   2   2
#     4  11  22  40  65  95 124 161 216 262 310 370
#     4  10  23  42  64  90 128 170 208 256 322 381
#     4  11  22  40  65  95 124 161 216 262 310 370
#     4  11  23  42  65  93 128 170 211 258 319 379
#     4  11  23  42  65  93 128 170 211 258 319 379
#     4  10  23  42  64  90 128 170 208 256 322 381
#
# _framework density 29.279869999999999
#
# number of rings (size 3 to 8) (size 9 to 14) (size 15 to 20)
#    0.000    1.333    3.333    2.000    0.000    7.333 
#    0.000    0.000    0.000    6.000    0.000    0.000 
#    0.000    0.000    0.000    0.000    0.000    0.000 
#
# Total GULP energy -67064.184230 kJ/mol
# GULP energy per Si atom -5588.682019 kJ/mol
# Density = 2.921323 g / cm^3
# Si number density = 29.279870 Si / 1000 Ang^3
#
#
#
# Elastic Constant Matrix: (Units=GPa)
#
#
# Indices 1 2 3 4 5 6 
#
# 1 87.6833 15.6402 17.2457 -22.4457 -3.6869 -9.2158
# 2 15.6402 200.9510 30.5888 -63.6436 -8.7722 -6.4805
# 3 17.2457 30.5888 144.3009 -33.9630 -2.8380 -19.7606
# 4 -22.4457 -63.6436 -33.9630 77.6385 -2.4792 9.3275
# 5 -3.6869 -8.7722 -2.8380 -2.4792 48.3323 -7.4568
# 6 -9.2158 -6.4805 -19.7606 9.3275 -7.4568 24.1993
#
#
#
# Elastic Compliance Matrix: (Units=1/GPa)
#
#
# Indices 1 2 3 4 5 6 
#
# 1 0.012767 0.000341 -0.000198 0.003460 0.001822 0.004020
# 2 0.000341 0.006843 -0.000096 0.005696 0.001582 0.000177
# 3 -0.000198 -0.000096 0.008543 0.002902 0.001581 0.006244
# 4 0.003460 0.005696 0.002902 0.020113 0.002213 -0.001858
# 5 0.001822 0.001582 0.001581 0.002213 0.022639 0.008532
# 6 0.004020 0.000177 0.006244 -0.001858 0.008532 0.051346
#
#
# Mechanical properties :
#
#
# Convention : Reuss Voigt Hill
#
# Bulk Modulus (GPa) = 35.39858 62.20939 48.80398
# Shear Modulus (GPa) = 38.00238 54.66473 46.33355
#
# Velocity S-wave (km/s) = 3.60655 4.32554 3.98230
# Velocity P-wave (km/s) = 5.42761 6.79997 6.15217
#
# Compressibility (1/GPa) = 0.02824972
#
# Stress axis : x y z
#
# Youngs Moduli (GPa) = 78.32419 146.13624 117.05488
#
# Poissons Ratio (x) = -0.04987 0.02313
# Poissons Ratio (y) = -0.02673 0.01118
# Poissons Ratio (z) = 0.01547 0.01396
#
# Static dielectric constant tensor:
#      x y z
#    x 2.319700 0.020130 -0.027970 
#    y 0.020130 2.476660 0.131810 
#    z -0.027970 0.131810 2.289040 
# 
# From -- ./inp_files/153146.got.cif
#   From: 2010.05.17/outbox.cif.g08.bks.cpg/sg2_77_cif.got.tgz:153146.got - 2010.06.03 11:33:40.
