data_PCOD9038630
_publ_section_title
;
Structure prediction by ZEFSAII (Michael W. Deem and Ramdas Pophale) SiO2 
 PCOD9038630
Probable space group: P -1
;
_chemical_formula_sum "Si O2"
_cell_formula_units_Z 16
_cell_length_a 22.360000
_cell_length_b 5.517312
_cell_length_c 17.806026
_cell_angle_alpha 116.434977
_cell_angle_beta 161.449870
_cell_angle_gamma 71.142060
_cell_volume 586.902243
_symmetry_space_group_name_H-M "P -1"
_symmetry_group_IT_number 2
_symmetry_cell_setting 'triclinic'
loop_
_space_group_symop_operation_xyz
x,y,z
-x,-y,-z
loop_
_atom_site_type_symbol
_atom_site_label
_atom_site_fract_x
_atom_site_fract_y
_atom_site_fract_z
Si Si1 0.777647 0.806895 0.687092
Si Si2 0.692701 0.756810 0.739689
Si Si3 0.843199 0.162528 0.261277
Si Si4 0.386021 0.194785 0.924114
Si Si5 0.838595 0.368329 0.071532
Si Si6 0.487324 0.715343 0.210468
Si Si7 0.128163 0.193516 0.484470
Si Si8 0.938327 0.324928 0.767919
O O1 0.655387 0.816878 0.617401
O O2 0.680848 0.902800 0.513046
O O3 0.795148 0.497189 0.645652
O O4 0.000000 0.000000 0.000000
O O5 0.500000 0.500000 0.500000
O O6 0.898611 0.685146 0.977761
O O7 0.739752 0.025934 0.888487
O O8 0.000000 0.500000 0.500000
O O9 0.948426 0.024611 0.305279
O O10 0.784415 0.994680 0.246542
O O11 0.637199 0.156425 0.975820
O O12 0.302424 0.312011 0.768343
O O13 0.525511 0.462645 0.174593
O O14 0.500000 0.000000 0.000000
O O15 0.914010 0.501280 0.099390
O O16 0.037224 0.404212 0.362258
O O17 0.674856 0.432598 0.936910
O O18 0.168908 0.980849 0.443160
#
# Coordination Sequence:
#
# PCOD9038630 Si02
#       8
#     2   2   2   2   2   2   2   2
#     4  12  26  47  71 102 143 187 228 287 354 409
#     4  11  25  45  71 101 135 184 237 288 348 407
#     4  11  24  46  75 102 137 186 235 283 340 414
#     4  12  26  45  69 106 145 182 226 286 351 415
#     4  10  23  43  70 105 132 180 237 284 337 414
#     4  11  26  45  70 104 141 183 233 286 343 417
#     4  10  23  41  72 102 137 182 230 278 344 412
#     4  11  23  43  69 101 140 179 227 288 343 413
#
# _framework density 27.261780999999999
#
# number of rings (size 3 to 8) (size 9 to 14) (size 15 to 20)
#    0.000    1.000    2.500    3.000    5.250    4.500 
#    2.250    0.000    0.000    0.000    0.000    0.000 
#    0.000    0.000    0.000    0.000    0.000    0.000 
#
# Total GULP energy -89716.897799 kJ/mol
# GULP energy per Si atom -5607.306112 kJ/mol
# Density = 2.719973 g / cm^3
# Si number density = 27.261781 Si / 1000 Ang^3
#
#
#
# Elastic Constant Matrix: (Units=GPa)
#
#
# Indices 1 2 3 4 5 6 
#
# 1 147.5503 20.6412 38.7655 -0.6033 -17.9155 -1.9786
# 2 20.6412 43.3582 38.2218 -3.7257 -13.6553 0.5483
# 3 38.7655 38.2218 168.1394 -10.3073 -26.1441 14.7324
# 4 -0.6033 -3.7257 -10.3073 51.5168 11.7314 0.8454
# 5 -17.9155 -13.6553 -26.1441 11.7314 55.5297 -4.6006
# 6 -1.9786 0.5483 14.7324 0.8454 -4.6006 60.1002
#
#
#
# Elastic Compliance Matrix: (Units=1/GPa)
#
#
# Indices 1 2 3 4 5 6 
#
# 1 0.007572 -0.002205 -0.001098 -0.000661 0.001579 0.000669
# 2 -0.002205 0.030632 -0.005934 0.000037 0.004138 0.001419
# 3 -0.001098 -0.005934 0.008015 0.000819 0.001635 -0.001833
# 4 -0.000661 0.000037 0.000819 0.020547 -0.004228 -0.000836
# 5 0.001579 0.004138 0.001635 -0.004228 0.021306 0.001304
# 6 0.000669 0.001419 -0.001833 -0.000836 0.001304 0.017209
#
#
# Mechanical properties :
#
#
# Convention : Reuss Voigt Hill
#
# Bulk Modulus (GPa) = 36.04162 61.58943 48.81552
# Shear Modulus (GPa) = 37.59304 50.85731 44.22517
#
# Velocity S-wave (km/s) = 3.71747 4.32385 4.03207
# Velocity P-wave (km/s) = 5.62809 6.89699 6.29459
#
# Compressibility (1/GPa) = 0.02774570
#
# Stress axis : x y z
#
# Youngs Moduli (GPa) = 132.06048 32.64509 124.77229
#
# Poissons Ratio (x) = 0.07197 0.13703
# Poissons Ratio (y) = 0.29116 0.74038
# Poissons Ratio (z) = 0.14504 0.19371
#
# Static dielectric constant tensor:
#      x y z
#    x 2.285100 0.041910 0.111930 
#    y 0.041910 2.145070 0.034370 
#    z 0.111930 0.034370 2.126480 
# 
# From -- ./inp_files/578767.got.cif
#   From: 2010.05.17/outbox.cif.g08.bks.cpg/sg2_290_cif.got.tgz:578767.got - 2010.06.03 11:33:40.
