data_PCOD9038337
_publ_section_title
;
Structure prediction by ZEFSAII (Michael W. Deem and Ramdas Pophale) SiO2 
 PCOD9038337
Probable space group: P -1
;
_chemical_formula_sum "Si O2"
_cell_formula_units_Z 16
_cell_length_a 7.439922
_cell_length_b 13.359586
_cell_length_c 10.289998
_cell_angle_alpha 140.217115
_cell_angle_beta 76.138344
_cell_angle_gamma 101.299527
_cell_volume 635.273624
_symmetry_space_group_name_H-M "P -1"
_symmetry_group_IT_number 2
_symmetry_cell_setting 'triclinic'
loop_
_space_group_symop_operation_xyz
x,y,z
-x,-y,-z
loop_
_atom_site_type_symbol
_atom_site_label
_atom_site_fract_x
_atom_site_fract_y
_atom_site_fract_z
Si Si1 0.962514 0.315291 0.349453
Si Si2 0.206102 0.215658 0.981700
Si Si3 0.489453 0.602951 0.802503
Si Si4 0.844163 0.837057 0.349822
Si Si5 0.120078 0.753709 0.419809
Si Si6 0.701040 0.488638 0.021484
Si Si7 0.485120 0.938061 0.633186
Si Si8 0.472359 0.729944 0.658944
O O1 0.990560 0.273352 0.453897
O O2 0.748764 0.278501 0.322255
O O3 0.000000 0.500000 0.500000
O O4 0.077838 0.211266 0.125229
O O5 0.105986 0.184422 0.831662
O O6 0.375592 0.096647 0.827358
O O7 0.314163 0.382046 0.142369
O O8 0.510888 0.719752 0.794321
O O9 0.459503 0.431917 0.576230
O O10 0.331305 0.618836 0.952438
O O11 0.665789 0.942229 0.515971
O O12 0.010155 0.863487 0.448711
O O13 0.763014 0.662258 0.222477
O O14 0.154019 0.594214 0.178196
O O15 0.324806 0.820777 0.487278
O O16 0.500000 0.500000 0.000000
O O17 0.542026 0.871040 0.697754
#
# Coordination Sequence:
#
# PCOD9038337 Si02
#       8
#     2   2   2   2   2   2   2   2
#     4  11  23  42  65  96 136 168 221 285 322 401
#     4  12  26  42  70 100 132 177 228 270 344 399
#     4  11  22  40  69 100 127 178 223 273 335 397
#     4  12  25  43  70 101 132 182 222 278 336 398
#     4  11  26  42  69  99 136 179 224 271 344 392
#     4  12  20  41  70  98 137 170 223 283 330 391
#     4  11  25  49  65  96 143 176 219 286 329 403
#     4  10  23  41  68  94 135 176 215 278 344 380
#
# _framework density 25.185997
#
# number of rings (size 3 to 8) (size 9 to 14) (size 15 to 20)
#    0.000    0.750    5.000    2.250    5.250    3.000 
#    2.250    0.000    0.000    0.000    0.000    0.000 
#    0.000    0.000    0.000    0.000    0.000    0.000 
#
# Total GULP energy -89580.749150 kJ/mol
# GULP energy per Si atom -5598.796822 kJ/mol
# Density = 2.512867 g / cm^3
# Si number density = 25.185997 Si / 1000 Ang^3
#
#
#
# Elastic Constant Matrix: (Units=GPa)
#
#
# Indices 1 2 3 4 5 6 
#
# 1 85.0207 11.0065 41.6845 -21.0849 -5.6834 -12.9768
# 2 11.0065 95.0933 51.9522 -47.2984 -5.2755 -17.3919
# 3 41.6845 51.9522 147.8997 -51.0171 -17.6894 -6.9634
# 4 -21.0849 -47.2984 -51.0171 50.1794 7.3771 5.0242
# 5 -5.6834 -5.2755 -17.6894 7.3771 42.1830 -0.8520
# 6 -12.9768 -17.3919 -6.9634 5.0242 -0.8520 41.9837
#
#
#
# Elastic Compliance Matrix: (Units=1/GPa)
#
#
# Indices 1 2 3 4 5 6 
#
# 1 0.015224 0.004202 -0.003261 0.006503 0.000176 0.005131
# 2 0.004202 0.022676 -0.001729 0.020706 -0.000784 0.007912
# 3 -0.003261 -0.001729 0.011439 0.008314 0.002672 -0.000768
# 4 0.006503 0.020706 0.008314 0.050292 -0.001724 0.005913
# 5 0.000176 -0.000784 0.002672 -0.001724 0.025072 0.000888
# 6 0.005131 0.007912 -0.000768 0.005913 0.000888 0.027865
#
#
# Mechanical properties :
#
#
# Convention : Reuss Voigt Hill
#
# Bulk Modulus (GPa) = 20.93626 59.70000 40.31813
# Shear Modulus (GPa) = 29.40028 41.76059 35.58043
#
# Velocity S-wave (km/s) = 3.42032 4.07638 3.76268
# Velocity P-wave (km/s) = 4.89171 6.77576 5.90931
#
# Compressibility (1/GPa) = 0.04776403
#
# Stress axis : x y z
#
# Youngs Moduli (GPa) = 65.68421 44.09865 87.41882
#
# Poissons Ratio (x) = -0.18531 0.28510
# Poissons Ratio (y) = -0.27601 0.15113
# Poissons Ratio (z) = 0.21422 0.07624
#
# Static dielectric constant tensor:
#      x y z
#    x 1.983740 -0.038710 0.038250 
#    y -0.038710 2.079640 -0.007280 
#    z 0.038250 -0.007280 1.986810 
# 
# From -- ./inp_files/209194.got.cif
#   From: 2010.05.17/outbox.cif.g08.bks.cpg/sg2_105_cif.got.tgz:209194.got - 2010.06.03 11:33:40.
