data_PCOD9038553
_publ_section_title
;
Structure prediction by ZEFSAII (Michael W. Deem and Ramdas Pophale) SiO2 
 PCOD9038553
Probable space group: P -1
;
_chemical_formula_sum "Si O2"
_cell_formula_units_Z 12
_cell_length_a 12.708470
_cell_length_b 5.124798
_cell_length_c 26.983743
_cell_angle_alpha 118.336426
_cell_angle_beta 20.193431
_cell_angle_gamma 122.032670
_cell_volume 512.664569
_symmetry_space_group_name_H-M "P -1"
_symmetry_group_IT_number 2
_symmetry_cell_setting 'triclinic'
loop_
_space_group_symop_operation_xyz
x,y,z
-x,-y,-z
loop_
_atom_site_type_symbol
_atom_site_label
_atom_site_fract_x
_atom_site_fract_y
_atom_site_fract_z
Si Si1 0.697726 0.725192 0.975365
Si Si2 0.611647 0.567362 0.630901
Si Si3 0.336545 0.651644 0.657709
Si Si4 0.373904 0.749875 0.303876
Si Si5 0.523539 0.662677 0.864803
Si Si6 0.226068 0.060547 0.592424
O O1 0.406686 0.968063 0.940607
O O2 0.061004 0.805517 0.805341
O O3 0.500000 0.500000 0.000000
O O4 0.642499 0.527832 0.031989
O O5 0.436971 0.505932 0.649842
O O6 0.536745 0.328591 0.687430
O O7 0.989217 0.637064 0.460596
O O8 0.542385 0.884775 0.708542
O O9 0.187348 0.380677 0.659871
O O10 0.643692 0.874261 0.515156
O O11 0.520080 0.560296 0.183274
O O12 0.903771 0.793568 0.715899
O O13 0.500000 0.000000 0.500000
#
# Coordination Sequence:
#
# PCOD9038553 Si02
#       6
#     2   2   2   2   2   2
#     4  12  26  46  67 101 143 185 217 274 349 419
#     4  10  23  41  70  99 134 174 230 287 328 401
#     4  11  26  43  67 105 135 177 230 282 343 397
#     4  10  23  43  67 101 132 179 226 281 343 387
#     4  12  26  45  71  98 140 181 227 274 346 410
#     4  11  25  41  71 101 137 172 231 293 335 399
#
# _framework density 23.407119999999999
#
# number of rings (size 3 to 8) (size 9 to 14) (size 15 to 20)
#    0.000    1.000    1.667    3.500   16.333    0.000 
#    0.000    5.000    0.000    0.000    0.000    0.000 
#    0.000    0.000    0.000    0.000    0.000    0.000 
#
# Total GULP energy -67249.770319 kJ/mol
# GULP energy per Si atom -5604.147527 kJ/mol
# Density = 2.335384 g / cm^3
# Si number density = 23.407120 Si / 1000 Ang^3
#
#
#
# Elastic Constant Matrix: (Units=GPa)
#
#
# Indices 1 2 3 4 5 6 
#
# 1 67.1676 -18.4235 -0.5097 -2.8917 -10.3597 12.6277
# 2 -18.4235 68.0895 -10.5305 4.6772 -23.4002 17.0310
# 3 -0.5097 -10.5305 58.3009 2.3861 -19.1490 29.2514
# 4 -2.8917 4.6772 2.3861 25.4359 -8.7403 14.6978
# 5 -10.3597 -23.4002 -19.1490 -8.7403 17.6462 17.2742
# 6 12.6277 17.0310 29.2514 14.6978 17.2742 31.7391
#
#
#
# Elastic Compliance Matrix: (Units=1/GPa)
#
#
# Indices 1 2 3 4 5 6 
#
# 1 0.012298 -0.000985 -0.005028 -0.003590 -0.006875 0.005674
# 2 -0.000985 0.009079 -0.005370 -0.009504 -0.008223 0.009346
# 3 -0.005028 -0.005370 0.008846 -0.008810 -0.012048 0.007366
# 4 -0.003590 -0.009504 -0.008810 0.035389 -0.010784 0.004129
# 5 -0.006875 -0.008223 -0.012048 -0.010784 0.001196 0.022594
# 6 0.005674 0.009346 0.007366 0.004129 0.022594 0.003237
#
#
# Mechanical properties :
#
#
# Convention : Reuss Voigt Hill
#
# Bulk Modulus (GPa) = 134.10746 14.95895 74.53321
# Shear Modulus (GPa) = 52.46803 29.83235 41.15019
#
# Velocity S-wave (km/s) = 4.73963 3.57389 4.19742
# Velocity P-wave (km/s) = 9.34719 4.84096 7.44328
#
# Compressibility (1/GPa) = 0.00745671
#
# Stress axis : x y z
#
# Youngs Moduli (GPa) = 81.31233 110.14933 113.04195
#
# Poissons Ratio (x) = 0.10851 0.56839
# Poissons Ratio (y) = 0.08010 0.60703
# Poissons Ratio (z) = 0.40885 0.59150
#
# Static dielectric constant tensor:
#      x y z
#    x 1.839370 0.021400 -0.013710 
#    y 0.021400 1.918360 0.026030 
#    z -0.013710 0.026030 1.847860 
# 
# From -- ./inp_files/592226.got.cif
#   From: 2010.05.17/outbox.cif.g08.bks.cpg/sg2_297_cif.got.tgz:592226.got - 2010.06.03 11:33:40.
