data_PCOD9038364
_publ_section_title
;
Structure prediction by ZEFSAII (Michael W. Deem and Ramdas Pophale) SiO2 
 PCOD9038364
Probable space group: P -1
;
_chemical_formula_sum "Si O2"
_cell_formula_units_Z 14
_cell_length_a 5.739200
_cell_length_b 23.977165
_cell_length_c 15.673170
_cell_angle_alpha 19.668423
_cell_angle_beta 89.308955
_cell_angle_gamma 79.207425
_cell_volume 618.839843
_symmetry_space_group_name_H-M "P -1"
_symmetry_group_IT_number 2
_symmetry_cell_setting 'triclinic'
loop_
_space_group_symop_operation_xyz
x,y,z
-x,-y,-z
loop_
_atom_site_type_symbol
_atom_site_label
_atom_site_fract_x
_atom_site_fract_y
_atom_site_fract_z
Si Si1 0.640508 0.641954 0.363992
Si Si2 0.530266 0.301613 0.895264
Si Si3 0.893257 0.618721 0.696890
Si Si4 0.238205 0.011426 0.934034
Si Si5 0.431396 0.339943 0.202423
Si Si6 0.045368 0.421945 0.813424
Si Si7 0.063423 0.023439 0.368419
O O1 0.618900 0.452153 0.649965
O O2 0.650593 0.690537 0.195584
O O3 0.891647 0.586898 0.504284
O O4 0.377628 0.827465 0.136119
O O5 0.352057 0.379301 0.870213
O O6 0.792119 0.092099 0.214191
O O7 0.908388 0.790162 0.404896
O O8 0.655711 0.714468 0.630179
O O9 0.869547 0.504272 0.781218
O O10 0.164357 0.455161 0.978615
O O11 0.500000 0.000000 0.000000
O O12 0.000000 0.000000 0.000000
O O13 0.677300 0.162017 0.407195
O O14 0.500000 0.500000 0.000000
O O15 0.092119 0.211729 0.096887
O O16 0.000000 0.000000 0.500000
#
# Coordination Sequence:
#
# PCOD9038364 Si02
#       7
#     2   2   2   2   2   2   2
#     4  10  23  42  64 103 136 179 235 287 366 426
#     4  10  23  41  68  97 135 180 228 302 354 431
#     4  11  26  45  70 101 139 193 236 303 369 434
#     4  12  27  45  75 109 150 196 246 301 374 451
#     4  11  27  46  68  99 142 185 245 304 363 441
#     4  11  22  44  69  94 135 175 237 288 361 431
#     4  11  25  42  68  99 131 183 237 297 357 430
#
# _framework density 22.622976999999999
#
# number of rings (size 3 to 8) (size 9 to 14) (size 15 to 20)
#    0.000    1.143    1.429    3.000    6.000    5.714 
#    0.000    0.000    0.000    0.000    0.000    0.000 
#    0.000    0.000    0.000    0.000    0.000    0.000 
#
# Total GULP energy -78157.129245 kJ/mol
# GULP energy per Si atom -5582.652089 kJ/mol
# Density = 2.257149 g / cm^3
# Si number density = 22.622977 Si / 1000 Ang^3
#
#
#
# Elastic Constant Matrix: (Units=GPa)
#
#
# Indices 1 2 3 4 5 6 
#
# 1 54.1441 41.4485 24.0480 9.6913 4.4183 -20.1691
# 2 41.4485 167.6123 71.8050 -9.4417 15.6917 -33.9747
# 3 24.0480 71.8050 122.6876 -10.2531 4.8953 -20.2590
# 4 9.6913 -9.4417 -10.2531 42.2610 -13.8732 8.3393
# 5 4.4183 15.6917 4.8953 -13.8732 32.6195 2.8030
# 6 -20.1691 -33.9747 -20.2590 8.3393 2.8030 38.7446
#
#
#
# Elastic Compliance Matrix: (Units=1/GPa)
#
#
# Indices 1 2 3 4 5 6 
#
# 1 0.031768 -0.003439 -0.002391 -0.015174 -0.010142 0.016272
# 2 -0.003439 0.010074 -0.004217 -0.000465 -0.004397 0.005257
# 3 -0.002391 -0.004217 0.011289 0.002926 0.001886 0.000194
# 4 -0.015174 -0.000465 0.002926 0.037188 0.019044 -0.016158
# 5 -0.010142 -0.004397 0.001886 0.019044 0.043283 -0.015379
# 6 0.016272 0.005257 0.000194 -0.016158 -0.015379 0.043582
#
#
# Mechanical properties :
#
#
# Convention : Reuss Voigt Hill
#
# Bulk Modulus (GPa) = 30.26863 68.78297 49.52580
# Shear Modulus (GPa) = 24.00477 36.53453 30.26965
#
# Velocity S-wave (km/s) = 3.26096 4.02298 3.66184
# Velocity P-wave (km/s) = 5.25234 7.21451 6.31016
#
# Compressibility (1/GPa) = 0.03303750
#
# Stress axis : x y z
#
# Youngs Moduli (GPa) = 31.47784 99.26299 88.58171
#
# Poissons Ratio (x) = 0.34134 0.21179
# Poissons Ratio (y) = 0.10824 0.37359
# Poissons Ratio (z) = 0.07526 0.41864
#
# Static dielectric constant tensor:
#      x y z
#    x 1.937410 0.048440 0.026130 
#    y 0.048440 1.943830 0.033760 
#    z 0.026130 0.033760 1.792510 
# 
# From -- ./inp_files/60661.got.cif
#   From: 2010.05.17/outbox.cif.g08.bks.cpg/sg2_31_cif.got.tgz:60661.got - 2010.06.03 11:33:40.
