data_PCOD9038218
_publ_section_title
;
Structure prediction by ZEFSAII (Michael W. Deem and Ramdas Pophale) SiO2 
 PCOD9038218
Probable space group: P -1
;
_chemical_formula_sum "Si O2"
_cell_formula_units_Z 16
_cell_length_a 15.033608
_cell_length_b 23.817509
_cell_length_c 5.251552
_cell_angle_alpha 80.732537
_cell_angle_beta 83.402835
_cell_angle_gamma 20.540374
_cell_volume 647.642630
_symmetry_space_group_name_H-M "P -1"
_symmetry_group_IT_number 2
_symmetry_cell_setting 'triclinic'
loop_
_space_group_symop_operation_xyz
x,y,z
-x,-y,-z
loop_
_atom_site_type_symbol
_atom_site_label
_atom_site_fract_x
_atom_site_fract_y
_atom_site_fract_z
Si Si1 0.715775 0.651346 0.758801
Si Si2 0.103086 0.351355 0.583371
Si Si3 0.508047 0.862794 0.016438
Si Si4 0.153157 0.665664 0.812490
Si Si5 0.307363 0.818196 0.563310
Si Si6 0.407005 0.688616 0.138609
Si Si7 0.745777 0.827187 0.673971
Si Si8 0.932331 0.213216 0.765386
O O1 0.897668 0.595297 0.648989
O O2 0.611256 0.739373 0.990903
O O3 0.457419 0.787853 0.591849
O O4 0.900088 0.487569 0.770183
O O5 0.069255 0.309981 0.502052
O O6 0.398955 0.180496 0.698616
O O7 0.655998 0.825918 0.856757
O O8 0.222057 0.039001 0.891710
O O9 0.365901 0.491678 0.822704
O O10 0.119347 0.726476 0.532933
O O11 0.889864 0.787004 0.826743
O O12 0.203866 0.670228 0.049595
O O13 0.428848 0.719315 0.341168
O O14 0.368482 0.743893 0.845980
O O15 0.000000 0.000000 0.500000
O O16 0.164492 0.793432 0.202400
O O17 0.500000 0.000000 0.500000
#
# Coordination Sequence:
#
# PCOD9038218 Si02
#       8
#     2   2   2   2   2   2   2   2
#     4  10  24  43  64  99 131 181 232 274 349 397
#     4  10  23  41  67  93 138 179 226 282 333 420
#     4  11  24  39  70  93 139 177 224 284 336 417
#     4  12  26  45  72 100 141 180 228 284 337 423
#     4  12  27  46  73 101 137 177 233 291 339 408
#     4  12  27  47  72 101 136 182 230 287 348 398
#     4  11  23  41  62 103 135 175 225 276 348 399
#     4  12  26  45  71 101 137 182 230 280 347 406
#
# _framework density 24.704979999999999
#
# number of rings (size 3 to 8) (size 9 to 14) (size 15 to 20)
#    0.000    0.750    1.250    5.250    8.750    1.000 
#    0.000    0.000    0.000    0.000    0.000    0.000 
#    0.000    0.000    0.000    0.000    0.000    0.000 
#
# Total GULP energy -89505.534037 kJ/mol
# GULP energy per Si atom -5594.095877 kJ/mol
# Density = 2.464875 g / cm^3
# Si number density = 24.704980 Si / 1000 Ang^3
#
#
#
# Elastic Constant Matrix: (Units=GPa)
#
#
# Indices 1 2 3 4 5 6 
#
# 1 110.4854 2.0467 31.2191 1.2435 12.4208 -5.7604
# 2 2.0467 80.3227 18.7418 -6.0361 -16.8200 4.5214
# 3 31.2191 18.7418 58.0555 -7.0783 5.6557 9.7665
# 4 1.2435 -6.0361 -7.0783 26.5009 6.4803 9.0738
# 5 12.4208 -16.8200 5.6557 6.4803 39.0987 0.5237
# 6 -5.7604 4.5214 9.7665 9.0738 0.5237 41.7087
#
#
#
# Elastic Compliance Matrix: (Units=1/GPa)
#
#
# Indices 1 2 3 4 5 6 
#
# 1 0.011551 0.000534 -0.007263 -0.003254 -0.001903 0.003970
# 2 0.000534 0.015361 -0.005858 0.000263 0.007247 -0.000368
# 3 -0.007263 -0.005858 0.026303 0.010392 -0.005623 -0.008717
# 4 -0.003254 0.000263 0.010392 0.047153 -0.007996 -0.013069
# 5 -0.001903 0.007247 -0.005623 -0.007996 0.031416 0.001613
# 6 0.003970 -0.000368 -0.008717 -0.013069 0.001613 0.029428
#
#
# Mechanical properties :
#
#
# Convention : Reuss Voigt Hill
#
# Bulk Modulus (GPa) = 35.66286 39.20876 37.43581
# Shear Modulus (GPa) = 25.54497 34.58540 30.06519
#
# Velocity S-wave (km/s) = 3.21908 3.74563 3.49229
# Velocity P-wave (km/s) = 5.31822 5.88316 5.60781
#
# Compressibility (1/GPa) = 0.02804037
#
# Stress axis : x y z
#
# Youngs Moduli (GPa) = 86.57347 65.09915 38.01851
#
# Poissons Ratio (x) = -0.03475 0.27613
# Poissons Ratio (y) = -0.04622 0.22272
# Poissons Ratio (z) = 0.62878 0.38136
#
# Static dielectric constant tensor:
#      x y z
#    x 1.929330 -0.015540 -0.022020 
#    y -0.015540 2.020360 0.026770 
#    z -0.022020 0.026770 2.114360 
# 
# From -- ./inp_files/101150.got.cif
#   From: 2010.05.17/outbox.cif.g08.bks.cpg/sg2_51_cif.got.tgz:101150.got - 2010.06.03 11:33:40.
