data_PCOD9038684
_publ_section_title
;
Structure prediction by ZEFSAII (Michael W. Deem and Ramdas Pophale) SiO2 
 PCOD9038684
Probable space group: P -1
;
_chemical_formula_sum "Si O2"
_cell_formula_units_Z 12
_cell_length_a 12.117896
_cell_length_b 8.796468
_cell_length_c 7.743939
_cell_angle_alpha 119.788443
_cell_angle_beta 85.691019
_cell_angle_gamma 50.163876
_cell_volume 444.036066
_symmetry_space_group_name_H-M "P -1"
_symmetry_group_IT_number 2
_symmetry_cell_setting 'triclinic'
loop_
_space_group_symop_operation_xyz
x,y,z
-x,-y,-z
loop_
_atom_site_type_symbol
_atom_site_label
_atom_site_fract_x
_atom_site_fract_y
_atom_site_fract_z
Si Si1 0.944221 0.227520 0.259210
Si Si2 0.230711 0.793868 0.240441
Si Si3 0.581869 0.560987 0.627673
Si Si4 0.679979 0.913527 0.614907
Si Si5 0.275962 0.349369 0.881683
Si Si6 0.797763 0.787972 0.884886
O O1 0.061627 0.231549 0.151436
O O2 0.730874 0.468827 0.440194
O O3 0.033789 0.091924 0.363795
O O4 0.000000 0.000000 0.000000
O O5 0.307973 0.639477 0.329962
O O6 0.325735 0.866710 0.249939
O O7 0.251985 0.588458 0.009718
O O8 0.500000 0.500000 0.500000
O O9 0.405018 0.889634 0.883969
O O10 0.746454 0.750789 0.335469
O O11 0.797923 0.710899 0.649305
O O12 0.483454 0.083770 0.753690
O O13 0.167493 0.397615 0.077832
#
# Coordination Sequence:
#
# PCOD9038684 Si02
#       6
#     2   2   2   2   2   2
#     4  11  26  47  76 116 156 204 265 320 393 472
#     4  11  25  47  77 114 158 205 259 327 391 466
#     4  12  24  45  82 112 152 209 261 318 392 468
#     4  10  23  41  73 115 153 204 262 314 385 470
#     4  11  23  44  77 115 158 202 264 322 392 466
#     4  11  24  47  76 110 160 202 262 324 393 462
#
# _framework density 27.024830999999999
#
# number of rings (size 3 to 8) (size 9 to 14) (size 15 to 20)
#    0.000    1.000    3.333    2.500    2.333    2.667 
#    0.000    1.667    3.667    0.000    0.000    0.000 
#    0.000    0.000    0.000    0.000    0.000    0.000 
#
# Total GULP energy -67107.602164 kJ/mol
# GULP energy per Si atom -5592.300180 kJ/mol
# Density = 2.696332 g / cm^3
# Si number density = 27.024831 Si / 1000 Ang^3
#
#
#
# Elastic Constant Matrix: (Units=GPa)
#
#
# Indices 1 2 3 4 5 6 
#
# 1 252.3036 61.2463 103.9245 -1.6656 -0.3635 21.0264
# 2 61.2463 93.9945 42.8091 5.7461 -7.6450 8.1252
# 3 103.9245 42.8091 140.0582 -5.4830 -4.5256 24.4329
# 4 -1.6656 5.7461 -5.4830 38.7508 -22.0719 -9.0096
# 5 -0.3635 -7.6450 -4.5256 -22.0719 62.3004 12.1820
# 6 21.0264 8.1252 24.4329 -9.0096 12.1820 37.0983
#
#
#
# Elastic Compliance Matrix: (Units=1/GPa)
#
#
# Indices 1 2 3 4 5 6 
#
# 1 0.006104 -0.002233 -0.003817 -0.000355 -0.000572 -0.000355
# 2 -0.002233 0.013446 -0.002342 -0.002130 0.000898 -0.000949
# 3 -0.003817 -0.002342 0.011770 0.001892 0.002264 -0.005359
# 4 -0.000355 -0.002130 0.001892 0.033553 0.010986 0.003963
# 5 -0.000572 0.000898 0.002264 0.010986 0.021329 -0.005699
# 6 -0.000355 -0.000949 -0.005359 0.003963 -0.005699 0.033728
#
#
# Mechanical properties :
#
#
# Convention : Reuss Voigt Hill
#
# Bulk Modulus (GPa) = 68.79354 100.25735 84.52545
# Shear Modulus (GPa) = 35.32066 46.18833 40.75450
#
# Velocity S-wave (km/s) = 3.61913 4.13862 3.88756
# Velocity P-wave (km/s) = 6.55554 7.74702 7.17605
#
# Compressibility (1/GPa) = 0.01453625
#
# Stress axis : x y z
#
# Youngs Moduli (GPa) = 163.81691 74.37297 84.95994
#
# Poissons Ratio (x) = 0.16608 0.32433
# Poissons Ratio (y) = 0.36582 0.19894
# Poissons Ratio (z) = 0.62536 0.17415
#
# Static dielectric constant tensor:
#      x y z
#    x 2.032560 0.050100 0.048400 
#    y 0.050100 2.242130 0.103780 
#    z 0.048400 0.103780 2.275540 
# 
# From -- ./inp_files/232648.got.cif
#   From: 2010.05.17/outbox.cif.g08.bks.cpg/sg2_117_cif.got.tgz:232648.got - 2010.06.03 11:33:40.
