data_PCOD9038807
_publ_section_title
;
Structure prediction by ZEFSAII (Michael W. Deem and Ramdas Pophale) SiO2 
 PCOD9038807
Probable space group: P -1
;
_chemical_formula_sum "Si O2"
_cell_formula_units_Z 14
_cell_length_a 12.759235
_cell_length_b 12.796201
_cell_length_c 8.695007
_cell_angle_alpha 100.873352
_cell_angle_beta 127.690736
_cell_angle_gamma 40.259323
_cell_volume 609.403364
_symmetry_space_group_name_H-M "P -1"
_symmetry_group_IT_number 2
_symmetry_cell_setting 'triclinic'
loop_
_space_group_symop_operation_xyz
x,y,z
-x,-y,-z
loop_
_atom_site_type_symbol
_atom_site_label
_atom_site_fract_x
_atom_site_fract_y
_atom_site_fract_z
Si Si1 0.929408 0.578996 0.791228
Si Si2 0.394395 0.882415 0.417960
Si Si3 0.880832 0.029546 0.055167
Si Si4 0.517167 0.651735 0.994717
Si Si5 0.035181 0.272531 0.350763
Si Si6 0.317250 0.213207 0.833829
Si Si7 0.615735 0.324968 0.464455
O O1 0.643539 0.773706 0.588510
O O2 0.016789 0.636322 0.833691
O O3 0.078491 0.395704 0.771240
O O4 0.000000 0.500000 0.000000
O O5 0.453114 0.730777 0.507925
O O6 0.201534 0.061687 0.410705
O O7 0.275485 0.955960 0.163646
O O8 0.695013 0.224555 0.039199
O O9 0.096758 0.853880 0.311012
O O10 0.000000 0.000000 0.000000
O O11 0.455452 0.647759 0.769041
O O12 0.556272 0.755204 0.050612
O O13 0.769918 0.436071 0.224018
O O14 0.196843 0.249090 0.580895
O O15 0.500000 0.000000 0.000000
O O16 0.500000 0.500000 0.500000
#
# Coordination Sequence:
#
# PCOD9038807 Si02
#       7
#     2   2   2   2   2   2   2
#     4  11  22  37  61  96 131 169 209 256 319 393
#     4  11  22  41  63  92 130 169 210 267 321 379
#     4  10  23  42  63  89 120 166 222 268 319 377
#     4  11  22  42  66  90 128 169 208 273 328 376
#     4  11  22  40  65  96 131 169 208 257 326 402
#     4  11  23  39  62  98 132 168 212 254 321 405
#     4  11  24  43  63  91 124 166 223 273 320 378
#
# _framework density 22.973288
#
# number of rings (size 3 to 8) (size 9 to 14) (size 15 to 20)
#    0.000    1.143    0.000    8.571    0.000    2.286 
#    0.000   17.143    0.000    0.000    0.000    0.000 
#    0.000    0.000    0.000    0.000    0.000    0.000 
#
# Total GULP energy -78191.076607 kJ/mol
# GULP energy per Si atom -5585.076901 kJ/mol
# Density = 2.292100 g / cm^3
# Si number density = 22.973288 Si / 1000 Ang^3
#
#
#
# Elastic Constant Matrix: (Units=GPa)
#
#
# Indices 1 2 3 4 5 6 
#
# 1 45.8502 51.8320 13.9823 -6.1764 -1.9333 -11.1812
# 2 51.8320 183.9794 46.3590 -15.0943 3.9463 -6.9500
# 3 13.9823 46.3590 140.0564 -0.1063 14.0176 -18.7287
# 4 -6.1764 -15.0943 -0.1063 55.9141 -11.6251 2.8274
# 5 -1.9333 3.9463 14.0176 -11.6251 26.2105 -8.5561
# 6 -11.1812 -6.9500 -18.7287 2.8274 -8.5561 39.4253
#
#
#
# Elastic Compliance Matrix: (Units=1/GPa)
#
#
# Indices 1 2 3 4 5 6 
#
# 1 0.036009 -0.009767 0.000153 0.002599 0.008537 0.010230
# 2 -0.009767 0.008751 -0.002145 0.001156 -0.001225 -0.002595
# 3 0.000153 -0.002145 0.008634 -0.001525 -0.003976 0.003014
# 4 0.002599 0.001156 -0.001525 0.020567 0.010272 0.000971
# 5 0.008537 -0.001225 -0.003976 0.010272 0.048982 0.010210
# 6 0.010230 -0.002595 0.003014 0.000971 0.010210 0.031386
#
#
# Mechanical properties :
#
#
# Convention : Reuss Voigt Hill
#
# Bulk Modulus (GPa) = 33.46998 66.02584 49.74791
# Shear Modulus (GPa) = 26.62334 41.49082 34.05708
#
# Velocity S-wave (km/s) = 3.40793 4.25437 3.85446
# Velocity P-wave (km/s) = 5.48507 7.27568 6.44289
#
# Compressibility (1/GPa) = 0.02987752
#
# Stress axis : x y z
#
# Youngs Moduli (GPa) = 27.77066 114.27869 115.81601
#
# Poissons Ratio (x) = 1.11615 -0.01778
# Poissons Ratio (y) = 0.27123 0.24841
# Poissons Ratio (z) = -0.00426 0.24512
#
# Static dielectric constant tensor:
#      x y z
#    x 1.911790 -0.020000 0.052250 
#    y -0.020000 1.914450 -0.014230 
#    z 0.052250 -0.014230 1.955690 
# 
# From -- ./inp_files/315701.got.cif
#   From: 2010.05.17/outbox.cif.g08.bks.cpg/sg2_158_cif.got.tgz:315701.got - 2010.06.03 11:33:40.
