data_PCOD9038714
_publ_section_title
;
Structure prediction by ZEFSAII (Michael W. Deem and Ramdas Pophale) SiO2 
 PCOD9038714
Probable space group: P -1
;
_chemical_formula_sum "Si O2"
_cell_formula_units_Z 14
_cell_length_a 5.158242
_cell_length_b 14.886519
_cell_length_c 22.112201
_cell_angle_alpha 159.314359
_cell_angle_beta 84.258828
_cell_angle_gamma 97.268477
_cell_volume 594.153036
_symmetry_space_group_name_H-M "P -1"
_symmetry_group_IT_number 2
_symmetry_cell_setting 'triclinic'
loop_
_space_group_symop_operation_xyz
x,y,z
-x,-y,-z
loop_
_atom_site_type_symbol
_atom_site_label
_atom_site_fract_x
_atom_site_fract_y
_atom_site_fract_z
Si Si1 0.289871 0.228348 0.284978
Si Si2 0.088571 0.157190 0.812987
Si Si3 0.593571 0.493311 0.330794
Si Si4 0.624785 0.346161 0.104588
Si Si5 0.151901 0.544782 0.167270
Si Si6 0.926830 0.613680 0.499718
Si Si7 0.589482 0.075124 0.686025
O O1 0.449645 0.347023 0.298361
O O2 0.319771 0.311854 0.407340
O O3 0.015378 0.348712 0.355224
O O4 0.303950 0.928867 0.093128
O O5 0.330726 0.208269 0.793734
O O6 0.811547 0.131400 0.768262
O O7 0.104826 0.366878 0.996685
O O8 0.114091 0.876187 0.664071
O O9 0.589308 0.335932 0.170944
O O10 0.876859 0.563370 0.398453
O O11 0.509013 0.772855 0.493929
O O12 0.363236 0.422953 0.127562
O O13 0.874925 0.542015 0.205347
O O14 0.280204 0.812890 0.307735
#
# Coordination Sequence:
#
# PCOD9038714 Si02
#       7
#     2   2   2   2   2   2   2
#     4  11  23  45  68 104 131 183 223 290 332 408
#     4  11  21  43  70 106 134 172 230 288 338 395
#     4  11  26  43  68 102 137 183 226 276 345 404
#     4  12  29  43  71  98 147 181 223 274 343 411
#     4  12  26  46  67 103 138 185 225 278 340 405
#     4  10  23  41  74  99 138 172 230 286 339 396
#     4  11  24  43  74  99 138 175 233 284 335 396
#
# _framework density 23.562951999999999
#
# number of rings (size 3 to 8) (size 9 to 14) (size 15 to 20)
#    0.000    0.857    2.857    3.429    6.000    1.714 
#    0.000    0.000    0.000    0.000    0.000    0.000 
#    0.000    0.000    0.000    0.000    0.000    0.000 
#
# Total GULP energy -78214.939026 kJ/mol
# GULP energy per Si atom -5586.781359 kJ/mol
# Density = 2.350932 g / cm^3
# Si number density = 23.562952 Si / 1000 Ang^3
#
#
#
# Elastic Constant Matrix: (Units=GPa)
#
#
# Indices 1 2 3 4 5 6 
#
# 1 70.3655 7.4139 13.5360 -10.0312 -0.9823 16.1080
# 2 7.4139 86.1546 6.4074 -0.9718 9.1809 9.6623
# 3 13.5360 6.4074 33.4378 -7.5607 -1.4307 -12.4224
# 4 -10.0312 -0.9718 -7.5607 44.1141 6.7924 1.6213
# 5 -0.9823 9.1809 -1.4307 6.7924 13.2117 8.1553
# 6 16.1080 9.6623 -12.4224 1.6213 8.1553 37.3787
#
#
#
# Elastic Compliance Matrix: (Units=1/GPa)
#
#
# Indices 1 2 3 4 5 6 
#
# 1 0.020611 0.000021 -0.013275 0.001640 0.008656 -0.015259
# 2 0.000021 0.013094 -0.003702 0.001036 -0.008262 -0.002866
# 3 -0.013275 -0.003702 0.045713 0.005572 -0.011186 0.024069
# 4 0.001640 0.001036 0.005572 0.026280 -0.015420 0.003102
# 5 0.008656 -0.008262 -0.011186 -0.015420 0.105923 -0.027754
# 6 -0.015259 -0.002866 0.024069 0.003102 -0.027754 0.047990
#
#
# Mechanical properties :
#
#
# Convention : Reuss Voigt Hill
#
# Bulk Modulus (GPa) = 21.97526 27.18585 24.58056
# Shear Modulus (GPa) = 16.19745 29.78094 22.98920
#
# Velocity S-wave (km/s) = 2.62470 3.55898 3.12693
# Velocity P-wave (km/s) = 4.30486 5.33395 4.84679
#
# Compressibility (1/GPa) = 0.04550572
#
# Stress axis : x y z
#
# Youngs Moduli (GPa) = 48.51843 76.37026 21.87577
#
# Poissons Ratio (x) = -0.00161 0.29041
# Poissons Ratio (y) = -0.00102 0.08098
# Poissons Ratio (z) = 0.64409 0.28270
#
# Static dielectric constant tensor:
#      x y z
#    x 1.979280 0.018830 0.021360 
#    y 0.018830 1.958970 0.044710 
#    z 0.021360 0.044710 1.850710 
# 
# From -- ./inp_files/28318.got.cif
#   From: 2010.05.17/outbox.cif.g08.bks.cpg/sg2_15_cif.got.tgz:28318.got - 2010.06.03 11:33:40.
