data_PCOD9038641
_publ_section_title
;
Structure prediction by ZEFSAII (Michael W. Deem and Ramdas Pophale) SiO2 
 PCOD9038641
Probable space group: P -1
;
_chemical_formula_sum "Si O2"
_cell_formula_units_Z 15
_cell_length_a 9.345527
_cell_length_b 12.772519
_cell_length_c 9.098491
_cell_angle_alpha 37.308039
_cell_angle_beta 81.291891
_cell_angle_gamma 71.351283
_cell_volume 613.593209
_symmetry_space_group_name_H-M "P -1"
_symmetry_group_IT_number 2
_symmetry_cell_setting 'triclinic'
loop_
_space_group_symop_operation_xyz
x,y,z
-x,-y,-z
loop_
_atom_site_type_symbol
_atom_site_label
_atom_site_fract_x
_atom_site_fract_y
_atom_site_fract_z
Si Si1 0.862782 0.191114 0.801203
Si Si2 0.334652 0.278517 0.982710
Si Si3 0.338501 0.672448 0.594674
Si Si4 0.002307 0.402979 0.948565
Si Si5 0.000000 0.500000 0.500000
Si Si6 0.404856 0.205859 0.728052
Si Si7 0.328642 0.972091 0.791620
Si Si8 0.165859 0.870766 0.668513
O O1 0.802139 0.239293 0.592820
O O2 0.923555 0.340332 0.696218
O O3 0.718383 0.165884 0.938556
O O4 0.000000 0.000000 0.000000
O O5 0.351877 0.461542 0.844728
O O6 0.176312 0.255884 0.079813
O O7 0.322089 0.304521 0.776835
O O8 0.490213 0.113397 0.174659
O O9 0.488807 0.693196 0.472799
O O10 0.294731 0.791651 0.613898
O O11 0.995396 0.511899 0.675852
O O12 0.000000 0.500000 0.000000
O O13 0.872364 0.308523 0.071685
O O14 0.298075 0.161496 0.671743
O O15 0.500000 0.000000 0.000000
O O16 0.227983 0.976022 0.662662
O O17 0.000000 0.000000 0.500000
#
# Coordination Sequence:
#
# PCOD9038641 Si02
#       8
#     2   2   2   2   1   2   2   2
#     4  12  25  43  73 110 150 196 267 317 384 479
#     4  11  24  46  77 107 154 194 257 341 382 476
#     4  12  24  46  72 108 147 206 251 325 409 448
#     4  12  26  52  75 115 156 201 269 324 404 476
#     4  12  26  46  84 110 154 220 260 322 412 466
#     4  10  23  41  72 107 144 191 254 320 384 461
#     4  11  26  46  72 112 147 200 258 318 398 471
#     4  12  28  49  74 108 162 204 255 328 397 488
#
# _framework density 24.446165000000001
#
# number of rings (size 3 to 8) (size 9 to 14) (size 15 to 20)
#    0.000    0.533    6.667    1.200    5.600    1.067 
#    0.000    0.000    0.000    0.000    0.000    0.000 
#    0.000    0.000    0.000    0.000    0.000    0.000 
#
# Total GULP energy -83751.927716 kJ/mol
# GULP energy per Si atom -5583.461848 kJ/mol
# Density = 2.439052 g / cm^3
# Si number density = 24.446165 Si / 1000 Ang^3
#
#
#
# Elastic Constant Matrix: (Units=GPa)
#
#
# Indices 1 2 3 4 5 6 
#
# 1 129.4791 50.6186 10.1751 4.6253 -11.8181 16.0405
# 2 50.6186 80.5159 12.6826 29.5092 4.7629 21.1961
# 3 10.1751 12.6826 46.7599 11.9036 -0.0493 1.6456
# 4 4.6253 29.5092 11.9036 41.7880 2.7961 2.1034
# 5 -11.8181 4.7629 -0.0493 2.7961 44.8936 2.9865
# 6 16.0405 21.1961 1.6456 2.1034 2.9865 63.9450
#
#
#
# Elastic Compliance Matrix: (Units=1/GPa)
#
#
# Indices 1 2 3 4 5 6 
#
# 1 0.011607 -0.009228 -0.001384 0.005387 0.003709 -0.000167
# 2 -0.009228 0.026155 -0.000633 -0.016732 -0.003789 -0.005611
# 3 -0.001384 -0.000633 0.023401 -0.006080 0.000097 0.000150
# 4 0.005387 -0.016732 -0.006080 0.036678 0.000695 0.003112
# 5 0.003709 -0.003789 0.000097 0.000695 0.023664 -0.000805
# 6 -0.000167 -0.005611 0.000150 0.003112 -0.000805 0.017472
#
#
# Mechanical properties :
#
#
# Convention : Reuss Voigt Hill
#
# Bulk Modulus (GPa) = 25.85858 44.85640 35.35749
# Shear Modulus (GPa) = 28.67675 42.34388 35.51032
#
# Velocity S-wave (km/s) = 3.42871 4.16640 3.81542
# Velocity P-wave (km/s) = 5.12596 6.44469 5.82278
#
# Compressibility (1/GPa) = 0.03867189
#
# Stress axis : x y z
#
# Youngs Moduli (GPa) = 86.15846 38.23399 42.73275
#
# Poissons Ratio (x) = 0.35283 0.05915
# Poissons Ratio (y) = 0.79509 0.02705
# Poissons Ratio (z) = 0.11925 0.02420
#
# Static dielectric constant tensor:
#      x y z
#    x 1.953810 0.001490 0.061320 
#    y 0.001490 1.941280 0.023490 
#    z 0.061320 0.023490 1.980390 
# 
# From -- ./inp_files/174148.got.cif
#   From: 2010.05.17/outbox.cif.g08.bks.cpg/sg2_88_cif.got.tgz:174148.got - 2010.06.03 11:33:40.
