data_PCOD9038975
_publ_section_title
;
Structure prediction by ZEFSAII (Michael W. Deem and Ramdas Pophale) SiO2 
 PCOD9038975
Probable space group: P -1
;
_chemical_formula_sum "Si O2"
_cell_formula_units_Z 12
_cell_length_a 16.307972
_cell_length_b 9.600368
_cell_length_c 5.435434
_cell_angle_alpha 124.483592
_cell_angle_beta 119.996605
_cell_angle_gamma 58.837881
_cell_volume 573.817498
_symmetry_space_group_name_H-M "P -1"
_symmetry_group_IT_number 2
_symmetry_cell_setting 'triclinic'
loop_
_space_group_symop_operation_xyz
x,y,z
-x,-y,-z
loop_
_atom_site_type_symbol
_atom_site_label
_atom_site_fract_x
_atom_site_fract_y
_atom_site_fract_z
Si Si1 0.469775 0.817822 0.772484
Si Si2 0.021437 0.584911 0.367067
Si Si3 0.942802 0.985140 0.649343
Si Si4 0.741520 0.475684 0.337964
Si Si5 0.445452 0.217589 0.635767
Si Si6 0.724630 0.274195 0.611140
O O1 0.516155 0.720605 0.494402
O O2 0.354249 0.833837 0.615211
O O3 0.516155 0.720605 0.995274
O O4 0.500000 0.000000 0.000000
O O5 0.138590 0.568594 0.526479
O O6 0.000000 0.500000 0.500000
O O7 0.943858 0.784131 0.449917
O O8 0.000000 0.500000 0.000000
O O9 0.835822 0.133797 0.637529
O O10 0.000000 0.000000 0.500000
O O11 0.000000 0.000000 0.000000
O O12 0.674685 0.687368 0.449396
O O13 0.714877 0.388884 0.460615
O O14 0.714877 0.388884 0.961783
O O15 0.500000 0.000000 0.500000
#
# Coordination Sequence:
#
# PCOD9038975 Si02
#       6
#     2   2   2   2   2   2
#     4  10  23  42  65  97 135 173 230 282 342 411
#     4  12  26  43  69 104 142 182 234 294 347 409
#     4  12  23  46  72 100 143 183 234 290 346 424
#     4  12  25  43  68 100 138 182 236 279 350 422
#     4  10  23  42  65  91 139 176 225 286 341 404
#     4  12  24  42  73 100 135 188 227 283 355 411
#
# _framework density 20.912572999999998
#
# number of rings (size 3 to 8) (size 9 to 14) (size 15 to 20)
#    0.000    0.667    3.333    4.000    0.000    9.333 
#    0.000    0.000    0.000    0.000    0.000    0.000 
#    0.000    0.000    0.000    0.000    0.000    0.000 
#
# Total GULP energy -66975.484201 kJ/mol
# GULP energy per Si atom -5581.290350 kJ/mol
# Density = 2.086498 g / cm^3
# Si number density = 20.912573 Si / 1000 Ang^3
#
#
#
# Elastic Constant Matrix: (Units=GPa)
#
#
# Indices 1 2 3 4 5 6 
#
# 1 126.3651 48.5432 61.3612 -21.5935 -8.0537 0.4105
# 2 48.5432 132.7515 44.1695 4.3348 -19.1295 -22.7260
# 3 61.3612 44.1695 145.5961 -25.4800 -27.8750 17.0474
# 4 -21.5935 4.3348 -25.4800 32.6089 10.2989 -3.0268
# 5 -8.0537 -19.1295 -27.8750 10.2989 50.2461 -14.1987
# 6 0.4105 -22.7260 17.0474 -3.0268 -14.1987 49.0352
#
#
#
# Elastic Compliance Matrix: (Units=1/GPa)
#
#
# Indices 1 2 3 4 5 6 
#
# 1 0.012056 -0.004433 -0.002919 0.007185 -0.003316 -0.001657
# 2 -0.004433 0.012932 -0.003290 -0.008499 0.006544 0.008545
# 3 -0.002919 -0.003290 0.011051 0.006127 0.001908 -0.004411
# 4 0.007185 -0.008499 0.006127 0.043736 -0.009387 -0.006148
# 5 -0.003316 0.006544 0.001908 -0.009387 0.027618 0.009815
# 6 -0.001657 0.008545 -0.004411 -0.006148 0.009815 0.028364
#
#
# Mechanical properties :
#
#
# Convention : Reuss Voigt Hill
#
# Bulk Modulus (GPa) = 67.77911 79.20671 73.49291
# Shear Modulus (GPa) = 30.87199 43.08730 36.97964
#
# Velocity S-wave (km/s) = 3.84636 4.54404 4.20967
# Velocity P-wave (km/s) = 7.22544 8.09249 7.67123
#
# Compressibility (1/GPa) = 0.01475381
#
# Stress axis : x y z
#
# Youngs Moduli (GPa) = 82.94503 77.32823 90.49215
#
# Poissons Ratio (x) = 0.34283 0.26419
# Poissons Ratio (y) = 0.36773 0.29768
# Poissons Ratio (z) = 0.24216 0.25438
#
# Static dielectric constant tensor:
#      x y z
#    x 1.642000 -0.088850 0.118280 
#    y -0.088850 1.784480 0.105030 
#    z 0.118280 0.105030 1.551490 
# 
# From -- ./inp_files/41083.got.cif
#   From: 2010.05.17/outbox.cif.g08.bks.cpg/sg2_21_cif.got.tgz:41083.got - 2010.06.03 11:33:40.
