data_PCOD9038430
_publ_section_title
;
Structure prediction by ZEFSAII (Michael W. Deem and Ramdas Pophale) SiO2 
 PCOD9038430
Probable space group: P -1
;
_chemical_formula_sum "Si O2"
_cell_formula_units_Z 16
_cell_length_a 11.620667
_cell_length_b 8.799716
_cell_length_c 16.060980
_cell_angle_alpha 129.037990
_cell_angle_beta 58.568669
_cell_angle_gamma 78.853887
_cell_volume 671.198260
_symmetry_space_group_name_H-M "P -1"
_symmetry_group_IT_number 2
_symmetry_cell_setting 'triclinic'
loop_
_space_group_symop_operation_xyz
x,y,z
-x,-y,-z
loop_
_atom_site_type_symbol
_atom_site_label
_atom_site_fract_x
_atom_site_fract_y
_atom_site_fract_z
Si Si1 0.522107 0.914467 0.321617
Si Si2 0.824988 0.650112 0.245664
Si Si3 0.110785 0.993504 0.649599
Si Si4 0.942705 0.886033 0.917765
Si Si5 0.257715 0.846507 0.185347
Si Si6 0.744680 0.149494 0.636796
Si Si7 0.418688 0.869634 0.986767
Si Si8 0.634362 0.524773 0.499651
O O1 0.746079 0.622292 0.185434
O O2 0.434669 0.816428 0.283030
O O3 0.356389 0.153136 0.543848
O O4 0.502800 0.118824 0.336989
O O5 0.030264 0.328581 0.103997
O O6 0.845758 0.845769 0.272361
O O7 0.124463 0.026765 0.558013
O O8 0.291710 0.636274 0.492992
O O9 0.876428 0.169669 0.814937
O O10 0.137772 0.692223 0.709900
O O11 0.725234 0.073571 0.012176
O O12 0.000000 0.000000 0.000000
O O13 0.136461 0.017229 0.377934
O O14 0.275744 0.006066 0.172000
O O15 0.500000 0.500000 0.000000
O O16 0.628206 0.490938 0.790874
O O17 0.500000 0.000000 0.000000
O O18 0.500000 0.500000 0.500000
#
# Coordination Sequence:
#
# PCOD9038430 Si02
#       8
#     2   2   2   2   2   2   2   2
#     4   9  18  37  59  93 126 164 204 265 324 377
#     4   9  19  34  63  88 127 164 207 259 328 380
#     4  11  21  41  68  98 126 167 221 271 330 392
#     4  11  24  42  65  94 133 176 223 265 328 406
#     4  10  23  44  63  89 132 171 214 270 329 392
#     4  10  23  41  69  91 127 172 225 265 320 400
#     4  11  25  45  65  95 137 179 216 275 339 388
#     4  11  22  39  65  99 135 165 210 283 337 384
#
# _framework density 23.837963999999999
#
# number of rings (size 3 to 8) (size 9 to 14) (size 15 to 20)
#    0.000    1.750    2.500    1.125    7.000    1.000 
#    2.250    1.875    0.000    0.000    0.000    0.000 
#    0.000    0.000    0.000    0.000    0.000    0.000 
#
# Total GULP energy -89208.430754 kJ/mol
# GULP energy per Si atom -5575.526922 kJ/mol
# Density = 2.378371 g / cm^3
# Si number density = 23.837964 Si / 1000 Ang^3
#
#
#
# Elastic Constant Matrix: (Units=GPa)
#
#
# Indices 1 2 3 4 5 6 
#
# 1 118.7207 53.8912 3.2035 -4.0857 -9.6222 5.7089
# 2 53.8912 143.7925 17.3640 10.4125 -7.2309 8.6697
# 3 3.2035 17.3640 28.0319 -8.7103 -6.3658 -3.2430
# 4 -4.0857 10.4125 -8.7103 22.3569 3.0000 2.9644
# 5 -9.6222 -7.2309 -6.3658 3.0000 33.2763 1.3009
# 6 5.7089 8.6697 -3.2430 2.9644 1.3009 47.2501
#
#
#
# Elastic Compliance Matrix: (Units=1/GPa)
#
#
# Indices 1 2 3 4 5 6 
#
# 1 0.010910 -0.004807 0.003920 0.005516 0.002385 -0.000579
# 2 -0.004807 0.010593 -0.009000 -0.009141 0.000069 -0.001409
# 3 0.003920 -0.009000 0.049780 0.023036 0.006508 0.002970
# 4 0.005516 -0.009141 0.023036 0.059287 -0.001287 -0.001092
# 5 0.002385 0.000069 0.006508 -0.001287 0.032143 -0.000659
# 6 -0.000579 -0.001409 0.002970 -0.001092 -0.000659 0.021783
#
#
# Mechanical properties :
#
#
# Convention : Reuss Voigt Hill
#
# Bulk Modulus (GPa) = 19.41421 48.82917 34.12169
# Shear Modulus (GPa) = 22.57934 34.98241 28.78088
#
# Velocity S-wave (km/s) = 3.08100 3.83496 3.47847
# Velocity P-wave (km/s) = 4.56275 6.33542 5.52070
#
# Compressibility (1/GPa) = 0.05150867
#
# Stress axis : x y z
#
# Youngs Moduli (GPa) = 91.65534 94.39946 20.08834
#
# Poissons Ratio (x) = 0.45378 -0.07874
# Poissons Ratio (y) = 0.44059 0.18080
# Poissons Ratio (z) = -0.35925 0.84962
#
# Static dielectric constant tensor:
#      x y z
#    x 2.009920 -0.039670 -0.065790 
#    y -0.039670 1.916380 -0.043540 
#    z -0.065790 -0.043540 2.038000 
# 
# From -- ./inp_files/281511.got.cif
#   From: 2010.05.17/outbox.cif.g08.bks.cpg/sg2_141_cif.got.tgz:281511.got - 2010.06.03 11:33:40.
