data_PCOD9038083
_publ_section_title
;
Structure prediction by ZEFSAII (Michael W. Deem and Ramdas Pophale) SiO2 
 PCOD9038083
Probable space group: P -1
;
_chemical_formula_sum "Si O2"
_cell_formula_units_Z 14
_cell_length_a 11.794756
_cell_length_b 9.712586
_cell_length_c 24.728845
_cell_angle_alpha 148.569771
_cell_angle_beta 152.395294
_cell_angle_gamma 39.335316
_cell_volume 682.745107
_symmetry_space_group_name_H-M "P -1"
_symmetry_group_IT_number 2
_symmetry_cell_setting 'triclinic'
loop_
_space_group_symop_operation_xyz
x,y,z
-x,-y,-z
loop_
_atom_site_type_symbol
_atom_site_label
_atom_site_fract_x
_atom_site_fract_y
_atom_site_fract_z
Si Si1 0.900442 0.711912 0.365431
Si Si2 0.970488 0.753683 0.035199
Si Si3 0.983952 0.262369 0.455704
Si Si4 0.595023 0.763522 0.795549
Si Si5 0.629540 0.119084 0.832144
Si Si6 0.743598 0.766423 0.665634
Si Si7 0.634262 0.181092 0.574196
O O1 0.900421 0.655280 0.410724
O O2 0.093989 0.503867 0.349803
O O3 0.631239 0.717818 0.227938
O O4 0.000000 0.000000 0.500000
O O5 0.700582 0.801518 0.912584
O O6 0.153400 0.728401 0.051866
O O7 0.068916 0.006869 0.191601
O O8 0.000000 0.500000 0.000000
O O9 0.698337 0.218714 0.327549
O O10 0.000000 0.500000 0.500000
O O11 0.131912 0.998096 0.408268
O O12 0.683639 0.991055 0.870013
O O13 0.683405 0.464544 0.714982
O O14 0.614075 0.869561 0.700619
O O15 0.550108 0.760168 0.534028
O O16 0.500000 0.000000 0.500000
#
# Coordination Sequence:
#
# PCOD9038083 Si02
#       7
#     2   2   2   2   2   2   2
#     4  12  22  41  66 100 130 165 214 270 326 382
#     4  10  24  46  67  88 133 178 218 265 325 387
#     4  12  24  37  63  97 132 163 214 275 320 380
#     4  12  24  42  66  97 130 170 218 270 322 381
#     4  10  24  41  67  90 134 170 219 262 325 383
#     4  10  23  41  66  92 130 171 213 262 325 384
#     4  12  22  40  66  96 128 168 216 268 326 381
#
# _framework density 20.505455999999999
#
# number of rings (size 3 to 8) (size 9 to 14) (size 15 to 20)
#    0.857    0.000    5.714    1.286    4.000    1.143 
#    2.571    1.429    0.000    0.000    0.000    0.000 
#    0.000    0.000    0.000    0.000    0.000    0.000 
#
# Total GULP energy -78221.600181 kJ/mol
# GULP energy per Si atom -5587.257156 kJ/mol
# Density = 2.045879 g / cm^3
# Si number density = 20.505456 Si / 1000 Ang^3
#
#
#
# Elastic Constant Matrix: (Units=GPa)
#
#
# Indices 1 2 3 4 5 6 
#
# 1 46.0364 27.7281 -3.9598 -7.7533 -0.0065 6.8766
# 2 27.7281 127.2726 25.7152 -10.1658 9.0571 -2.7082
# 3 -3.9598 25.7152 62.3229 -0.2820 6.8194 3.4940
# 4 -7.7533 -10.1658 -0.2820 29.9751 1.7424 1.2177
# 5 -0.0065 9.0571 6.8194 1.7424 16.8426 -5.1755
# 6 6.8766 -2.7082 3.4940 1.2177 -5.1755 56.7089
#
#
#
# Elastic Compliance Matrix: (Units=1/GPa)
#
#
# Indices 1 2 3 4 5 6 
#
# 1 0.027603 -0.006646 0.004761 0.005104 -0.000125 -0.004079
# 2 -0.006646 0.010663 -0.004468 0.002025 -0.003767 0.001203
# 3 0.004761 -0.004468 0.019002 0.000352 -0.006102 -0.002526
# 4 0.005104 0.002025 0.000352 0.035764 -0.005487 -0.001813
# 5 -0.000125 -0.003767 -0.006102 -0.005487 0.066401 0.006389
# 6 -0.004079 0.001203 -0.002526 -0.001813 0.006389 0.018964
#
#
# Mechanical properties :
#
#
# Convention : Reuss Voigt Hill
#
# Bulk Modulus (GPa) = 22.43982 37.17765 29.80874
# Shear Modulus (GPa) = 24.27690 33.11524 28.69607
#
# Velocity S-wave (km/s) = 3.44455 4.02300 3.74496
# Velocity P-wave (km/s) = 5.17562 6.30471 5.76786
#
# Compressibility (1/GPa) = 0.04456363
#
# Stress axis : x y z
#
# Youngs Moduli (GPa) = 36.22761 93.77913 52.62467
#
# Poissons Ratio (x) = 0.62326 -0.25057
# Poissons Ratio (y) = 0.24077 0.23513
# Poissons Ratio (z) = -0.17250 0.41902
#
# Static dielectric constant tensor:
#      x y z
#    x 1.766600 0.015690 -0.001700 
#    y 0.015690 1.703010 -0.004600 
#    z -0.001700 -0.004600 1.734650 
# 
# From -- ./inp_files/425059.got.cif
#   From: 2010.05.17/outbox.cif.g08.bks.cpg/sg2_213_cif.got.tgz:425059.got - 2010.06.03 11:33:40.
