data_PCOD9038763
_publ_section_title
;
Structure prediction by ZEFSAII (Michael W. Deem and Ramdas Pophale) SiO2 
 PCOD9038763
Probable space group: P -1
;
_chemical_formula_sum "Si O2"
_cell_formula_units_Z 14
_cell_length_a 9.701065
_cell_length_b 21.512166
_cell_length_c 22.995409
_cell_angle_alpha 18.564132
_cell_angle_beta 157.531398
_cell_angle_gamma 153.599092
_cell_volume 576.193969
_symmetry_space_group_name_H-M "P -1"
_symmetry_group_IT_number 2
_symmetry_cell_setting 'triclinic'
loop_
_space_group_symop_operation_xyz
x,y,z
-x,-y,-z
loop_
_atom_site_type_symbol
_atom_site_label
_atom_site_fract_x
_atom_site_fract_y
_atom_site_fract_z
Si Si1 0.085591 0.166749 0.976589
Si Si2 0.135173 0.847357 0.970475
Si Si3 0.208935 0.230434 0.215013
Si Si4 0.305686 0.453991 0.247944
Si Si5 0.274761 0.242723 0.786524
Si Si6 0.776040 0.982234 0.368122
Si Si7 0.278335 0.606007 0.641901
O O1 0.113799 0.187428 0.039414
O O2 0.432614 0.093926 0.147101
O O3 0.047387 0.387096 0.748188
O O4 0.759309 0.981765 0.004036
O O5 0.880733 0.864044 0.799929
O O6 0.374975 0.690199 0.177822
O O7 0.500000 0.000000 0.000000
O O8 0.613877 0.299052 0.337719
O O9 0.003455 0.079487 0.316145
O O10 0.032303 0.433259 0.971308
O O11 0.661307 0.610374 0.265654
O O12 0.318006 0.254175 0.465286
O O13 0.358327 0.411549 0.238095
O O14 0.926835 0.255397 0.600645
O O15 0.000000 0.000000 0.500000
#
# Coordination Sequence:
#
# PCOD9038763 Si02
#       7
#     2   2   2   2   2   2   2
#     4  11  23  40  65  91 130 169 210 257 320 375
#     4   9  23  47  63  88 132 172 211 261 314 379
#     4  11  23  43  67  95 129 169 210 264 318 375
#     4  11  22  38  64  96 132 161 209 265 317 374
#     4  10  23  42  61  93 133 164 212 267 309 377
#     4  12  22  39  68  98 128 164 211 267 321 371
#     4  12  22  37  66  98 125 165 213 263 319 372
#
# _framework density 24.297374000000001
#
# number of rings (size 3 to 8) (size 9 to 14) (size 15 to 20)
#    0.000    1.143    4.286    1.714    0.000    5.143 
#    0.000   10.714    0.000    0.000    0.000    0.000 
#    0.000    0.000    0.000    0.000    0.000    0.000 
#
# Total GULP energy -78082.240131 kJ/mol
# GULP energy per Si atom -5577.302866 kJ/mol
# Density = 2.424207 g / cm^3
# Si number density = 24.297374 Si / 1000 Ang^3
#
#
#
# Elastic Constant Matrix: (Units=GPa)
#
#
# Indices 1 2 3 4 5 6 
#
# 1 83.3141 9.5252 13.9617 -13.4868 -17.8062 -23.7556
# 2 9.5252 102.0552 29.8294 -10.5011 -13.7646 -28.4848
# 3 13.9617 29.8294 74.1283 -23.0813 -4.8581 -2.3409
# 4 -13.4868 -10.5011 -23.0813 50.1658 1.8706 -13.8630
# 5 -17.8062 -13.7646 -4.8581 1.8706 25.2605 6.0907
# 6 -23.7556 -28.4848 -2.3409 -13.8630 6.0907 34.1445
#
#
#
# Elastic Compliance Matrix: (Units=1/GPa)
#
#
# Indices 1 2 3 4 5 6 
#
# 1 0.025272 0.010071 -0.002072 0.015571 0.014624 0.029555
# 2 0.010071 0.020229 -0.004930 0.011625 0.009925 0.026494
# 3 -0.002072 -0.004930 0.017652 0.006082 -0.000785 -0.001735
# 4 0.015571 0.011625 0.006082 0.038895 0.007044 0.035483
# 5 0.014624 0.009925 -0.000785 0.007044 0.051730 0.012033
# 6 0.029555 0.026494 -0.001735 0.035483 0.012033 0.084094
#
#
# Mechanical properties :
#
#
# Convention : Reuss Voigt Hill
#
# Bulk Modulus (GPa) = 14.43215 40.68114 27.55665
# Shear Modulus (GPa) = 19.62071 35.65959 27.64015
#
# Velocity S-wave (km/s) = 2.84478 3.83512 3.37646
# Velocity P-wave (km/s) = 4.09183 6.03243 5.15429
#
# Compressibility (1/GPa) = 0.06928974
#
# Stress axis : x y z
#
# Youngs Moduli (GPa) = 39.56955 49.43285 56.65069
#
# Poissons Ratio (x) = -0.49783 0.11740
# Poissons Ratio (y) = -0.39850 0.27931
# Poissons Ratio (z) = 0.08200 0.24372
#
# Static dielectric constant tensor:
#      x y z
#    x 2.027210 -0.041370 0.012460 
#    y -0.041370 2.042760 0.000090 
#    z 0.012460 0.000090 1.947110 
# 
# From -- ./inp_files/518511.got.cif
#   From: 2010.05.17/outbox.cif.g08.bks.cpg/sg2_260_cif.got.tgz:518511.got - 2010.06.03 11:33:40.
