data_PCOD9038066
_publ_section_title
;
Structure prediction by ZEFSAII (Michael W. Deem and Ramdas Pophale) SiO2 
 PCOD9038066
Probable space group: P -1
;
_chemical_formula_sum "Si O2"
_cell_formula_units_Z 14
_cell_length_a 10.351069
_cell_length_b 13.695003
_cell_length_c 8.618084
_cell_angle_alpha 76.843088
_cell_angle_beta 62.243624
_cell_angle_gamma 31.845556
_cell_volume 532.228291
_symmetry_space_group_name_H-M "P -1"
_symmetry_group_IT_number 2
_symmetry_cell_setting 'triclinic'
loop_
_space_group_symop_operation_xyz
x,y,z
-x,-y,-z
loop_
_atom_site_type_symbol
_atom_site_label
_atom_site_fract_x
_atom_site_fract_y
_atom_site_fract_z
Si Si1 0.432187 0.580220 0.338031
Si Si2 0.876148 0.723340 0.335926
Si Si3 0.757928 0.573336 0.029557
Si Si4 0.628046 0.917118 0.706587
Si Si5 0.696947 0.245445 0.178739
Si Si6 0.765347 0.970622 0.877057
Si Si7 0.023499 0.101367 0.745327
O O1 0.500000 0.500000 0.500000
O O2 0.680657 0.512459 0.173462
O O3 0.439877 0.473944 0.268944
O O4 0.129526 0.809947 0.369291
O O5 0.813000 0.742628 0.545394
O O6 0.921133 0.817149 0.269083
O O7 0.574182 0.888337 0.351452
O O8 0.124393 0.520039 0.175862
O O9 0.466408 0.808855 0.119205
O O10 0.000000 0.500000 0.000000
O O11 0.816408 0.866364 0.742635
O O12 0.403215 0.989960 0.910139
O O13 0.790339 0.195717 0.965766
O O14 0.954088 0.145518 0.168460
O O15 0.700500 0.132432 0.288907
#
# Coordination Sequence:
#
# PCOD9038066 Si02
#       7
#     2   2   2   2   2   2   2
#     4  12  28  46  70 106 145 184 243 299 359 429
#     4  11  23  43  69  97 145 178 239 292 358 427
#     4  12  25  46  71 103 143 191 237 298 357 429
#     4  10  23  41  66 104 133 188 229 296 354 428
#     4  11  24  45  73  98 137 190 237 290 359 432
#     4  11  22  43  72  98 142 184 241 286 366 425
#     4  11  24  45  70 101 133 191 232 297 354 430
#
# _framework density 26.304500999999998
#
# number of rings (size 3 to 8) (size 9 to 14) (size 15 to 20)
#    0.000    0.857    5.714    0.429    4.000    2.286 
#    0.000    0.000    0.000    0.000    0.000    0.000 
#    0.000    0.000    0.000    0.000    0.000    0.000 
#
# Total GULP energy -78408.741582 kJ/mol
# GULP energy per Si atom -5600.624399 kJ/mol
# Density = 2.624463 g / cm^3
# Si number density = 26.304501 Si / 1000 Ang^3
#
#
#
# Elastic Constant Matrix: (Units=GPa)
#
#
# Indices 1 2 3 4 5 6 
#
# 1 115.9022 13.4466 36.0304 -12.8858 17.3547 -5.0102
# 2 13.4466 95.7241 25.5917 -12.6647 -0.7593 -2.2362
# 3 36.0304 25.5917 149.0750 -17.8919 14.5998 12.1981
# 4 -12.8858 -12.6647 -17.8919 42.3411 1.0103 5.0854
# 5 17.3547 -0.7593 14.5998 1.0103 35.3665 0.9243
# 6 -5.0102 -2.2362 12.1981 5.0854 0.9243 39.7234
#
#
#
# Elastic Compliance Matrix: (Units=1/GPa)
#
#
# Indices 1 2 3 4 5 6 
#
# 1 0.010226 -0.000676 -0.001815 0.002050 -0.004385 0.001649
# 2 -0.000676 0.011328 -0.001674 0.002358 0.001179 0.000737
# 3 -0.001815 -0.001674 0.008293 0.002895 -0.002568 -0.003181
# 4 0.002050 0.002358 0.002895 0.026700 -0.002812 -0.003850
# 5 -0.004385 0.001179 -0.002568 -0.002812 0.031595 -0.000073
# 6 0.001649 0.000737 -0.003181 -0.003850 -0.000073 0.026895
#
#
# Mechanical properties :
#
#
# Convention : Reuss Voigt Hill
#
# Bulk Modulus (GPa) = 46.47515 56.75984 51.61749
# Shear Modulus (GPa) = 38.30245 42.52838 40.41542
#
# Velocity S-wave (km/s) = 3.82005 4.02527 3.92400
# Velocity P-wave (km/s) = 6.09619 6.57485 6.34004
#
# Compressibility (1/GPa) = 0.02151688
#
# Stress axis : x y z
#
# Youngs Moduli (GPa) = 97.78608 88.27815 120.57941
#
# Poissons Ratio (x) = 0.05971 0.21885
# Poissons Ratio (y) = 0.06614 0.20184
# Poissons Ratio (z) = 0.17748 0.14777
#
# Static dielectric constant tensor:
#      x y z
#    x 2.071720 -0.003080 -0.021700 
#    y -0.003080 2.122560 0.001100 
#    z -0.021700 0.001100 2.108400 
# 
# From -- ./inp_files/272829.got.cif
#   From: 2010.05.17/outbox.cif.g08.bks.cpg/sg2_137_cif.got.tgz:272829.got - 2010.06.03 11:33:40.
