data_PCOD9038073
_publ_section_title
;
Structure prediction by ZEFSAII (Michael W. Deem and Ramdas Pophale) SiO2 
 PCOD9038073
Probable space group: P -1
;
_chemical_formula_sum "Si O2"
_cell_formula_units_Z 16
_cell_length_a 5.456767
_cell_length_b 18.963631
_cell_length_c 10.188316
_cell_angle_alpha 124.570435
_cell_angle_beta 75.595723
_cell_angle_gamma 130.175272
_cell_volume 651.687982
_symmetry_space_group_name_H-M "P -1"
_symmetry_group_IT_number 2
_symmetry_cell_setting 'triclinic'
loop_
_space_group_symop_operation_xyz
x,y,z
-x,-y,-z
loop_
_atom_site_type_symbol
_atom_site_label
_atom_site_fract_x
_atom_site_fract_y
_atom_site_fract_z
Si Si1 0.849588 0.928707 0.078652
Si Si2 0.234645 0.427665 0.848350
Si Si3 0.827160 0.465180 0.271026
Si Si4 0.859446 0.040298 0.459851
Si Si5 0.169821 0.258618 0.520590
Si Si6 0.204820 0.702851 0.589342
Si Si7 0.113166 0.253924 0.115472
Si Si8 0.873340 0.294698 0.985622
O O1 0.475112 0.817034 0.041840
O O2 0.896032 0.003465 0.272710
O O3 0.007950 0.868445 0.993265
O O4 0.000000 0.000000 0.000000
O O5 0.160811 0.489240 0.826631
O O6 0.356114 0.376860 0.686890
O O7 0.913649 0.325854 0.861321
O O8 0.500000 0.500000 0.000000
O O9 0.454635 0.359363 0.241853
O O10 0.978338 0.570132 0.455390
O O11 0.970243 0.401460 0.164686
O O12 0.053739 0.170384 0.556651
O O13 0.500000 0.000000 0.500000
O O14 0.000000 0.000000 0.500000
O O15 0.432348 0.257096 0.408879
O O16 0.891805 0.247752 0.459726
O O17 0.138685 0.741584 0.768641
O O18 0.129624 0.279924 0.986853
#
# Coordination Sequence:
#
# PCOD9038073 Si02
#       8
#     2   2   2   2   2   2   2   2
#     4  11  28  49  75 106 147 196 255 316 378 437
#     4  11  21  41  69 102 143 180 237 287 367 438
#     4  10  23  41  66 106 141 194 228 297 363 445
#     4  12  28  50  78 109 147 195 253 319 381 438
#     4  11  26  45  70 102 141 193 240 302 364 445
#     4  11  25  44  69 103 147 189 241 289 368 441
#     4  11  25  43  71 104 142 189 243 303 360 448
#     4  11  24  42  71 103 141 187 245 299 365 440
#
# _framework density 24.551628999999998
#
# number of rings (size 3 to 8) (size 9 to 14) (size 15 to 20)
#    0.000    1.000    1.250    3.750   10.500    3.000 
#    0.000    0.000    0.000    0.000    0.000    0.000 
#    0.000    0.000    0.000    0.000    0.000    0.000 
#
# Total GULP energy -89299.994519 kJ/mol
# GULP energy per Si atom -5581.249657 kJ/mol
# Density = 2.449575 g / cm^3
# Si number density = 24.551629 Si / 1000 Ang^3
#
#
#
# Elastic Constant Matrix: (Units=GPa)
#
#
# Indices 1 2 3 4 5 6 
#
# 1 80.4756 61.8776 19.1892 -1.6794 -20.5183 -27.5004
# 2 61.8776 146.4850 29.8070 -1.6282 -12.6947 -31.3990
# 3 19.1892 29.8070 99.6032 -4.3311 -15.6049 -16.4206
# 4 -1.6794 -1.6282 -4.3311 43.1314 -1.0252 -9.4515
# 5 -20.5183 -12.6947 -15.6049 -1.0252 36.7574 -0.3715
# 6 -27.5004 -31.3990 -16.4206 -9.4515 -0.3715 52.0667
#
#
#
# Elastic Compliance Matrix: (Units=1/GPa)
#
#
# Indices 1 2 3 4 5 6 
#
# 1 0.023931 -0.007324 0.001019 0.003041 0.011439 0.009178
# 2 -0.007324 0.010600 -0.001565 0.000392 -0.001059 0.002094
# 3 0.001019 -0.001565 0.011827 0.002111 0.005146 0.003744
# 4 0.003041 0.000392 0.002111 0.025170 0.003503 0.007102
# 5 0.011439 -0.001059 0.005146 0.003503 0.035587 0.007916
# 6 0.009178 0.002094 0.003744 0.007102 0.007916 0.027843
#
#
# Mechanical properties :
#
#
# Convention : Reuss Voigt Hill
#
# Bulk Modulus (GPa) = 32.66016 60.92349 46.79183
# Shear Modulus (GPa) = 31.07453 40.77043 35.92248
#
# Velocity S-wave (km/s) = 3.56150 4.07947 3.82925
# Velocity P-wave (km/s) = 5.49945 6.85986 6.21698
#
# Compressibility (1/GPa) = 0.03061834
#
# Stress axis : x y z
#
# Youngs Moduli (GPa) = 41.78759 94.33869 84.55086
#
# Poissons Ratio (x) = 0.69089 -0.08613
# Poissons Ratio (y) = 0.30603 0.13232
# Poissons Ratio (z) = -0.04257 0.14763
#
# Static dielectric constant tensor:
#      x y z
#    x 1.972770 0.018610 -0.058610 
#    y 0.018610 2.016890 -0.044660 
#    z -0.058610 -0.044660 1.886750 
# 
# From -- ./inp_files/369491.got.cif
#   From: 2010.05.17/outbox.cif.g08.bks.cpg/sg2_185_cif.got.tgz:369491.got - 2010.06.03 11:33:40.
