data_PCOD9038404
_publ_section_title
;
Structure prediction by ZEFSAII (Michael W. Deem and Ramdas Pophale) SiO2 
 PCOD9038404
Probable space group: P -1
;
_chemical_formula_sum "Si O2"
_cell_formula_units_Z 16
_cell_length_a 20.042697
_cell_length_b 11.163780
_cell_length_c 8.157522
_cell_angle_alpha 71.761596
_cell_angle_beta 108.081061
_cell_angle_gamma 45.873097
_cell_volume 786.560185
_symmetry_space_group_name_H-M "P -1"
_symmetry_group_IT_number 2
_symmetry_cell_setting 'triclinic'
loop_
_space_group_symop_operation_xyz
x,y,z
-x,-y,-z
loop_
_atom_site_type_symbol
_atom_site_label
_atom_site_fract_x
_atom_site_fract_y
_atom_site_fract_z
Si Si1 0.053598 0.208919 0.929839
Si Si2 0.973969 0.335989 0.240249
Si Si3 0.012759 0.106143 0.646637
Si Si4 0.127333 0.684344 0.075502
Si Si5 0.602811 0.034699 0.025618
Si Si6 0.734750 0.909430 0.850713
Si Si7 0.203770 0.186116 0.431874
Si Si8 0.293624 0.417858 0.657727
O O1 0.023209 0.213666 0.721164
O O2 0.029078 0.118191 0.051641
O O3 0.924057 0.507133 0.765312
O O4 0.205274 0.042707 0.117697
O O5 0.041390 0.113941 0.487288
O O6 0.109922 0.204713 0.334031
O O7 0.854272 0.451677 0.987965
O O8 0.872962 0.600457 0.137223
O O9 0.844424 0.328455 0.443768
O O10 0.114382 0.838062 0.912641
O O11 0.237081 0.508630 0.386923
O O12 0.693247 0.967323 0.263719
O O13 0.661839 0.796623 0.174823
O O14 0.620851 0.061435 0.843987
O O15 0.432762 0.288201 0.835490
O O16 0.713248 0.922496 0.632232
#
# Coordination Sequence:
#
# PCOD9038404 Si02
#       8
#     2   2   2   2   2   2   2   2
#     4  10  17  33  53  84 108 141 183 230 287 318
#     4  11  19  34  55  91 110 136 192 236 285 323
#     4  11  21  34  59  81 112 153 183 231 275 329
#     4  11  20  37  56  81 116 146 186 229 278 330
#     4  11  21  36  57  83 116 150 183 225 279 344
#     4  11  19  34  59  84 118 143 176 243 287 324
#     4  11  19  35  59  84 120 136 179 249 278 328
#     4  10  21  38  51  81 117 145 191 220 271 347
#
# _framework density 20.341736999999998
#
# number of rings (size 3 to 8) (size 9 to 14) (size 15 to 20)
#    0.000    1.250    6.250    3.375    0.000    2.000 
#    2.250    1.875    0.000    7.500    0.000    0.000 
#    0.000    0.000    0.000    0.000    0.000    0.000 
#
# Total GULP energy -89074.846187 kJ/mol
# GULP energy per Si atom -5567.177887 kJ/mol
# Density = 2.029544 g / cm^3
# Si number density = 20.341737 Si / 1000 Ang^3
#
#
#
# Elastic Constant Matrix: (Units=GPa)
#
#
# Indices 1 2 3 4 5 6 
#
# 1 70.6059 19.2144 34.6569 14.2223 -1.0373 -7.1636
# 2 19.2144 44.9422 10.5964 19.3009 5.7368 -4.3439
# 3 34.6569 10.5964 41.1075 15.3144 -3.4131 1.9149
# 4 14.2223 19.3009 15.3144 20.4734 -2.5055 -0.5469
# 5 -1.0373 5.7368 -3.4131 -2.5055 32.6010 4.4603
# 6 -7.1636 -4.3439 1.9149 -0.5469 4.4603 20.7238
#
#
#
# Elastic Compliance Matrix: (Units=1/GPa)
#
#
# Indices 1 2 3 4 5 6 
#
# 1 0.028251 -0.007731 -0.024808 0.006346 -0.001341 0.010894
# 2 -0.007731 0.045158 0.010957 -0.046629 -0.011593 0.007045
# 3 -0.024808 0.010957 0.056366 -0.035330 0.002233 -0.012900
# 4 0.006346 -0.046629 -0.035330 0.116449 0.014247 -0.004308
# 5 -0.001341 -0.011593 0.002233 0.014247 0.035415 -0.010346
# 6 0.010894 0.007045 -0.012900 -0.004308 -0.010346 0.056801
#
#
# Mechanical properties :
#
#
# Convention : Reuss Voigt Hill
#
# Bulk Modulus (GPa) = 11.54576 31.73232 21.63904
# Shear Modulus (GPa) = 12.18104 20.90550 16.54327
#
# Velocity S-wave (km/s) = 2.44973 3.20928 2.85488
# Velocity P-wave (km/s) = 3.69998 5.41905 4.63982
#
# Compressibility (1/GPa) = 0.08661187
#
# Stress axis : x y z
#
# Youngs Moduli (GPa) = 35.39668 22.14435 17.74135
#
# Poissons Ratio (x) = 0.17119 0.44013
# Poissons Ratio (y) = 0.27364 -0.19440
# Poissons Ratio (z) = 0.87813 -0.24264
#
# Static dielectric constant tensor:
#      x y z
#    x 1.752570 -0.018110 -0.032530 
#    y -0.018110 1.816600 0.082100 
#    z -0.032530 0.082100 1.741020 
# 
# From -- ./inp_files/253177.got.cif
#   From: 2010.05.17/outbox.cif.g08.bks.cpg/sg2_127_cif.got.tgz:253177.got - 2010.06.03 11:33:40.
