data_PCOD9038126
_publ_section_title
;
Structure prediction by ZEFSAII (Michael W. Deem and Ramdas Pophale) SiO2 
 PCOD9038126
Probable space group: P -1
;
_chemical_formula_sum "Si O2"
_cell_formula_units_Z 16
_cell_length_a 16.499419
_cell_length_b 18.160972
_cell_length_c 11.823579
_cell_angle_alpha 139.238373
_cell_angle_beta 31.547689
_cell_angle_gamma 157.984203
_cell_volume 685.184749
_symmetry_space_group_name_H-M "P -1"
_symmetry_group_IT_number 2
_symmetry_cell_setting 'triclinic'
loop_
_space_group_symop_operation_xyz
x,y,z
-x,-y,-z
loop_
_atom_site_type_symbol
_atom_site_label
_atom_site_fract_x
_atom_site_fract_y
_atom_site_fract_z
Si Si1 0.214247 0.764208 0.070643
Si Si2 0.182468 0.157809 0.664603
Si Si3 0.786258 0.472074 0.695461
Si Si4 0.694874 0.114866 0.508791
Si Si5 0.540019 0.794716 0.015916
Si Si6 0.339824 0.586108 0.773441
Si Si7 0.907974 0.142154 0.493479
Si Si8 0.455674 0.547175 0.219189
O O1 0.109891 0.748730 0.295431
O O2 0.966223 0.649592 0.147906
O O3 0.283611 0.674130 0.883341
O O4 0.500000 0.000000 0.000000
O O5 0.406056 0.316739 0.484424
O O6 0.307665 0.282832 0.776638
O O7 0.161568 0.009018 0.527623
O O8 0.865595 0.004622 0.854182
O O9 0.654714 0.401447 0.645255
O O10 0.000000 0.500000 0.500000
O O11 0.005921 0.704083 0.694299
O O12 0.559619 0.329496 0.896154
O O13 0.719972 0.034214 0.479799
O O14 0.500000 0.000000 0.500000
O O15 0.602192 0.169447 0.753410
O O16 0.423281 0.660727 0.889312
O O17 0.223615 0.336380 0.312360
O O18 0.500000 0.500000 0.000000
#
# Coordination Sequence:
#
# PCOD9038126 Si02
#       8
#     2   2   2   2   2   2   2   2
#     4  11  22  43  72  99 126 173 228 279 334 392
#     4  12  26  42  70  98 139 181 221 273 342 403
#     4   9  22  40  64  92 129 165 226 269 327 382
#     4  10  23  41  66  97 133 172 227 279 328 392
#     4  11  24  44  64  98 138 181 219 274 340 398
#     4  11  24  44  69  98 136 175 225 279 332 400
#     4  11  23  43  68 100 130 170 231 276 332 396
#     4  11  25  44  66  96 136 177 221 276 335 406
#
# _framework density 23.351365999999999
#
# number of rings (size 3 to 8) (size 9 to 14) (size 15 to 20)
#    0.000    1.250    3.750    1.125    7.000    2.000 
#    0.000    0.625    0.000    0.000    0.000    0.000 
#    0.000    0.000    0.000    0.000    0.000    0.000 
#
# Total GULP energy -89178.531814 kJ/mol
# GULP energy per Si atom -5573.658238 kJ/mol
# Density = 2.329822 g / cm^3
# Si number density = 23.351366 Si / 1000 Ang^3
#
#
#
# Elastic Constant Matrix: (Units=GPa)
#
#
# Indices 1 2 3 4 5 6 
#
# 1 47.8031 23.4958 -0.0590 -4.2961 -5.0544 19.5193
# 2 23.4958 113.8705 36.7571 -24.0903 4.9098 43.1219
# 3 -0.0590 36.7571 115.0775 -19.1283 2.4496 2.4122
# 4 -4.2961 -24.0903 -19.1283 40.5057 3.0407 3.6305
# 5 -5.0544 4.9098 2.4496 3.0407 31.2303 3.1410
# 6 19.5193 43.1219 2.4122 3.6305 3.1410 40.6140
#
#
#
# Elastic Compliance Matrix: (Units=1/GPa)
#
#
# Indices 1 2 3 4 5 6 
#
# 1 0.027643 0.000046 0.000887 0.004243 0.005410 -0.014184
# 2 0.000046 0.022561 -0.004360 0.013739 -0.002042 -0.024788
# 3 0.000887 -0.004360 0.010377 0.002134 -0.000538 0.003437
# 4 0.004243 0.013739 0.002134 0.036327 -0.003191 -0.019754
# 5 0.005410 -0.002042 -0.000538 -0.003191 0.033845 -0.002732
# 6 -0.014184 -0.024788 0.003437 -0.019754 -0.002732 0.059531
#
#
# Mechanical properties :
#
#
# Convention : Reuss Voigt Hill
#
# Bulk Modulus (GPa) = 18.61231 44.12653 31.36942
# Shear Modulus (GPa) = 23.25081 36.90717 30.07899
#
# Velocity S-wave (km/s) = 3.15888 3.97988 3.59291
# Velocity P-wave (km/s) = 4.61439 6.32906 5.53849
#
# Compressibility (1/GPa) = 0.05372787
#
# Stress axis : x y z
#
# Youngs Moduli (GPa) = 36.17550 44.32352 96.36816
#
# Poissons Ratio (x) = -0.00203 -0.08548
# Poissons Ratio (y) = -0.00166 0.42012
# Poissons Ratio (z) = -0.03209 0.19323
#
# Static dielectric constant tensor:
#      x y z
#    x 0.898380 -0.163680 0.804130 
#    y -0.163680 1.913200 0.147450 
#    z 0.804130 0.147450 1.289560 
# 
# From -- ./inp_files/467136.got.cif
#   From: 2010.05.17/outbox.cif.g08.bks.cpg/sg2_234_cif.got.tgz:467136.got - 2010.06.03 11:33:40.
