data_PCOD9038065
_publ_section_title
;
Structure prediction by ZEFSAII (Michael W. Deem and Ramdas Pophale) SiO2 
 PCOD9038065
Probable space group: P -1
;
_chemical_formula_sum "Si O2"
_cell_formula_units_Z 14
_cell_length_a 18.525645
_cell_length_b 6.895765
_cell_length_c 12.031334
_cell_angle_alpha 41.637432
_cell_angle_beta 34.157343
_cell_angle_gamma 53.610325
_cell_volume 572.061359
_symmetry_space_group_name_H-M "P -1"
_symmetry_group_IT_number 2
_symmetry_cell_setting 'triclinic'
loop_
_space_group_symop_operation_xyz
x,y,z
-x,-y,-z
loop_
_atom_site_type_symbol
_atom_site_label
_atom_site_fract_x
_atom_site_fract_y
_atom_site_fract_z
Si Si1 0.004703 0.277470 0.487806
Si Si2 0.741643 0.880791 0.020763
Si Si3 0.310988 0.315884 0.361184
Si Si4 0.514366 0.644651 0.297019
Si Si5 0.423545 0.701286 0.849967
Si Si6 0.226874 0.715622 0.655411
Si Si7 0.873333 0.300260 0.436909
O O1 0.987493 0.407150 0.330911
O O2 0.000000 0.500000 0.500000
O O3 0.116867 0.053102 0.436001
O O4 0.872544 0.073233 0.755489
O O5 0.634283 0.880398 0.060676
O O6 0.771370 0.550240 0.148100
O O7 0.665621 0.025919 0.156646
O O8 0.438345 0.219814 0.302599
O O9 0.246429 0.552916 0.417655
O O10 0.212578 0.033722 0.588511
O O11 0.352489 0.467468 0.126123
O O12 0.500000 0.500000 0.500000
O O13 0.553970 0.430315 0.242156
O O14 0.374165 0.752987 0.402827
O O15 0.130357 0.616852 0.722449
#
# Coordination Sequence:
#
# PCOD9038065 Si02
#       7
#     2   2   2   2   2   2   2
#     4  11  26  49  73  98 137 189 248 301 346 418
#     4  11  25  45  68 108 140 191 236 285 361 423
#     4  11  23  40  67 110 142 186 229 292 350 423
#     4  10  23  41  66 103 150 187 219 286 356 423
#     4  11  23  39  70 102 148 186 238 278 350 430
#     4  11  24  42  69 105 151 180 228 293 361 428
#     4  11  24  45  74  99 141 186 237 298 353 415
#
# _framework density 24.472899999999999
#
# number of rings (size 3 to 8) (size 9 to 14) (size 15 to 20)
#    0.000    1.143    4.286    0.857    2.000    6.857 
#    0.000    1.429    0.000    0.000    0.000    0.000 
#    0.000    0.000    0.000    0.000    0.000    0.000 
#
# Total GULP energy -78241.790672 kJ/mol
# GULP energy per Si atom -5588.699334 kJ/mol
# Density = 2.441720 g / cm^3
# Si number density = 24.472900 Si / 1000 Ang^3
#
#
#
# Elastic Constant Matrix: (Units=GPa)
#
#
# Indices 1 2 3 4 5 6 
#
# 1 96.7141 39.6872 23.9035 2.6844 1.5699 20.6149
# 2 39.6872 170.9934 47.9230 15.0716 4.6478 25.6755
# 3 23.9035 47.9230 94.2244 0.0592 -13.8229 10.2432
# 4 2.6844 15.0716 0.0592 36.7535 -0.0592 -3.3698
# 5 1.5699 4.6478 -13.8229 -0.0592 16.5171 -0.2166
# 6 20.6149 25.6755 10.2432 -3.3698 -0.2166 53.1825
#
#
#
# Elastic Compliance Matrix: (Units=1/GPa)
#
#
# Indices 1 2 3 4 5 6 
#
# 1 0.012398 -0.001532 -0.002376 -0.000613 -0.002786 -0.003658
# 2 -0.001532 0.008344 -0.004417 -0.003572 -0.005949 -0.002834
# 3 -0.002376 -0.004417 0.015563 0.002006 0.014503 0.000243
# 4 -0.000613 -0.003572 0.002006 0.029034 0.002891 0.003427
# 5 -0.002786 -0.005949 0.014503 0.002891 0.074652 0.001646
# 6 -0.003658 -0.002834 0.000243 0.003427 0.001646 0.021767
#
#
# Mechanical properties :
#
#
# Convention : Reuss Voigt Hill
#
# Bulk Modulus (GPa) = 50.88547 64.99548 57.94047
# Shear Modulus (GPa) = 27.03290 37.98519 32.50904
#
# Velocity S-wave (km/s) = 3.32717 3.94399 3.64863
# Velocity P-wave (km/s) = 5.96639 6.88156 6.44025
#
# Compressibility (1/GPa) = 0.01965197
#
# Stress axis : x y z
#
# Youngs Moduli (GPa) = 80.65822 119.84671 64.25642
#
# Poissons Ratio (x) = 0.18365 0.15270
# Poissons Ratio (y) = 0.12360 0.28385
# Poissons Ratio (z) = 0.19168 0.52942
#
# Static dielectric constant tensor:
#      x y z
#    x 1.981300 -0.026650 -0.003220 
#    y -0.026650 1.950130 -0.009320 
#    z -0.003220 -0.009320 2.061830 
# 
# From -- ./inp_files/459381.got.cif
#   From: 2010.05.17/outbox.cif.g08.bks.cpg/sg2_230_cif.got.tgz:459381.got - 2010.06.03 11:33:40.
