data_PCOD9038452
_publ_section_title
;
Structure prediction by ZEFSAII (Michael W. Deem and Ramdas Pophale) SiO2 
 PCOD9038452
Probable space group: P -1
;
_chemical_formula_sum "Si O2"
_cell_formula_units_Z 14
_cell_length_a 11.096303
_cell_length_b 12.094834
_cell_length_c 8.816574
_cell_angle_alpha 131.441735
_cell_angle_beta 139.489010
_cell_angle_gamma 55.345454
_cell_volume 570.966207
_symmetry_space_group_name_H-M "P -1"
_symmetry_group_IT_number 2
_symmetry_cell_setting 'triclinic'
loop_
_space_group_symop_operation_xyz
x,y,z
-x,-y,-z
loop_
_atom_site_type_symbol
_atom_site_label
_atom_site_fract_x
_atom_site_fract_y
_atom_site_fract_z
Si Si1 0.827535 0.478588 0.651673
Si Si2 0.503008 0.836548 0.421796
Si Si3 0.644719 0.995470 0.273711
Si Si4 0.930409 0.715511 0.741387
Si Si5 0.762505 0.264924 0.173153
Si Si6 0.803377 0.718339 0.068632
Si Si7 0.053513 0.045970 0.797501
O O1 0.942953 0.585366 0.758807
O O2 0.693222 0.394977 0.343083
O O3 0.987268 0.350923 0.747919
O O4 0.730802 0.582046 0.787097
O O5 0.442046 0.881808 0.576020
O O6 0.710646 0.752344 0.536357
O O7 0.500000 0.000000 0.500000
O O8 0.371106 0.755037 0.113524
O O9 0.860638 0.029907 0.512477
O O10 0.685419 0.814076 0.173632
O O11 0.500000 0.000000 0.000000
O O12 0.051071 0.685810 0.679963
O O13 0.995524 0.863599 0.011935
O O14 0.824431 0.109116 0.179096
O O15 0.831061 0.844616 0.085191
#
# Coordination Sequence:
#
# PCOD9038452 Si02
#       7
#     2   2   2   2   2   2   2
#     4  10  23  41  69  96 141 192 227 278 349 428
#     4  12  26  42  72 112 137 175 239 302 344 406
#     4  12  24  40  68 104 139 175 236 297 342 406
#     4  11  23  45  68 102 140 179 231 285 350 416
#     4  12  23  43  72 104 140 183 231 286 358 408
#     4  10  23  43  67  98 138 187 236 277 350 419
#     4  11  21  40  70  99 133 180 231 290 343 403
#
# _framework density 24.519841
#
# number of rings (size 3 to 8) (size 9 to 14) (size 15 to 20)
#    0.000    0.857    4.286    3.857    0.000    0.571 
#    0.000    0.000    3.143    4.286    0.000    0.000 
#    0.000    0.000    0.000    0.000    0.000    0.000 
#
# Total GULP energy -78194.729916 kJ/mol
# GULP energy per Si atom -5585.337851 kJ/mol
# Density = 2.446403 g / cm^3
# Si number density = 24.519841 Si / 1000 Ang^3
#
#
#
# Elastic Constant Matrix: (Units=GPa)
#
#
# Indices 1 2 3 4 5 6 
#
# 1 58.5759 12.0442 45.1535 -12.5353 -0.2758 -17.3898
# 2 12.0442 79.7790 35.0976 -8.5651 5.0059 -3.0128
# 3 45.1535 35.0976 219.9693 0.6129 -30.0127 -39.0773
# 4 -12.5353 -8.5651 0.6129 46.1685 -15.0121 -4.8628
# 5 -0.2758 5.0059 -30.0127 -15.0121 32.1539 3.8498
# 6 -17.3898 -3.0128 -39.0773 -4.8628 3.8498 37.2159
#
#
#
# Elastic Compliance Matrix: (Units=1/GPa)
#
#
# Indices 1 2 3 4 5 6 
#
# 1 0.023893 -0.001048 -0.003285 0.007109 -0.000408 0.008602
# 2 -0.001048 0.014313 -0.003028 0.000748 -0.004481 -0.001950
# 3 -0.003285 -0.003028 0.007787 0.001575 0.007753 0.005801
# 4 0.007109 0.000748 0.001575 0.029071 0.014104 0.007376
# 5 -0.000408 -0.004481 0.007753 0.014104 0.045045 0.004770
# 6 0.008602 -0.001950 0.005801 0.007376 0.004770 0.037293
#
#
# Mechanical properties :
#
#
# Convention : Reuss Voigt Hill
#
# Bulk Modulus (GPa) = 31.97921 60.32388 46.15155
# Shear Modulus (GPa) = 27.39005 40.84292 34.11648
#
# Velocity S-wave (km/s) = 3.34587 4.08574 3.73417
# Velocity P-wave (km/s) = 5.29121 6.84932 6.12005
#
# Compressibility (1/GPa) = 0.03127031
#
# Stress axis : x y z
#
# Youngs Moduli (GPa) = 41.85412 69.86602 128.41132
#
# Poissons Ratio (x) = 0.07324 0.42179
# Poissons Ratio (y) = 0.04388 0.38888
# Poissons Ratio (z) = 0.13748 0.21158
#
# Static dielectric constant tensor:
#      x y z
#    x 2.303480 0.044240 -0.265730 
#    y 0.044240 1.902160 -0.038480 
#    z -0.265730 -0.038480 2.178920 
# 
# From -- ./inp_files/263666.got.cif
#   From: 2010.05.17/outbox.cif.g08.bks.cpg/sg2_132_cif.got.tgz:263666.got - 2010.06.03 11:33:40.
