data_PCOD9038591
_publ_section_title
;
Structure prediction by ZEFSAII (Michael W. Deem and Ramdas Pophale) SiO2 
 PCOD9038591
Probable space group: P -1
;
_chemical_formula_sum "Si O2"
_cell_formula_units_Z 14
_cell_length_a 8.649485
_cell_length_b 9.642756
_cell_length_c 21.021577
_cell_angle_alpha 154.786611
_cell_angle_beta 50.729272
_cell_angle_gamma 119.716272
_cell_volume 562.244799
_symmetry_space_group_name_H-M "P -1"
_symmetry_group_IT_number 2
_symmetry_cell_setting 'triclinic'
loop_
_space_group_symop_operation_xyz
x,y,z
-x,-y,-z
loop_
_atom_site_type_symbol
_atom_site_label
_atom_site_fract_x
_atom_site_fract_y
_atom_site_fract_z
Si Si1 0.934326 0.795239 0.231388
Si Si2 0.688012 0.837639 0.428880
Si Si3 0.720491 0.437094 0.051542
Si Si4 0.569766 0.317006 0.338487
Si Si5 0.009389 0.173616 0.195214
Si Si6 0.753629 0.343332 0.729690
Si Si7 0.147154 0.215158 0.417382
O O1 0.860924 0.660568 0.260083
O O2 0.766836 0.766513 0.210061
O O3 0.971204 0.152358 0.390182
O O4 0.149528 0.621787 0.071153
O O5 0.611622 0.586228 0.390056
O O6 0.500000 0.000000 0.500000
O O7 0.753703 0.115351 0.571535
O O8 0.482136 0.468723 0.119955
O O9 0.827579 0.138106 0.947341
O O10 0.500000 0.500000 0.500000
O O11 0.372185 0.182460 0.314826
O O12 0.798972 0.084337 0.189330
O O13 0.110050 0.389208 0.208486
O O14 0.932816 0.438804 0.381787
O O15 0.815058 0.080973 0.662162
#
# Coordination Sequence:
#
# PCOD9038591 Si02
#       7
#     2   2   2   2   2   2   2
#     4  11  26  46  71 104 146 194 242 288 371 428
#     4  12  23  42  77 108 140 191 251 293 350 438
#     4  11  28  45  71 105 158 186 230 313 374 412
#     4  10  23  41  71 111 143 179 239 306 352 414
#     4  11  23  44  74 102 144 187 239 301 361 418
#     4  12  23  47  76 105 140 192 246 300 357 431
#     4  11  24  44  80 101 139 195 253 284 355 447
#
# _framework density 24.900185
#
# number of rings (size 3 to 8) (size 9 to 14) (size 15 to 20)
#    0.000    0.857    5.714    1.714    8.000    2.286 
#    2.571    1.429    0.000    0.000    0.000    0.000 
#    0.000    0.000    0.000    0.000    0.000    0.000 
#
# Total GULP energy -78373.547555 kJ/mol
# GULP energy per Si atom -5598.110540 kJ/mol
# Density = 2.484351 g / cm^3
# Si number density = 24.900185 Si / 1000 Ang^3
#
#
#
# Elastic Constant Matrix: (Units=GPa)
#
#
# Indices 1 2 3 4 5 6 
#
# 1 75.2842 28.2772 13.9462 -0.1226 -15.0510 19.1734
# 2 28.2772 172.8488 33.7956 -23.1762 -11.2622 2.1809
# 3 13.9462 33.7956 66.7463 -10.5197 -18.4732 -3.1241
# 4 -0.1226 -23.1762 -10.5197 54.6496 -2.0700 -7.0571
# 5 -15.0510 -11.2622 -18.4732 -2.0700 44.5479 1.2656
# 6 19.1734 2.1809 -3.1241 -7.0571 1.2656 49.1891
#
#
#
# Elastic Compliance Matrix: (Units=1/GPa)
#
#
# Indices 1 2 3 4 5 6 
#
# 1 0.017232 -0.002354 -0.001796 -0.002054 0.004590 -0.007139
# 2 -0.002354 0.007017 -0.002621 0.002570 -0.000012 0.000809
# 3 -0.001796 -0.002621 0.019154 0.003125 0.006753 0.002307
# 4 -0.002054 0.002570 0.003125 0.020553 0.002099 0.003780
# 5 0.004590 -0.000012 0.006753 0.002099 0.026943 -0.001752
# 6 -0.007139 0.000809 0.002307 0.003780 -0.001752 0.023811
#
#
# Mechanical properties :
#
#
# Convention : Reuss Voigt Hill
#
# Bulk Modulus (GPa) = 33.48963 51.87969 42.68466
# Shear Modulus (GPa) = 36.17779 45.60135 40.88957
#
# Velocity S-wave (km/s) = 3.81584 4.28409 4.05673
# Velocity P-wave (km/s) = 5.73524 6.73435 6.25478
#
# Compressibility (1/GPa) = 0.02985999
#
# Stress axis : x y z
#
# Youngs Moduli (GPa) = 58.02996 142.51861 52.20785
#
# Poissons Ratio (x) = 0.33551 0.09378
# Poissons Ratio (y) = 0.13661 0.13685
# Poissons Ratio (z) = 0.10423 0.37358
#
# Static dielectric constant tensor:
#      x y z
#    x 2.010540 0.005290 -0.001480 
#    y 0.005290 1.969160 0.013590 
#    z -0.001480 0.013590 1.986590 
# 
# From -- ./inp_files/588256.got.cif
#   From: 2010.05.17/outbox.cif.g08.bks.cpg/sg2_295_cif.got.tgz:588256.got - 2010.06.03 11:33:40.
