data_PCOD9038372
_publ_section_title
;
Structure prediction by ZEFSAII (Michael W. Deem and Ramdas Pophale) SiO2 
 PCOD9038372
Probable space group: P -1
;
_chemical_formula_sum "Si O2"
_cell_formula_units_Z 14
_cell_length_a 11.338350
_cell_length_b 14.220222
_cell_length_c 14.995304
_cell_angle_alpha 29.870938
_cell_angle_beta 120.476638
_cell_angle_gamma 139.461885
_cell_volume 691.225044
_symmetry_space_group_name_H-M "P -1"
_symmetry_group_IT_number 2
_symmetry_cell_setting 'triclinic'
loop_
_space_group_symop_operation_xyz
x,y,z
-x,-y,-z
loop_
_atom_site_type_symbol
_atom_site_label
_atom_site_fract_x
_atom_site_fract_y
_atom_site_fract_z
Si Si1 0.995949 0.858314 0.199980
Si Si2 0.430487 0.114744 0.140137
Si Si3 0.427495 0.712086 0.545274
Si Si4 0.404217 0.344039 0.187154
Si Si5 0.058909 0.184557 0.588150
Si Si6 0.375573 0.262590 0.567702
Si Si7 0.415994 0.860470 0.177024
O O1 0.810626 0.527294 0.377777
O O2 0.940284 0.893002 0.245762
O O3 0.212415 0.978579 0.197994
O O4 0.000000 0.000000 0.000000
O O5 0.496409 0.998389 0.318248
O O6 0.389166 0.005714 0.113385
O O7 0.592735 0.450470 0.931360
O O8 0.463016 0.665810 0.695073
O O9 0.529906 0.664098 0.555222
O O10 0.500000 0.500000 0.000000
O O11 0.177024 0.026212 0.352817
O O12 0.158519 0.139948 0.593729
O O13 0.208092 0.521247 0.370935
O O14 0.500000 0.500000 0.500000
O O15 0.400875 0.075421 0.763153
O O16 0.500000 0.000000 0.000000
#
# Coordination Sequence:
#
# PCOD9038372 Si02
#       7
#     2   2   2   2   2   2   2
#     4  12  21  38  70  96 127 179 229 270 328 393
#     4  11  24  42  68  98 134 173 230 272 332 402
#     4  11  23  43  67  94 135 179 220 285 327 393
#     4  12  26  45  64 101 141 178 218 271 352 400
#     4  11  23  43  64 100 134 170 225 278 333 401
#     4   9  19  39  66  90 125 168 223 271 325 383
#     4  10  23  41  68  98 128 172 228 278 325 393
#
# _framework density 20.253896000000001
#
# number of rings (size 3 to 8) (size 9 to 14) (size 15 to 20)
#    0.000    1.143    7.143    0.429    6.000    1.143 
#    2.571    1.429    0.000    0.000    0.000    0.000 
#    0.000    0.000    0.000    0.000    0.000    0.000 
#
# Total GULP energy -77996.114167 kJ/mol
# GULP energy per Si atom -5571.151012 kJ/mol
# Density = 2.020780 g / cm^3
# Si number density = 20.253896 Si / 1000 Ang^3
#
#
#
# Elastic Constant Matrix: (Units=GPa)
#
#
# Indices 1 2 3 4 5 6 
#
# 1 82.2152 19.7825 21.9487 1.5905 -10.7200 -12.9149
# 2 19.7825 84.3016 35.5257 2.9611 -4.4512 1.5542
# 3 21.9487 35.5257 89.6456 10.3718 -3.9602 -17.7581
# 4 1.5905 2.9611 10.3718 34.7111 -4.9819 0.6575
# 5 -10.7200 -4.4512 -3.9602 -4.9819 31.1273 -0.4894
# 6 -12.9149 1.5542 -17.7581 0.6575 -0.4894 18.1079
#
#
#
# Elastic Compliance Matrix: (Units=1/GPa)
#
#
# Indices 1 2 3 4 5 6 
#
# 1 0.015483 -0.003666 0.000192 0.000046 0.005023 0.011680
# 2 -0.003666 0.016317 -0.008113 0.001439 0.000080 -0.012021
# 3 0.000192 -0.008113 0.018822 -0.005199 0.000775 0.019501
# 4 0.000046 0.001439 -0.005199 0.030990 0.004423 -0.006195
# 5 0.005023 0.000080 0.000775 0.004423 0.034755 0.005115
# 6 0.011680 -0.012021 0.019501 -0.006195 0.005115 0.084075
#
#
# Mechanical properties :
#
#
# Convention : Reuss Voigt Hill
#
# Bulk Modulus (GPa) = 36.43219 45.63068 41.03143
# Shear Modulus (GPa) = 21.48109 28.71629 25.09869
#
# Velocity S-wave (km/s) = 3.26020 3.76947 3.52405
# Velocity P-wave (km/s) = 5.67439 6.44387 6.07133
#
# Compressibility (1/GPa) = 0.02744826
#
# Stress axis : x y z
#
# Youngs Moduli (GPa) = 64.58753 61.28716 53.12979
#
# Poissons Ratio (x) = 0.22468 -0.01022
# Poissons Ratio (y) = 0.23678 0.43104
# Poissons Ratio (z) = -0.01243 0.49722
#
# Static dielectric constant tensor:
#      x y z
#    x 1.821460 -0.050240 -0.018640 
#    y -0.050240 1.761870 -0.013600 
#    z -0.018640 -0.013600 1.763670 
# 
# From -- ./inp_files/202513.got.cif
#   From: 2010.05.17/outbox.cif.g08.bks.cpg/sg2_102_cif.got.tgz:202513.got - 2010.06.03 11:33:40.
