data_PCOD9038527
_publ_section_title
;
Structure prediction by ZEFSAII (Michael W. Deem and Ramdas Pophale) SiO2 
 PCOD9038527
Probable space group: P -1
;
_chemical_formula_sum "Si O2"
_cell_formula_units_Z 14
_cell_length_a 10.305214
_cell_length_b 19.646057
_cell_length_c 5.048623
_cell_angle_alpha 98.751437
_cell_angle_beta 87.877714
_cell_angle_gamma 148.608386
_cell_volume 517.584325
_symmetry_space_group_name_H-M "P -1"
_symmetry_group_IT_number 2
_symmetry_cell_setting 'triclinic'
loop_
_space_group_symop_operation_xyz
x,y,z
-x,-y,-z
loop_
_atom_site_type_symbol
_atom_site_label
_atom_site_fract_x
_atom_site_fract_y
_atom_site_fract_z
Si Si1 0.637029 0.487230 0.300541
Si Si2 0.970271 0.231282 0.573490
Si Si3 0.725932 0.188132 0.067189
Si Si4 0.615744 0.272694 0.391708
Si Si5 0.234288 0.992389 0.269015
Si Si6 0.712533 0.437660 0.774853
Si Si7 0.281110 0.222220 0.026466
O O1 0.715523 0.496061 0.584616
O O2 0.739542 0.610201 0.318465
O O3 0.780799 0.504238 0.084479
O O4 0.348759 0.330840 0.186338
O O5 0.881329 0.214321 0.282843
O O6 0.898848 0.121648 0.592512
O O7 0.803603 0.200489 0.777842
O O8 0.762921 0.286323 0.196548
O O9 0.431423 0.045432 0.086171
O O10 0.792086 0.399507 0.639112
O O11 0.415100 0.131503 0.472418
O O12 0.445823 0.245266 0.204146
O O13 0.011596 0.924019 0.071965
O O14 0.415235 0.283502 0.767024
#
# Coordination Sequence:
#
# PCOD9038527 Si02
#       7
#     2   2   2   2   2   2   2
#     4   9  21  39  68  87 133 165 210 262 309 382
#     4  12  23  48  61  96 130 172 218 253 310 385
#     4  10  26  41  67  93 129 172 214 257 317 372
#     4   9  21  39  68  97 128 162 211 267 323 374
#     4  10  23  41  70  95 129 170 206 274 313 384
#     4   9  19  41  61  96 126 159 209 260 320 374
#     4   9  20  42  64 103 123 165 208 267 331 366
#
# _framework density 27.048731
#
# number of rings (size 3 to 8) (size 9 to 14) (size 15 to 20)
#    1.714    0.571    0.000    2.143    2.000    1.143 
#   12.857   10.714    0.000    0.000    0.000    0.000 
#    0.000    0.000    0.000    0.000    0.000    0.000 
#
# Total GULP energy -78239.938253 kJ/mol
# GULP energy per Si atom -5588.567018 kJ/mol
# Density = 2.698717 g / cm^3
# Si number density = 27.048731 Si / 1000 Ang^3
#
#
#
# Elastic Constant Matrix: (Units=GPa)
#
#
# Indices 1 2 3 4 5 6 
#
# 1 101.0286 17.9636 36.8653 2.7633 3.0606 -14.8259
# 2 17.9636 119.3905 13.1876 -8.5609 -6.7542 -31.7476
# 3 36.8653 13.1876 97.6774 -14.8475 -3.8293 -9.3997
# 4 2.7633 -8.5609 -14.8475 21.6982 -4.4756 3.3913
# 5 3.0606 -6.7542 -3.8293 -4.4756 32.8612 9.1857
# 6 -14.8259 -31.7476 -9.3997 3.3913 9.1857 51.1051
#
#
#
# Elastic Compliance Matrix: (Units=1/GPa)
#
#
# Indices 1 2 3 4 5 6 
#
# 1 0.012989 -0.001239 -0.005709 -0.007372 -0.004017 0.003159
# 2 -0.001239 0.010382 0.000233 0.003777 0.001207 0.005665
# 3 -0.005709 0.000233 0.014212 0.011401 0.003887 -0.000353
# 4 -0.007372 0.003777 0.011401 0.059370 0.011934 -0.003780
# 5 -0.004017 0.001207 0.003887 0.011934 0.035029 -0.006789
# 6 0.003159 0.005665 -0.000353 -0.003780 -0.006789 0.025410
#
#
# Mechanical properties :
#
#
# Convention : Reuss Voigt Hill
#
# Bulk Modulus (GPa) = 41.40418 50.45885 45.93152
# Shear Modulus (GPa) = 27.95268 37.80491 32.87880
#
# Velocity S-wave (km/s) = 3.21817 3.74258 3.49024
# Velocity P-wave (km/s) = 5.39901 6.11320 5.76717
#
# Compressibility (1/GPa) = 0.02415215
#
# Stress axis : x y z
#
# Youngs Moduli (GPa) = 76.99015 96.31814 70.36087
#
# Poissons Ratio (x) = 0.11938 0.40168
# Poissons Ratio (y) = 0.09543 -0.01637
# Poissons Ratio (z) = 0.43953 -0.02241
#
# Static dielectric constant tensor:
#      x y z
#    x 2.196990 -0.006520 -0.093020 
#    y -0.006520 2.239770 0.048890 
#    z -0.093020 0.048890 2.061570 
# 
# From -- ./inp_files/100708.got.cif
#   From: 2010.05.17/outbox.cif.g08.bks.cpg/sg2_51_cif.got.tgz:100708.got - 2010.06.03 11:33:40.
