data_PCOD9038828
_publ_section_title
;
Structure prediction by ZEFSAII (Michael W. Deem and Ramdas Pophale) SiO2 
 PCOD9038828
Probable space group: P -1
;
_chemical_formula_sum "Si O2"
_cell_formula_units_Z 15
_cell_length_a 8.333572
_cell_length_b 11.772808
_cell_length_c 21.024839
_cell_angle_alpha 37.473223
_cell_angle_beta 115.634233
_cell_angle_gamma 142.109885
_cell_volume 659.064771
_symmetry_space_group_name_H-M "P -1"
_symmetry_group_IT_number 2
_symmetry_cell_setting 'triclinic'
loop_
_space_group_symop_operation_xyz
x,y,z
-x,-y,-z
loop_
_atom_site_type_symbol
_atom_site_label
_atom_site_fract_x
_atom_site_fract_y
_atom_site_fract_z
Si Si1 0.410806 0.845314 0.757005
Si Si2 0.992294 0.203886 0.759708
Si Si3 0.307825 0.350917 0.623262
Si Si4 0.708765 0.430148 0.730050
Si Si5 0.895598 0.029942 0.354359
Si Si6 0.995038 0.122700 0.007429
Si Si7 0.500000 0.000000 0.000000
Si Si8 0.673679 0.210747 0.373430
O O1 0.503885 0.951568 0.651677
O O2 0.689562 0.065187 0.755248
O O3 0.187377 0.827484 0.743677
O O4 0.225740 0.494303 0.881551
O O5 0.159967 0.333686 0.663308
O O6 0.202348 0.479249 0.726029
O O7 0.923419 0.940189 0.891236
O O8 0.445105 0.275843 0.707900
O O9 0.594535 0.703410 0.485354
O O10 0.072920 0.087741 0.645310
O O11 0.615422 0.177784 0.870168
O O12 0.018838 0.646545 0.649364
O O13 0.812224 0.695714 0.673111
O O14 0.668212 0.941480 0.042103
O O15 0.000000 0.000000 0.000000
O O16 0.500000 0.000000 0.500000
#
# Coordination Sequence:
#
# PCOD9038828 Si02
#       8
#     2   2   2   2   2   2   1   2
#     4  11  24  45  67  98 139 182 232 288 348 421
#     4  12  24  41  69 100 136 179 233 286 351 419
#     4  11  24  39  65 100 133 178 225 283 343 415
#     4  11  22  44  67  96 135 177 229 290 344 411
#     4  10  23  42  63  94 137 174 224 279 344 412
#     4  12  24  47  72 104 140 184 237 295 358 419
#     4  12  22  44  78  96 136 184 232 288 346 414
#     4  11  24  43  70 101 135 186 232 284 354 418
#
# _framework density 22.759522
#
# number of rings (size 3 to 8) (size 9 to 14) (size 15 to 20)
#    0.000    0.800    5.333    3.200    0.000    6.400 
#    0.000    4.000    0.000    0.000    0.000    0.000 
#    0.000    0.000    0.000    0.000    0.000    0.000 
#
# Total GULP energy -83622.865558 kJ/mol
# GULP energy per Si atom -5574.857704 kJ/mol
# Density = 2.270772 g / cm^3
# Si number density = 22.759522 Si / 1000 Ang^3
#
#
#
# Elastic Constant Matrix: (Units=GPa)
#
#
# Indices 1 2 3 4 5 6 
#
# 1 70.1979 8.9681 -16.6352 4.4058 -10.3954 2.2404
# 2 8.9681 55.6953 1.1179 2.8414 5.7374 -22.7316
# 3 -16.6352 1.1179 70.1134 -1.2569 11.4194 -4.5987
# 4 4.4058 2.8414 -1.2569 9.7743 0.1774 7.0141
# 5 -10.3954 5.7374 11.4194 0.1774 29.5972 2.8230
# 6 2.2404 -22.7316 -4.5987 7.0141 2.8230 33.2124
#
#
#
# Elastic Compliance Matrix: (Units=1/GPa)
#
#
# Indices 1 2 3 4 5 6 
#
# 1 0.016741 -0.004831 0.002733 -0.003082 0.006155 -0.003930
# 2 -0.004831 0.034186 0.001747 -0.029747 -0.011800 0.031251
# 3 0.002733 0.001747 0.016093 -0.002654 -0.005983 0.004309
# 4 -0.003082 -0.029747 -0.002654 0.149864 0.009866 -0.053008
# 5 0.006155 -0.011800 -0.005983 0.009866 0.041913 -0.014966
# 6 -0.003930 0.031251 0.004309 -0.053008 -0.014966 0.064827
#
#
# Mechanical properties :
#
#
# Convention : Reuss Voigt Hill
#
# Bulk Modulus (GPa) = 15.07886 20.32313 17.70100
# Shear Modulus (GPa) = 14.43292 28.02052 21.22672
#
# Velocity S-wave (km/s) = 2.52096 3.51259 3.05725
# Velocity P-wave (km/s) = 3.88759 5.03984 4.50074
#
# Compressibility (1/GPa) = 0.06631800
#
# Stress axis : x y z
#
# Youngs Moduli (GPa) = 59.73457 29.25201 62.13992
#
# Poissons Ratio (x) = 0.14132 -0.16986
# Poissons Ratio (y) = 0.28859 -0.10856
# Poissons Ratio (z) = -0.16328 -0.05111
#
# Static dielectric constant tensor:
#      x y z
#    x 1.838000 -0.005010 -0.003150 
#    y -0.005010 1.834300 -0.006040 
#    z -0.003150 -0.006040 1.891190 
# 
# From -- ./inp_files/306173.got.cif
#   From: 2010.05.17/outbox.cif.g08.bks.cpg/sg2_154_cif.got.tgz:306173.got - 2010.06.03 11:33:40.
