data_PCOD9038118
_publ_section_title
;
Structure prediction by ZEFSAII (Michael W. Deem and Ramdas Pophale) SiO2 
 PCOD9038118
Probable space group: P -1
;
_chemical_formula_sum "Si O2"
_cell_formula_units_Z 16
_cell_length_a 8.698709
_cell_length_b 14.517415
_cell_length_c 12.408454
_cell_angle_alpha 30.303560
_cell_angle_beta 102.106626
_cell_angle_gamma 96.960323
_cell_volume 767.362710
_symmetry_space_group_name_H-M "P -1"
_symmetry_group_IT_number 2
_symmetry_cell_setting 'triclinic'
loop_
_space_group_symop_operation_xyz
x,y,z
-x,-y,-z
loop_
_atom_site_type_symbol
_atom_site_label
_atom_site_fract_x
_atom_site_fract_y
_atom_site_fract_z
Si Si1 0.408942 0.456399 0.420506
Si Si2 0.188194 0.097390 0.045158
Si Si3 0.902167 0.998016 0.379000
Si Si4 0.392991 0.861065 0.677734
Si Si5 0.863520 0.229156 0.955973
Si Si6 0.670995 0.929187 0.141230
Si Si7 0.827247 0.236047 0.455100
Si Si8 0.623461 0.601957 0.120330
O O1 0.500000 0.500000 0.500000
O O2 0.243022 0.583131 0.263915
O O3 0.360727 0.253352 0.618277
O O4 0.518217 0.506071 0.288244
O O5 0.224396 0.090219 0.931649
O O6 0.304904 0.226711 0.987361
O O7 0.010064 0.194112 0.934287
O O8 0.199559 0.903587 0.308293
O O9 0.991160 0.828372 0.492797
O O10 0.720309 0.028761 0.360019
O O11 0.000000 0.000000 0.500000
O O12 0.930355 0.182004 0.131731
O O13 0.282546 0.801158 0.625743
O O14 0.500000 0.000000 0.500000
O O15 0.505019 0.691050 0.919686
O O16 0.745759 0.074841 0.077500
O O17 0.500000 0.000000 0.000000
O O18 0.767302 0.446431 0.265045
#
# Coordination Sequence:
#
# PCOD9038118 Si02
#       8
#     2   2   2   2   2   2   2   2
#     4  12  24  42  66  95 135 176 219 282 326 392
#     4  11  24  42  65  94 138 176 216 279 334 398
#     4   9  21  43  68  90 135 174 213 270 338 394
#     4  11  21  40  70  97 129 175 222 284 335 387
#     4  11  24  43  67  96 132 176 224 270 341 397
#     4  12  24  41  67  96 129 174 227 271 334 394
#     4  10  23  41  66  96 132 179 221 275 335 397
#     4  12  23  42  68  98 136 174 231 272 333 402
#
# _framework density 20.850636000000002
#
# number of rings (size 3 to 8) (size 9 to 14) (size 15 to 20)
#    0.000    1.000    5.000    1.500    0.000    3.500 
#    0.000    0.625    0.000    0.000    0.000    0.000 
#    0.000    0.000    0.000    0.000    0.000    0.000 
#
# Total GULP energy -89343.445166 kJ/mol
# GULP energy per Si atom -5583.965323 kJ/mol
# Density = 2.080318 g / cm^3
# Si number density = 20.850636 Si / 1000 Ang^3
#
#
#
# Elastic Constant Matrix: (Units=GPa)
#
#
# Indices 1 2 3 4 5 6 
#
# 1 78.2426 -10.8984 29.8673 -7.6057 -0.8650 -30.6348
# 2 -10.8984 16.6010 12.0734 0.9053 -11.7293 -4.0154
# 3 29.8673 12.0734 126.8021 -13.4401 9.5786 -16.4556
# 4 -7.6057 0.9053 -13.4401 26.6585 -4.4741 -2.5727
# 5 -0.8650 -11.7293 9.5786 -4.4741 43.5220 0.1039
# 6 -30.6348 -4.0154 -16.4556 -2.5727 0.1039 43.0398
#
#
#
# Elastic Compliance Matrix: (Units=1/GPa)
#
#
# Indices 1 2 3 4 5 6 
#
# 1 0.033330 0.045235 -0.009229 0.008353 0.015684 0.024877
# 2 0.045235 0.147766 -0.022484 0.007983 0.046401 0.037752
# 3 -0.009229 -0.022484 0.012676 0.002702 -0.008746 -0.003637
# 4 0.008353 0.007983 0.002702 0.043005 0.006119 0.010279
# 5 0.015684 0.046401 -0.008746 0.006119 0.038318 0.012422
# 6 0.024877 0.037752 -0.003637 0.010279 0.012422 0.043657
#
#
# Mechanical properties :
#
#
# Convention : Reuss Voigt Hill
#
# Bulk Modulus (GPa) = 4.52863 31.52558 18.02711
# Shear Modulus (GPa) = 13.68691 35.35096 24.51893
#
# Velocity S-wave (km/s) = 2.56486 4.12204 3.43291
# Velocity P-wave (km/s) = 3.30878 6.14878 4.93738
#
# Compressibility (1/GPa) = 0.22081711
#
# Stress axis : x y z
#
# Youngs Moduli (GPa) = 30.00307 6.76745 78.88950
#
# Poissons Ratio (x) = -0.30613 0.72805
# Poissons Ratio (y) = -1.35720 1.77376
# Poissons Ratio (z) = 0.27689 0.15216
#
# Static dielectric constant tensor:
#      x y z
#    x 1.741390 -0.008600 0.038140 
#    y -0.008600 1.732410 -0.011280 
#    z 0.038140 -0.011280 1.731690 
# 
# From -- ./inp_files/273948.got.cif
#   From: 2010.05.17/outbox.cif.g08.bks.cpg/sg2_137_cif.got.tgz:273948.got - 2010.06.03 11:33:40.
