data_PCOD9038735
_publ_section_title
;
Structure prediction by ZEFSAII (Michael W. Deem and Ramdas Pophale) SiO2 
 PCOD9038735
Probable space group: P -1
;
_chemical_formula_sum "Si O2"
_cell_formula_units_Z 16
_cell_length_a 15.519709
_cell_length_b 12.709650
_cell_length_c 8.871189
_cell_angle_alpha 105.843543
_cell_angle_beta 73.258750
_cell_angle_gamma 154.109041
_cell_volume 731.297637
_symmetry_space_group_name_H-M "P -1"
_symmetry_group_IT_number 2
_symmetry_cell_setting 'triclinic'
loop_
_space_group_symop_operation_xyz
x,y,z
-x,-y,-z
loop_
_atom_site_type_symbol
_atom_site_label
_atom_site_fract_x
_atom_site_fract_y
_atom_site_fract_z
Si Si1 0.349721 0.671287 0.880301
Si Si2 0.296467 0.379715 0.899846
Si Si3 0.796572 0.042758 0.414800
Si Si4 0.730259 0.220011 0.477433
Si Si5 0.926390 0.857438 0.762926
Si Si6 0.447946 0.503855 0.369982
Si Si7 0.979694 0.640416 0.293246
Si Si8 0.731979 0.217565 0.819662
O O1 0.391487 0.599987 0.903275
O O2 0.166134 0.453041 0.776307
O O3 0.530201 0.927667 0.806403
O O4 0.292187 0.697672 0.045410
O O5 0.459196 0.468140 0.800884
O O6 0.213119 0.288642 0.075974
O O7 0.101020 0.135788 0.804171
O O8 0.778099 0.144124 0.394900
O O9 0.955694 0.130788 0.297780
O O10 0.868897 0.131682 0.586608
O O11 0.578612 0.755036 0.404972
O O12 0.842064 0.421759 0.389347
O O13 0.790557 0.304860 0.653147
O O14 0.500000 0.000000 0.500000
O O15 0.781121 0.720350 0.640694
O O16 0.500000 0.500000 0.500000
O O17 0.106696 0.689475 0.155855
#
# Coordination Sequence:
#
# PCOD9038735 Si02
#       8
#     2   2   2   2   2   2   2   2
#     4  11  24  40  66  93 136 169 215 272 329 380
#     4  10  25  43  69  96 129 181 217 272 332 394
#     4  10  25  40  68  97 125 177 216 270 335 387
#     4  11  23  42  68  96 136 170 223 269 324 396
#     4  10  24  48  66  95 133 169 233 266 329 404
#     4  11  26  42  70 100 130 166 223 278 338 390
#     4  11  24  41  66  93 133 169 220 266 323 395
#     4  10  23  42  58  98 129 173 218 258 327 400
#
# _framework density 21.878917000000001
#
# number of rings (size 3 to 8) (size 9 to 14) (size 15 to 20)
#    0.000    1.500    1.250    2.250   12.250    1.000 
#    0.000    0.000    0.000    0.000    0.000    0.000 
#    0.000    0.000    0.000    0.000    0.000    0.000 
#
# Total GULP energy -89398.599221 kJ/mol
# GULP energy per Si atom -5587.412451 kJ/mol
# Density = 2.182912 g / cm^3
# Si number density = 21.878917 Si / 1000 Ang^3
#
#
#
# Elastic Constant Matrix: (Units=GPa)
#
#
# Indices 1 2 3 4 5 6 
#
# 1 -263.7958 123.5876 330.2393 -426.5281 111.6003 -19.9166
# 2 123.5876 44.8340 -59.6508 126.3629 -37.2903 10.1759
# 3 330.2393 -59.6508 -219.9808 395.4414 -118.9042 18.9836
# 4 -426.5281 126.3629 395.4414 -525.9454 148.6288 -33.9900
# 5 111.6003 -37.2903 -118.9042 148.6288 -9.6149 16.0129
# 6 -19.9166 10.1759 18.9836 -33.9900 16.0129 41.5546
#
#
#
# Elastic Compliance Matrix: (Units=1/GPa)
#
#
# Indices 1 2 3 4 5 6 
#
# 1 0.013865 -0.003813 0.000183 -0.010640 0.004241 -0.002842
# 2 -0.003813 0.018168 -0.008091 0.000958 -0.001729 -0.001130
# 3 0.000183 -0.008091 0.017089 0.011428 0.002941 0.002476
# 4 -0.010640 0.000958 0.011428 0.017810 0.008193 0.000856
# 5 0.004241 -0.001729 0.002941 0.008193 0.033630 -0.005146
# 6 -0.002842 -0.001130 0.002476 0.000856 -0.005146 0.024531
#
#
# Mechanical properties :
#
#
# Convention : Reuss Voigt Hill
#
# Bulk Modulus (GPa) = 38.94354 38.82330 38.88342
# Shear Modulus (GPa) = 31.82773 -154.34239 -61.25733
#
# Velocity S-wave (km/s) = 3.81822 -8.40815 -5.29709
# Velocity P-wave (km/s) = 6.10546 8.74526 4.42736
#
# Compressibility (1/GPa) = 0.02567820
#
# Stress axis : x y z
#
# Youngs Moduli (GPa) = 72.12640 55.04176 58.51652
#
# Poissons Ratio (x) = 0.20989 -0.01069
# Poissons Ratio (y) = 0.27504 0.47347
# Poissons Ratio (z) = -0.01318 0.44536
#
# Static dielectric constant tensor:
#      x y z
#    x 1.836520 0.056140 -0.004140 
#    y 0.056140 1.797910 0.012000 
#    z -0.004140 0.012000 1.805560 
# 
# From -- ./inp_files/307981.got.cif
#   From: 2010.05.17/outbox.cif.g08.bks.cpg/sg2_154_cif.got.tgz:307981.got - 2010.06.03 11:33:40.
