data_PCOD9038664
_publ_section_title
;
Structure prediction by ZEFSAII (Michael W. Deem and Ramdas Pophale) SiO2 
 PCOD9038664
Probable space group: P -1
;
_chemical_formula_sum "Si O2"
_cell_formula_units_Z 16
_cell_length_a 12.394498
_cell_length_b 21.787232
_cell_length_c 16.143708
_cell_angle_alpha 24.824234
_cell_angle_beta 155.024115
_cell_angle_gamma 155.025481
_cell_volume 681.075449
_symmetry_space_group_name_H-M "P -1"
_symmetry_group_IT_number 2
_symmetry_cell_setting 'triclinic'
loop_
_space_group_symop_operation_xyz
x,y,z
-x,-y,-z
loop_
_atom_site_type_symbol
_atom_site_label
_atom_site_fract_x
_atom_site_fract_y
_atom_site_fract_z
Si Si1 0.497475 0.636302 0.480661
Si Si2 0.090887 0.173255 0.943721
Si Si3 0.555815 0.317653 0.959972
Si Si4 0.186314 0.923752 0.418313
Si Si5 0.049772 0.458509 0.268787
Si Si6 0.174443 0.885252 0.652000
Si Si7 0.565763 0.223123 0.572291
Si Si8 0.568889 0.514440 0.935633
O O1 0.373784 0.596651 0.348986
O O2 0.349609 0.697447 0.374059
O O3 0.832263 0.769886 0.556434
O O4 0.479292 0.461206 0.707666
O O5 0.343574 0.341045 0.952327
O O6 0.813851 0.204165 0.716541
O O7 0.266779 0.177333 0.977550
O O8 0.038532 0.023093 0.151873
O O9 0.656605 0.221397 0.084164
O O10 0.858995 0.414857 0.105437
O O11 0.234068 0.948262 0.520361
O O12 0.012276 0.726588 0.522967
O O13 0.500000 0.000000 0.500000
O O14 0.877735 0.525655 0.123773
O O15 0.299443 0.038986 0.612119
O O16 0.469573 0.341761 0.311448
O O17 0.500000 0.500000 0.000000
#
# Coordination Sequence:
#
# PCOD9038664 Si02
#       8
#     2   2   2   2   2   2   2   2
#     4  12  25  47  68  99 141 187 236 266 343 415
#     4  11  22  40  65 103 135 171 224 280 351 401
#     4  10  23  45  69 100 136 177 231 291 333 405
#     4  11  21  45  68 102 135 169 231 291 343 398
#     4  10  23  41  72  98 133 183 224 284 338 402
#     4  11  26  45  68  98 138 188 226 288 334 401
#     4  12  26  42  67 104 145 180 225 283 343 410
#     4  11  21  38  64  96 138 179 222 278 344 407
#
# _framework density 23.492258
#
# number of rings (size 3 to 8) (size 9 to 14) (size 15 to 20)
#    0.000    1.000    6.250    2.625    3.500    2.500 
#    2.250    1.250    0.000    0.000    0.000    0.000 
#    0.000    0.000    0.000    0.000    0.000    0.000 
#
# Total GULP energy -89356.867070 kJ/mol
# GULP energy per Si atom -5584.804192 kJ/mol
# Density = 2.343879 g / cm^3
# Si number density = 23.492258 Si / 1000 Ang^3
#
#
#
# Elastic Constant Matrix: (Units=GPa)
#
#
# Indices 1 2 3 4 5 6 
#
# 1 51.5262 -15.0019 49.6925 14.6653 -13.1963 -10.7727
# 2 -15.0019 -123.8586 240.9803 187.6837 -185.3702 -35.2144
# 3 49.6925 240.9803 -103.2083 -179.6312 188.0721 -0.6688
# 4 14.6653 187.6837 -179.6312 -102.9590 141.3247 13.6980
# 5 -13.1963 -185.3702 188.0721 141.3247 -121.7333 -10.5948
# 6 -10.7727 -35.2144 -0.6688 13.6980 -10.5948 34.8424
#
#
#
# Elastic Compliance Matrix: (Units=1/GPa)
#
#
# Indices 1 2 3 4 5 6 
#
# 1 0.021708 -0.000998 -0.003755 0.002083 -0.004516 0.003439
# 2 -0.000998 0.007890 0.002071 0.002120 -0.006668 0.004845
# 3 -0.003755 0.002071 0.007609 -0.004016 0.004009 0.003876
# 4 0.002083 0.002120 -0.004016 0.019908 0.013540 -0.001000
# 5 -0.004516 -0.006668 0.004009 0.013540 0.024848 -0.005825
# 6 0.003439 0.004845 0.003876 -0.001000 -0.005825 0.033356
#
#
# Mechanical properties :
#
#
# Convention : Reuss Voigt Hill
#
# Bulk Modulus (GPa) = 31.40447 41.75567 36.58007
# Shear Modulus (GPa) = 38.08139 -68.05075 -14.98468
#
# Velocity S-wave (km/s) = 4.03056 -5.38797 -2.52832
# Velocity P-wave (km/s) = 5.92094 4.57101 2.66115
#
# Compressibility (1/GPa) = 0.03184260
#
# Stress axis : x y z
#
# Youngs Moduli (GPa) = 46.06601 126.74274 131.42383
#
# Poissons Ratio (x) = 0.12651 0.49349
# Poissons Ratio (y) = 0.04598 -0.27217
# Poissons Ratio (z) = 0.17298 -0.26248
#
# Static dielectric constant tensor:
#      x y z
#    x 7.371760 -2.837380 -7.744580 
#    y -2.837380 3.357640 3.995700 
#    z -7.744580 3.995700 12.598410 
# 
# From -- ./inp_files/598639.got.cif
#   From: 2010.05.17/outbox.cif.g08.bks.cpg/sg2_300_cif.got.tgz:598639.got - 2010.06.03 11:33:40.
