data_PCOD9038146
_publ_section_title
;
Structure prediction by ZEFSAII (Michael W. Deem and Ramdas Pophale) SiO2 
 PCOD9038146
Probable space group: P -1
;
_chemical_formula_sum "Si O2"
_cell_formula_units_Z 14
_cell_length_a 21.864848
_cell_length_b 12.053757
_cell_length_c 9.556558
_cell_angle_alpha 53.343880
_cell_angle_beta 36.778263
_cell_angle_gamma 27.469441
_cell_volume 633.969843
_symmetry_space_group_name_H-M "P -1"
_symmetry_group_IT_number 2
_symmetry_cell_setting 'triclinic'
loop_
_space_group_symop_operation_xyz
x,y,z
-x,-y,-z
loop_
_atom_site_type_symbol
_atom_site_label
_atom_site_fract_x
_atom_site_fract_y
_atom_site_fract_z
Si Si1 0.296999 0.773515 0.498915
Si Si2 0.415471 0.156650 0.853919
Si Si3 0.137186 0.234951 0.369864
Si Si4 0.863847 0.470929 0.167814
Si Si5 0.960400 0.049417 0.371087
Si Si6 0.707997 0.422638 0.088864
Si Si7 0.148058 0.384775 0.620991
O O1 0.519050 0.561714 0.270468
O O2 0.242746 0.720245 0.752322
O O3 0.179751 0.051818 0.520823
O O4 0.242003 0.783659 0.437861
O O5 0.318421 0.311043 0.767425
O O6 0.342887 0.361191 0.937848
O O7 0.648444 0.879992 0.628702
O O8 0.328556 0.104626 0.083301
O O9 0.000000 0.500000 0.500000
O O10 0.012109 0.345118 0.377407
O O11 0.806276 0.592207 0.334952
O O12 0.948767 0.221248 0.215270
O O13 0.032729 0.376728 0.871817
O O14 0.125440 0.785077 0.174813
O O15 0.000000 0.000000 0.500000
#
# Coordination Sequence:
#
# PCOD9038146 Si02
#       7
#     2   2   2   2   2   2   2
#     4  11  25  44  68 104 138 177 231 283 341 408
#     4  11  23  43  72  99 133 180 231 283 338 408
#     4  11  24  39  66 101 137 173 225 287 338 399
#     4  10  23  41  66  98 134 184 226 279 341 413
#     4  12  26  44  70  99 143 183 225 281 348 414
#     4  11  26  44  72 102 137 183 230 282 340 411
#     4  10  23  43  67  97 137 179 231 282 343 400
#
# _framework density 22.083071
#
# number of rings (size 3 to 8) (size 9 to 14) (size 15 to 20)
#    0.000    1.143    1.429    3.429    8.000    5.143 
#    0.000    0.000    0.000    0.000    0.000    0.000 
#    0.000    0.000    0.000    0.000    0.000    0.000 
#
# Total GULP energy -78356.577934 kJ/mol
# GULP energy per Si atom -5596.898424 kJ/mol
# Density = 2.203281 g / cm^3
# Si number density = 22.083071 Si / 1000 Ang^3
#
#
#
# Elastic Constant Matrix: (Units=GPa)
#
#
# Indices 1 2 3 4 5 6 
#
# 1 142.0482 46.6360 32.8012 -5.4942 1.8159 -24.2446
# 2 46.6360 114.6843 48.1204 -2.4192 0.5605 1.3647
# 3 32.8012 48.1204 71.2568 7.8429 -3.0658 -2.0856
# 4 -5.4942 -2.4192 7.8429 25.9289 -5.1048 -1.6972
# 5 1.8159 0.5605 -3.0658 -5.1048 27.9538 -3.3517
# 6 -24.2446 1.3647 -2.0856 -1.6972 -3.3517 41.4176
#
#
#
# Elastic Compliance Matrix: (Units=1/GPa)
#
#
# Indices 1 2 3 4 5 6 
#
# 1 0.009690 -0.002806 -0.002717 0.003067 0.000382 0.005784
# 2 -0.002806 0.013374 -0.008153 0.002810 -0.000759 -0.002440
# 3 -0.002717 -0.008153 0.021676 -0.007673 0.001263 -0.000443
# 4 0.003067 0.002810 -0.007673 0.043476 0.007284 0.003687
# 5 0.000382 -0.000759 0.001263 0.007284 0.037671 0.003660
# 6 0.005784 -0.002440 -0.000443 0.003687 0.003660 0.028036
#
#
# Mechanical properties :
#
#
# Convention : Reuss Voigt Hill
#
# Bulk Modulus (GPa) = 57.51458 64.78939 61.15198
# Shear Modulus (GPa) = 26.72793 32.42217 29.57505
#
# Velocity S-wave (km/s) = 3.48276 3.83586 3.66357
# Velocity P-wave (km/s) = 6.50185 7.00150 6.75630
#
# Compressibility (1/GPa) = 0.01738690
#
# Stress axis : x y z
#
# Youngs Moduli (GPa) = 103.20370 74.77391 46.13332
#
# Poissons Ratio (x) = 0.20983 0.12535
# Poissons Ratio (y) = 0.28960 0.37613
# Poissons Ratio (z) = 0.28042 0.60963
#
# Static dielectric constant tensor:
#      x y z
#    x 1.864350 -0.030500 -0.009210 
#    y -0.030500 1.808050 -0.017440 
#    z -0.009210 -0.017440 1.797860 
# 
# From -- ./inp_files/346024.got.cif
#   From: 2010.05.17/outbox.cif.g08.bks.cpg/sg2_174_cif.got.tgz:346024.got - 2010.06.03 11:33:40.
