data_PCOD9038780
_publ_section_title
;
Structure prediction by ZEFSAII (Michael W. Deem and Ramdas Pophale) SiO2 
 PCOD9038780
Probable space group: P -1
;
_chemical_formula_sum "Si O2"
_cell_formula_units_Z 16
_cell_length_a 20.868032
_cell_length_b 11.005302
_cell_length_c 8.969328
_cell_angle_alpha 140.209676
_cell_angle_beta 140.184103
_cell_angle_gamma 42.292043
_cell_volume 785.935723
_symmetry_space_group_name_H-M "P -1"
_symmetry_group_IT_number 2
_symmetry_cell_setting 'triclinic'
loop_
_space_group_symop_operation_xyz
x,y,z
-x,-y,-z
loop_
_atom_site_type_symbol
_atom_site_label
_atom_site_fract_x
_atom_site_fract_y
_atom_site_fract_z
Si Si1 0.018396 0.921198 0.628716
Si Si2 0.214662 0.510176 0.663552
Si Si3 0.601403 0.533883 0.287338
Si Si4 0.933051 0.705448 0.877191
Si Si5 0.373928 0.193141 0.166972
Si Si6 0.125074 0.297531 0.878592
Si Si7 0.362433 0.512941 0.191701
Si Si8 0.408396 0.734523 0.738767
O O1 0.118985 0.709934 0.621122
O O2 0.913597 0.868712 0.428148
O O3 0.000000 0.000000 0.500000
O O4 0.045880 0.090560 0.928350
O O5 0.311619 0.457139 0.668570
O O6 0.160723 0.340204 0.419793
O O7 0.262094 0.547764 0.939617
O O8 0.572990 0.733100 0.529478
O O9 0.649638 0.339344 0.301372
O O10 0.500000 0.500000 0.000000
O O11 0.045580 0.516914 0.887111
O O12 0.897790 0.710662 0.993257
O O13 0.380816 0.325638 0.161911
O O14 0.247926 0.259649 0.039968
O O15 0.415366 0.952778 0.984657
O O16 0.355910 0.706415 0.462641
O O17 0.471576 0.436399 0.218265
#
# Coordination Sequence:
#
# PCOD9038780 Si02
#       8
#     2   2   2   2   2   2   2   2
#     4   9  20  33  58  89 121 154 193 246 306 364
#     4  11  21  38  61  91 124 159 199 249 314 352
#     4  11  23  39  60  94 127 152 199 268 300 351
#     4   9  18  35  56  88 122 149 190 252 307 355
#     4  11  23  39  65  90 118 168 207 241 304 368
#     4   9  18  34  57  88 118 148 199 247 301 357
#     4  10  23  43  59  83 128 168 203 250 298 361
#     4  10  23  42  62  85 122 170 210 245 298 359
#
# _framework density 20.357899
#
# number of rings (size 3 to 8) (size 9 to 14) (size 15 to 20)
#    0.000    2.000    2.500    1.125    3.500    2.500 
#    2.250    2.500    0.000    4.500    0.000    0.000 
#    0.000    0.000    0.000    0.000    0.000    0.000 
#
# Total GULP energy -89283.524432 kJ/mol
# GULP energy per Si atom -5580.220277 kJ/mol
# Density = 2.031156 g / cm^3
# Si number density = 20.357899 Si / 1000 Ang^3
#
#
#
# Elastic Constant Matrix: (Units=GPa)
#
#
# Indices 1 2 3 4 5 6 
#
# 1 38.0455 4.8278 27.1822 6.5877 6.4207 -5.7785
# 2 4.8278 31.7075 45.1227 13.5578 -3.0134 -0.2991
# 3 27.1822 45.1227 194.7619 9.7523 10.4451 -1.0875
# 4 6.5877 13.5578 9.7523 40.1993 6.6125 9.7547
# 5 6.4207 -3.0134 10.4451 6.6125 29.6473 -6.9081
# 6 -5.7785 -0.2991 -1.0875 9.7547 -6.9081 19.1255
#
#
#
# Elastic Compliance Matrix: (Units=1/GPa)
#
#
# Indices 1 2 3 4 5 6 
#
# 1 0.033742 0.009045 -0.006258 -0.011472 0.002254 0.016645
# 2 0.009045 0.071478 -0.017396 -0.032470 0.025335 0.028573
# 3 -0.006258 -0.017396 0.010013 0.007719 -0.007589 -0.008272
# 4 -0.011472 -0.032470 0.007719 0.048449 -0.022846 -0.036497
# 5 0.002254 0.025335 -0.007589 -0.022846 0.050720 0.030618
# 6 0.016645 0.028573 -0.008272 -0.036497 0.030618 0.086966
#
#
# Mechanical properties :
#
#
# Convention : Reuss Voigt Hill
#
# Bulk Modulus (GPa) = 11.62591 46.53113 29.07852
# Shear Modulus (GPa) = 13.91759 30.28658 22.10209
#
# Velocity S-wave (km/s) = 2.61750 3.86126 3.29853
# Velocity P-wave (km/s) = 3.85464 6.54105 5.36859
#
# Compressibility (1/GPa) = 0.08601479
#
# Stress axis : x y z
#
# Youngs Moduli (GPa) = 29.63654 13.99025 99.87462
#
# Poissons Ratio (x) = -0.12654 0.62505
# Poissons Ratio (y) = -0.26807 1.73741
# Poissons Ratio (z) = 0.18548 0.24337
#
# Static dielectric constant tensor:
#      x y z
#    x 1.729260 0.006780 -0.002130 
#    y 0.006780 1.701310 0.010690 
#    z -0.002130 0.010690 1.788730 
# 
# From -- ./inp_files/345763.got.cif
#   From: 2010.05.17/outbox.cif.g08.bks.cpg/sg2_173_cif.got.tgz:345763.got - 2010.06.03 11:33:40.
