data_PCOD9038541
_publ_section_title
;
Structure prediction by ZEFSAII (Michael W. Deem and Ramdas Pophale) SiO2 
 PCOD9038541
Probable space group: P -1
;
_chemical_formula_sum "Si O2"
_cell_formula_units_Z 16
_cell_length_a 7.834007
_cell_length_b 19.220796
_cell_length_c 5.549859
_cell_angle_alpha 124.925572
_cell_angle_beta 113.666180
_cell_angle_gamma 81.761010
_cell_volume 623.366083
_symmetry_space_group_name_H-M "P -1"
_symmetry_group_IT_number 2
_symmetry_cell_setting 'triclinic'
loop_
_space_group_symop_operation_xyz
x,y,z
-x,-y,-z
loop_
_atom_site_type_symbol
_atom_site_label
_atom_site_fract_x
_atom_site_fract_y
_atom_site_fract_z
Si Si1 0.997773 0.717995 0.084479
Si Si2 0.273750 0.339037 0.803701
Si Si3 0.728872 0.011551 0.332110
Si Si4 0.011356 0.575888 0.470393
Si Si5 0.626504 0.242884 0.336300
Si Si6 0.408586 0.588153 0.604621
Si Si7 0.235922 0.175700 0.166908
Si Si8 0.685920 0.069973 0.924607
O O1 0.168080 0.738939 0.402465
O O2 0.835167 0.653845 0.992609
O O3 0.081599 0.665937 0.814793
O O4 0.887234 0.790096 0.048767
O O5 0.204634 0.240362 0.495951
O O6 0.184652 0.404274 0.708192
O O7 0.494402 0.364483 0.008300
O O8 0.506495 0.990557 0.236821
O O9 0.796987 0.035957 0.692880
O O10 0.790865 0.925317 0.081300
O O11 0.771582 0.075946 0.258044
O O12 0.188020 0.562321 0.380242
O O13 0.000000 0.500000 0.500000
O O14 0.553008 0.331259 0.392551
O O15 0.459669 0.198531 0.316126
O O16 0.642512 0.164421 0.003579
O O17 0.500000 0.500000 0.500000
#
# Coordination Sequence:
#
# PCOD9038541 Si02
#       8
#     2   2   2   2   2   2   2   2
#     4  11  23  43  64  96 131 177 222 271 346 404
#     4  11  24  43  68  94 135 174 222 276 341 408
#     4   9  19  38  66 100 135 176 231 285 338 416
#     4  11  26  43  66  95 132 175 221 287 341 402
#     4  11  23  43  67  96 133 177 222 283 339 412
#     4  12  26  42  70  99 130 177 229 277 340 408
#     4  10  23  41  70  98 129 178 224 277 338 406
#     4   9  20  37  65  99 134 181 227 280 351 409
#
# _framework density 25.667100000000001
#
# number of rings (size 3 to 8) (size 9 to 14) (size 15 to 20)
#    0.000    1.500    2.500    1.500    5.250    5.500 
#    0.000    1.250    0.000    0.000    0.000    0.000 
#    0.000    0.000    0.000    0.000    0.000    0.000 
#
# Total GULP energy -89127.370718 kJ/mol
# GULP energy per Si atom -5570.460670 kJ/mol
# Density = 2.560868 g / cm^3
# Si number density = 25.667100 Si / 1000 Ang^3
#
#
#
# Elastic Constant Matrix: (Units=GPa)
#
#
# Indices 1 2 3 4 5 6 
#
# 1 62.6720 16.5963 24.6712 -3.7548 22.6026 -13.4182
# 2 16.5963 143.0023 26.7975 11.2835 -12.0221 -7.9199
# 3 24.6712 26.7975 88.7543 -2.1993 -15.3216 -4.3224
# 4 -3.7548 11.2835 -2.1993 40.8473 -14.5896 -0.0440
# 5 22.6026 -12.0221 -15.3216 -14.5896 33.6386 -8.1242
# 6 -13.4182 -7.9199 -4.3224 -0.0440 -8.1242 28.8950
#
#
#
# Elastic Compliance Matrix: (Units=1/GPa)
#
#
# Indices 1 2 3 4 5 6 
#
# 1 0.035585 -0.003355 -0.014985 -0.009123 -0.035047 0.003496
# 2 -0.003355 0.008081 -0.000561 -0.000772 0.005032 0.001987
# 3 -0.014985 -0.000561 0.019883 0.008060 0.022984 0.002337
# 4 -0.009123 -0.000772 0.008060 0.033160 0.024822 0.003787
# 5 -0.035047 0.005032 0.022984 0.024822 0.078910 0.010767
# 6 0.003496 0.001987 0.002337 0.003787 0.010767 0.040159
#
#
# Mechanical properties :
#
#
# Convention : Reuss Voigt Hill
#
# Bulk Modulus (GPa) = 38.83771 47.83984 43.33878
# Shear Modulus (GPa) = 19.07223 35.76708 27.41966
#
# Velocity S-wave (km/s) = 2.72887 3.73701 3.27200
# Velocity P-wave (km/s) = 5.00931 6.10732 5.58536
#
# Compressibility (1/GPa) = 0.02574817
#
# Stress axis : x y z
#
# Youngs Moduli (GPa) = 28.10193 123.74191 50.29396
#
# Poissons Ratio (x) = 0.41512 0.75364
# Poissons Ratio (y) = 0.09427 0.02822
# Poissons Ratio (z) = 0.42110 0.06944
#
# Static dielectric constant tensor:
#      x y z
#    x 2.104290 -0.037240 -0.051300 
#    y -0.037240 2.073820 -0.015870 
#    z -0.051300 -0.015870 2.196750 
# 
# From -- ./inp_files/54015.got.cif
#   From: 2010.05.17/outbox.cif.g08.bks.cpg/sg2_28_cif.got.tgz:54015.got - 2010.06.03 11:33:40.
