data_PCOD9038636
_publ_section_title
;
Structure prediction by ZEFSAII (Michael W. Deem and Ramdas Pophale) SiO2 
 PCOD9038636
Probable space group: P -1
;
_chemical_formula_sum "Si O2"
_cell_formula_units_Z 14
_cell_length_a 11.571391
_cell_length_b 7.011096
_cell_length_c 13.537050
_cell_angle_alpha 55.746650
_cell_angle_beta 37.517919
_cell_angle_gamma 66.116380
_cell_volume 550.944056
_symmetry_space_group_name_H-M "P -1"
_symmetry_group_IT_number 2
_symmetry_cell_setting 'triclinic'
loop_
_space_group_symop_operation_xyz
x,y,z
-x,-y,-z
loop_
_atom_site_type_symbol
_atom_site_label
_atom_site_fract_x
_atom_site_fract_y
_atom_site_fract_z
Si Si1 0.101226 0.073658 0.510621
Si Si2 0.545781 0.146113 0.741149
Si Si3 0.740998 0.518778 0.222425
Si Si4 0.032863 0.866624 0.822621
Si Si5 0.307790 0.478236 0.346761
Si Si6 0.621051 0.350772 0.035960
Si Si7 0.942108 0.656024 0.250111
O O1 0.290642 0.939666 0.413240
O O2 0.165294 0.346234 0.401894
O O3 0.001202 0.978893 0.705088
O O4 0.000000 0.000000 0.500000
O O5 0.403846 0.914470 0.909081
O O6 0.635919 0.248744 0.753325
O O7 0.766720 0.249103 0.270168
O O8 0.546850 0.637612 0.308142
O O9 0.508915 0.379285 0.207724
O O10 0.835542 0.574272 0.247821
O O11 0.872050 0.663316 0.011409
O O12 0.029376 0.067058 0.846037
O O13 0.844759 0.427862 0.866586
O O14 0.192556 0.410951 0.545073
O O15 0.500000 0.500000 0.000000
#
# Coordination Sequence:
#
# PCOD9038636 Si02
#       7
#     2   2   2   2   2   2   2
#     4  10  24  47  72 102 147 195 251 299 369 452
#     4  11  25  47  68 108 149 184 248 314 370 432
#     4  11  24  42  73 108 145 189 249 300 371 446
#     4  10  23  41  72 105 137 194 238 298 367 433
#     4  10  26  46  71 107 139 193 243 301 378 429
#     4  11  27  47  71 108 146 197 258 304 361 453
#     4  11  24  47  76 102 151 196 240 305 376 440
#
# _framework density 25.410927000000001
#
# number of rings (size 3 to 8) (size 9 to 14) (size 15 to 20)
#    0.000    1.429    1.429    1.286    4.000   12.000 
#    0.000    3.571    0.000    0.000    0.000    0.000 
#    0.000    0.000    0.000    0.000    0.000    0.000 
#
# Total GULP energy -78263.991076 kJ/mol
# GULP energy per Si atom -5590.285077 kJ/mol
# Density = 2.535309 g / cm^3
# Si number density = 25.410927 Si / 1000 Ang^3
#
#
#
# Elastic Constant Matrix: (Units=GPa)
#
#
# Indices 1 2 3 4 5 6 
#
# 1 136.5838 40.9829 47.6232 13.8390 -7.9063 -12.7098
# 2 40.9829 145.6393 27.8210 3.0513 -8.2097 -0.3088
# 3 47.6232 27.8210 99.6961 21.0446 -14.9437 12.1356
# 4 13.8390 3.0513 21.0446 44.5196 -0.4234 -3.1224
# 5 -7.9063 -8.2097 -14.9437 -0.4234 26.9706 1.6529
# 6 -12.7098 -0.3088 12.1356 -3.1224 1.6529 47.7754
#
#
#
# Elastic Compliance Matrix: (Units=1/GPa)
#
#
# Indices 1 2 3 4 5 6 
#
# 1 0.009875 -0.001907 -0.004610 -0.000500 -0.000479 0.003770
# 2 -0.001907 0.007678 -0.001171 0.000620 0.001149 -0.000159
# 3 -0.004610 -0.001171 0.015677 -0.006240 0.007240 -0.005875
# 4 -0.000500 0.000620 -0.006240 0.025722 -0.003211 0.003248
# 5 -0.000479 0.001149 0.007240 -0.003211 0.041469 -0.003604
# 6 0.003770 -0.000159 -0.005875 0.003248 -0.003604 0.023762
#
#
# Mechanical properties :
#
#
# Convention : Reuss Voigt Hill
#
# Bulk Modulus (GPa) = 56.00889 68.30816 62.15853
# Shear Modulus (GPa) = 34.36192 41.55258 37.95725
#
# Velocity S-wave (km/s) = 3.68128 4.04818 3.86908
# Velocity P-wave (km/s) = 6.33705 6.98499 6.66890
#
# Compressibility (1/GPa) = 0.01785431
#
# Stress axis : x y z
#
# Youngs Moduli (GPa) = 101.26868 130.24322 63.78748
#
# Poissons Ratio (x) = 0.24833 0.29406
# Poissons Ratio (y) = 0.19308 0.07470
# Poissons Ratio (z) = 0.46685 0.15252
#
# Static dielectric constant tensor:
#      x y z
#    x 2.065130 -0.010210 -0.037300 
#    y -0.010210 2.019530 -0.011100 
#    z -0.037300 -0.011100 2.073170 
# 
# From -- ./inp_files/416540.got.cif
#   From: 2010.05.17/outbox.cif.g08.bks.cpg/sg2_209_cif.got.tgz:416540.got - 2010.06.03 11:33:40.
