data_PCOD9038148
_publ_section_title
;
Structure prediction by ZEFSAII (Michael W. Deem and Ramdas Pophale) SiO2 
 PCOD9038148
Probable space group: P -1
;
_chemical_formula_sum "Si O2"
_cell_formula_units_Z 12
_cell_length_a 9.903953
_cell_length_b 14.918068
_cell_length_c 12.705183
_cell_angle_alpha 161.391022
_cell_angle_beta 64.795811
_cell_angle_gamma 113.234500
_cell_volume 541.720152
_symmetry_space_group_name_H-M "P -1"
_symmetry_group_IT_number 2
_symmetry_cell_setting 'triclinic'
loop_
_space_group_symop_operation_xyz
x,y,z
-x,-y,-z
loop_
_atom_site_type_symbol
_atom_site_label
_atom_site_fract_x
_atom_site_fract_y
_atom_site_fract_z
Si Si1 0.604586 0.514341 0.239361
Si Si2 0.953717 0.388725 0.277896
Si Si3 0.898631 0.233489 0.733299
Si Si4 0.352354 0.323406 0.367674
Si Si5 0.109224 0.826359 0.577534
Si Si6 0.595085 0.996248 0.202831
O O1 0.662366 0.687644 0.514188
O O2 0.527232 0.754458 0.460525
O O3 0.742512 0.325959 0.941599
O O4 0.474586 0.297312 0.067019
O O5 0.060154 0.531420 0.314400
O O6 0.000000 0.500000 0.500000
O O7 0.788054 0.496488 0.428140
O O8 0.976801 0.055215 0.898733
O O9 0.868271 0.171714 0.552425
O O10 0.000000 0.000000 0.500000
O O11 0.000000 0.500000 0.000000
O O12 0.500000 0.500000 0.500000
O O13 0.369845 0.046537 0.981364
O O14 0.254665 0.933008 0.707930
#
# Coordination Sequence:
#
# PCOD9038148 Si02
#       6
#     2   2   2   2   2   2
#     4  11  24  42  66  97 137 179 224 276 342 404
#     4  12  25  44  70 103 138 178 228 284 350 408
#     4  12  26  47  70  98 136 182 234 283 338 409
#     4  10  23  41  66  98 136 176 223 282 337 403
#     4  12  26  44  71 100 138 178 231 286 338 411
#     4  11  24  41  66 100 135 174 226 280 347 403
#
# _framework density 22.151658000000001
#
# number of rings (size 3 to 8) (size 9 to 14) (size 15 to 20)
#    0.000    0.667    1.667    6.000    2.333    5.333 
#    0.000    0.000    0.000    0.000    0.000    0.000 
#    0.000    0.000    0.000    0.000    0.000    0.000 
#
# Total GULP energy -67162.188124 kJ/mol
# GULP energy per Si atom -5596.849010 kJ/mol
# Density = 2.210124 g / cm^3
# Si number density = 22.151658 Si / 1000 Ang^3
#
#
#
# Elastic Constant Matrix: (Units=GPa)
#
#
# Indices 1 2 3 4 5 6 
#
# 1 166.2965 24.9014 38.0453 -9.2946 -0.2076 -5.1844
# 2 24.9014 70.3448 22.0183 -7.4974 11.7027 -11.1455
# 3 38.0453 22.0183 91.0484 -4.3772 -4.1325 -11.4662
# 4 -9.2946 -7.4974 -4.3772 53.2235 -1.4609 0.0135
# 5 -0.2076 11.7027 -4.1325 -1.4609 42.1852 2.7406
# 6 -5.1844 -11.1455 -11.4662 0.0135 2.7406 33.7464
#
#
#
# Elastic Compliance Matrix: (Units=1/GPa)
#
#
# Indices 1 2 3 4 5 6 
#
# 1 0.006859 -0.001688 -0.002453 0.000767 0.000312 -0.000363
# 2 -0.001688 0.017674 -0.003106 0.001788 -0.005476 0.004967
# 3 -0.002453 -0.003106 0.013231 0.000276 0.001965 0.002933
# 4 0.000767 0.001788 0.000276 0.019201 0.000149 0.000782
# 5 0.000312 -0.005476 0.001965 0.000149 0.025630 -0.003175
# 6 -0.000363 0.004967 0.002933 0.000782 -0.003175 0.032472
#
#
# Mechanical properties :
#
#
# Convention : Reuss Voigt Hill
#
# Bulk Modulus (GPa) = 42.97190 55.29108 49.13149
# Shear Modulus (GPa) = 36.41231 42.01265 39.21248
#
# Velocity S-wave (km/s) = 4.05875 4.35971 4.21192
# Velocity P-wave (km/s) = 6.43472 7.09628 6.77358
#
# Compressibility (1/GPa) = 0.02327102
#
# Stress axis : x y z
#
# Youngs Moduli (GPa) = 145.79008 56.58071 75.58052
#
# Poissons Ratio (x) = 0.09551 0.18537
# Poissons Ratio (y) = 0.24610 0.23474
# Poissons Ratio (z) = 0.35756 0.17573
#
# Static dielectric constant tensor:
#      x y z
#    x 1.760740 0.000270 0.002260 
#    y 0.000270 2.518360 -0.423940 
#    z 0.002260 -0.423940 2.023790 
# 
# From -- ./inp_files/23310.got.cif
#   From: 2010.05.17/outbox.cif.g08.bks.cpg/sg2_12_cif.got.tgz:23310.got - 2010.06.03 11:33:40.
