data_PCOD9038765
_publ_section_title
;
Structure prediction by ZEFSAII (Michael W. Deem and Ramdas Pophale) SiO2 
 PCOD9038765
Probable space group: P -1
;
_chemical_formula_sum "Si O2"
_cell_formula_units_Z 14
_cell_length_a 8.685379
_cell_length_b 8.057491
_cell_length_c 11.184766
_cell_angle_alpha 110.013940
_cell_angle_beta 93.358252
_cell_angle_gamma 49.269846
_cell_volume 542.208005
_symmetry_space_group_name_H-M "P -1"
_symmetry_group_IT_number 2
_symmetry_cell_setting 'triclinic'
loop_
_space_group_symop_operation_xyz
x,y,z
-x,-y,-z
loop_
_atom_site_type_symbol
_atom_site_label
_atom_site_fract_x
_atom_site_fract_y
_atom_site_fract_z
Si Si1 0.794339 0.748100 0.994352
Si Si2 0.228617 0.191178 0.443374
Si Si3 0.861540 0.045426 0.209299
Si Si4 0.976470 0.346496 0.239275
Si Si5 0.530256 0.713945 0.626079
Si Si6 0.429613 0.185467 0.793982
Si Si7 0.952471 0.219399 0.617435
O O1 0.834294 0.719629 0.847999
O O2 0.803790 0.948662 0.081055
O O3 0.610106 0.772435 0.053241
O O4 0.000000 0.500000 0.000000
O O5 0.369272 0.260935 0.477473
O O6 0.040087 0.350274 0.377822
O O7 0.139852 0.191627 0.563485
O O8 0.370158 0.937340 0.312497
O O9 0.021400 0.826205 0.252438
O O10 0.957018 0.150532 0.188731
O O11 0.669080 0.252555 0.342386
O O12 0.766602 0.576857 0.222594
O O13 0.728781 0.468139 0.633361
O O14 0.435563 0.967937 0.737472
O O15 0.000000 0.000000 0.500000
#
# Coordination Sequence:
#
# PCOD9038765 Si02
#       7
#     2   2   2   2   2   2   2
#     4   9  20  41  65  94 120 169 207 254 310 367
#     4  10  23  42  61  95 119 171 208 255 303 373
#     4  11  24  42  63  96 129 165 200 264 310 373
#     4  11  21  39  70  88 132 159 209 256 316 363
#     4   9  24  40  63  91 125 165 214 249 309 367
#     4   8  21  40  62  93 122 160 213 250 307 363
#     4  12  25  42  64  93 131 161 212 256 315 368
#
# _framework density 25.820350000000001
#
# number of rings (size 3 to 8) (size 9 to 14) (size 15 to 20)
#    0.857    1.143    1.429    0.857    8.000    2.857 
#    0.000    0.000    0.000    6.857    0.000    0.000 
#    0.000    0.000    0.000    0.000    0.000    0.000 
#
# Total GULP energy -77992.104939 kJ/mol
# GULP energy per Si atom -5570.864638 kJ/mol
# Density = 2.576158 g / cm^3
# Si number density = 25.820350 Si / 1000 Ang^3
#
#
#
# Elastic Constant Matrix: (Units=GPa)
#
#
# Indices 1 2 3 4 5 6 
#
# 1 56.7987 43.6762 12.1656 2.3643 -5.5501 5.3465
# 2 43.6762 136.5520 25.8498 0.6405 -10.8601 4.8485
# 3 12.1656 25.8498 78.8075 -22.3246 -7.0422 9.4333
# 4 2.3643 0.6405 -22.3246 26.8368 0.7024 -6.6137
# 5 -5.5501 -10.8601 -7.0422 0.7024 49.8106 4.9187
# 6 5.3465 4.8485 9.4333 -6.6137 4.9187 36.3211
#
#
#
# Elastic Compliance Matrix: (Units=1/GPa)
#
#
# Indices 1 2 3 4 5 6 
#
# 1 0.024110 -0.007064 -0.002237 -0.004593 0.001193 -0.003023
# 2 -0.007064 0.010190 -0.002681 -0.001909 0.001094 -0.000120
# 3 -0.002237 -0.002681 0.018590 0.015288 0.001736 -0.001592
# 4 -0.004593 -0.001909 0.015288 0.052023 -0.000137 0.006452
# 5 0.001193 0.001094 0.001736 -0.000137 0.021055 -0.003649
# 6 -0.003023 -0.000120 -0.001592 0.006452 -0.003649 0.030076
#
#
# Mechanical properties :
#
#
# Convention : Reuss Voigt Hill
#
# Bulk Modulus (GPa) = 34.57089 48.39349 41.48219
# Shear Modulus (GPa) = 26.36420 35.29149 30.82784
#
# Velocity S-wave (km/s) = 3.19887 3.70105 3.45909
# Velocity P-wave (km/s) = 5.20210 6.08660 5.66165
#
# Compressibility (1/GPa) = 0.02892607
#
# Stress axis : x y z
#
# Youngs Moduli (GPa) = 41.47724 98.13140 53.79144
#
# Poissons Ratio (x) = 0.69322 0.12035
# Poissons Ratio (y) = 0.29300 0.14420
# Poissons Ratio (z) = 0.09280 0.26306
#
# Static dielectric constant tensor:
#      x y z
#    x 2.164800 -0.015500 -0.093930 
#    y -0.015500 2.082380 0.059300 
#    z -0.093930 0.059300 2.158920 
# 
# From -- ./inp_files/376899.got.cif
#   From: 2010.05.17/outbox.cif.g08.bks.cpg/sg2_189_cif.got.tgz:376899.got - 2010.06.03 11:33:40.
