data_PCOD9038248
_publ_section_title
;
Structure prediction by ZEFSAII (Michael W. Deem and Ramdas Pophale) SiO2 
 PCOD9038248
Probable space group: P -1
;
_chemical_formula_sum "Si O2"
_cell_formula_units_Z 16
_cell_length_a 21.416843
_cell_length_b 9.016917
_cell_length_c 24.683567
_cell_angle_alpha 28.658847
_cell_angle_beta 160.538690
_cell_angle_gamma 150.829520
_cell_volume 729.677133
_symmetry_space_group_name_H-M "P -1"
_symmetry_group_IT_number 2
_symmetry_cell_setting 'triclinic'
loop_
_space_group_symop_operation_xyz
x,y,z
-x,-y,-z
loop_
_atom_site_type_symbol
_atom_site_label
_atom_site_fract_x
_atom_site_fract_y
_atom_site_fract_z
Si Si1 0.290781 0.793319 0.419931
Si Si2 0.642988 0.750626 0.911712
Si Si3 0.210308 0.817382 0.928377
Si Si4 0.994200 0.857995 0.979688
Si Si5 0.287227 0.472183 0.629630
Si Si6 0.881035 0.270700 0.244384
Si Si7 0.470051 0.846359 0.850097
Si Si8 0.070427 0.441466 0.635184
O O1 0.362983 0.673933 0.573364
O O2 0.113753 0.455138 0.370756
O O3 0.500000 0.000000 0.500000
O O4 0.155477 0.029383 0.218395
O O5 0.452353 0.557659 0.783863
O O6 0.573161 0.911709 0.854905
O O7 0.767698 0.499451 0.108254
O O8 0.791689 0.011772 0.912420
O O9 0.195399 0.761149 0.870234
O O10 0.145354 0.130230 0.790400
O O11 0.077527 0.519806 0.948022
O O12 0.429293 0.895653 0.105504
O O13 0.000000 0.000000 0.000000
O O14 0.108380 0.612058 0.454178
O O15 0.188674 0.085404 0.672864
O O16 0.239542 0.763753 0.684515
O O17 0.500000 0.500000 0.000000
O O18 0.000000 0.500000 0.500000
#
# Coordination Sequence:
#
# PCOD9038248 Si02
#       8
#     2   2   2   2   2   2   2   2
#     4  11  26  44  67 101 137 176 219 287 346 393
#     4  11  23  43  70  99 138 178 230 278 341 403
#     4  11  23  44  72  95 135 185 227 277 334 412
#     4  11  23  46  70  93 136 183 229 277 333 417
#     4  12  24  43  69 104 139 175 226 288 339 403
#     4  11  24  44  72 103 133 182 230 283 340 401
#     4  10  23  41  67  96 135 177 226 274 331 406
#     4  11  22  44  66  98 142 173 217 283 347 390
#
# _framework density 21.927506999999999
#
# number of rings (size 3 to 8) (size 9 to 14) (size 15 to 20)
#    0.000    1.000    5.000    2.250    7.000    1.500 
#    0.000    0.625    0.000    0.000    0.000    0.000 
#    0.000    0.000    0.000    0.000    0.000    0.000 
#
# Total GULP energy -89267.314317 kJ/mol
# GULP energy per Si atom -5579.207145 kJ/mol
# Density = 2.187760 g / cm^3
# Si number density = 21.927507 Si / 1000 Ang^3
#
#
#
# Elastic Constant Matrix: (Units=GPa)
#
#
# Indices 1 2 3 4 5 6 
#
# 1 77.0256 34.4382 14.1320 4.8665 -7.0860 34.0599
# 2 34.4382 105.6346 31.5832 13.5411 -2.8125 28.4938
# 3 14.1320 31.5832 71.0652 13.8752 0.8090 4.2725
# 4 4.8665 13.5411 13.8752 53.6331 7.4621 -2.6767
# 5 -7.0860 -2.8125 0.8090 7.4621 34.6958 1.9363
# 6 34.0599 28.4938 4.2725 -2.6767 1.9363 39.5442
#
#
#
# Elastic Compliance Matrix: (Units=1/GPa)
#
#
# Indices 1 2 3 4 5 6 
#
# 1 0.023388 -0.000997 -0.002490 -0.003116 0.006523 -0.019687
# 2 -0.000997 0.014191 -0.005006 -0.002961 0.002210 -0.009134
# 3 -0.002490 -0.005006 0.017085 -0.002608 -0.000963 0.003777
# 4 -0.003116 -0.002961 -0.002608 0.021501 -0.005822 0.006840
# 5 0.006523 0.002210 -0.000963 -0.005822 0.032114 -0.009073
# 6 -0.019687 -0.009134 0.003777 0.006840 -0.009073 0.049326
#
#
# Mechanical properties :
#
#
# Convention : Reuss Voigt Hill
#
# Bulk Modulus (GPa) = 26.54170 46.00361 36.27266
# Shear Modulus (GPa) = 26.71661 37.14609 31.93135
#
# Velocity S-wave (km/s) = 3.49435 4.12034 3.82019
# Velocity P-wave (km/s) = 5.33022 6.60770 6.00304
#
# Compressibility (1/GPa) = 0.03767656
#
# Stress axis : x y z
#
# Youngs Moduli (GPa) = 42.75779 70.46918 58.53165
#
# Poissons Ratio (x) = 0.07023 0.14575
# Poissons Ratio (y) = 0.04261 0.29304
# Poissons Ratio (z) = 0.10647 0.35280
#
# Static dielectric constant tensor:
#      x y z
#    x 1.779820 -0.037510 -0.018990 
#    y -0.037510 1.803130 0.027810 
#    z -0.018990 0.027810 1.782600 
# 
# From -- ./inp_files/613580.got.cif
#   From: 2010.05.17/outbox.cif.g08.bks.cpg/sg2_307_cif.got.tgz:613580.got - 2010.06.03 11:33:40.
