data_PCOD9038401
_publ_section_title
;
Structure prediction by ZEFSAII (Michael W. Deem and Ramdas Pophale) SiO2 
 PCOD9038401
Probable space group: P -1
;
_chemical_formula_sum "Si O2"
_cell_formula_units_Z 12
_cell_length_a 7.632096
_cell_length_b 19.240632
_cell_length_c 4.698703
_cell_angle_alpha 105.575314
_cell_angle_beta 68.274453
_cell_angle_gamma 138.384123
_cell_volume 425.655632
_symmetry_space_group_name_H-M "P -1"
_symmetry_group_IT_number 2
_symmetry_cell_setting 'triclinic'
loop_
_space_group_symop_operation_xyz
x,y,z
-x,-y,-z
loop_
_atom_site_type_symbol
_atom_site_label
_atom_site_fract_x
_atom_site_fract_y
_atom_site_fract_z
Si Si1 0.857196 0.894840 0.124651
Si Si2 0.264034 0.887548 0.675135
Si Si3 0.497084 0.809339 0.742646
Si Si4 0.708991 0.368923 0.744984
Si Si5 0.269806 0.329417 0.307655
Si Si6 0.759511 0.526696 0.593086
O O1 0.560837 0.819412 0.048946
O O2 0.078864 0.892858 0.964854
O O3 0.783781 0.883058 0.483061
O O4 0.000000 0.000000 0.000000
O O5 0.378187 0.853592 0.763887
O O6 0.017486 0.780556 0.526167
O O7 0.500000 0.000000 0.500000
O O8 0.357587 0.699029 0.568596
O O9 0.803844 0.476720 0.738115
O O10 0.990890 0.409236 0.713997
O O11 0.435178 0.313999 0.022081
O O12 0.476245 0.421014 0.510856
O O13 0.226680 0.388621 0.206559
#
# Coordination Sequence:
#
# PCOD9038401 Si02
#       6
#     2   2   2   2   2   2
#     4  12  27  50  76 105 155 201 255 313 374 446
#     4  12  26  46  75 110 151 203 253 312 376 454
#     4  12  27  49  75 112 152 198 251 316 378 452
#     4  11  22  42  69 101 140 189 241 307 381 442
#     4  11  22  44  66 103 141 188 245 309 368 448
#     4  10  23  41  69 101 140 185 247 304 379 442
#
# _framework density 28.191801999999999
#
# number of rings (size 3 to 8) (size 9 to 14) (size 15 to 20)
#    0.000    0.667    5.000    2.500    0.000    2.000 
#    3.000    0.000    0.000    0.000    0.000    0.000 
#    0.000    0.000    0.000    0.000    0.000    0.000 
#
# Total GULP energy -67014.687928 kJ/mol
# GULP energy per Si atom -5584.557327 kJ/mol
# Density = 2.812764 g / cm^3
# Si number density = 28.191802 Si / 1000 Ang^3
#
#
#
# Elastic Constant Matrix: (Units=GPa)
#
#
# Indices 1 2 3 4 5 6 
#
# 1 150.1444 50.6874 57.8635 12.5491 -46.2764 -26.9253
# 2 50.6874 175.3208 16.6519 -10.0682 -19.5700 15.1667
# 3 57.8635 16.6519 97.4079 -3.0574 -15.9756 19.0260
# 4 12.5491 -10.0682 -3.0574 43.1318 11.7880 -11.5247
# 5 -46.2764 -19.5700 -15.9756 11.7880 45.6700 7.2834
# 6 -26.9253 15.1667 19.0260 -11.5247 7.2834 64.8685
#
#
#
# Elastic Compliance Matrix: (Units=1/GPa)
#
#
# Indices 1 2 3 4 5 6 
#
# 1 0.018501 -0.004017 -0.009819 -0.008767 0.014528 0.008310
# 2 -0.004017 0.007065 0.001851 0.002140 -0.000399 -0.003437
# 3 -0.009819 0.001851 0.017176 0.002845 -0.002485 -0.008762
# 4 -0.008767 0.002140 0.002845 0.031266 -0.015410 0.002311
# 5 0.014528 -0.000399 -0.002485 -0.015410 0.039608 -0.000332
# 6 0.008310 -0.003437 -0.008762 0.002311 -0.000332 0.022686
#
#
# Mechanical properties :
#
#
# Convention : Reuss Voigt Hill
#
# Bulk Modulus (GPa) = 53.26906 74.80873 64.03889
# Shear Modulus (GPa) = 30.02489 50.57875 40.30182
#
# Velocity S-wave (km/s) = 3.26701 4.24027 3.78505
# Velocity P-wave (km/s) = 5.75911 7.11101 6.47046
#
# Compressibility (1/GPa) = 0.01877262
#
# Stress axis : x y z
#
# Youngs Moduli (GPa) = 54.05036 141.54333 58.22207
#
# Poissons Ratio (x) = 0.56857 0.57169
# Poissons Ratio (y) = 0.21712 -0.10779
# Poissons Ratio (z) = 0.53073 -0.26206
#
# Static dielectric constant tensor:
#      x y z
#    x 2.334350 0.057900 0.016150 
#    y 0.057900 2.411950 -0.069220 
#    z 0.016150 -0.069220 2.217370 
# 
# From -- ./inp_files/53408.got.cif
#   From: 2010.05.17/outbox.cif.g08.bks.cpg/sg2_27_cif.got.tgz:53408.got - 2010.06.03 11:33:40.
