data_PCOD9038084
_publ_section_title
;
Structure prediction by ZEFSAII (Michael W. Deem and Ramdas Pophale) SiO2 
 PCOD9038084
Probable space group: P -1
;
_chemical_formula_sum "Si O2"
_cell_formula_units_Z 14
_cell_length_a 10.743164
_cell_length_b 21.162963
_cell_length_c 19.952450
_cell_angle_alpha 21.152715
_cell_angle_beta 157.587151
_cell_angle_gamma 147.931213
_cell_volume 620.533453
_symmetry_space_group_name_H-M "P -1"
_symmetry_group_IT_number 2
_symmetry_cell_setting 'triclinic'
loop_
_space_group_symop_operation_xyz
x,y,z
-x,-y,-z
loop_
_atom_site_type_symbol
_atom_site_label
_atom_site_fract_x
_atom_site_fract_y
_atom_site_fract_z
Si Si1 0.120109 0.559611 0.194587
Si Si2 0.822921 0.224584 0.343190
Si Si3 0.964285 0.015888 0.886525
Si Si4 0.812571 0.326329 0.082372
Si Si5 0.071111 0.333715 0.862500
Si Si6 0.287077 0.354535 0.690499
Si Si7 0.779336 0.853873 0.653249
O O1 0.426722 0.603437 0.259614
O O2 0.058476 0.355529 0.363009
O O3 0.127256 0.626064 0.207758
O O4 0.818520 0.675386 0.892333
O O5 0.823754 0.256404 0.232001
O O6 0.896755 0.015045 0.595466
O O7 0.449966 0.285155 0.119238
O O8 0.589725 0.086195 0.612323
O O9 0.190470 0.158804 0.831101
O O10 0.041905 0.828778 0.074478
O O11 0.000000 0.000000 0.000000
O O12 0.997454 0.186105 0.261843
O O13 0.447154 0.372039 0.826063
O O14 0.000000 0.500000 0.000000
O O15 0.015503 0.504794 0.618408
#
# Coordination Sequence:
#
# PCOD9038084 Si02
#       7
#     2   2   2   2   2   2   2
#     4  11  24  43  64  97 126 172 220 257 311 377
#     4  11  22  41  66  95 125 170 213 263 317 372
#     4  11  26  43  65  98 130 167 210 263 326 379
#     4  11  22  41  65  96 123 163 212 262 319 374
#     4  11  26  42  66  94 131 170 216 259 315 379
#     4  11  24  41  66  93 131 168 207 267 322 369
#     4  10  23  41  66  92 131 166 213 262 313 377
#
# _framework density 22.561233999999999
#
# number of rings (size 3 to 8) (size 9 to 14) (size 15 to 20)
#    0.000    1.143    2.857    3.857    2.000    8.571 
#    0.000    0.000    0.000    0.000    0.000    0.000 
#    0.000    0.000    0.000    0.000    0.000    0.000 
#
# Total GULP energy -78360.573030 kJ/mol
# GULP energy per Si atom -5597.183788 kJ/mol
# Density = 2.250988 g / cm^3
# Si number density = 22.561234 Si / 1000 Ang^3
#
#
#
# Elastic Constant Matrix: (Units=GPa)
#
#
# Indices 1 2 3 4 5 6 
#
# 1 75.7639 6.4082 32.7848 -11.3217 8.2617 -10.6428
# 2 6.4082 181.7024 -33.7403 -15.8444 16.2819 -8.5181
# 3 32.7848 -33.7403 101.4999 -19.7833 -7.0998 3.4604
# 4 -11.3217 -15.8444 -19.7833 33.2311 -2.6112 -8.4578
# 5 8.2617 16.2819 -7.0998 -2.6112 24.2495 -1.7619
# 6 -10.6428 -8.5181 3.4604 -8.4578 -1.7619 42.2192
#
#
#
# Elastic Compliance Matrix: (Units=1/GPa)
#
#
# Indices 1 2 3 4 5 6 
#
# 1 0.017749 -0.000647 -0.006018 0.002941 -0.006684 0.005147
# 2 -0.000647 0.006939 0.003294 0.005320 -0.002762 0.001918
# 3 -0.006018 0.003294 0.014974 0.008816 0.005165 -0.000098
# 4 0.002941 0.005320 0.008816 0.041559 0.003176 0.009550
# 5 -0.006684 -0.002762 0.005165 0.003176 0.047220 -0.000059
# 6 0.005147 0.001918 -0.000098 0.009550 -0.000059 0.027289
#
#
# Mechanical properties :
#
#
# Convention : Reuss Voigt Hill
#
# Bulk Modulus (GPa) = 30.37550 41.09685 35.73618
# Shear Modulus (GPa) = 28.82758 43.50753 36.16755
#
# Velocity S-wave (km/s) = 3.57844 4.39614 4.00820
# Velocity P-wave (km/s) = 5.52869 6.63501 6.10695
#
# Compressibility (1/GPa) = 0.03292127
#
# Stress axis : x y z
#
# Youngs Moduli (GPa) = 56.34119 144.10599 66.78323
#
# Poissons Ratio (x) = 0.09320 0.40189
# Poissons Ratio (y) = 0.03644 -0.21999
# Poissons Ratio (z) = 0.33905 -0.47469
#
# Static dielectric constant tensor:
#      x y z
#    x 1.821200 0.007300 0.005640 
#    y 0.007300 1.838540 0.023410 
#    z 0.005640 0.023410 1.878790 
# 
# From -- ./inp_files/256130.got.cif
#   From: 2010.05.17/outbox.cif.g08.bks.cpg/sg2_129_cif.got.tgz:256130.got - 2010.06.03 11:33:40.
