data_PCOD9038026
_publ_section_title
;
Structure prediction by ZEFSAII (Michael W. Deem and Ramdas Pophale) SiO2 
 PCOD9038026
Probable space group: P -1
;
_chemical_formula_sum "Si O2"
_cell_formula_units_Z 16
_cell_length_a 11.694978
_cell_length_b 11.439942
_cell_length_c 5.467123
_cell_angle_alpha 102.991568
_cell_angle_beta 92.964946
_cell_angle_gamma 97.113506
_cell_volume 704.838482
_symmetry_space_group_name_H-M "P -1"
_symmetry_group_IT_number 2
_symmetry_cell_setting 'triclinic'
loop_
_space_group_symop_operation_xyz
x,y,z
-x,-y,-z
loop_
_atom_site_type_symbol
_atom_site_label
_atom_site_fract_x
_atom_site_fract_y
_atom_site_fract_z
Si Si1 0.952876 0.283632 0.877663
Si Si2 0.688210 0.979849 0.082089
Si Si3 0.259184 0.541607 0.439424
Si Si4 0.261046 0.813886 0.474740
Si Si5 0.908945 0.879198 0.917811
Si Si6 0.545114 0.152923 0.833286
Si Si7 0.609382 0.436560 0.049114
Si Si8 0.036003 0.349012 0.412746
O O1 0.829559 0.205135 0.768526
O O2 0.054621 0.201684 0.891075
O O3 0.985405 0.364195 0.681524
O O4 0.952536 0.351027 0.168155
O O5 0.764371 0.076256 0.310578
O O6 0.778819 0.907792 0.922603
O O7 0.590277 0.892750 0.178413
O O8 0.615742 0.061106 0.944200
O O9 0.247049 0.683373 0.536560
O O10 0.304272 0.536556 0.161643
O O11 0.147032 0.444503 0.416932
O O12 0.342838 0.517253 0.660289
O O13 0.394954 0.844223 0.424319
O O14 0.933172 0.788668 0.660417
O O15 0.000000 0.000000 0.000000
O O16 0.574158 0.291112 0.990675
O O17 0.500000 0.500000 0.000000
#
# Coordination Sequence:
#
# PCOD9038026 Si02
#       8
#     2   2   2   2   2   2   2   2
#     4  10  24  41  68  99 137 174 227 273 343 394
#     4  11  22  42  67  93 140 174 228 280 331 410
#     4  11  24  43  69  95 138 173 226 278 340 403
#     4  11  23  41  68  95 138 180 221 281 337 401
#     4  10  23  41  65  98 134 178 221 277 336 397
#     4  10  24  41  64 101 130 178 230 273 344 399
#     4  11  24  44  69  97 133 181 227 281 336 396
#     4  10  24  43  63 103 131 174 231 273 338 401
#
# _framework density 22.700237999999999
#
# number of rings (size 3 to 8) (size 9 to 14) (size 15 to 20)
#    0.750    0.750    1.250    3.000    3.500    4.000 
#    0.000    0.000    0.000    0.000    0.000    0.000 
#    0.000    0.000    0.000    0.000    0.000    0.000 
#
# Total GULP energy -89344.155027 kJ/mol
# GULP energy per Si atom -5584.009689 kJ/mol
# Density = 2.264857 g / cm^3
# Si number density = 22.700238 Si / 1000 Ang^3
#
#
#
# Elastic Constant Matrix: (Units=GPa)
#
#
# Indices 1 2 3 4 5 6 
#
# 1 89.9080 21.0029 15.1570 -17.8378 -4.9795 3.5286
# 2 21.0029 72.1493 15.6760 -12.9731 -13.4147 8.5171
# 3 15.1570 15.6760 90.3960 -16.0745 7.0252 9.3944
# 4 -17.8378 -12.9731 -16.0745 24.8263 -0.9146 -8.1037
# 5 -4.9795 -13.4147 7.0252 -0.9146 40.6075 -10.0592
# 6 3.5286 8.5171 9.3944 -8.1037 -10.0592 42.9072
#
#
#
# Elastic Compliance Matrix: (Units=1/GPa)
#
#
# Indices 1 2 3 4 5 6 
#
# 1 0.013481 -0.002089 -0.000626 0.008731 0.001633 0.001475
# 2 -0.002089 0.017137 -0.001920 0.006345 0.005819 -0.000247
# 3 -0.000626 -0.001920 0.013079 0.006227 -0.003338 -0.002037
# 4 0.008731 0.006345 0.006227 0.056948 0.005530 0.008711
# 5 0.001633 0.005819 -0.003338 0.005530 0.029271 0.007348
# 6 0.001475 -0.000247 -0.002037 0.008711 0.007348 0.027048
#
#
# Mechanical properties :
#
#
# Convention : Reuss Voigt Hill
#
# Bulk Modulus (GPa) = 29.04628 39.56944 34.30786
# Shear Modulus (GPa) = 28.13598 35.04270 31.58934
#
# Velocity S-wave (km/s) = 3.52441 3.93328 3.73444
# Velocity P-wave (km/s) = 5.42082 6.17225 5.80870
#
# Compressibility (1/GPa) = 0.03442781
#
# Stress axis : x y z
#
# Youngs Moduli (GPa) = 74.18002 58.35208 76.45937
#
# Poissons Ratio (x) = 0.12189 0.04785
# Poissons Ratio (y) = 0.15495 0.14679
# Poissons Ratio (z) = 0.04642 0.11203
#
# Static dielectric constant tensor:
#      x y z
#    x 1.855590 -0.006570 -0.001300 
#    y -0.006570 1.866850 -0.001490 
#    z -0.001300 -0.001490 1.884150 
# 
# From -- ./inp_files/70578.got.cif
#   From: 2010.05.17/outbox.cif.g08.bks.cpg/sg2_36_cif.got.tgz:70578.got - 2010.06.03 11:33:40.
