data_PCOD9038754
_publ_section_title
;
Structure prediction by ZEFSAII (Michael W. Deem and Ramdas Pophale) SiO2 
 PCOD9038754
Probable space group: P -1
;
_chemical_formula_sum "Si O2"
_cell_formula_units_Z 12
_cell_length_a 7.327539
_cell_length_b 13.830157
_cell_length_c 19.538393
_cell_angle_alpha 160.790424
_cell_angle_beta 60.721538
_cell_angle_gamma 111.263358
_cell_volume 533.253301
_symmetry_space_group_name_H-M "P -1"
_symmetry_group_IT_number 2
_symmetry_cell_setting 'triclinic'
loop_
_space_group_symop_operation_xyz
x,y,z
-x,-y,-z
loop_
_atom_site_type_symbol
_atom_site_label
_atom_site_fract_x
_atom_site_fract_y
_atom_site_fract_z
Si Si1 0.358852 0.883526 0.864382
Si Si2 0.351846 0.326106 0.713378
Si Si3 0.855230 0.832368 0.779133
Si Si4 0.565033 0.787509 0.533063
Si Si5 0.912839 0.742134 0.053608
Si Si6 0.575596 0.764314 0.033172
O O1 0.600738 0.899054 0.849123
O O2 0.379210 0.537277 0.653110
O O3 0.341442 0.988760 0.859419
O O4 0.164134 0.126196 0.107638
O O5 0.328459 0.276191 0.603277
O O6 0.098865 0.491793 0.897043
O O7 0.500000 0.000000 0.500000
O O8 0.486181 0.556735 0.862286
O O9 0.000000 0.500000 0.500000
O O10 0.946217 0.084171 0.897666
O O11 0.607457 0.031409 0.741950
O O12 0.299949 0.969899 0.687162
O O13 0.786291 0.576679 0.915751
#
# Coordination Sequence:
#
# PCOD9038754 Si02
#       6
#     2   2   2   2   2   2
#     4  11  19  37  65  93 140 169 197 263 321 387
#     4  12  25  48  69  86 130 177 211 278 327 353
#     4  11  19  33  62  97 133 172 210 247 316 392
#     4  10  23  43  63 102 132 156 229 260 301 420
#     4  10  23  42  60  99 128 162 225 259 312 390
#     4  10  24  42  64 101 130 164 216 260 324 387
#
# _framework density 22.503378000000001
#
# number of rings (size 3 to 8) (size 9 to 14) (size 15 to 20)
#    1.000    0.333    5.000    1.500    0.000    2.667 
#    6.000    0.000    0.000    0.000    0.000    0.000 
#    0.000    0.000    0.000    0.000    0.000    0.000 
#
# Total GULP energy -66857.984823 kJ/mol
# GULP energy per Si atom -5571.498735 kJ/mol
# Density = 2.245216 g / cm^3
# Si number density = 22.503378 Si / 1000 Ang^3
#
#
#
# Elastic Constant Matrix: (Units=GPa)
#
#
# Indices 1 2 3 4 5 6 
#
# 1 37.6009 -1.9219 22.9811 11.4543 -15.9809 -7.3871
# 2 -1.9219 38.0812 43.8339 -3.0744 4.3669 -16.6480
# 3 22.9811 43.8339 146.3405 -8.3606 -15.0470 -16.9608
# 4 11.4543 -3.0744 -8.3606 36.5200 -5.2832 -11.6277
# 5 -15.9809 4.3669 -15.0470 -5.2832 38.3394 -2.9957
# 6 -7.3871 -16.6480 -16.9608 -11.6277 -2.9957 17.0161
#
#
#
# Elastic Compliance Matrix: (Units=1/GPa)
#
#
# Indices 1 2 3 4 5 6 
#
# 1 0.052251 0.037160 -0.010998 0.004018 0.018003 0.053993
# 2 0.037160 0.110493 -0.020932 0.035413 0.009670 0.129273
# 3 -0.010998 -0.020932 0.014301 0.002661 0.003105 -0.008634
# 4 0.004018 0.035413 0.002661 0.057157 0.012841 0.080362
# 5 0.018003 0.009670 0.003105 0.012841 0.038278 0.035885
# 6 0.053993 0.129273 -0.008634 0.080362 0.035885 0.261310
#
#
# Mechanical properties :
#
#
# Convention : Reuss Voigt Hill
#
# Bulk Modulus (GPa) = 5.33315 39.08986 22.21151
# Shear Modulus (GPa) = 8.53488 28.85040 18.69264
#
# Velocity S-wave (km/s) = 1.94960 3.58445 2.88524
# Velocity P-wave (km/s) = 2.72819 5.87703 4.58162
#
# Compressibility (1/GPa) = 0.18750633
#
# Stress axis : x y z
#
# Youngs Moduli (GPa) = 19.13822 9.05033 69.92590
#
# Poissons Ratio (x) = -0.33631 0.76903
# Poissons Ratio (y) = -0.71118 1.46368
# Poissons Ratio (z) = 0.21048 0.18944
#
# Static dielectric constant tensor:
#      x y z
#    x 1.874460 -0.054410 -0.005270 
#    y -0.054410 1.871290 -0.003740 
#    z -0.005270 -0.003740 1.888780 
# 
# From -- ./inp_files/590107.got.cif
#   From: 2010.05.17/outbox.cif.g08.bks.cpg/sg2_296_cif.got.tgz:590107.got - 2010.06.03 11:33:40.
