data_PCOD9038374
_publ_section_title
;
Structure prediction by ZEFSAII (Michael W. Deem and Ramdas Pophale) SiO2 
 PCOD9038374
Probable space group: P -1
;
_chemical_formula_sum "Si O2"
_cell_formula_units_Z 14
_cell_length_a 16.184396
_cell_length_b 8.133449
_cell_length_c 9.618607
_cell_angle_alpha 60.646759
_cell_angle_beta 30.256240
_cell_angle_gamma 63.586201
_cell_volume 555.401149
_symmetry_space_group_name_H-M "P -1"
_symmetry_group_IT_number 2
_symmetry_cell_setting 'triclinic'
loop_
_space_group_symop_operation_xyz
x,y,z
-x,-y,-z
loop_
_atom_site_type_symbol
_atom_site_label
_atom_site_fract_x
_atom_site_fract_y
_atom_site_fract_z
Si Si1 0.170444 0.316204 0.281461
Si Si2 0.928080 0.786121 0.078466
Si Si3 0.302864 0.533008 0.503160
Si Si4 0.352646 0.274026 0.296746
Si Si5 0.742655 0.376667 0.185761
Si Si6 0.834529 0.155254 0.899808
Si Si7 0.304228 0.901218 0.179686
O O1 0.273608 0.385004 0.234767
O O2 0.980679 0.297495 0.605464
O O3 0.241449 0.102784 0.241781
O O4 0.900923 0.275051 0.074246
O O5 0.844618 0.607668 0.202833
O O6 0.798829 0.832097 0.372694
O O7 0.797282 0.564677 0.951903
O O8 0.917774 0.962067 0.918880
O O9 0.404612 0.414068 0.287084
O O10 0.376024 0.577236 0.529563
O O11 0.247096 0.727616 0.428385
O O12 0.499713 0.133639 0.095362
O O13 0.706861 0.238921 0.166619
O O14 0.757308 0.118986 0.879188
#
# Coordination Sequence:
#
# PCOD9038374 Si02
#       7
#     2   2   2   2   2   2   2
#     4  12  25  44  69 102 129 178 223 273 326 396
#     4  10  23  41  70  96 136 168 222 274 333 374
#     4  10  23  41  68  98 132 173 220 272 328 387
#     4  10  25  46  69  92 141 175 219 269 336 391
#     4  12  23  42  69 102 134 168 224 280 326 387
#     4  12  24  43  71 101 132 173 224 274 331 388
#     4  12  25  45  69  98 135 179 220 267 333 401
#
# _framework density 25.207007000000001
#
# number of rings (size 3 to 8) (size 9 to 14) (size 15 to 20)
#    0.857    0.000    1.429    6.000    2.000    0.571 
#    0.000    1.429    0.000    0.000    0.000    0.000 
#    0.000    0.000    0.000    0.000    0.000    0.000 
#
# Total GULP energy -78375.514543 kJ/mol
# GULP energy per Si atom -5598.251039 kJ/mol
# Density = 2.514963 g / cm^3
# Si number density = 25.207007 Si / 1000 Ang^3
#
#
#
# Elastic Constant Matrix: (Units=GPa)
#
#
# Indices 1 2 3 4 5 6 
#
# 1 144.2458 10.7977 35.4561 -6.7105 35.9431 -4.0746
# 2 10.7977 112.2817 15.6538 -5.2255 23.2022 -14.9296
# 3 35.4561 15.6538 80.2486 14.3881 25.8099 0.2750
# 4 -6.7105 -5.2255 14.3881 42.8053 -3.3565 17.5840
# 5 35.9431 23.2022 25.8099 -3.3565 48.7370 -2.0727
# 6 -4.0746 -14.9296 0.2750 17.5840 -2.0727 45.8896
#
#
#
# Elastic Compliance Matrix: (Units=1/GPa)
#
#
# Indices 1 2 3 4 5 6 
#
# 1 0.008986 0.000729 -0.002733 0.001972 -0.005389 0.000052
# 2 0.000729 0.010394 -0.000750 -0.000094 -0.004957 0.003263
# 3 -0.002733 -0.000750 0.017600 -0.007875 -0.007402 0.002091
# 4 0.001972 -0.000094 -0.007875 0.031442 0.004430 -0.011656
# 5 -0.005389 -0.004957 -0.007402 0.004430 0.030977 -0.002345
# 6 0.000052 0.003263 0.002091 -0.011656 -0.002345 0.027206
#
#
# Mechanical properties :
#
#
# Convention : Reuss Voigt Hill
#
# Bulk Modulus (GPa) = 31.77330 51.17682 41.47506
# Shear Modulus (GPa) = 35.06207 45.81095 40.43651
#
# Velocity S-wave (km/s) = 3.73361 4.26771 4.00956
# Velocity P-wave (km/s) = 5.58738 6.68066 6.15832
#
# Compressibility (1/GPa) = 0.03147297
#
# Stress axis : x y z
#
# Youngs Moduli (GPa) = 111.28662 96.20588 56.81659
#
# Poissons Ratio (x) = -0.07015 0.15529
# Poissons Ratio (y) = -0.08115 0.04261
# Poissons Ratio (z) = 0.30416 0.07215
#
# Static dielectric constant tensor:
#      x y z
#    x 1.947530 0.048950 0.012310 
#    y 0.048950 1.994350 0.042970 
#    z 0.012310 0.042970 2.043580 
# 
# From -- ./inp_files/295120.got.cif
#   From: 2010.05.17/outbox.cif.g08.bks.cpg/sg2_148_cif.got.tgz:295120.got - 2010.06.03 11:33:40.
