data_PCOD9038565
_publ_section_title
;
Structure prediction by ZEFSAII (Michael W. Deem and Ramdas Pophale) SiO2 
 PCOD9038565
Probable space group: P -1
;
_chemical_formula_sum "Si O2"
_cell_formula_units_Z 14
_cell_length_a 11.363368
_cell_length_b 13.245317
_cell_length_c 8.372991
_cell_angle_alpha 79.606673
_cell_angle_beta 108.579837
_cell_angle_gamma 149.878721
_cell_volume 587.335439
_symmetry_space_group_name_H-M "P -1"
_symmetry_group_IT_number 2
_symmetry_cell_setting 'triclinic'
loop_
_space_group_symop_operation_xyz
x,y,z
-x,-y,-z
loop_
_atom_site_type_symbol
_atom_site_label
_atom_site_fract_x
_atom_site_fract_y
_atom_site_fract_z
Si Si1 0.361490 0.079177 0.108751
Si Si2 0.131966 0.015697 0.729046
Si Si3 0.116987 0.539328 0.879409
Si Si4 0.360808 0.293281 0.226480
Si Si5 0.127234 0.333668 0.465295
Si Si6 0.217023 0.814134 0.383062
Si Si7 0.341178 0.508144 0.158449
O O1 0.636009 0.230324 0.148245
O O2 0.384110 0.210902 0.150367
O O3 0.226522 0.912792 0.228341
O O4 0.221478 0.994370 0.904839
O O5 0.374230 0.258247 0.746778
O O6 0.894672 0.902915 0.731131
O O7 0.029013 0.882658 0.568519
O O8 0.906230 0.371255 0.705170
O O9 0.225181 0.506612 0.989432
O O10 0.000000 0.500000 0.000000
O O11 0.607187 0.481822 0.385513
O O12 0.328229 0.384550 0.116120
O O13 0.198965 0.415552 0.292290
O O14 0.953189 0.279779 0.513161
O O15 0.500000 0.000000 0.500000
#
# Coordination Sequence:
#
# PCOD9038565 Si02
#       7
#     2   2   2   2   2   2   2
#     4  11  26  47  70 104 135 180 235 280 344 410
#     4  10  23  41  71 101 138 185 217 277 343 416
#     4  11  27  49  73  99 136 184 234 287 334 407
#     4  11  23  43  71 105 142 178 224 288 339 409
#     4  11  25  43  65 106 139 179 227 283 343 400
#     4  12  29  46  71 100 138 184 230 288 341 405
#     4  10  24  44  74 100 143 180 229 276 347 409
#
# _framework density 23.836463999999999
#
# number of rings (size 3 to 8) (size 9 to 14) (size 15 to 20)
#    0.000    1.143    1.429    3.857   10.000    4.571 
#    0.000    0.000    0.000    0.000    0.000    0.000 
#    0.000    0.000    0.000    0.000    0.000    0.000 
#
# Total GULP energy -78349.063988 kJ/mol
# GULP energy per Si atom -5596.361713 kJ/mol
# Density = 2.378221 g / cm^3
# Si number density = 23.836464 Si / 1000 Ang^3
#
#
#
# Elastic Constant Matrix: (Units=GPa)
#
#
# Indices 1 2 3 4 5 6 
#
# 1 59.1451 48.9141 31.5278 0.1881 -22.0449 26.6838
# 2 48.9141 157.8085 48.4374 20.7592 -13.0427 30.5945
# 3 31.5278 48.4374 77.2518 20.5588 -8.9077 21.3600
# 4 0.1881 20.7592 20.5588 54.4056 1.4792 10.7058
# 5 -22.0449 -13.0427 -8.9077 1.4792 51.3106 -8.8427
# 6 26.6838 30.5945 21.3600 10.7058 -8.8427 44.0384
#
#
#
# Elastic Compliance Matrix: (Units=1/GPa)
#
#
# Indices 1 2 3 4 5 6 
#
# 1 0.036200 -0.006342 -0.007948 0.007689 0.010007 -0.013534
# 2 -0.006342 0.009551 -0.002541 -0.002413 -0.000866 -0.001148
# 3 -0.007948 -0.002541 0.019792 -0.006132 -0.000737 -0.001676
# 4 0.007689 -0.002413 -0.006132 0.022677 0.000021 -0.005517
# 5 0.010007 -0.000866 -0.000737 0.000021 0.023368 -0.000417
# 6 -0.013534 -0.001148 -0.001676 -0.005517 -0.000417 0.033775
#
#
# Mechanical properties :
#
#
# Convention : Reuss Voigt Hill
#
# Bulk Modulus (GPa) = 31.36561 61.32932 46.34746
# Shear Modulus (GPa) = 26.36433 40.97269 33.66851
#
# Velocity S-wave (km/s) = 3.32934 4.15047 3.76237
# Velocity P-wave (km/s) = 5.28834 6.98238 6.19355
#
# Compressibility (1/GPa) = 0.03188206
#
# Stress axis : x y z
#
# Youngs Moduli (GPa) = 27.62413 104.70639 50.52614
#
# Poissons Ratio (x) = 0.66401 0.40158
# Poissons Ratio (y) = 0.17518 0.12837
# Poissons Ratio (z) = 0.21956 0.26601
#
# Static dielectric constant tensor:
#      x y z
#    x 1.896550 -0.023780 0.034710 
#    y -0.023780 1.957620 -0.030210 
#    z 0.034710 -0.030210 1.890890 
# 
# From -- ./inp_files/273401.got.cif
#   From: 2010.05.17/outbox.cif.g08.bks.cpg/sg2_137_cif.got.tgz:273401.got - 2010.06.03 11:33:40.
