data_PCOD9038889
_publ_section_title
;
Structure prediction by ZEFSAII (Michael W. Deem and Ramdas Pophale) SiO2 
 PCOD9038889
Probable space group: P -1
;
_chemical_formula_sum "Si O2"
_cell_formula_units_Z 13
_cell_length_a 15.419475
_cell_length_b 14.212133
_cell_length_c 23.862554
_cell_angle_alpha 159.155160
_cell_angle_beta 160.624219
_cell_angle_gamma 31.016975
_cell_volume 603.786978
_symmetry_space_group_name_H-M "P -1"
_symmetry_group_IT_number 2
_symmetry_cell_setting 'triclinic'
loop_
_space_group_symop_operation_xyz
x,y,z
-x,-y,-z
loop_
_atom_site_type_symbol
_atom_site_label
_atom_site_fract_x
_atom_site_fract_y
_atom_site_fract_z
Si Si1 0.550681 0.586132 0.143132
Si Si2 0.196532 0.937313 0.845713
Si Si3 0.887637 0.157500 0.680483
Si Si4 0.516478 0.485296 0.369958
Si Si5 0.500000 0.500000 0.500000
Si Si6 0.964551 0.738700 0.292795
Si Si7 0.064367 0.392381 0.399209
O O1 0.795965 0.467805 0.252422
O O2 0.641418 0.907557 0.379348
O O3 0.500000 0.500000 0.000000
O O4 0.289614 0.472369 0.956800
O O5 0.217184 0.645170 0.670924
O O6 0.028522 0.864013 0.759831
O O7 0.039072 0.065810 0.774108
O O8 0.458504 0.162206 0.143723
O O9 0.756095 0.413459 0.752655
O O10 0.066607 0.193212 0.753580
O O11 0.580629 0.533938 0.500911
O O12 0.744697 0.634892 0.550878
O O13 0.232559 0.623273 0.393762
O O14 0.000000 0.000000 0.500000
#
# Coordination Sequence:
#
# PCOD9038889 Si02
#       7
#     2   2   2   2   1   2   2
#     4  11  22  40  65  91 130 170 215 274 323 393
#     4  10  23  42  64  93 133 175 222 267 326 395
#     4  10  24  41  62 100 125 174 226 259 343 389
#     4  11  23  42  66  94 137 168 218 281 321 396
#     4  10  26  42  64 106 126 170 230 262 338 404
#     4  11  23  43  68  93 135 177 215 274 333 393
#     4  10  24  40  65 100 125 174 223 264 334 391
#
# _framework density 21.530771000000001
#
# number of rings (size 3 to 8) (size 9 to 14) (size 15 to 20)
#    0.000    1.538    1.538    1.846    4.308    6.769 
#    0.000    3.077    0.000    0.000    0.000    0.000 
#    0.000    0.000    0.000    0.000    0.000    0.000 
#
# Total GULP energy -72431.662686 kJ/mol
# GULP energy per Si atom -5571.666360 kJ/mol
# Density = 2.148177 g / cm^3
# Si number density = 21.530771 Si / 1000 Ang^3
#
#
#
# Elastic Constant Matrix: (Units=GPa)
#
#
# Indices 1 2 3 4 5 6 
#
# 1 191.8034 44.3548 44.5925 -13.0816 20.1433 18.1846
# 2 44.3548 66.8667 5.4716 -9.0441 -0.8977 6.0372
# 3 44.5925 5.4716 59.7328 11.7750 14.3877 -4.4448
# 4 -13.0816 -9.0441 11.7750 16.6526 4.6189 4.7502
# 5 20.1433 -0.8977 14.3877 4.6189 25.3713 -0.2133
# 6 18.1846 6.0372 -4.4448 4.7502 -0.2133 38.8632
#
#
#
# Elastic Compliance Matrix: (Units=1/GPa)
#
#
# Indices 1 2 3 4 5 6 
#
# 1 0.011289 -0.003365 -0.010931 0.018929 -0.006399 -0.008358
# 2 -0.003365 0.018802 -0.001804 0.008834 0.002729 -0.002618
# 3 -0.010931 -0.001804 0.034284 -0.036615 -0.004045 0.013769
# 4 0.018929 0.008834 -0.036615 0.118228 -0.015720 -0.028954
# 5 -0.006399 0.002729 -0.004045 -0.015720 0.049784 0.004302
# 6 -0.008358 -0.002618 0.013769 -0.028954 0.004302 0.035186
#
#
# Mechanical properties :
#
#
# Convention : Reuss Voigt Hill
#
# Bulk Modulus (GPa) = 31.08021 56.36005 43.72013
# Shear Modulus (GPa) = 16.10315 31.10969 23.60642
#
# Velocity S-wave (km/s) = 2.73777 3.80530 3.31479
# Velocity P-wave (km/s) = 4.94575 6.74836 5.91612
#
# Compressibility (1/GPa) = 0.03217481
#
# Stress axis : x y z
#
# Youngs Moduli (GPa) = 88.58428 53.18460 29.16824
#
# Poissons Ratio (x) = 0.17895 0.31885
# Poissons Ratio (y) = 0.29805 0.05262
# Poissons Ratio (z) = 0.96834 0.09595
#
# Static dielectric constant tensor:
#      x y z
#    x 1.778070 -0.009140 -0.026990 
#    y -0.009140 1.779560 0.028950 
#    z -0.026990 0.028950 1.801080 
# 
# From -- ./inp_files/60575.got.cif
#   From: 2010.05.17/outbox.cif.g08.bks.cpg/sg2_31_cif.got.tgz:60575.got - 2010.06.03 11:33:40.
