data_PCOD9038516
_publ_section_title
;
Structure prediction by ZEFSAII (Michael W. Deem and Ramdas Pophale) SiO2 
 PCOD9038516
Probable space group: P -1
;
_chemical_formula_sum "Si O2"
_cell_formula_units_Z 14
_cell_length_a 17.698933
_cell_length_b 10.874347
_cell_length_c 6.510914
_cell_angle_alpha 134.444677
_cell_angle_beta 56.719634
_cell_angle_gamma 140.229861
_cell_volume 572.154072
_symmetry_space_group_name_H-M "P -1"
_symmetry_group_IT_number 2
_symmetry_cell_setting 'triclinic'
loop_
_space_group_symop_operation_xyz
x,y,z
-x,-y,-z
loop_
_atom_site_type_symbol
_atom_site_label
_atom_site_fract_x
_atom_site_fract_y
_atom_site_fract_z
Si Si1 0.009656 0.341490 0.936838
Si Si2 0.227329 0.605696 0.717209
Si Si3 0.933303 0.642027 0.692392
Si Si4 0.615622 0.757672 0.128078
Si Si5 0.825295 0.882960 0.209025
Si Si6 0.509131 0.086060 0.334343
Si Si7 0.248085 0.016626 0.197616
O O1 0.043549 0.429061 0.217401
O O2 0.121119 0.374358 0.717191
O O3 0.000000 0.500000 0.000000
O O4 0.880921 0.102653 0.848336
O O5 0.166670 0.566700 0.542007
O O6 0.355280 0.682862 0.598995
O O7 0.242456 0.811099 0.040544
O O8 0.876639 0.756145 0.973586
O O9 0.060038 0.850058 0.649083
O O10 0.734424 0.805850 0.072139
O O11 0.587883 0.884399 0.465599
O O12 0.500000 0.500000 0.000000
O O13 0.644539 0.852933 0.966516
O O14 0.745209 0.832107 0.463090
O O15 0.500000 0.000000 0.500000
O O16 0.500000 0.000000 0.000000
#
# Coordination Sequence:
#
# PCOD9038516 Si02
#       7
#     2   2   2   2   2   2   2
#     4  10  23  41  70 107 142 187 238 314 382 446
#     4  11  24  45  74 108 141 196 252 308 387 446
#     4  11  24  42  72 110 149 189 249 311 389 466
#     4  12  27  49  74 103 150 206 260 309 391 465
#     4  11  25  44  69 105 150 195 240 319 386 456
#     4  12  28  52  78 111 157 206 262 322 377 461
#     4  11  23  45  68 106 148 182 247 311 379 453
#
# _framework density 24.468933
#
# number of rings (size 3 to 8) (size 9 to 14) (size 15 to 20)
#    0.000    0.857    4.286    1.714    2.000    8.000 
#    0.000    0.000    0.000    0.000    0.000    0.000 
#    0.000    0.000    0.000    0.000    0.000    0.000 
#
# Total GULP energy -78005.803016 kJ/mol
# GULP energy per Si atom -5571.843073 kJ/mol
# Density = 2.441324 g / cm^3
# Si number density = 24.468933 Si / 1000 Ang^3
#
#
#
# Elastic Constant Matrix: (Units=GPa)
#
#
# Indices 1 2 3 4 5 6 
#
# 1 86.6644 27.0828 20.7630 -3.0701 13.1466 10.7275
# 2 27.0828 114.2229 24.3089 -25.5575 -7.0970 22.2036
# 3 20.7630 24.3089 112.0476 -21.2718 -0.7352 -13.5477
# 4 -3.0701 -25.5575 -21.2718 40.4213 9.9232 -0.7632
# 5 13.1466 -7.0970 -0.7352 9.9232 44.3697 0.0977
# 6 10.7275 22.2036 -13.5477 -0.7632 0.0977 28.6621
#
#
#
# Elastic Compliance Matrix: (Units=1/GPa)
#
#
# Indices 1 2 3 4 5 6 
#
# 1 0.014199 -0.002249 -0.002945 -0.000907 -0.004402 -0.004973
# 2 -0.002249 0.013411 -0.002541 0.006440 0.001353 -0.010581
# 3 -0.002945 -0.002541 0.011993 0.004751 -0.000417 0.008867
# 4 -0.000907 0.006440 0.004751 0.032669 -0.005925 -0.001513
# 5 -0.004402 0.001353 -0.000417 -0.005925 0.025376 0.000158
# 6 -0.004973 -0.010581 0.008867 -0.001513 0.000158 0.049097
#
#
# Mechanical properties :
#
#
# Convention : Reuss Voigt Hill
#
# Bulk Modulus (GPa) = 41.43990 50.80493 46.12241
# Shear Modulus (GPa) = 29.36699 38.74264 34.05481
#
# Velocity S-wave (km/s) = 3.46811 3.98344 3.73467
# Velocity P-wave (km/s) = 5.74539 6.47805 6.12269
#
# Compressibility (1/GPa) = 0.02413134
#
# Stress axis : x y z
#
# Youngs Moduli (GPa) = 70.42980 74.56841 83.38093
#
# Poissons Ratio (x) = 0.16774 0.24559
# Poissons Ratio (y) = 0.15843 0.21183
# Poissons Ratio (z) = 0.20745 0.18944
#
# Static dielectric constant tensor:
#      x y z
#    x 2.016710 -0.039280 0.024280 
#    y -0.039280 1.946280 -0.083290 
#    z 0.024280 -0.083290 2.077540 
# 
# From -- ./inp_files/109905.got.cif
#   From: 2010.05.17/outbox.cif.g08.bks.cpg/sg2_55_cif.got.tgz:109905.got - 2010.06.03 11:33:40.
