data_PCOD9038226
_publ_section_title
;
Structure prediction by ZEFSAII (Michael W. Deem and Ramdas Pophale) SiO2 
 PCOD9038226
Probable space group: P -1
;
_chemical_formula_sum "Si O2"
_cell_formula_units_Z 16
_cell_length_a 8.563718
_cell_length_b 11.307949
_cell_length_c 14.767717
_cell_angle_alpha 138.074039
_cell_angle_beta 73.321548
_cell_angle_gamma 125.303630
_cell_volume 752.532350
_symmetry_space_group_name_H-M "P -1"
_symmetry_group_IT_number 2
_symmetry_cell_setting 'triclinic'
loop_
_space_group_symop_operation_xyz
x,y,z
-x,-y,-z
loop_
_atom_site_type_symbol
_atom_site_label
_atom_site_fract_x
_atom_site_fract_y
_atom_site_fract_z
Si Si1 0.136706 0.741813 0.077759
Si Si2 0.390123 0.456547 0.222955
Si Si3 0.038529 0.690993 0.853892
Si Si4 0.333131 0.043759 0.562092
Si Si5 0.223645 0.056565 0.393205
Si Si6 0.951101 0.669717 0.454087
Si Si7 0.449402 0.085537 0.968019
Si Si8 0.382549 0.562501 0.490017
O O1 0.111757 0.887593 0.235428
O O2 0.077921 0.740398 0.982515
O O3 0.372199 0.842886 0.090447
O O4 0.000000 0.500000 0.000000
O O5 0.555593 0.700339 0.300910
O O6 0.457976 0.299101 0.107166
O O7 0.357526 0.464703 0.339990
O O8 0.177852 0.365652 0.162558
O O9 0.039862 0.485639 0.706912
O O10 0.218471 0.892432 0.882089
O O11 0.207651 0.973293 0.449182
O O12 0.500000 0.000000 0.500000
O O13 0.168900 0.872651 0.561380
O O14 0.161666 0.223670 0.501027
O O15 0.458020 0.185469 0.406481
O O16 0.821770 0.521709 0.475709
O O17 0.500000 0.000000 0.000000
O O18 0.500000 0.500000 0.500000
#
# Coordination Sequence:
#
# PCOD9038226 Si02
#       8
#     2   2   2   2   2   2   2   2
#     4  11  25  42  66  98 133 174 224 269 321 399
#     4  11  24  45  66  99 134 175 214 279 333 387
#     4  11  24  43  69  96 135 172 224 267 334 389
#     4  11  23  42  66  98 137 170 215 271 336 394
#     4  10  23  41  67  94 132 170 222 272 321 386
#     4  11  22  40  70  99 124 175 220 269 326 390
#     4  10  25  42  71  91 130 178 221 261 333 397
#     4   9  22  38  69  95 128 159 231 269 320 375
#
# _framework density 21.261545000000002
#
# number of rings (size 3 to 8) (size 9 to 14) (size 15 to 20)
#    0.000    1.500    1.250    2.250   19.250    0.500 
#    2.250    0.625    0.000    0.000    0.000    0.000 
#    0.000    0.000    0.000    0.000    0.000    0.000 
#
# Total GULP energy -89291.365311 kJ/mol
# GULP energy per Si atom -5580.710332 kJ/mol
# Density = 2.121315 g / cm^3
# Si number density = 21.261545 Si / 1000 Ang^3
#
#
#
# Elastic Constant Matrix: (Units=GPa)
#
#
# Indices 1 2 3 4 5 6 
#
# 1 77.7438 17.8578 41.9666 3.6409 -4.4367 11.2477
# 2 17.8578 101.7770 10.4393 27.8886 6.8942 30.5992
# 3 41.9666 10.4393 105.9035 15.1588 -12.6274 -8.1972
# 4 3.6409 27.8886 15.1588 29.9916 -7.0578 2.8810
# 5 -4.4367 6.8942 -12.6274 -7.0578 36.1710 9.6580
# 6 11.2477 30.5992 -8.1972 2.8810 9.6580 30.9532
#
#
#
# Elastic Compliance Matrix: (Units=1/GPa)
#
#
# Indices 1 2 3 4 5 6 
#
# 1 0.018993 -0.001097 -0.008447 0.004595 0.003001 -0.009419
# 2 -0.001097 0.020251 -0.000775 -0.017365 -0.003045 -0.017260
# 3 -0.008447 -0.000775 0.014461 -0.006133 0.000834 0.007976
# 4 0.004595 -0.017365 -0.006133 0.054053 0.010820 0.005465
# 5 0.003001 -0.003045 0.000834 0.010820 0.033484 -0.009315
# 6 -0.009419 -0.017260 0.007976 0.005465 -0.009315 0.057302
#
#
# Mechanical properties :
#
#
# Convention : Reuss Voigt Hill
#
# Bulk Modulus (GPa) = 30.24148 47.32796 38.78472
# Shear Modulus (GPa) = 21.71978 33.76719 27.74348
#
# Velocity S-wave (km/s) = 3.19964 3.98952 3.61621
# Velocity P-wave (km/s) = 5.28249 6.59772 5.97640
#
# Compressibility (1/GPa) = 0.03306717
#
# Stress axis : x y z
#
# Youngs Moduli (GPa) = 52.65004 49.38043 69.15147
#
# Poissons Ratio (x) = 0.05415 0.58414
# Poissons Ratio (y) = 0.05774 0.05360
# Poissons Ratio (z) = 0.44475 0.03827
#
# Static dielectric constant tensor:
#      x y z
#    x 1.798910 0.044720 0.022190 
#    y 0.044720 1.826970 0.013230 
#    z 0.022190 0.013230 1.767510 
# 
# From -- ./inp_files/333666.got.cif
#   From: 2010.05.17/outbox.cif.g08.bks.cpg/sg2_167_cif.got.tgz:333666.got - 2010.06.03 11:33:40.
