data_PCOD9038377
_publ_section_title
;
Structure prediction by ZEFSAII (Michael W. Deem and Ramdas Pophale) SiO2 
 PCOD9038377
Probable space group: P -1
;
_chemical_formula_sum "Si O2"
_cell_formula_units_Z 14
_cell_length_a 18.260272
_cell_length_b 26.489139
_cell_length_c 9.195862
_cell_angle_alpha 34.212767
_cell_angle_beta 154.521504
_cell_angle_gamma 161.005442
_cell_volume 611.402386
_symmetry_space_group_name_H-M "P -1"
_symmetry_group_IT_number 2
_symmetry_cell_setting 'triclinic'
loop_
_space_group_symop_operation_xyz
x,y,z
-x,-y,-z
loop_
_atom_site_type_symbol
_atom_site_label
_atom_site_fract_x
_atom_site_fract_y
_atom_site_fract_z
Si Si1 0.361039 0.236429 0.181866
Si Si2 0.262563 0.476800 0.617916
Si Si3 0.070278 0.416153 0.092079
Si Si4 0.539699 0.282516 0.077459
Si Si5 0.092595 0.233526 0.469476
Si Si6 0.420864 0.862277 0.714588
Si Si7 0.611290 0.915115 0.248028
O O1 0.592681 0.383937 0.353909
O O2 0.519516 0.263603 0.259011
O O3 0.207826 0.089584 0.345121
O O4 0.142480 0.214740 0.766774
O O5 0.226513 0.491307 0.351400
O O6 0.935204 0.304187 0.497152
O O7 0.500000 0.500000 0.000000
O O8 0.171616 0.371566 0.291602
O O9 0.725310 0.245960 0.915749
O O10 0.157876 0.541552 0.859901
O O11 0.492805 0.168733 0.184329
O O12 0.301871 0.261094 0.678221
O O13 0.763377 0.070977 0.207662
O O14 0.500000 0.000000 0.500000
O O15 0.593280 0.906804 0.063101
#
# Coordination Sequence:
#
# PCOD9038377 Si02
#       7
#     2   2   2   2   2   2   2
#     4  10  23  41  69  96 133 175 219 261 329 385
#     4  11  22  42  68  93 128 174 219 268 317 392
#     4  11  22  42  68 101 130 172 221 266 327 384
#     4  10  24  42  65  97 133 168 221 265 324 389
#     4  10  23  41  68  98 135 175 213 265 326 391
#     4  11  27  45  65  98 131 172 221 275 334 381
#     4  11  24  42  66  95 134 173 219 272 321 388
#
# _framework density 22.898177
#
# number of rings (size 3 to 8) (size 9 to 14) (size 15 to 20)
#    0.857    0.571    1.429    3.000    0.000   12.000 
#    0.000    0.000    0.000    0.000    0.000    0.000 
#    0.000    0.000    0.000    0.000    0.000    0.000 
#
# Total GULP energy -78237.870128 kJ/mol
# GULP energy per Si atom -5588.419295 kJ/mol
# Density = 2.284606 g / cm^3
# Si number density = 22.898177 Si / 1000 Ang^3
#
#
#
# Elastic Constant Matrix: (Units=GPa)
#
#
# Indices 1 2 3 4 5 6 
#
# 1 125.8105 70.9517 29.6710 -1.8747 -4.5083 -32.4750
# 2 70.9517 138.4379 13.9647 -6.9764 -16.1056 -38.3547
# 3 29.6710 13.9647 49.8126 6.3725 -10.0949 -12.6139
# 4 -1.8747 -6.9764 6.3725 43.1440 -6.5164 -0.5964
# 5 -4.5083 -16.1056 -10.0949 -6.5164 39.2029 -1.1204
# 6 -32.4750 -38.3547 -12.6139 -0.5964 -1.1204 39.7133
#
#
#
# Elastic Compliance Matrix: (Units=1/GPa)
#
#
# Indices 1 2 3 4 5 6 
#
# 1 0.013280 -0.005406 -0.005913 0.000317 -0.002058 0.003707
# 2 -0.005406 0.013165 0.002846 0.002542 0.006211 0.009412
# 3 -0.005913 0.002846 0.026153 -0.002516 0.006988 0.006379
# 4 0.000317 0.002542 -0.002516 0.024704 0.004608 0.002416
# 5 -0.002058 0.006211 0.006988 0.004608 0.030602 0.007468
# 6 0.003707 0.009412 0.006379 0.002416 0.007468 0.039574
#
#
# Mechanical properties :
#
#
# Convention : Reuss Voigt Hill
#
# Bulk Modulus (GPa) = 28.04946 60.35953 44.20450
# Shear Modulus (GPa) = 28.35935 37.71029 33.03482
#
# Velocity S-wave (km/s) = 3.52305 4.06257 3.80239
# Velocity P-wave (km/s) = 5.36893 6.95867 6.21484
#
# Compressibility (1/GPa) = 0.03565131
#
# Stress axis : x y z
#
# Youngs Moduli (GPa) = 75.30364 75.95767 38.23643
#
# Poissons Ratio (x) = 0.41063 0.22611
# Poissons Ratio (y) = 0.40709 -0.10883
# Poissons Ratio (z) = 0.44530 -0.21619
#
# Static dielectric constant tensor:
#      x y z
#    x 1.852110 -0.005130 0.075610 
#    y -0.005130 1.849960 0.002920 
#    z 0.075610 0.002920 1.937200 
# 
# From -- ./inp_files/338669.got.cif
#   From: 2010.05.17/outbox.cif.g08.bks.cpg/sg2_170_cif.got.tgz:338669.got - 2010.06.03 11:33:40.
