data_PCOD9038424
_publ_section_title
;
Structure prediction by ZEFSAII (Michael W. Deem and Ramdas Pophale) SiO2 
 PCOD9038424
Probable space group: P -1
;
_chemical_formula_sum "Si O2"
_cell_formula_units_Z 16
_cell_length_a 14.430057
_cell_length_b 8.812312
_cell_length_c 11.409106
_cell_angle_alpha 42.800461
_cell_angle_beta 109.347539
_cell_angle_gamma 128.971475
_cell_volume 742.746117
_symmetry_space_group_name_H-M "P -1"
_symmetry_group_IT_number 2
_symmetry_cell_setting 'triclinic'
loop_
_space_group_symop_operation_xyz
x,y,z
-x,-y,-z
loop_
_atom_site_type_symbol
_atom_site_label
_atom_site_fract_x
_atom_site_fract_y
_atom_site_fract_z
Si Si1 0.017448 0.756118 0.138372
Si Si2 0.131748 0.671535 0.023239
Si Si3 0.364425 0.535483 0.421225
Si Si4 0.877002 0.839892 0.613930
Si Si5 0.250422 0.540769 0.849585
Si Si6 0.809911 0.998765 0.724403
Si Si7 0.640695 0.195511 0.494410
Si Si8 0.387001 0.063735 0.776018
O O1 0.879660 0.503222 0.185384
O O2 0.109770 0.797586 0.054680
O O3 0.079023 0.762487 0.281552
O O4 0.000000 0.000000 0.000000
O O5 0.137286 0.418450 0.189105
O O6 0.000000 0.500000 0.000000
O O7 0.267635 0.902269 0.900096
O O8 0.236916 0.308304 0.435560
O O9 0.353562 0.677509 0.449459
O O10 0.395467 0.333370 0.594721
O O11 0.465967 0.778639 0.235834
O O12 0.866298 0.000954 0.622739
O O13 0.000000 0.000000 0.500000
O O14 0.287718 0.573043 0.710342
O O15 0.346710 0.835489 0.786796
O O16 0.238616 0.290779 0.059606
O O17 0.705929 0.042338 0.628591
O O18 0.500000 0.000000 0.500000
#
# Coordination Sequence:
#
# PCOD9038424 Si02
#       8
#     2   2   2   2   2   2   2   2
#     4  10  23  41  69 108 145 184 238 300 374 430
#     4  12  22  42  71 103 140 189 239 297 363 437
#     4  11  27  46  69 105 142 197 242 298 368 430
#     4  12  27  45  71 106 143 187 247 304 365 438
#     4  11  23  47  73 106 145 196 237 308 365 439
#     4  11  26  48  71 109 147 190 247 305 370 441
#     4  12  27  47  74 102 148 193 243 302 372 436
#     4  11  23  46  70  99 145 188 245 293 360 435
#
# _framework density 21.541682000000002
#
# number of rings (size 3 to 8) (size 9 to 14) (size 15 to 20)
#    0.000    0.750    3.750    3.000    8.750    1.500 
#    0.000    0.000    0.000    0.000    0.000    0.000 
#    0.000    0.000    0.000    0.000    0.000    0.000 
#
# Total GULP energy -89145.392321 kJ/mol
# GULP energy per Si atom -5571.587020 kJ/mol
# Density = 2.149265 g / cm^3
# Si number density = 21.541682 Si / 1000 Ang^3
#
#
#
# Elastic Constant Matrix: (Units=GPa)
#
#
# Indices 1 2 3 4 5 6 
#
# 1 160.7270 41.6115 65.4688 10.8761 -41.7174 -21.2137
# 2 41.6115 107.2013 23.0456 6.4831 -14.9554 7.5666
# 3 65.4688 23.0456 85.0617 -5.4068 -16.0456 1.5540
# 4 10.8761 6.4831 -5.4068 32.5849 1.9352 -7.0342
# 5 -41.7174 -14.9554 -16.0456 1.9352 62.2312 4.5028
# 6 -21.2137 7.5666 1.5540 -7.0342 4.5028 61.4799
#
#
#
# Elastic Compliance Matrix: (Units=1/GPa)
#
#
# Indices 1 2 3 4 5 6 
#
# 1 0.012427 -0.002272 -0.008269 -0.004564 0.005516 0.003850
# 2 -0.002272 0.010896 -0.001098 -0.002178 0.001055 -0.002424
# 3 -0.008269 -0.001098 0.018630 0.005595 -0.000998 -0.002476
# 4 -0.004564 -0.002178 0.005595 0.034366 -0.003407 0.002733
# 5 0.005516 0.001055 -0.000998 -0.003407 0.019872 -0.000047
# 6 0.003850 -0.002424 -0.002476 0.002733 -0.000047 0.018271
#
#
# Mechanical properties :
#
#
# Convention : Reuss Voigt Hill
#
# Bulk Modulus (GPa) = 53.54810 68.13797 60.84303
# Shear Modulus (GPa) = 34.73017 46.11683 40.42350
#
# Velocity S-wave (km/s) = 4.01962 4.63192 4.33659
# Velocity P-wave (km/s) = 6.81579 7.76567 7.30618
#
# Compressibility (1/GPa) = 0.01867480
#
# Stress axis : x y z
#
# Youngs Moduli (GPa) = 80.47120 91.77374 53.67545
#
# Poissons Ratio (x) = 0.20854 0.44383
# Poissons Ratio (y) = 0.18285 0.05895
# Poissons Ratio (z) = 0.66540 0.10080
#
# Static dielectric constant tensor:
#      x y z
#    x 1.725460 -0.034640 -0.030840 
#    y -0.034640 1.760690 0.017980 
#    z -0.030840 0.017980 1.808640 
# 
# From -- ./inp_files/446672.got.cif
#   From: 2010.05.17/outbox.cif.g08.bks.cpg/sg2_224_cif.got.tgz:446672.got - 2010.06.03 11:33:40.
