data_PCOD9038098
_publ_section_title
;
Structure prediction by ZEFSAII (Michael W. Deem and Ramdas Pophale) SiO2 
 PCOD9038098
Probable space group: P -1
;
_chemical_formula_sum "Si O2"
_cell_formula_units_Z 16
_cell_length_a 11.694306
_cell_length_b 15.140946
_cell_length_c 13.984763
_cell_angle_alpha 136.153317
_cell_angle_beta 33.921706
_cell_angle_gamma 111.954120
_cell_volume 779.150213
_symmetry_space_group_name_H-M "P -1"
_symmetry_group_IT_number 2
_symmetry_cell_setting 'triclinic'
loop_
_space_group_symop_operation_xyz
x,y,z
-x,-y,-z
loop_
_atom_site_type_symbol
_atom_site_label
_atom_site_fract_x
_atom_site_fract_y
_atom_site_fract_z
Si Si1 0.861872 0.846275 0.199619
Si Si2 0.491797 0.191632 0.719858
Si Si3 0.039979 0.503630 0.364496
Si Si4 0.745640 0.320402 0.691204
Si Si5 0.130599 0.314790 0.748901
Si Si6 0.596440 0.288113 0.344959
Si Si7 0.118748 0.816461 0.296776
Si Si8 0.547233 0.592299 0.676219
O O1 0.683529 0.817161 0.240179
O O2 0.954108 0.732108 0.135460
O O3 0.674471 0.021639 0.505404
O O4 0.098365 0.820833 0.958854
O O5 0.683519 0.234496 0.588997
O O6 0.298157 0.335924 0.033018
O O7 0.043283 0.653177 0.458141
O O8 0.000000 0.500000 0.500000
O O9 0.828804 0.519105 0.456726
O O10 0.805872 0.233193 0.683290
O O11 0.500000 0.500000 0.000000
O O12 0.428862 0.239153 0.472607
O O13 0.047983 0.248040 0.669196
O O14 0.000000 0.500000 0.000000
O O15 0.524208 0.448268 0.569411
O O16 0.506292 0.328865 0.328924
O O17 0.362947 0.713686 0.979434
O O18 0.000000 0.000000 0.500000
#
# Coordination Sequence:
#
# PCOD9038098 Si02
#       8
#     2   2   2   2   2   2   2   2
#     4  11  23  45  66  97 137 171 219 291 336 392
#     4  10  23  44  67  90 134 178 218 276 347 394
#     4  11  23  41  66  96 131 178 228 276 329 414
#     4  10  23  41  66  94 129 182 227 264 336 423
#     4  12  24  40  72 100 131 179 227 276 341 409
#     4  11  22  40  68  98 128 172 226 279 328 408
#     4  12  25  44  68 100 143 177 220 288 353 399
#     4  11  21  41  65  95 134 168 223 278 336 396
#
# _framework density 20.535193
#
# number of rings (size 3 to 8) (size 9 to 14) (size 15 to 20)
#    0.000    1.000    3.750    3.750    3.500    1.000 
#    4.500    2.500    0.000    0.000    0.000    0.000 
#    0.000    0.000    0.000    0.000    0.000    0.000 
#
# Total GULP energy -89182.754253 kJ/mol
# GULP energy per Si atom -5573.922141 kJ/mol
# Density = 2.048845 g / cm^3
# Si number density = 20.535193 Si / 1000 Ang^3
#
#
#
# Elastic Constant Matrix: (Units=GPa)
#
#
# Indices 1 2 3 4 5 6 
#
# 1 83.1457 44.0890 26.8471 6.1965 -11.5393 20.0885
# 2 44.0890 97.6623 43.6464 0.6868 -3.9499 20.9980
# 3 26.8471 43.6464 102.8438 7.4239 -0.1010 8.1021
# 4 6.1965 0.6868 7.4239 32.0853 0.3742 -5.1543
# 5 -11.5393 -3.9499 -0.1010 0.3742 28.0257 -3.7789
# 6 20.0885 20.9980 8.1021 -5.1543 -3.7789 36.7329
#
#
#
# Elastic Compliance Matrix: (Units=1/GPa)
#
#
# Indices 1 2 3 4 5 6 
#
# 1 0.018316 -0.006022 -0.001429 -0.004148 0.005902 -0.006234
# 2 -0.006022 0.016177 -0.005007 0.001219 -0.000877 -0.004769
# 3 -0.001429 -0.005007 0.012356 -0.002388 -0.001155 0.000464
# 4 -0.004148 0.001219 -0.002388 0.033583 -0.001090 0.006698
# 5 0.005902 -0.000877 -0.001155 -0.001090 0.038174 0.001302
# 6 -0.006234 -0.004769 0.000464 0.006698 0.001302 0.034330
#
#
# Mechanical properties :
#
#
# Convention : Reuss Voigt Hill
#
# Bulk Modulus (GPa) = 45.59230 56.97966 51.28598
# Shear Modulus (GPa) = 27.00327 30.64008 28.82167
#
# Velocity S-wave (km/s) = 3.63019 3.86693 3.75043
# Velocity P-wave (km/s) = 6.31041 6.90978 6.61689
#
# Compressibility (1/GPa) = 0.02193353
#
# Stress axis : x y z
#
# Youngs Moduli (GPa) = 54.59656 61.81786 80.93228
#
# Poissons Ratio (x) = 0.37224 0.11569
# Poissons Ratio (y) = 0.32876 0.40519
# Poissons Ratio (z) = 0.07805 0.30949
#
# Static dielectric constant tensor:
#      x y z
#    x 1.743940 0.058920 -0.043100 
#    y 0.058920 1.784370 -0.017580 
#    z -0.043100 -0.017580 1.767930 
# 
# From -- ./inp_files/519592.got.cif
#   From: 2010.05.17/outbox.cif.g08.bks.cpg/sg2_260_cif.got.tgz:519592.got - 2010.06.03 11:33:40.
