data_PCOD9038649
_publ_section_title
;
Structure prediction by ZEFSAII (Michael W. Deem and Ramdas Pophale) SiO2 
 PCOD9038649
Probable space group: P -1
;
_chemical_formula_sum "Si O2"
_cell_formula_units_Z 14
_cell_length_a 7.965911
_cell_length_b 21.798426
_cell_length_c 8.230169
_cell_angle_alpha 30.836467
_cell_angle_beta 116.883865
_cell_angle_gamma 119.053131
_cell_volume 638.395184
_symmetry_space_group_name_H-M "P -1"
_symmetry_group_IT_number 2
_symmetry_cell_setting 'triclinic'
loop_
_space_group_symop_operation_xyz
x,y,z
-x,-y,-z
loop_
_atom_site_type_symbol
_atom_site_label
_atom_site_fract_x
_atom_site_fract_y
_atom_site_fract_z
Si Si1 0.123433 0.942635 0.316127
Si Si2 0.815981 0.721033 0.646142
Si Si3 0.400260 0.772589 0.281899
Si Si4 0.860305 0.470465 0.355367
Si Si5 0.512089 0.960769 0.282378
Si Si6 0.981525 0.303916 0.553355
Si Si7 0.161200 0.109749 0.250683
O O1 0.305741 0.910496 0.382228
O O2 0.973376 0.821266 0.584859
O O3 0.201968 0.049075 0.235989
O O4 0.000000 0.000000 0.000000
O O5 0.617343 0.765657 0.435216
O O6 0.916291 0.706036 0.549559
O O7 0.775079 0.588086 0.011266
O O8 0.302915 0.652950 0.408082
O O9 0.247831 0.756791 0.401410
O O10 0.402829 0.904682 0.906602
O O11 0.000000 0.500000 0.500000
O O12 0.980807 0.435955 0.331078
O O13 0.657672 0.875242 0.585155
O O14 0.500000 0.000000 0.000000
O O15 0.079784 0.227894 0.900263
O O16 0.000000 0.000000 0.500000
#
# Coordination Sequence:
#
# PCOD9038649 Si02
#       7
#     2   2   2   2   2   2   2
#     4  12  24  40  67 102 136 177 220 279 346 406
#     4  12  23  45  71  95 138 177 227 277 335 405
#     4  10  23  41  72  93 133 174 227 269 338 393
#     4  10  25  45  69  97 133 180 231 279 334 388
#     4  12  24  42  67 102 136 178 223 275 349 412
#     4  10  23  43  67  98 131 178 223 277 334 396
#     4  12  23  41  65  96 142 175 222 282 335 406
#
# _framework density 21.92999
#
# number of rings (size 3 to 8) (size 9 to 14) (size 15 to 20)
#    0.857    0.000    4.286    3.000    4.000    0.000 
#    0.000    0.714    0.000    0.000    0.000    0.000 
#    0.000    0.000    0.000    0.000    0.000    0.000 
#
# Total GULP energy -78172.711911 kJ/mol
# GULP energy per Si atom -5583.765137 kJ/mol
# Density = 2.188008 g / cm^3
# Si number density = 21.929990 Si / 1000 Ang^3
#
#
#
# Elastic Constant Matrix: (Units=GPa)
#
#
# Indices 1 2 3 4 5 6 
#
# 1 115.6044 14.5621 1.3098 17.8972 18.6580 19.3047
# 2 14.5621 70.4423 0.4205 -8.7559 -0.6780 10.2185
# 3 1.3098 0.4205 76.0059 -7.7320 18.6136 6.5379
# 4 17.8972 -8.7559 -7.7320 39.3648 2.7231 -0.2168
# 5 18.6580 -0.6780 18.6136 2.7231 30.6814 -0.4502
# 6 19.3047 10.2185 6.5379 -0.2168 -0.4502 35.6467
#
#
#
# Elastic Compliance Matrix: (Units=1/GPa)
#
#
# Indices 1 2 3 4 5 6 
#
# 1 0.012089 -0.002303 0.001826 -0.005121 -0.008149 -0.006356
# 2 -0.002303 0.015723 0.000448 0.004543 0.001025 -0.003302
# 3 0.001826 0.000448 0.016663 0.003319 -0.011567 -0.004299
# 4 -0.005121 0.004543 0.003319 0.029497 -0.001402 0.001024
# 5 -0.008149 0.001025 -0.011567 -0.001402 0.044813 0.006798
# 6 -0.006356 -0.003302 -0.004299 0.001024 0.006798 0.033322
#
#
# Mechanical properties :
#
#
# Convention : Reuss Voigt Hill
#
# Bulk Modulus (GPa) = 22.51419 32.73749 27.62584
# Shear Modulus (GPa) = 29.94537 37.52257 33.73397
#
# Velocity S-wave (km/s) = 3.69927 4.14093 3.92632
# Velocity P-wave (km/s) = 5.34180 6.15010 5.76014
#
# Compressibility (1/GPa) = 0.04441644
#
# Stress axis : x y z
#
# Youngs Moduli (GPa) = 82.72037 63.60134 60.01269
#
# Poissons Ratio (x) = 0.14647 -0.10957
# Poissons Ratio (y) = 0.19051 -0.02688
# Poissons Ratio (z) = -0.15103 -0.02849
#
# Static dielectric constant tensor:
#      x y z
#    x 1.840440 -0.069310 -0.028080 
#    y -0.069310 1.913310 0.010350 
#    z -0.028080 0.010350 1.797280 
# 
# From -- ./inp_files/225195.got.cif
#   From: 2010.05.17/outbox.cif.g08.bks.cpg/sg2_113_cif.got.tgz:225195.got - 2010.06.03 11:33:40.
