data_PCOD9038599
_publ_section_title
;
Structure prediction by ZEFSAII (Michael W. Deem and Ramdas Pophale) SiO2 
 PCOD9038599
Probable space group: P -1
;
_chemical_formula_sum "Si O2"
_cell_formula_units_Z 14
_cell_length_a 11.085214
_cell_length_b 7.399069
_cell_length_c 11.364464
_cell_angle_alpha 123.584410
_cell_angle_beta 116.221765
_cell_angle_gamma 45.932990
_cell_volume 555.404128
_symmetry_space_group_name_H-M "P -1"
_symmetry_group_IT_number 2
_symmetry_cell_setting 'triclinic'
loop_
_space_group_symop_operation_xyz
x,y,z
-x,-y,-z
loop_
_atom_site_type_symbol
_atom_site_label
_atom_site_fract_x
_atom_site_fract_y
_atom_site_fract_z
Si Si1 0.309148 0.210238 0.355775
Si Si2 0.780985 0.385389 0.024977
Si Si3 0.653458 0.932110 0.121346
Si Si4 0.834589 0.878540 0.956961
Si Si5 0.245886 0.809569 0.293812
Si Si6 0.651428 0.110119 0.417171
Si Si7 0.007322 0.793669 0.519386
O O1 0.173125 0.492871 0.465997
O O2 0.242222 0.227225 0.200918
O O3 0.313572 0.969113 0.329082
O O4 0.492112 0.134191 0.401649
O O5 0.746945 0.199125 0.014339
O O6 0.732347 0.384940 0.867543
O O7 0.684486 0.693206 0.131569
O O8 0.977308 0.257435 0.055790
O O9 0.637254 0.143667 0.282676
O O10 0.500000 0.000000 0.000000
O O11 0.805431 0.833907 0.061644
O O12 0.329168 0.699677 0.418855
O O13 0.046889 0.051069 0.322569
O O14 0.837186 0.827040 0.423454
O O15 0.000000 0.000000 0.500000
#
# Coordination Sequence:
#
# PCOD9038599 Si02
#       7
#     2   2   2   2   2   2   2
#     4  11  20  45  66  93 130 170 219 272 324 390
#     4  10  23  44  69  97 129 173 227 269 330 396
#     4  12  24  42  64  95 136 174 213 273 330 395
#     4  10  23  41  71  93 128 176 222 271 330 388
#     4   9  23  42  66  95 127 170 218 273 326 388
#     4  10  24  41  66  98 128 170 221 260 339 383
#     4  10  24  38  63  96 130 168 212 268 326 392
#
# _framework density 25.206871
#
# number of rings (size 3 to 8) (size 9 to 14) (size 15 to 20)
#    0.857    0.857    1.429    2.143    4.000    1.143 
#    2.571    0.000    0.000    0.000    0.000    0.000 
#    0.000    0.000    0.000    0.000    0.000    0.000 
#
# Total GULP energy -78204.173351 kJ/mol
# GULP energy per Si atom -5586.012382 kJ/mol
# Density = 2.514950 g / cm^3
# Si number density = 25.206871 Si / 1000 Ang^3
#
#
#
# Elastic Constant Matrix: (Units=GPa)
#
#
# Indices 1 2 3 4 5 6 
#
# 1 96.5687 22.0902 -3.2839 9.5388 -0.3800 -17.1551
# 2 22.0902 66.7115 6.9723 19.4191 6.9708 -1.6876
# 3 -3.2839 6.9723 106.1001 -4.2410 2.5684 -5.3504
# 4 9.5388 19.4191 -4.2410 34.0613 -4.8307 1.0720
# 5 -0.3800 6.9708 2.5684 -4.8307 32.8706 -3.0418
# 6 -17.1551 -1.6876 -5.3504 1.0720 -3.0418 43.6936
#
#
#
# Elastic Compliance Matrix: (Units=1/GPa)
#
#
# Indices 1 2 3 4 5 6 
#
# 1 0.012234 -0.003799 0.000799 -0.001148 0.001166 0.004864
# 2 -0.003799 0.020431 -0.001833 -0.011636 -0.006042 -0.001062
# 3 0.000799 -0.001833 0.009719 0.001996 0.000060 0.001388
# 4 -0.001148 -0.011636 0.001996 0.037693 0.007741 -0.001042
# 5 0.001166 -0.006042 0.000060 0.007741 0.033067 0.002344
# 6 0.004864 -0.001062 0.001388 -0.001042 0.002344 0.025114
#
#
# Mechanical properties :
#
#
# Convention : Reuss Voigt Hill
#
# Bulk Modulus (GPa) = 30.56348 35.65972 33.11160
# Shear Modulus (GPa) = 31.48061 38.36522 34.92291
#
# Velocity S-wave (km/s) = 3.53780 3.90553 3.72620
# Velocity P-wave (km/s) = 5.37023 5.87496 5.62826
#
# Compressibility (1/GPa) = 0.03271878
#
# Stress axis : x y z
#
# Youngs Moduli (GPa) = 81.74234 48.94531 102.89580
#
# Poissons Ratio (x) = 0.18594 -0.08226
# Poissons Ratio (y) = 0.31054 0.18857
# Poissons Ratio (z) = -0.06535 0.08970
#
# Static dielectric constant tensor:
#      x y z
#    x 1.948000 -0.016170 -0.022860 
#    y -0.016170 2.072620 -0.023960 
#    z -0.022860 -0.023960 2.031380 
# 
# From -- ./inp_files/418177.got.cif
#   From: 2010.05.17/outbox.cif.g08.bks.cpg/sg2_210_cif.got.tgz:418177.got - 2010.06.03 11:33:40.
