data_PCOD9038320
_publ_section_title
;
Structure prediction by ZEFSAII (Michael W. Deem and Ramdas Pophale) SiO2 
 PCOD9038320
Probable space group: P -1
;
_chemical_formula_sum "Si O2"
_cell_formula_units_Z 12
_cell_length_a 17.222326
_cell_length_b 5.094739
_cell_length_c 5.083704
_cell_angle_alpha 90.356278
_cell_angle_beta 84.801393
_cell_angle_gamma 97.784397
_cell_volume 440.123983
_symmetry_space_group_name_H-M "P -1"
_symmetry_group_IT_number 2
_symmetry_cell_setting 'triclinic'
loop_
_space_group_symop_operation_xyz
x,y,z
-x,-y,-z
loop_
_atom_site_type_symbol
_atom_site_label
_atom_site_fract_x
_atom_site_fract_y
_atom_site_fract_z
Si Si1 0.549816 0.608770 0.236906
Si Si2 0.900970 0.740373 0.114087
Si Si3 0.798259 0.346837 0.468144
Si Si4 0.667317 0.490369 0.834637
Si Si5 0.931331 0.242125 0.759365
Si Si6 0.355740 0.992001 0.498306
O O1 0.500000 0.500000 0.500000
O O2 0.579918 0.913824 0.300594
O O3 0.500000 0.500000 0.000000
O O4 0.634528 0.514560 0.136494
O O5 0.825144 0.602271 0.287820
O O6 0.976439 0.780719 0.287453
O O7 0.923777 0.524383 0.895908
O O8 0.895240 0.007683 0.962185
O O9 0.755943 0.437664 0.747071
O O10 0.877062 0.228785 0.519900
O O11 0.730020 0.132211 0.370026
O O12 0.620498 0.234136 0.701887
O O13 0.654602 0.755980 0.681575
#
# Coordination Sequence:
#
# PCOD9038320 Si02
#       6
#     2   2   2   2   2   2
#     4  12  26  54  84 112 159 204 259 326 402 478
#     4  10  23  41  68 108 149 202 263 317 386 463
#     4  10  25  46  74 104 158 204 258 326 398 456
#     4  10  26  48  73 117 150 200 265 321 392 482
#     4  10  23  41  68 108 149 202 263 317 386 463
#     4  10  26  48  73 117 150 200 265 321 392 482
#
# _framework density 27.265045000000001
#
# number of rings (size 3 to 8) (size 9 to 14) (size 15 to 20)
#    1.000    0.667    1.667    0.500    4.667    5.333 
#    0.000    5.000    0.000    0.000    0.000    0.000 
#    0.000    0.000    0.000    0.000    0.000    0.000 
#
# Total GULP energy -67219.967992 kJ/mol
# GULP energy per Si atom -5601.663999 kJ/mol
# Density = 2.720299 g / cm^3
# Si number density = 27.265045 Si / 1000 Ang^3
#
#
#
# Elastic Constant Matrix: (Units=GPa)
#
#
# Indices 1 2 3 4 5 6 
#
# 1 85.5744 42.3333 30.0668 -13.8714 7.7055 20.3791
# 2 42.3333 172.3080 64.3456 -11.8356 6.9733 18.5961
# 3 30.0668 64.3456 141.2180 -5.4926 -19.5895 20.5693
# 4 -13.8714 -11.8356 -5.4926 42.9301 -0.0436 -8.9236
# 5 7.7055 6.9733 -19.5895 -0.0436 44.7751 -2.4865
# 6 20.3791 18.5961 20.5693 -8.9236 -2.4865 64.8152
#
#
#
# Elastic Compliance Matrix: (Units=1/GPa)
#
#
# Indices 1 2 3 4 5 6 
#
# 1 0.015105 -0.002235 -0.002075 0.003348 -0.003329 -0.003116
# 2 -0.002235 0.007784 -0.003288 0.000907 -0.002290 -0.000450
# 3 -0.002075 -0.003288 0.009919 -0.000602 0.005128 -0.001438
# 4 0.003348 0.000907 -0.000602 0.025024 -0.000829 0.002291
# 5 -0.003329 -0.002290 0.005128 -0.000829 0.025559 0.000943
# 6 -0.003116 -0.000450 -0.001438 0.002291 0.000943 0.017345
#
#
# Mechanical properties :
#
#
# Convention : Reuss Voigt Hill
#
# Bulk Modulus (GPa) = 56.78120 74.73242 65.75681
# Shear Modulus (GPa) = 41.04998 47.99440 44.52219
#
# Velocity S-wave (km/s) = 3.88440 4.20013 4.04535
# Velocity P-wave (km/s) = 6.40226 7.14077 6.78158
#
# Compressibility (1/GPa) = 0.01761146
#
# Stress axis : x y z
#
# Youngs Moduli (GPa) = 66.20244 128.46833 100.82081
#
# Poissons Ratio (x) = 0.28714 0.20924
# Poissons Ratio (y) = 0.14797 0.33147
# Poissons Ratio (z) = 0.13739 0.42237
#
# Static dielectric constant tensor:
#      x y z
#    x 2.205800 0.011820 0.045770 
#    y 0.011820 2.095460 0.032290 
#    z 0.045770 0.032290 2.127410 
# 
# From -- ./inp_files/102484.got.cif
#   From: 2010.05.17/outbox.cif.g08.bks.cpg/sg2_52_cif.got.tgz:102484.got - 2010.06.03 11:33:40.
