data_PCOD9038261
_publ_section_title
;
Structure prediction by ZEFSAII (Michael W. Deem and Ramdas Pophale) SiO2 
 PCOD9038261
Probable space group: P -1
;
_chemical_formula_sum "Si O2"
_cell_formula_units_Z 16
_cell_length_a 24.467782
_cell_length_b 17.970750
_cell_length_c 16.220106
_cell_angle_alpha 30.502124
_cell_angle_beta 18.398675
_cell_angle_gamma 18.380027
_cell_volume 653.438014
_symmetry_space_group_name_H-M "P -1"
_symmetry_group_IT_number 2
_symmetry_cell_setting 'triclinic'
loop_
_space_group_symop_operation_xyz
x,y,z
-x,-y,-z
loop_
_atom_site_type_symbol
_atom_site_label
_atom_site_fract_x
_atom_site_fract_y
_atom_site_fract_z
Si Si1 0.810428 0.617642 0.423744
Si Si2 0.292557 0.481169 0.656003
Si Si3 0.427266 0.746651 0.700717
Si Si4 0.534238 0.809143 0.162862
Si Si5 0.390772 0.484107 0.091977
Si Si6 0.660620 0.045539 0.015316
Si Si7 0.564503 0.276063 0.774014
Si Si8 0.866731 0.762294 0.350374
O O1 0.603216 0.690245 0.581658
O O2 0.871289 0.438870 0.571128
O O3 0.703509 0.819064 0.445818
O O4 0.112370 0.465991 0.096459
O O5 0.357305 0.398623 0.547614
O O6 0.485495 0.238926 0.670440
O O7 0.395601 0.578203 0.426637
O O8 0.930624 0.746285 0.935166
O O9 0.160924 0.045923 0.781549
O O10 0.324734 0.653631 0.957595
O O11 0.357727 0.839703 0.317142
O O12 0.500000 0.000000 0.000000
O O13 0.617880 0.208318 0.987398
O O14 0.500000 0.500000 0.000000
O O15 0.738725 0.068143 0.794900
O O16 0.341343 0.179255 0.342198
O O17 0.216844 0.486128 0.098119
#
# Coordination Sequence:
#
# PCOD9038261 Si02
#       8
#     2   2   2   2   2   2   2   2
#     4   9  21  42  65  96 131 182 228 277 339 394
#     4  12  27  44  70 104 136 186 223 280 345 407
#     4  11  22  39  69 104 135 170 238 282 331 404
#     4  11  27  45  66  97 139 183 226 277 346 413
#     4   9  20  38  65  99 130 170 220 283 328 383
#     4  11  23  45  71 100 139 177 231 278 337 408
#     4  11  25  46  68  98 141 183 223 277 351 400
#     4  10  23  41  67  97 140 179 224 279 343 396
#
# _framework density 24.485873000000002
#
# number of rings (size 3 to 8) (size 9 to 14) (size 15 to 20)
#    0.000    1.500    1.250    2.250    3.500    8.500 
#    0.000    0.000    0.000    0.000    0.000    0.000 
#    0.000    0.000    0.000    0.000    0.000    0.000 
#
# Total GULP energy -89326.279167 kJ/mol
# GULP energy per Si atom -5582.892448 kJ/mol
# Density = 2.443014 g / cm^3
# Si number density = 24.485873 Si / 1000 Ang^3
#
#
#
# Elastic Constant Matrix: (Units=GPa)
#
#
# Indices 1 2 3 4 5 6 
#
# 1 71.6864 50.6834 13.5095 -16.7966 12.9017 -1.5069
# 2 50.6834 102.0933 7.4928 -34.5576 16.1362 1.9703
# 3 13.5095 7.4928 73.5561 -18.4998 10.4704 -8.7362
# 4 -16.7966 -34.5576 -18.4998 34.0708 -5.5018 -1.2750
# 5 12.9017 16.1362 10.4704 -5.5018 31.6162 -8.0163
# 6 -1.5069 1.9703 -8.7362 -1.2750 -8.0163 35.0184
#
#
#
# Elastic Compliance Matrix: (Units=1/GPa)
#
#
# Indices 1 2 3 4 5 6 
#
# 1 0.022488 -0.011403 -0.003245 -0.002679 -0.002729 0.000078
# 2 -0.011403 0.022392 0.005257 0.019027 -0.005458 -0.000996
# 3 -0.003245 0.005257 0.017919 0.012927 -0.004142 0.003557
# 4 -0.002679 0.019027 0.012927 0.054050 -0.002629 0.003405
# 5 -0.002729 -0.005458 -0.004142 -0.002629 0.038435 0.007859
# 6 0.000078 -0.000996 0.003557 0.003405 0.007859 0.031426
#
#
# Mechanical properties :
#
#
# Convention : Reuss Voigt Hill
#
# Bulk Modulus (GPa) = 22.71798 43.41191 33.06495
# Shear Modulus (GPa) = 22.71029 31.85109 27.28069
#
# Velocity S-wave (km/s) = 3.04877 3.61057 3.34149
# Velocity P-wave (km/s) = 4.65741 5.92870 5.33108
#
# Compressibility (1/GPa) = 0.04401800
#
# Stress axis : x y z
#
# Youngs Moduli (GPa) = 44.46758 44.65842 55.80778
#
# Poissons Ratio (x) = 0.50924 0.18109
# Poissons Ratio (y) = 0.50706 -0.29339
# Poissons Ratio (z) = 0.14429 -0.23478
#
# Static dielectric constant tensor:
#      x y z
#    x 1.999330 -0.036250 0.024210 
#    y -0.036250 1.985880 -0.005090 
#    z 0.024210 -0.005090 1.954460 
# 
# From -- ./inp_files/543132.got.cif
#   From: 2010.05.17/outbox.cif.g08.bks.cpg/sg2_272_cif.got.tgz:543132.got - 2010.06.03 11:33:40.
