data_PCOD9038128
_publ_section_title
;
Structure prediction by ZEFSAII (Michael W. Deem and Ramdas Pophale) SiO2 
 PCOD9038128
Probable space group: P -1
;
_chemical_formula_sum "Si O2"
_cell_formula_units_Z 16
_cell_length_a 17.396852
_cell_length_b 20.593910
_cell_length_c 12.291084
_cell_angle_alpha 159.994222
_cell_angle_beta 30.369495
_cell_angle_gamma 152.608722
_cell_volume 681.655242
_symmetry_space_group_name_H-M "P -1"
_symmetry_group_IT_number 2
_symmetry_cell_setting 'triclinic'
loop_
_space_group_symop_operation_xyz
x,y,z
-x,-y,-z
loop_
_atom_site_type_symbol
_atom_site_label
_atom_site_fract_x
_atom_site_fract_y
_atom_site_fract_z
Si Si1 0.105214 0.574031 0.875083
Si Si2 0.354984 0.609087 0.466555
Si Si3 0.146231 0.361835 0.852943
Si Si4 0.712471 0.834783 0.801051
Si Si5 0.093038 0.698448 0.775151
Si Si6 0.674969 0.838063 0.288334
Si Si7 0.394960 0.844407 0.285611
Si Si8 0.029060 0.129932 0.278120
O O1 0.302487 0.655950 0.726289
O O2 0.034660 0.338336 0.545267
O O3 0.000000 0.500000 0.000000
O O4 0.016905 0.698214 0.120125
O O5 0.216826 0.643886 0.615868
O O6 0.539321 0.763258 0.434278
O O7 0.341587 0.373234 0.088432
O O8 0.255403 0.268066 0.508776
O O9 0.244837 0.618156 0.149075
O O10 0.056204 0.269380 0.930379
O O11 0.804371 0.797394 0.736245
O O12 0.516776 0.765025 0.949800
O O13 0.794263 0.087409 0.087155
O O14 0.000000 0.500000 0.500000
O O15 0.647254 0.003316 0.502585
O O16 0.868412 0.981884 0.314962
O O17 0.500000 0.000000 0.500000
O O18 0.000000 0.000000 0.000000
#
# Coordination Sequence:
#
# PCOD9038128 Si02
#       8
#     2   2   2   2   2   2   2   2
#     4  11  22  42  69  95 135 173 226 276 340 409
#     4  10  23  41  66  97 135 173 223 284 339 395
#     4  11  25  43  68  97 137 182 221 277 344 409
#     4  12  25  44  67  97 142 177 223 280 347 401
#     4  11  23  43  69 102 132 177 230 278 336 408
#     4  11  22  42  68  97 137 169 226 287 335 394
#     4  12  25  42  68 104 135 177 227 284 338 405
#     4  12  23  41  69 100 127 180 232 280 328 403
#
# _framework density 23.472276000000001
#
# number of rings (size 3 to 8) (size 9 to 14) (size 15 to 20)
#    0.000    0.750    5.000    3.000    1.750    0.000 
#    0.000    0.625    2.750    0.000    0.000    0.000 
#    0.000    0.000    0.000    0.000    0.000    0.000 
#
# Total GULP energy -89195.721702 kJ/mol
# GULP energy per Si atom -5574.732606 kJ/mol
# Density = 2.341885 g / cm^3
# Si number density = 23.472276 Si / 1000 Ang^3
#
#
#
# Elastic Constant Matrix: (Units=GPa)
#
#
# Indices 1 2 3 4 5 6 
#
# 1 33.1819 -7.6566 0.8288 -3.9394 -4.8154 -4.0953
# 2 -7.6566 113.2447 -5.5565 -18.2887 -7.4413 -8.8771
# 3 0.8288 -5.5565 75.1285 -24.0921 0.1100 5.1737
# 4 -3.9394 -18.2887 -24.0921 56.2189 -5.2636 5.8895
# 5 -4.8154 -7.4413 0.1100 -5.2636 34.2744 -3.5169
# 6 -4.0953 -8.8771 5.1737 5.8895 -3.5169 17.8886
#
#
#
# Elastic Compliance Matrix: (Units=1/GPa)
#
#
# Indices 1 2 3 4 5 6 
#
# 1 0.033761 0.004115 0.000356 0.003490 0.007191 0.009933
# 2 0.004115 0.010556 0.001772 0.004333 0.004047 0.005037
# 3 0.000356 0.001772 0.016600 0.008485 0.001025 -0.006432
# 4 0.003490 0.004333 0.008485 0.024184 0.004441 -0.006594
# 5 0.007191 0.004047 0.001025 0.004441 0.032596 0.008304
# 6 0.009933 0.005037 -0.006432 -0.006594 0.008304 0.066339
#
#
# Mechanical properties :
#
#
# Convention : Reuss Voigt Hill
#
# Bulk Modulus (GPa) = 13.62324 21.86515 17.74420
# Shear Modulus (GPa) = 25.50788 37.27234 31.39011
#
# Velocity S-wave (km/s) = 3.30013 3.98921 3.66092
# Velocity P-wave (km/s) = 4.50973 5.52756 5.04438
#
# Compressibility (1/GPa) = 0.07340397
#
# Stress axis : x y z
#
# Youngs Moduli (GPa) = 29.61978 94.73209 60.24072
#
# Poissons Ratio (x) = -0.38981 -0.02147
# Poissons Ratio (y) = -0.12188 -0.10675
# Poissons Ratio (z) = -0.01056 -0.16787
#
# Static dielectric constant tensor:
#      x y z
#    x 1.673900 -0.189670 0.041370 
#    y -0.189670 1.842990 -0.076340 
#    z 0.041370 -0.076340 1.910310 
# 
# From -- ./inp_files/467217.got.cif
#   From: 2010.05.17/outbox.cif.g08.bks.cpg/sg2_234_cif.got.tgz:467217.got - 2010.06.03 11:33:40.
