data_PCOD9038629
_publ_section_title
;
Structure prediction by ZEFSAII (Michael W. Deem and Ramdas Pophale) SiO2 
 PCOD9038629
Probable space group: P -1
;
_chemical_formula_sum "Si O2"
_cell_formula_units_Z 14
_cell_length_a 16.412935
_cell_length_b 19.657762
_cell_length_c 8.326177
_cell_angle_alpha 142.612869
_cell_angle_beta 133.949708
_cell_angle_gamma 20.854898
_cell_volume 565.910078
_symmetry_space_group_name_H-M "P -1"
_symmetry_group_IT_number 2
_symmetry_cell_setting 'triclinic'
loop_
_space_group_symop_operation_xyz
x,y,z
-x,-y,-z
loop_
_atom_site_type_symbol
_atom_site_label
_atom_site_fract_x
_atom_site_fract_y
_atom_site_fract_z
Si Si1 0.900135 0.313350 0.864744
Si Si2 0.616907 0.764464 0.883178
Si Si3 0.375083 0.823449 0.133771
Si Si4 0.793814 0.736221 0.760008
Si Si5 0.376443 0.589091 0.828159
Si Si6 0.291068 0.856007 0.707512
Si Si7 0.049742 0.703466 0.447446
O O1 0.652915 0.575396 0.079803
O O2 0.878876 0.295834 0.617729
O O3 0.028454 0.110248 0.769268
O O4 0.076761 0.265229 0.001070
O O5 0.707197 0.732847 0.778928
O O6 0.448925 0.801589 0.710672
O O7 0.837136 0.518450 0.815450
O O8 0.440453 0.012143 0.176572
O O9 0.278148 0.792768 0.018746
O O10 0.334053 0.856069 0.948263
O O11 0.225911 0.051728 0.437194
O O12 0.000000 0.500000 0.500000
O O13 0.585932 0.368764 0.580179
O O14 0.174226 0.670555 0.694530
O O15 0.500000 0.500000 0.000000
#
# Coordination Sequence:
#
# PCOD9038629 Si02
#       7
#     2   2   2   2   2   2   2
#     4  11  25  44  67 101 133 181 221 276 347 392
#     4   9  21  43  67  94 142 168 220 285 329 391
#     4  12  25  43  70 101 137 179 230 274 332 408
#     4  10  23  41  72 102 130 177 231 275 338 404
#     4  11  24  44  70 100 135 182 226 279 338 391
#     4  10  23  44  68  98 140 177 226 283 333 395
#     4  11  25  45  65  97 141 174 226 277 338 406
#
# _framework density 24.738914999999999
#
# number of rings (size 3 to 8) (size 9 to 14) (size 15 to 20)
#    0.000    1.429    2.857    1.714    6.000    5.714 
#    0.000    1.429    0.000    0.000    0.000    0.000 
#    0.000    0.000    0.000    0.000    0.000    0.000 
#
# Total GULP energy -78239.249576 kJ/mol
# GULP energy per Si atom -5588.517827 kJ/mol
# Density = 2.468261 g / cm^3
# Si number density = 24.738915 Si / 1000 Ang^3
#
#
#
# Elastic Constant Matrix: (Units=GPa)
#
#
# Indices 1 2 3 4 5 6 
#
# 1 61.9803 26.1549 10.5357 12.8070 4.5118 -4.5716
# 2 26.1549 132.0845 53.3731 52.3854 -1.8072 11.9459
# 3 10.5357 53.3731 89.1194 49.0677 -15.0819 4.0786
# 4 12.8070 52.3854 49.0677 66.0864 -10.2357 6.4056
# 5 4.5118 -1.8072 -15.0819 -10.2357 31.6172 7.5667
# 6 -4.5716 11.9459 4.0786 6.4056 7.5667 40.4326
#
#
#
# Elastic Compliance Matrix: (Units=1/GPa)
#
#
# Indices 1 2 3 4 5 6 
#
# 1 0.018606 -0.003285 -0.000053 -0.002082 -0.004563 0.004263
# 2 -0.003285 0.012542 -0.003726 -0.006666 -0.002216 -0.002230
# 3 -0.000053 -0.003726 0.020864 -0.011555 0.006082 -0.000318
# 4 -0.002082 -0.006666 -0.011555 0.030440 0.004940 -0.002847
# 5 -0.004563 -0.002216 0.006082 0.004940 0.038687 -0.008498
# 6 0.004263 -0.002230 -0.000318 -0.002847 -0.008498 0.027947
#
#
# Mechanical properties :
#
#
# Convention : Reuss Voigt Hill
#
# Bulk Modulus (GPa) = 26.39574 51.47909 38.93741
# Shear Modulus (GPa) = 28.43453 40.50191 34.46822
#
# Velocity S-wave (km/s) = 3.39394 4.05059 3.73672
# Velocity P-wave (km/s) = 5.10405 6.53686 5.86438
#
# Compressibility (1/GPa) = 0.03788490
#
# Stress axis : x y z
#
# Youngs Moduli (GPa) = 53.74517 79.73148 47.92884
#
# Poissons Ratio (x) = 0.26193 0.00254
# Poissons Ratio (y) = 0.17656 0.17857
# Poissons Ratio (z) = 0.00285 0.29706
#
# Static dielectric constant tensor:
#      x y z
#    x 1.940970 -0.020600 0.005560 
#    y -0.020600 2.048390 -0.001710 
#    z 0.005560 -0.001710 2.018090 
# 
# From -- ./inp_files/337943.got.cif
#   From: 2010.05.17/outbox.cif.g08.bks.cpg/sg2_169_cif.got.tgz:337943.got - 2010.06.03 11:33:40.
