data_PCOD9038709
_publ_section_title
;
Structure prediction by ZEFSAII (Michael W. Deem and Ramdas Pophale) SiO2 
 PCOD9038709
Probable space group: P -1
;
_chemical_formula_sum "Si O2"
_cell_formula_units_Z 14
_cell_length_a 20.195841
_cell_length_b 9.592141
_cell_length_c 10.677683
_cell_angle_alpha 117.461483
_cell_angle_beta 145.317723
_cell_angle_gamma 35.476879
_cell_volume 529.751261
_symmetry_space_group_name_H-M "P -1"
_symmetry_group_IT_number 2
_symmetry_cell_setting 'triclinic'
loop_
_space_group_symop_operation_xyz
x,y,z
-x,-y,-z
loop_
_atom_site_type_symbol
_atom_site_label
_atom_site_fract_x
_atom_site_fract_y
_atom_site_fract_z
Si Si1 0.170047 0.838909 0.366972
Si Si2 0.323458 0.157991 0.179319
Si Si3 0.512620 0.192673 0.305349
Si Si4 0.858245 0.280128 0.258488
Si Si5 0.782399 0.701097 0.338185
Si Si6 0.613704 0.279235 0.964357
Si Si7 0.086577 0.146051 0.121597
O O1 0.433947 0.504447 0.663618
O O2 0.094555 0.025855 0.207731
O O3 0.036211 0.829541 0.155520
O O4 0.092781 0.023575 0.444551
O O5 0.390458 0.188429 0.177513
O O6 0.500000 0.000000 0.500000
O O7 0.329481 0.972550 0.059251
O O8 0.078094 0.510135 0.989154
O O9 0.330780 0.483449 0.051099
O O10 0.737284 0.885721 0.446337
O O11 0.643581 0.133805 0.594351
O O12 0.820788 0.156467 0.209068
O O13 0.836566 0.465599 0.378411
O O14 0.000000 0.500000 0.500000
O O15 0.500000 0.000000 0.000000
O O16 0.500000 0.500000 0.000000
#
# Coordination Sequence:
#
# PCOD9038709 Si02
#       7
#     2   2   2   2   2   2   2
#     4  11  24  44  75 111 143 200 265 325 391 481
#     4  12  27  48  72 112 159 203 263 333 412 474
#     4  11  24  43  76 110 145 204 265 329 391 482
#     4  11  24  44  76 107 147 202 256 325 393 482
#     4  10  23  41  74 115 153 195 261 332 391 470
#     4  12  28  49  72 110 160 198 254 333 410 473
#     4  11  24  44  77 107 147 198 270 323 394 483
#
# _framework density 26.427499999999998
#
# number of rings (size 3 to 8) (size 9 to 14) (size 15 to 20)
#    0.000    0.857    4.286    1.714    6.000    4.000 
#    0.000    0.714    0.000    0.000    0.000    0.000 
#    0.000    0.000    0.000    0.000    0.000    0.000 
#
# Total GULP energy -78049.792505 kJ/mol
# GULP energy per Si atom -5574.985179 kJ/mol
# Density = 2.636735 g / cm^3
# Si number density = 26.427500 Si / 1000 Ang^3
#
#
#
# Elastic Constant Matrix: (Units=GPa)
#
#
# Indices 1 2 3 4 5 6 
#
# 1 97.4921 38.4417 2.8466 8.2932 12.9547 2.2254
# 2 38.4417 163.5884 34.8937 20.3917 3.7921 14.8524
# 3 2.8466 34.8937 166.1098 -5.6328 -4.6611 11.7743
# 4 8.2932 20.3917 -5.6328 46.5132 14.3550 8.0295
# 5 12.9547 3.7921 -4.6611 14.3550 32.5335 12.8698
# 6 2.2254 14.8524 11.7743 8.0295 12.8698 47.3377
#
#
#
# Elastic Compliance Matrix: (Units=1/GPa)
#
#
# Indices 1 2 3 4 5 6 
#
# 1 0.012044 -0.002960 0.000165 0.000523 -0.005322 0.001680
# 2 -0.002960 0.007670 -0.001470 -0.003399 0.002351 -0.001964
# 3 0.000165 -0.001470 0.006524 0.001355 0.001116 -0.001702
# 4 0.000523 -0.003399 0.001355 0.026606 -0.011038 -0.000807
# 5 -0.005322 0.002351 0.001116 -0.011038 0.041655 -0.010218
# 6 0.001680 -0.001964 -0.001702 -0.000807 -0.010218 0.025000
#
#
# Mechanical properties :
#
#
# Convention : Reuss Voigt Hill
#
# Bulk Modulus (GPa) = 56.47598 64.39491 60.43544
# Shear Modulus (GPa) = 37.33221 48.67742 43.00481
#
# Velocity S-wave (km/s) = 3.76257 4.29642 4.03833
# Velocity P-wave (km/s) = 6.34764 7.00227 6.68297
#
# Compressibility (1/GPa) = 0.01770664
#
# Stress axis : x y z
#
# Youngs Moduli (GPa) = 83.02990 130.38523 153.27735
#
# Poissons Ratio (x) = 0.38589 -0.02523
# Poissons Ratio (y) = 0.24573 0.22539
# Poissons Ratio (z) = -0.01367 0.19173
#
# Static dielectric constant tensor:
#      x y z
#    x 2.120460 -0.071160 -0.085150 
#    y -0.071160 2.116150 0.103590 
#    z -0.085150 0.103590 2.253620 
# 
# From -- ./inp_files/470096.got.cif
#   From: 2010.05.17/outbox.cif.g08.bks.cpg/sg2_236_cif.got.tgz:470096.got - 2010.06.03 11:33:40.
