data_PCOD9038847
_publ_section_title
;
Structure prediction by ZEFSAII (Michael W. Deem and Ramdas Pophale) SiO2 
 PCOD9038847
Probable space group: P -1
;
_chemical_formula_sum "Si O2"
_cell_formula_units_Z 16
_cell_length_a 18.615566
_cell_length_b 10.114737
_cell_length_c 4.947174
_cell_angle_alpha 83.426959
_cell_angle_beta 107.685441
_cell_angle_gamma 133.331046
_cell_volume 639.593377
_symmetry_space_group_name_H-M "P -1"
_symmetry_group_IT_number 2
_symmetry_cell_setting 'triclinic'
loop_
_space_group_symop_operation_xyz
x,y,z
-x,-y,-z
loop_
_atom_site_type_symbol
_atom_site_label
_atom_site_fract_x
_atom_site_fract_y
_atom_site_fract_z
Si Si1 0.047832 0.920129 0.682820
Si Si2 0.778901 0.233902 0.930641
Si Si3 0.610700 0.763615 0.325268
Si Si4 0.167106 0.417146 0.342606
Si Si5 0.426156 0.545849 0.781775
Si Si6 0.838265 0.149412 0.507883
Si Si7 0.460498 0.098167 0.374625
Si Si8 0.226791 0.322211 0.946372
O O1 0.075368 0.846906 0.500246
O O2 0.957263 0.747361 0.800506
O O3 0.152515 0.102661 0.897764
O O4 0.000000 0.000000 0.500000
O O5 0.795920 0.396035 0.768719
O O6 0.832133 0.192422 0.796689
O O7 0.654206 0.057006 0.854868
O O8 0.830954 0.268516 0.271479
O O9 0.596871 0.593425 0.436151
O O10 0.562887 0.825847 0.427957
O O11 0.730286 0.940202 0.387858
O O12 0.544282 0.676078 0.995281
O O13 0.188224 0.394064 0.679593
O O14 0.220945 0.372367 0.226450
O O15 0.435885 0.711047 0.679157
O O16 0.339053 0.425126 0.935372
O O17 0.500000 0.000000 0.500000
#
# Coordination Sequence:
#
# PCOD9038847 Si02
#       8
#     2   2   2   2   2   2   2   2
#     4  10  24  47  72 102 131 174 226 288 344 392
#     4  11  25  43  66  99 139 181 222 272 336 410
#     4  10  23  42  63  98 132 179 228 275 332 404
#     4  11  25  45  67 101 134 173 228 276 342 402
#     4  11  22  41  66  95 130 181 226 274 337 402
#     4  11  23  46  68  98 138 176 224 281 334 404
#     4  11  24  40  63  97 141 183 224 275 335 403
#     4  11  24  42  70  99 134 172 223 287 333 395
#
# _framework density 25.015892999999998
#
# number of rings (size 3 to 8) (size 9 to 14) (size 15 to 20)
#    0.000    1.250    2.500    2.250    3.500    6.500 
#    0.000    0.000    0.000    0.000    0.000    0.000 
#    0.000    0.000    0.000    0.000    0.000    0.000 
#
# Total GULP energy -89446.331147 kJ/mol
# GULP energy per Si atom -5590.395697 kJ/mol
# Density = 2.495896 g / cm^3
# Si number density = 25.015893 Si / 1000 Ang^3
#
#
#
# Elastic Constant Matrix: (Units=GPa)
#
#
# Indices 1 2 3 4 5 6 
#
# 1 136.0408 21.1772 3.6699 6.6771 -7.9048 13.0839
# 2 21.1772 139.5218 0.3823 -3.6772 4.7502 13.3174
# 3 3.6699 0.3823 60.1479 -8.4066 -1.0665 -2.2939
# 4 6.6771 -3.6772 -8.4066 13.2145 -9.1888 -5.4706
# 5 -7.9048 4.7502 -1.0665 -9.1888 23.1702 -9.2752
# 6 13.0839 13.3174 -2.2939 -5.4706 -9.2752 36.6230
#
#
#
# Elastic Compliance Matrix: (Units=1/GPa)
#
#
# Indices 1 2 3 4 5 6 
#
# 1 0.008361 -0.000939 -0.002169 -0.010128 -0.003105 -0.005080
# 2 -0.000939 0.007793 -0.000608 -0.002690 -0.004662 -0.004119
# 3 -0.002169 -0.000608 0.022026 0.032201 0.017856 0.011708
# 4 -0.010128 -0.002690 0.032201 0.196249 0.101032 0.061516
# 5 -0.003105 -0.004662 0.017856 0.101032 0.101886 0.044818
# 6 -0.005080 -0.004119 0.011708 0.061516 0.044818 0.051891
#
#
# Mechanical properties :
#
#
# Convention : Reuss Voigt Hill
#
# Bulk Modulus (GPa) = 32.52322 42.90768 37.71545
# Shear Modulus (GPa) = 12.31875 35.30029 23.80952
#
# Velocity S-wave (km/s) = 2.22150 3.76056 3.08843
# Velocity P-wave (km/s) = 4.42824 6.00376 5.27515
#
# Compressibility (1/GPa) = 0.03074727
#
# Stress axis : x y z
#
# Youngs Moduli (GPa) = 119.60649 128.32836 45.40167
#
# Poissons Ratio (x) = 0.12055 0.09845
# Poissons Ratio (y) = 0.11235 0.02760
# Poissons Ratio (z) = 0.25937 0.07802
#
# Static dielectric constant tensor:
#      x y z
#    x 2.018390 -0.101170 0.134140 
#    y -0.101170 2.122900 -0.162510 
#    z 0.134140 -0.162510 2.122480 
# 
# From -- ./inp_files/83542.got.cif
#   From: 2010.05.17/outbox.cif.g08.bks.cpg/sg2_42_cif.got.tgz:83542.got - 2010.06.03 11:33:40.
