data_PCOD9038242
_publ_section_title
;
Structure prediction by ZEFSAII (Michael W. Deem and Ramdas Pophale) SiO2 
 PCOD9038242
Probable space group: P -1
;
_chemical_formula_sum "Si O2"
_cell_formula_units_Z 14
_cell_length_a 19.289166
_cell_length_b 13.899992
_cell_length_c 7.245951
_cell_angle_alpha 119.229431
_cell_angle_beta 116.047672
_cell_angle_gamma 17.531706
_cell_volume 508.110527
_symmetry_space_group_name_H-M "P -1"
_symmetry_group_IT_number 2
_symmetry_cell_setting 'triclinic'
loop_
_space_group_symop_operation_xyz
x,y,z
-x,-y,-z
loop_
_atom_site_type_symbol
_atom_site_label
_atom_site_fract_x
_atom_site_fract_y
_atom_site_fract_z
Si Si1 0.681344 0.632667 0.355209
Si Si2 0.706365 0.419536 0.696100
Si Si3 0.827521 0.091479 0.848215
Si Si4 0.502085 0.335898 0.719562
Si Si5 0.956339 0.287888 0.733795
Si Si6 0.778003 0.863557 0.171085
Si Si7 0.306425 0.230864 0.834657
O O1 0.489474 0.797827 0.312565
O O2 0.780543 0.528329 0.577847
O O3 0.640137 0.790414 0.320074
O O4 0.897056 0.279777 0.175506
O O5 0.771179 0.229083 0.718479
O O6 0.915821 0.218948 0.696982
O O7 0.489536 0.775843 0.875014
O O8 0.400612 0.471002 0.521822
O O9 0.735956 0.090168 0.753059
O O10 0.681728 0.350217 0.075527
O O11 0.162360 0.087206 0.710596
O O12 0.904326 0.424012 0.988964
O O13 0.745258 0.829421 0.279242
O O14 0.000000 0.500000 0.000000
O O15 0.500000 0.000000 0.000000
#
# Coordination Sequence:
#
# PCOD9038242 Si02
#       7
#     2   2   2   2   2   2   2
#     4  11  25  43  65  97 130 168 219 265 321 384
#     4  11  22  42  65  95 133 167 215 264 320 380
#     4  11  24  42  65  95 132 169 213 268 317 385
#     4  10  24  40  64  99 127 173 212 261 323 381
#     4  10  23  42  67  98 126 173 214 263 323 378
#     4  10  23  41  67  96 127 173 215 262 320 381
#     4  11  23  45  66  91 132 170 212 269 321 378
#
# _framework density 27.553061
#
# number of rings (size 3 to 8) (size 9 to 14) (size 15 to 20)
#    0.000    1.429    1.429    2.571    0.000   10.286 
#    2.571    0.000    0.000    0.000    0.000    0.000 
#    0.000    0.000    0.000    0.000    0.000    0.000 
#
# Total GULP energy -78279.697617 kJ/mol
# GULP energy per Si atom -5591.406973 kJ/mol
# Density = 2.749035 g / cm^3
# Si number density = 27.553061 Si / 1000 Ang^3
#
#
#
# Elastic Constant Matrix: (Units=GPa)
#
#
# Indices 1 2 3 4 5 6 
#
# 1 298.8004 78.8632 65.8272 -21.5663 -6.0344 -40.5186
# 2 78.8632 83.8211 9.7460 10.9968 5.6631 -15.3861
# 3 65.8272 9.7460 105.7396 12.4625 -34.9608 -19.1683
# 4 -21.5663 10.9968 12.4625 41.9796 -8.1962 -2.1511
# 5 -6.0344 5.6631 -34.9608 -8.1962 62.8878 -12.1224
# 6 -40.5186 -15.3861 -19.1683 -2.1511 -12.1224 55.2605
#
#
#
# Elastic Compliance Matrix: (Units=1/GPa)
#
#
# Indices 1 2 3 4 5 6 
#
# 1 0.006551 -0.006187 -0.003766 0.006272 0.000312 0.002087
# 2 -0.006187 0.018937 0.002783 -0.009263 -0.001775 0.000952
# 3 -0.003766 0.002783 0.015963 -0.005465 0.008555 0.005215
# 4 0.006272 -0.009263 -0.005465 0.031766 0.002924 0.002002
# 5 0.000312 -0.001775 0.008555 0.002924 0.022732 0.007803
# 6 0.002087 0.000952 0.005215 0.002002 0.007803 0.023490
#
#
# Mechanical properties :
#
#
# Convention : Reuss Voigt Hill
#
# Bulk Modulus (GPa) = 36.88250 88.58154 62.73202
# Shear Modulus (GPa) = 35.01003 54.28721 44.64862
#
# Velocity S-wave (km/s) = 3.56847 4.44360 4.02986
# Velocity P-wave (km/s) = 5.51305 7.65158 6.66860
#
# Compressibility (1/GPa) = 0.02711313
#
# Stress axis : x y z
#
# Youngs Moduli (GPa) = 152.64175 52.80593 62.64417
#
# Poissons Ratio (x) = 0.32670 0.23591
# Poissons Ratio (y) = 0.94435 -0.17436
# Poissons Ratio (z) = 0.57483 -0.14697
#
# Static dielectric constant tensor:
#      x y z
#    x 2.134170 0.070550 0.073940 
#    y 0.070550 2.254730 0.147760 
#    z 0.073940 0.147760 2.235390 
# 
# From -- ./inp_files/335503.got.cif
#   From: 2010.05.17/outbox.cif.g08.bks.cpg/sg2_168_cif.got.tgz:335503.got - 2010.06.03 11:33:40.
