data_PCOD9038537
_publ_section_title
;
Structure prediction by ZEFSAII (Michael W. Deem and Ramdas Pophale) SiO2 
 PCOD9038537
Probable space group: P -1
;
_chemical_formula_sum "Si O2"
_cell_formula_units_Z 14
_cell_length_a 9.233160
_cell_length_b 5.052791
_cell_length_c 15.540330
_cell_angle_alpha 88.534850
_cell_angle_beta 49.837103
_cell_angle_gamma 97.550788
_cell_volume 543.400886
_symmetry_space_group_name_H-M "P -1"
_symmetry_group_IT_number 2
_symmetry_cell_setting 'triclinic'
loop_
_space_group_symop_operation_xyz
x,y,z
-x,-y,-z
loop_
_atom_site_type_symbol
_atom_site_label
_atom_site_fract_x
_atom_site_fract_y
_atom_site_fract_z
Si Si1 0.610861 0.329157 0.520178
Si Si2 0.440175 0.228395 0.079350
Si Si3 0.799359 0.546228 0.616221
Si Si4 0.139030 0.292567 0.852319
Si Si5 0.262433 0.814374 0.890388
Si Si6 0.786733 0.975920 0.347741
Si Si7 0.129183 0.928530 0.310782
O O1 0.500000 0.500000 0.500000
O O2 0.651184 0.453301 0.597365
O O3 0.436482 0.071637 0.599141
O O4 0.786771 0.252530 0.398678
O O5 0.559746 0.241247 0.122156
O O6 0.220662 0.112951 0.193215
O O7 0.500000 0.500000 0.000000
O O8 0.500000 0.000000 0.000000
O O9 0.772561 0.327982 0.706451
O O10 0.000000 0.500000 0.500000
O O11 0.823974 0.855752 0.631811
O O12 0.226114 0.609934 0.824854
O O13 0.123124 0.144028 0.768801
O O14 0.266463 0.122309 0.861081
O O15 0.927278 0.257219 0.975861
O O16 0.900935 0.841461 0.380010
#
# Coordination Sequence:
#
# PCOD9038537 Si02
#       7
#     2   2   2   2   2   2   2
#     4  11  27  45  70 105 143 189 240 305 360 428
#     4  12  26  46  72 102 148 186 243 299 355 431
#     4  12  26  48  74 104 150 188 244 302 358 433
#     4  10  23  41  70  97 138 181 228 294 349 426
#     4  10  23  43  65 104 136 179 235 287 357 413
#     4  11  26  44  70 104 141 188 243 291 365 428
#     4  12  28  46  76 108 141 200 241 291 375 432
#
# _framework density 25.763666000000001
#
# number of rings (size 3 to 8) (size 9 to 14) (size 15 to 20)
#    0.000    0.857    1.429    3.857   10.000    2.286 
#    0.000    0.000    0.000    0.000    0.000    0.000 
#    0.000    0.000    0.000    0.000    0.000    0.000 
#
# Total GULP energy -78169.229406 kJ/mol
# GULP energy per Si atom -5583.516386 kJ/mol
# Density = 2.570503 g / cm^3
# Si number density = 25.763666 Si / 1000 Ang^3
#
#
#
# Elastic Constant Matrix: (Units=GPa)
#
#
# Indices 1 2 3 4 5 6 
#
# 1 133.9428 10.4800 -3.6401 14.1819 9.4114 12.7011
# 2 10.4800 128.6132 17.7899 16.2931 2.5302 8.1099
# 3 -3.6401 17.7899 100.9871 18.6010 4.3742 14.5052
# 4 14.1819 16.2931 18.6010 46.6468 6.0755 10.5280
# 5 9.4114 2.5302 4.3742 6.0755 27.7125 10.8013
# 6 12.7011 8.1099 14.5052 10.5280 10.8013 41.0820
#
#
#
# Elastic Compliance Matrix: (Units=1/GPa)
#
#
# Indices 1 2 3 4 5 6 
#
# 1 0.008040 -0.000390 0.001080 -0.002110 -0.001700 -0.001802
# 2 -0.000390 0.008265 -0.000969 -0.002270 0.000287 -0.000663
# 3 0.001080 -0.000969 0.011259 -0.003768 -0.000001 -0.003152
# 4 -0.002110 -0.002270 -0.003768 0.025496 -0.002754 -0.003379
# 5 -0.001700 0.000287 -0.000001 -0.002754 0.040982 -0.009600
# 6 -0.001802 -0.000663 -0.003152 -0.003379 -0.009600 0.029532
#
#
# Mechanical properties :
#
#
# Convention : Reuss Voigt Hill
#
# Bulk Modulus (GPa) = 37.03181 45.86694 41.44938
# Shear Modulus (GPa) = 37.55649 45.68247 41.61948
#
# Velocity S-wave (km/s) = 3.82217 4.21543 4.02361
# Velocity P-wave (km/s) = 5.82095 6.44475 6.14077
#
# Compressibility (1/GPa) = 0.02700381
#
# Stress axis : x y z
#
# Youngs Moduli (GPa) = 124.38576 120.99597 88.82058
#
# Poissons Ratio (x) = 0.04719 -0.09590
# Poissons Ratio (y) = 0.04851 0.08609
# Poissons Ratio (z) = -0.13430 0.11727
#
# Static dielectric constant tensor:
#      x y z
#    x 1.894270 -0.179280 0.158160 
#    y -0.179280 1.728940 0.242400 
#    z 0.158160 0.242400 1.710380 
# 
# From -- ./inp_files/488350.got.cif
#   From: 2010.05.17/outbox.cif.g08.bks.cpg/sg2_245_cif.got.tgz:488350.got - 2010.06.03 11:33:40.
