data_PCOD9038285
_publ_section_title
;
Structure prediction by ZEFSAII (Michael W. Deem and Ramdas Pophale) SiO2 
 PCOD9038285
Probable space group: P -1
;
_chemical_formula_sum "Si O2"
_cell_formula_units_Z 16
_cell_length_a 10.903022
_cell_length_b 5.051058
_cell_length_c 16.668264
_cell_angle_alpha 108.231433
_cell_angle_beta 64.962627
_cell_angle_gamma 67.737659
_cell_volume 635.423536
_symmetry_space_group_name_H-M "P -1"
_symmetry_group_IT_number 2
_symmetry_cell_setting 'triclinic'
loop_
_space_group_symop_operation_xyz
x,y,z
-x,-y,-z
loop_
_atom_site_type_symbol
_atom_site_label
_atom_site_fract_x
_atom_site_fract_y
_atom_site_fract_z
Si Si1 0.392637 0.414318 0.070996
Si Si2 0.743389 0.837881 0.088014
Si Si3 0.624839 0.604730 0.744272
Si Si4 0.297571 0.793064 0.560500
Si Si5 0.859443 0.126423 0.948729
Si Si6 0.795190 0.249466 0.244099
Si Si7 0.842694 0.485496 0.550371
Si Si8 0.560012 0.149901 0.617256
O O1 0.359941 0.531801 0.182995
O O2 0.225671 0.639104 0.085613
O O3 0.500000 0.500000 0.000000
O O4 0.500000 0.000000 0.000000
O O5 0.544371 0.998638 0.162673
O O6 0.777769 0.013275 0.165596
O O7 0.851826 0.424104 0.030183
O O8 0.775834 0.984957 0.012133
O O9 0.815545 0.434915 0.645792
O O10 0.570634 0.446474 0.677554
O O11 0.500000 0.500000 0.500000
O O12 0.209491 0.875906 0.677925
O O13 0.186291 0.719479 0.527339
O O14 0.330142 0.005805 0.509120
O O15 0.036932 0.807120 0.836589
O O16 0.636347 0.654227 0.320059
O O17 0.000000 0.500000 0.500000
O O18 0.662257 0.857254 0.625858
#
# Coordination Sequence:
#
# PCOD9038285 Si02
#       8
#     2   2   2   2   2   2   2   2
#     4  12  24  42  67  99 140 185 239 289 351 432
#     4  11  24  45  68 100 143 186 237 293 362 433
#     4  10  23  42  70  97 137 192 224 293 374 429
#     4   9  21  47  65 102 139 181 237 294 372 430
#     4  12  24  45  65 104 142 184 241 298 349 436
#     4  10  23  41  68 100 133 187 233 299 363 425
#     4  11  25  44  73 107 139 183 246 303 366 445
#     4   9  22  44  70  95 139 182 232 296 367 440
#
# _framework density 25.180053000000001
#
# number of rings (size 3 to 8) (size 9 to 14) (size 15 to 20)
#    0.000    1.500    2.500    1.500    5.250    6.000 
#   13.500    0.000    0.000    0.000    0.000    0.000 
#    0.000    0.000    0.000    0.000    0.000    0.000 
#
# Total GULP energy -89176.414293 kJ/mol
# GULP energy per Si atom -5573.525893 kJ/mol
# Density = 2.512274 g / cm^3
# Si number density = 25.180053 Si / 1000 Ang^3
#
#
#
# Elastic Constant Matrix: (Units=GPa)
#
#
# Indices 1 2 3 4 5 6 
#
# 1 95.4211 34.2628 76.0799 -16.8493 -12.4573 -1.4004
# 2 34.2628 76.3342 36.7276 -4.8865 -17.7274 3.9283
# 3 76.0799 36.7276 167.5856 -44.1477 -16.0459 -5.4838
# 4 -16.8493 -4.8865 -44.1477 47.3278 -5.2553 1.3196
# 5 -12.4573 -17.7274 -16.0459 -5.2553 22.7535 -8.7145
# 6 -1.4004 3.9283 -5.4838 1.3196 -8.7145 30.8539
#
#
#
# Elastic Compliance Matrix: (Units=1/GPa)
#
#
# Indices 1 2 3 4 5 6 
#
# 1 0.017808 -0.004288 -0.007163 -0.000643 0.001402 0.000504
# 2 -0.004288 0.018089 -0.000564 0.001114 0.011877 0.000709
# 3 -0.007163 -0.000564 0.013083 0.010465 0.008863 0.004128
# 4 -0.000643 0.001114 0.010465 0.032565 0.017414 0.005215
# 5 0.001402 0.011877 0.008863 0.017414 0.071770 0.019653
# 6 0.000504 0.000709 0.004128 0.005215 0.019653 0.038405
#
#
# Mechanical properties :
#
#
# Convention : Reuss Voigt Hill
#
# Bulk Modulus (GPa) = 40.08049 70.38683 55.23366
# Shear Modulus (GPa) = 22.31482 33.00508 27.65995
#
# Velocity S-wave (km/s) = 2.98016 3.62437 3.31794
# Velocity P-wave (km/s) = 5.27199 6.74751 6.05486
#
# Compressibility (1/GPa) = 0.02494979
#
# Stress axis : x y z
#
# Youngs Moduli (GPa) = 56.15543 55.28101 76.43495
#
# Poissons Ratio (x) = 0.23705 0.54753
# Poissons Ratio (y) = 0.24080 0.04309
# Poissons Ratio (z) = 0.40226 0.03117
#
# Static dielectric constant tensor:
#      x y z
#    x 2.158810 0.009460 -0.070190 
#    y 0.009460 2.223640 -0.056340 
#    z -0.070190 -0.056340 2.121770 
# 
# From -- ./inp_files/564243.got.cif
#   From: 2010.05.17/outbox.cif.g08.bks.cpg/sg2_283_cif.got.tgz:564243.got - 2010.06.03 11:33:40.
