data_PCOD9038609
_publ_section_title
;
Structure prediction by ZEFSAII (Michael W. Deem and Ramdas Pophale) SiO2 
 PCOD9038609
Probable space group: P -1
;
_chemical_formula_sum "Si O2"
_cell_formula_units_Z 16
_cell_length_a 14.085195
_cell_length_b 4.957729
_cell_length_c 9.419459
_cell_angle_alpha 87.352778
_cell_angle_beta 107.103856
_cell_angle_gamma 70.530763
_cell_volume 585.088591
_symmetry_space_group_name_H-M "P -1"
_symmetry_group_IT_number 2
_symmetry_cell_setting 'triclinic'
loop_
_space_group_symop_operation_xyz
x,y,z
-x,-y,-z
loop_
_atom_site_type_symbol
_atom_site_label
_atom_site_fract_x
_atom_site_fract_y
_atom_site_fract_z
Si Si1 0.744705 0.216608 0.434981
Si Si2 0.455204 0.299602 0.393455
Si Si3 0.932000 0.273505 0.257932
Si Si4 0.941006 0.362060 0.647821
Si Si5 0.296515 0.263253 0.760341
Si Si6 0.858770 0.357360 0.922441
Si Si7 0.715646 0.158809 0.727353
Si Si8 0.628202 0.825978 0.897722
O O1 0.849973 0.288798 0.524309
O O2 0.666993 0.537755 0.338867
O O3 0.727714 0.051217 0.574916
O O4 0.732280 0.994975 0.316607
O O5 0.500000 0.500000 0.500000
O O6 0.330302 0.497411 0.339915
O O7 0.463233 0.247645 0.227331
O O8 0.500000 0.000000 0.500000
O O9 0.814806 0.492569 0.240509
O O10 0.018089 0.377880 0.371413
O O11 0.937652 0.290316 0.089540
O O12 0.957994 0.937942 0.307495
O O13 0.902053 0.422819 0.792111
O O14 0.372947 0.154009 0.933819
O O15 0.822409 0.091172 0.865543
O O16 0.747509 0.589921 0.926085
O O17 0.635362 0.091975 0.800306
#
# Coordination Sequence:
#
# PCOD9038609 Si02
#       8
#     2   2   2   2   2   2   2   2
#     4  11  26  42  63  90 128 171 215 261 319 372
#     4  11  22  40  70 107 134 154 198 257 310 364
#     4  11  23  37  58  84 121 165 217 272 325 371
#     4  11  23  37  58  84 121 165 217 272 325 371
#     4  11  26  42  63  90 128 171 215 261 319 372
#     4   9  22  34  60  89 124 158 218 267 324 358
#     4  10  23  41  71  97 126 164 216 254 304 380
#     4  10  23  41  71  97 126 164 216 254 304 380
#
# _framework density 27.346288000000001
#
# number of rings (size 3 to 8) (size 9 to 14) (size 15 to 20)
#    0.000    1.500    1.250    2.250   17.500    3.000 
#    0.000    0.000    0.000    4.500    0.000    0.000 
#    0.000    0.000    0.000    0.000    0.000    0.000 
#
# Total GULP energy -89272.629429 kJ/mol
# GULP energy per Si atom -5579.539339 kJ/mol
# Density = 2.728405 g / cm^3
# Si number density = 27.346288 Si / 1000 Ang^3
#
#
#
# Elastic Constant Matrix: (Units=GPa)
#
#
# Indices 1 2 3 4 5 6 
#
# 1 65.7845 26.8225 26.3255 2.0885 14.8049 10.6362
# 2 26.8225 141.9153 72.0220 4.7293 15.3033 24.8783
# 3 26.3255 72.0220 261.2933 16.4351 12.4474 17.7028
# 4 2.0885 4.7293 16.4351 39.0694 4.1281 -0.7690
# 5 14.8049 15.3033 12.4474 4.1281 35.2855 0.2078
# 6 10.6362 24.8783 17.7028 -0.7690 0.2078 40.5305
#
#
#
# Elastic Compliance Matrix: (Units=1/GPa)
#
#
# Indices 1 2 3 4 5 6 
#
# 1 0.018265 -0.001740 -0.000834 0.000219 -0.006621 -0.003323
# 2 -0.001740 0.009459 -0.002003 -0.000019 -0.002637 -0.004461
# 3 -0.000834 -0.002003 0.004617 -0.001644 -0.000214 -0.000599
# 4 0.000219 -0.000019 -0.001644 0.026578 -0.002620 0.001190
# 5 -0.006621 -0.002637 -0.000214 -0.002620 0.032625 0.003233
# 6 -0.003323 -0.004461 -0.000599 0.001190 0.003233 0.028551
#
#
# Mechanical properties :
#
#
# Convention : Reuss Voigt Hill
#
# Bulk Modulus (GPa) = 43.12604 79.92590 61.52597
# Shear Modulus (GPa) = 36.50250 45.89862 41.20056
#
# Velocity S-wave (km/s) = 3.65749 4.10130 3.88574
# Velocity P-wave (km/s) = 5.80008 7.19155 6.53296
#
# Compressibility (1/GPa) = 0.02318784
#
# Stress axis : x y z
#
# Youngs Moduli (GPa) = 54.75101 105.72108 216.57190
#
# Poissons Ratio (x) = 0.18392 0.18060
# Poissons Ratio (y) = 0.09525 0.43376
# Poissons Ratio (z) = 0.04566 0.21174
#
# Static dielectric constant tensor:
#      x y z
#    x 2.352150 -0.011030 -0.110670 
#    y -0.011030 2.234110 0.047840 
#    z -0.110670 0.047840 2.262970 
# 
# From -- ./inp_files/321879.got.cif
#   From: 2010.05.17/outbox.cif.g08.bks.cpg/sg2_161_cif.got.tgz:321879.got - 2010.06.03 11:33:40.
