data_PCOD9038201
_publ_section_title
;
Structure prediction by ZEFSAII (Michael W. Deem and Ramdas Pophale) SiO2 
 PCOD9038201
Probable space group: P -1
;
_chemical_formula_sum "Si O2"
_cell_formula_units_Z 10
_cell_length_a 9.442251
_cell_length_b 11.605395
_cell_length_c 6.451915
_cell_angle_alpha 117.345528
_cell_angle_beta 130.668199
_cell_angle_gamma 59.950065
_cell_volume 454.555443
_symmetry_space_group_name_H-M "P -1"
_symmetry_group_IT_number 2
_symmetry_cell_setting 'triclinic'
loop_
_space_group_symop_operation_xyz
x,y,z
-x,-y,-z
loop_
_atom_site_type_symbol
_atom_site_label
_atom_site_fract_x
_atom_site_fract_y
_atom_site_fract_z
Si Si1 0.432316 0.184194 0.744105
Si Si2 0.259297 0.832033 0.654338
Si Si3 0.564673 0.345475 0.678396
Si Si4 0.092633 0.055711 0.327727
Si Si5 0.224413 0.482143 0.737020
O O1 0.543261 0.212354 0.668741
O O2 0.273410 0.108972 0.484141
O O3 0.315624 0.339238 0.825736
O O4 0.587655 0.121598 0.018400
O O5 0.374758 0.695829 0.530655
O O6 0.082329 0.826793 0.631239
O O7 0.166073 0.940524 0.477225
O O8 0.356864 0.454421 0.630292
O O9 0.726487 0.399342 0.991034
O O10 0.000000 0.000000 0.000000
O O11 0.000000 0.500000 0.500000
#
# Coordination Sequence:
#
# PCOD9038201 Si02
#       5
#     2   2   2   2   2
#     4  10  23  41  67  89 129 169 204 262 314 362
#     4  11  24  41  64  96 129 159 219 254 313 373
#     4   9  22  41  66  92 127 164 207 258 314 369
#     4  11  26  42  65  93 128 170 209 259 313 376
#     4   9  21  41  67  91 126 166 207 254 318 371
#
# _framework density 21.999516
#
# number of rings (size 3 to 8) (size 9 to 14) (size 15 to 20)
#    1.200    0.800    0.000    1.800    5.600    8.800 
#    0.000    2.000    0.000    0.000    0.000    0.000 
#    0.000    0.000    0.000    0.000    0.000    0.000 
#
# Total GULP energy -55807.369122 kJ/mol
# GULP energy per Si atom -5580.736912 kJ/mol
# Density = 2.194944 g / cm^3
# Si number density = 21.999516 Si / 1000 Ang^3
#
#
#
# Elastic Constant Matrix: (Units=GPa)
#
#
# Indices 1 2 3 4 5 6 
#
# 1 123.9191 27.2610 95.7992 19.0444 16.3999 -14.4210
# 2 27.2610 40.7401 37.3210 1.0526 0.9907 12.3261
# 3 95.7992 37.3210 145.2309 3.0907 23.9487 -2.2161
# 4 19.0444 1.0526 3.0907 43.3486 0.4364 0.4636
# 5 16.3999 0.9907 23.9487 0.4364 43.9541 8.6271
# 6 -14.4210 12.3261 -2.2161 0.4636 8.6271 38.7720
#
#
#
# Elastic Compliance Matrix: (Units=1/GPa)
#
#
# Indices 1 2 3 4 5 6 
#
# 1 0.021347 -0.006561 -0.011484 -0.008475 -0.003487 0.010247
# 2 -0.006561 0.041854 -0.008353 0.002561 0.009642 -0.018400
# 3 -0.011484 -0.008353 0.017373 0.004056 -0.005125 0.000469
# 4 -0.008475 0.002561 0.004056 0.026473 0.001492 -0.004383
# 5 -0.003487 0.009642 -0.005125 0.001492 0.028787 -0.011078
# 6 0.010247 -0.018400 0.000469 -0.004383 -0.011078 0.037997
#
#
# Mechanical properties :
#
#
# Convention : Reuss Voigt Hill
#
# Bulk Modulus (GPa) = 35.99767 70.07252 53.03509
# Shear Modulus (GPa) = 21.19666 35.18220 28.18943
#
# Velocity S-wave (km/s) = 3.10741 4.00337 3.58350
# Velocity P-wave (km/s) = 5.41046 7.30002 6.42508
#
# Compressibility (1/GPa) = 0.02777957
#
# Stress axis : x y z
#
# Youngs Moduli (GPa) = 46.84430 23.89238 57.56021
#
# Poissons Ratio (x) = 0.15676 0.66100
# Poissons Ratio (y) = 0.30734 0.48080
# Poissons Ratio (z) = 0.53794 0.19957
#
# Static dielectric constant tensor:
#      x y z
#    x 1.829110 -0.051030 -0.014020 
#    y -0.051030 1.901250 -0.009430 
#    z -0.014020 -0.009430 1.727230 
# 
# From -- ./inp_files/2516.got.cif
#   From: 2010.05.17/outbox.cif.g08.bks.cpg/sg2_2_cif.got.tgz:2516.got - 2010.06.03 11:33:40.
