data_PCOD9038006
_publ_section_title
;
Structure prediction by ZEFSAII (Michael W. Deem and Ramdas Pophale) SiO2 
 PCOD9038006
Probable space group: P -1
;
_chemical_formula_sum "Si O2"
_cell_formula_units_Z 16
_cell_length_a 11.240286
_cell_length_b 16.343726
_cell_length_c 5.374479
_cell_angle_alpha 98.276168
_cell_angle_beta 121.573514
_cell_angle_gamma 48.712768
_cell_volume 599.932237
_symmetry_space_group_name_H-M "P -1"
_symmetry_group_IT_number 2
_symmetry_cell_setting 'triclinic'
loop_
_space_group_symop_operation_xyz
x,y,z
-x,-y,-z
loop_
_atom_site_type_symbol
_atom_site_label
_atom_site_fract_x
_atom_site_fract_y
_atom_site_fract_z
Si Si1 0.009772 0.351885 0.212110
Si Si2 0.186683 0.100556 0.344572
Si Si3 0.362667 0.599158 0.091918
Si Si4 0.271829 0.924203 0.082565
Si Si5 0.169398 0.350043 0.895114
Si Si6 0.113211 0.836203 0.622219
Si Si7 0.502592 0.906486 0.873723
Si Si8 0.456641 0.710013 0.554836
O O1 0.147919 0.212035 0.305205
O O2 0.048163 0.393567 0.035168
O O3 0.796000 0.400714 0.985235
O O4 0.052376 0.386877 0.525494
O O5 0.099089 0.112946 0.522705
O O6 0.122842 0.062746 0.046129
O O7 0.395009 0.966525 0.519188
O O8 0.230832 0.720636 0.863662
O O9 0.500000 0.500000 0.000000
O O10 0.477752 0.610400 0.414168
O O11 0.404459 0.806878 0.350267
O O12 0.117403 0.921788 0.802566
O O13 0.404176 0.893732 0.976870
O O14 0.288085 0.215422 0.979757
O O15 0.345481 0.344355 0.108843
O O16 0.261041 0.783413 0.533489
O O17 0.500000 0.000000 0.000000
#
# Coordination Sequence:
#
# PCOD9038006 Si02
#       8
#     2   2   2   2   2   2   2   2
#     4  11  27  45  73 102 149 188 239 294 359 418
#     4  11  23  35  60  96 140 191 245 284 331 407
#     4  10  26  51  77 104 131 177 237 302 370 439
#     4  11  21  38  55  97 138 192 236 285 335 405
#     4  12  24  45  67 105 146 192 234 290 352 426
#     4  10  23  41  65  96 135 182 239 290 363 408
#     4  12  23  34  59  89 142 194 238 275 334 404
#     4  11  24  42  74  98 142 188 235 294 362 423
#
# _framework density 26.669678000000001
#
# number of rings (size 3 to 8) (size 9 to 14) (size 15 to 20)
#    0.000    1.000    3.750    1.875    5.250    5.500 
#    0.000    1.250    0.000    0.000    0.000    0.000 
#    0.000    0.000    0.000    0.000    0.000    0.000 
#
# Total GULP energy -89301.294979 kJ/mol
# GULP energy per Si atom -5581.330936 kJ/mol
# Density = 2.660898 g / cm^3
# Si number density = 26.669678 Si / 1000 Ang^3
#
#
#
# Elastic Constant Matrix: (Units=GPa)
#
#
# Indices 1 2 3 4 5 6 
#
# 1 147.9382 66.6532 56.0980 24.8783 -8.3745 4.6107
# 2 66.6532 76.2111 87.9327 4.0438 -4.8395 27.5172
# 3 56.0980 87.9327 59.9118 24.1057 5.4567 1.1768
# 4 24.8783 4.0438 24.1057 35.8327 1.5041 3.5546
# 5 -8.3745 -4.8395 5.4567 1.5041 45.1780 10.7991
# 6 4.6107 27.5172 1.1768 3.5546 10.7991 35.2478
#
#
#
# Elastic Compliance Matrix: (Units=1/GPa)
#
#
# Indices 1 2 3 4 5 6 
#
# 1 0.010612 -0.001958 -0.006012 -0.003199 0.002623 -0.000140
# 2 -0.001958 -0.007456 0.017013 -0.009834 -0.004794 0.007969
# 3 -0.006012 0.017013 -0.005748 0.007362 0.004614 -0.014459
# 4 -0.003199 -0.009834 0.007362 0.025824 -0.005016 0.006782
# 5 0.002623 -0.004794 0.004614 -0.005016 0.022466 -0.003132
# 6 -0.000140 0.007969 -0.014459 0.006782 -0.003132 0.022926
#
#
# Mechanical properties :
#
#
# Convention : Reuss Voigt Hill
#
# Bulk Modulus (GPa) = 64.53787 78.38098 71.45942
# Shear Modulus (GPa) = 89.76316 28.14352 58.95334
#
# Velocity S-wave (km/s) = 5.80779 3.25201 4.70670
# Velocity P-wave (km/s) = 8.32018 6.59955 7.50931
#
# Compressibility (1/GPa) = 0.01549478
#
# Stress axis : x y z
#
# Youngs Moduli (GPa) = 94.23000 -134.12433 -173.96895
#
# Poissons Ratio (x) = -0.26265 -1.04585
# Poissons Ratio (y) = 0.18453 2.95976
# Poissons Ratio (z) = 0.56648 2.28187
#
# Static dielectric constant tensor:
#      x y z
#    x 2.328190 -0.483940 0.287670 
#    y -0.483940 2.855370 -0.586670 
#    z 0.287670 -0.586670 2.186150 
# 
# From -- ./inp_files/81501.got.cif
#   From: 2010.05.17/outbox.cif.g08.bks.cpg/sg2_41_cif.got.tgz:81501.got - 2010.06.03 11:33:40.
