data_PCOD9038771
_publ_section_title
;
Structure prediction by ZEFSAII (Michael W. Deem and Ramdas Pophale) SiO2 
 PCOD9038771
Probable space group: P -1
;
_chemical_formula_sum "Si O2"
_cell_formula_units_Z 14
_cell_length_a 7.616887
_cell_length_b 21.467945
_cell_length_c 24.138384
_cell_angle_alpha 10.993800
_cell_angle_beta 45.160765
_cell_angle_gamma 46.539505
_cell_volume 533.471332
_symmetry_space_group_name_H-M "P -1"
_symmetry_group_IT_number 2
_symmetry_cell_setting 'triclinic'
loop_
_space_group_symop_operation_xyz
x,y,z
-x,-y,-z
loop_
_atom_site_type_symbol
_atom_site_label
_atom_site_fract_x
_atom_site_fract_y
_atom_site_fract_z
Si Si1 0.509414 0.111422 0.337358
Si Si2 0.267328 0.116066 0.003771
Si Si3 0.221450 0.136466 0.654239
Si Si4 0.236309 0.837147 0.537443
Si Si5 0.806380 0.621454 0.329880
Si Si6 0.931672 0.904895 0.769783
Si Si7 0.546360 0.771850 0.367192
O O1 0.788874 0.006648 0.350815
O O2 0.500000 0.000000 0.500000
O O3 0.278850 0.990622 0.455415
O O4 0.500000 0.500000 0.000000
O O5 0.226570 0.167725 0.901916
O O6 0.464923 0.398012 0.729088
O O7 0.334981 0.740832 0.326584
O O8 0.994114 0.133950 0.076094
O O9 0.471898 0.177174 0.530050
O O10 0.312789 0.050499 0.769907
O O11 0.080671 0.475489 0.395403
O O12 0.118893 0.001858 0.365066
O O13 0.114325 0.480865 0.879876
O O14 0.732074 0.764221 0.280841
O O15 0.723789 0.068187 0.712182
#
# Coordination Sequence:
#
# PCOD9038771 Si02
#       7
#     2   2   2   2   2   2   2
#     4  12  28  51  82 110 141 183 227 288 366 440
#     4  10  24  39  61  91 134 183 242 287 334 385
#     4   9  25  40  66  95 137 187 226 283 343 388
#     4  11  26  48  72 109 152 177 236 293 345 425
#     4  10  23  42  61  95 137 189 237 286 335 388
#     4  11  28  45  74 111 141 192 231 289 359 416
#     4  11  23  43  65  97 139 184 239 284 335 411
#
# _framework density 26.243210000000001
#
# number of rings (size 3 to 8) (size 9 to 14) (size 15 to 20)
#    0.857    0.571    0.000    3.000    6.000   12.000 
#    0.000    0.000    0.000    0.000    0.000    0.000 
#    0.000    0.000    0.000    0.000    0.000    0.000 
#
# Total GULP energy -78296.720981 kJ/mol
# GULP energy per Si atom -5592.622927 kJ/mol
# Density = 2.618348 g / cm^3
# Si number density = 26.243210 Si / 1000 Ang^3
#
#
#
# Elastic Constant Matrix: (Units=GPa)
#
#
# Indices 1 2 3 4 5 6 
#
# 1 137.6358 1.0154 19.1004 20.6622 11.2653 0.1966
# 2 1.0154 59.4566 4.8355 17.1266 20.4408 9.8156
# 3 19.1004 4.8355 121.4666 19.5722 21.0352 2.6321
# 4 20.6622 17.1266 19.5722 34.5316 -1.0110 0.8759
# 5 11.2653 20.4408 21.0352 -1.0110 43.2226 3.7302
# 6 0.1966 9.8156 2.6321 0.8759 3.7302 41.8453
#
#
#
# Elastic Compliance Matrix: (Units=1/GPa)
#
#
# Indices 1 2 3 4 5 6 
#
# 1 0.008602 0.003370 0.000395 -0.007155 -0.004166 -0.000335
# 2 0.003370 0.028310 0.004328 -0.018861 -0.016376 -0.005074
# 3 0.000395 0.004328 0.010708 -0.008650 -0.007491 -0.000842
# 4 -0.007155 -0.018861 -0.008650 0.047897 0.015892 0.002583
# 5 -0.004166 -0.016376 -0.007491 0.015892 0.035915 0.000798
# 6 -0.000335 -0.005074 -0.000842 0.002583 0.000798 0.025017
#
#
# Mechanical properties :
#
#
# Convention : Reuss Voigt Hill
#
# Bulk Modulus (GPa) = 15.67280 40.94017 28.30648
# Shear Modulus (GPa) = 30.95376 43.49376 37.22376
#
# Velocity S-wave (km/s) = 3.43811 4.07545 3.77027
# Velocity P-wave (km/s) = 4.66325 6.14654 5.45554
#
# Compressibility (1/GPa) = 0.06380482
#
# Stress axis : x y z
#
# Youngs Moduli (GPa) = 116.25842 35.32299 93.39242
#
# Poissons Ratio (x) = -0.11902 -0.03689
# Poissons Ratio (y) = -0.39175 -0.40422
# Poissons Ratio (z) = -0.04592 -0.15289
#
# Static dielectric constant tensor:
#      x y z
#    x 2.098520 -0.027280 -0.003980 
#    y -0.027280 2.278530 0.000650 
#    z -0.003980 0.000650 1.999500 
# 
# From -- ./inp_files/617577.got.cif
#   From: 2010.05.17/outbox.cif.g08.bks.cpg/sg2_309_cif.got.tgz:617577.got - 2010.06.03 11:33:40.
