data_PCOD9038825
_publ_section_title
;
Structure prediction by ZEFSAII (Michael W. Deem and Ramdas Pophale) SiO2 
 PCOD9038825
Probable space group: P -1
;
_chemical_formula_sum "Si O2"
_cell_formula_units_Z 16
_cell_length_a 7.076669
_cell_length_b 18.527573
_cell_length_c 21.718264
_cell_angle_alpha 17.169231
_cell_angle_beta 70.722909
_cell_angle_gamma 70.955488
_cell_volume 792.850938
_symmetry_space_group_name_H-M "P -1"
_symmetry_group_IT_number 2
_symmetry_cell_setting 'triclinic'
loop_
_space_group_symop_operation_xyz
x,y,z
-x,-y,-z
loop_
_atom_site_type_symbol
_atom_site_label
_atom_site_fract_x
_atom_site_fract_y
_atom_site_fract_z
Si Si1 0.581546 0.224378 0.727415
Si Si2 0.686452 0.125148 0.661978
Si Si3 0.611444 0.590798 0.618609
Si Si4 0.656619 0.773312 0.660728
Si Si5 0.122134 0.065811 0.614940
Si Si6 0.049631 0.502699 0.064547
Si Si7 0.780510 0.125338 0.916434
Si Si8 0.385217 0.433301 0.892964
O O1 0.500000 0.500000 0.500000
O O2 0.696248 0.134668 0.726726
O O3 0.722475 0.198094 0.793386
O O4 0.390275 0.057617 0.894533
O O5 0.525867 0.326483 0.491102
O O6 0.899319 0.159917 0.579353
O O7 0.618540 0.858506 0.866169
O O8 0.756610 0.366274 0.764997
O O9 0.469724 0.509153 0.755986
O O10 0.731141 0.817423 0.446735
O O11 0.782524 0.696943 0.769592
O O12 0.529661 0.547682 0.834607
O O13 0.500000 0.000000 0.500000
O O14 0.808655 0.841851 0.534297
O O15 0.123199 0.772074 0.854019
O O16 0.841262 0.467352 0.151476
O O17 0.000000 0.500000 0.000000
O O18 0.000000 0.000000 0.000000
#
# Coordination Sequence:
#
# PCOD9038825 Si02
#       8
#     2   2   2   2   2   2   2   2
#     4  11  24  44  66  96 129 172 217 262 318 378
#     4  11  22  42  67  92 130 169 214 268 316 374
#     4  11  22  42  65  92 130 171 211 264 321 376
#     4  11  24  43  67  95 130 169 211 261 318 387
#     4  10  25  40  64 100 125 168 216 262 319 381
#     4  11  24  43  67  96 127 167 214 264 318 380
#     4  11  26  43  65  96 133 171 216 264 319 382
#     4  10  23  42  63  94 131 165 210 265 321 377
#
# _framework density 20.180339
#
# number of rings (size 3 to 8) (size 9 to 14) (size 15 to 20)
#    0.000    1.250    2.500    2.250    1.750    9.500 
#    9.000    0.000    0.000    0.000    0.000    0.000 
#    0.000    0.000    0.000    0.000    0.000    0.000 
#
# Total GULP energy -89484.262416 kJ/mol
# GULP energy per Si atom -5592.766401 kJ/mol
# Density = 2.013441 g / cm^3
# Si number density = 20.180339 Si / 1000 Ang^3
#
#
#
# Elastic Constant Matrix: (Units=GPa)
#
#
# Indices 1 2 3 4 5 6 
#
# 1 116.1192 70.0809 65.2468 8.1911 13.7114 -4.6705
# 2 70.0809 136.3304 45.5630 -4.5074 6.0191 -1.0943
# 3 65.2468 45.5630 61.2933 0.6781 9.5106 -9.6506
# 4 8.1911 -4.5074 0.6781 20.6786 -6.1266 8.6236
# 5 13.7114 6.0191 9.5106 -6.1266 39.8713 4.0537
# 6 -4.6705 -1.0943 -9.6506 8.6236 4.0537 28.1033
#
#
#
# Elastic Compliance Matrix: (Units=1/GPa)
#
#
# Indices 1 2 3 4 5 6 
#
# 1 0.026749 -0.006405 -0.022599 -0.013241 -0.005000 0.001220
# 2 -0.006405 0.011799 -0.003206 0.007970 0.002875 -0.004566
# 3 -0.022599 -0.003206 0.045190 0.000716 -0.003628 0.011941
# 4 -0.013241 0.007970 0.000716 0.071059 0.016728 -0.025862
# 5 -0.005000 0.002875 -0.003628 0.016728 0.030978 -0.011566
# 6 0.001220 -0.004566 0.011941 -0.025862 -0.011566 0.049313
#
#
# Mechanical properties :
#
#
# Convention : Reuss Voigt Hill
#
# Bulk Modulus (GPa) = 51.76492 75.05826 63.41159
# Shear Modulus (GPa) = 16.34271 26.58744 21.46508
#
# Velocity S-wave (km/s) = 2.84884 3.63367 3.26492
# Velocity P-wave (km/s) = 6.04385 7.40805 6.76045
#
# Compressibility (1/GPa) = 0.01931810
#
# Stress axis : x y z
#
# Youngs Moduli (GPa) = 37.38455 84.75271 22.12877
#
# Poissons Ratio (x) = 0.54283 0.50009
# Poissons Ratio (y) = 0.23944 0.07095
# Poissons Ratio (z) = 0.84485 0.27174
#
# Static dielectric constant tensor:
#      x y z
#    x 1.687220 0.005460 -0.004910 
#    y 0.005460 1.697570 -0.005070 
#    z -0.004910 -0.005070 1.707950 
# 
# From -- ./inp_files/47692.got.cif
#   From: 2010.05.17/outbox.cif.g08.bks.cpg/sg2_24_cif.got.tgz:47692.got - 2010.06.03 11:33:40.
