data_PCOD9038758
_publ_section_title
;
Structure prediction by ZEFSAII (Michael W. Deem and Ramdas Pophale) SiO2 
 PCOD9038758
Probable space group: P -1
;
_chemical_formula_sum "Si O2"
_cell_formula_units_Z 16
_cell_length_a 8.685805
_cell_length_b 17.140880
_cell_length_c 8.929481
_cell_angle_alpha 61.776783
_cell_angle_beta 133.383454
_cell_angle_gamma 131.920753
_cell_volume 718.680943
_symmetry_space_group_name_H-M "P -1"
_symmetry_group_IT_number 2
_symmetry_cell_setting 'triclinic'
loop_
_space_group_symop_operation_xyz
x,y,z
-x,-y,-z
loop_
_atom_site_type_symbol
_atom_site_label
_atom_site_fract_x
_atom_site_fract_y
_atom_site_fract_z
Si Si1 0.331461 0.394450 0.081495
Si Si2 0.078137 0.298325 0.509653
Si Si3 0.119602 0.935970 0.892927
Si Si4 0.316636 0.696734 0.947082
Si Si5 0.520948 0.141281 0.847508
Si Si6 0.126073 0.209879 0.890840
Si Si7 0.314695 0.246431 0.430370
Si Si8 0.413062 0.530843 0.263605
O O1 0.446174 0.340991 0.311265
O O2 0.244025 0.437192 0.121639
O O3 0.500000 0.500000 0.000000
O O4 0.141432 0.295713 0.941962
O O5 0.975247 0.204871 0.645769
O O6 0.208211 0.275482 0.478260
O O7 0.301425 0.391314 0.673227
O O8 0.895295 0.330965 0.291466
O O9 0.916845 0.853988 0.713981
O O10 0.249060 0.053599 0.812671
O O11 0.344847 0.915126 0.072532
O O12 0.988182 0.898719 0.999041
O O13 0.323296 0.782375 0.981692
O O14 0.587380 0.748759 0.000811
O O15 0.297596 0.602943 0.117951
O O16 0.493925 0.210876 0.643796
O O17 0.500000 0.500000 0.500000
#
# Coordination Sequence:
#
# PCOD9038758 Si02
#       8
#     2   2   2   2   2   2   2   2
#     4  11  20  39  64  88 125 165 202 255 309 361
#     4  11  21  38  60  87 124 165 206 249 306 366
#     4  10  24  40  66  95 124 156 210 264 308 372
#     4  11  22  38  63  88 125 168 207 250 307 373
#     4  11  21  42  67  93 121 164 210 251 317 375
#     4  10  23  42  61  89 131 160 200 269 303 357
#     4  11  21  40  66  88 126 164 204 257 308 369
#     4  11  21  40  59  89 125 163 206 259 305 367
#
# _framework density 22.263009
#
# number of rings (size 3 to 8) (size 9 to 14) (size 15 to 20)
#    0.000    1.250    7.500    0.375    0.000    3.000 
#    0.000    4.375    0.000    0.000    0.000    0.000 
#    0.000    0.000    0.000    0.000    0.000    0.000 
#
# Total GULP energy -89120.841814 kJ/mol
# GULP energy per Si atom -5570.052613 kJ/mol
# Density = 2.221234 g / cm^3
# Si number density = 22.263009 Si / 1000 Ang^3
#
#
#
# Elastic Constant Matrix: (Units=GPa)
#
#
# Indices 1 2 3 4 5 6 
#
# 1 40.7032 3.7540 33.3060 -9.4039 -5.3929 1.2077
# 2 3.7540 67.6934 15.8752 -7.6811 -8.3050 1.0806
# 3 33.3060 15.8752 133.3943 -13.2987 -2.6837 2.7742
# 4 -9.4039 -7.6811 -13.2987 30.2845 1.9742 -2.9981
# 5 -5.3929 -8.3050 -2.6837 1.9742 40.8970 -1.5217
# 6 1.2077 1.0806 2.7742 -2.9981 -1.5217 26.3846
#
#
#
# Elastic Compliance Matrix: (Units=1/GPa)
#
#
# Indices 1 2 3 4 5 6 
#
# 1 0.032727 0.001197 -0.007553 0.006930 0.003738 0.000250
# 2 0.001197 0.015894 -0.001788 0.003420 0.003105 0.000050
# 3 -0.007553 -0.001788 0.009737 0.001482 -0.000810 -0.000483
# 4 0.006930 0.003420 0.001482 0.037043 0.000051 0.003599
# 5 0.003738 0.003105 -0.000810 0.000051 0.025567 0.001267
# 6 0.000250 0.000050 -0.000483 0.003599 0.001267 0.038420
#
#
# Mechanical properties :
#
#
# Convention : Reuss Voigt Hill
#
# Bulk Modulus (GPa) = 23.76988 38.62906 31.19947
# Shear Modulus (GPa) = 26.35771 32.10360 29.23065
#
# Velocity S-wave (km/s) = 3.44455 3.80151 3.62742
# Velocity P-wave (km/s) = 5.14975 6.05454 5.62038
#
# Compressibility (1/GPa) = 0.04207005
#
# Stress axis : x y z
#
# Youngs Moduli (GPa) = 30.55593 62.91828 102.70476
#
# Poissons Ratio (x) = -0.07533 0.77571
# Poissons Ratio (y) = -0.03659 0.18364
# Poissons Ratio (z) = 0.23078 0.11250
#
# Static dielectric constant tensor:
#      x y z
#    x 1.884340 0.057650 -0.055580 
#    y 0.057650 1.964160 -0.084810 
#    z -0.055580 -0.084810 1.861850 
# 
# From -- ./inp_files/217185.got.cif
#   From: 2010.05.17/outbox.cif.g08.bks.cpg/sg2_109_cif.got.tgz:217185.got - 2010.06.03 11:33:40.
