data_PCOD9038441
_publ_section_title
;
Structure prediction by ZEFSAII (Michael W. Deem and Ramdas Pophale) SiO2 
 PCOD9038441
Probable space group: P -1
;
_chemical_formula_sum "Si O2"
_cell_formula_units_Z 16
_cell_length_a 9.438486
_cell_length_b 21.351000
_cell_length_c 8.730928
_cell_angle_alpha 55.857479
_cell_angle_beta 51.350472
_cell_angle_gamma 30.251619
_cell_volume 691.215699
_symmetry_space_group_name_H-M "P -1"
_symmetry_group_IT_number 2
_symmetry_cell_setting 'triclinic'
loop_
_space_group_symop_operation_xyz
x,y,z
-x,-y,-z
loop_
_atom_site_type_symbol
_atom_site_label
_atom_site_fract_x
_atom_site_fract_y
_atom_site_fract_z
Si Si1 0.922365 0.696485 0.848287
Si Si2 0.126098 0.814768 0.090068
Si Si3 0.330451 0.876784 0.393956
Si Si4 0.934335 0.463203 0.460391
Si Si5 0.507052 0.056974 0.052410
Si Si6 0.431861 0.222724 0.313409
Si Si7 0.416473 0.557893 0.148160
Si Si8 0.499122 0.290428 0.725632
O O1 0.769357 0.753541 0.706550
O O2 0.270443 0.560612 0.810144
O O3 0.744618 0.686024 0.066301
O O4 0.811442 0.811108 0.846909
O O5 0.273014 0.689444 0.089305
O O6 0.236422 0.785686 0.229535
O O7 0.269438 0.841033 0.872321
O O8 0.769214 0.941717 0.144816
O O9 0.513887 0.834493 0.481486
O O10 0.399487 0.771171 0.426341
O O11 0.384427 0.905866 0.164883
O O12 0.000000 0.000000 0.500000
O O13 0.837960 0.415265 0.659707
O O14 0.671019 0.576135 0.373191
O O15 0.000000 0.500000 0.500000
O O16 0.230087 0.361475 0.300784
O O17 0.500000 0.000000 0.000000
O O18 0.500000 0.500000 0.000000
#
# Coordination Sequence:
#
# PCOD9038441 Si02
#       8
#     2   2   2   2   2   2   2   2
#     4  10  24  44  67  99 132 174 217 270 329 391
#     4  11  24  43  67  99 132 174 215 273 329 389
#     4  11  23  40  67  95 128 174 221 265 322 394
#     4  12  24  42  68  97 127 171 221 270 322 390
#     4  11  25  43  65  93 135 176 218 270 332 385
#     4  11  23  41  70  96 131 169 222 269 326 388
#     4  12  26  42  69  96 135 171 221 270 334 386
#     4  10  23  41  69  95 132 169 220 266 327 391
#
# _framework density 23.147624
#
# number of rings (size 3 to 8) (size 9 to 14) (size 15 to 20)
#    0.000    1.000    2.500    3.750    5.250    6.500 
#    0.000    0.625    0.000    0.000    0.000    0.000 
#    0.000    0.000    0.000    0.000    0.000    0.000 
#
# Total GULP energy -89318.744251 kJ/mol
# GULP energy per Si atom -5582.421516 kJ/mol
# Density = 2.309494 g / cm^3
# Si number density = 23.147624 Si / 1000 Ang^3
#
#
#
# Elastic Constant Matrix: (Units=GPa)
#
#
# Indices 1 2 3 4 5 6 
#
# 1 72.2539 2.6671 12.2048 -9.8926 11.7385 -5.7625
# 2 2.6671 89.1878 7.6321 -12.3449 3.5227 -13.0603
# 3 12.2048 7.6321 48.2504 -5.6519 10.7594 -10.7848
# 4 -9.8926 -12.3449 -5.6519 29.4374 -2.3063 10.0294
# 5 11.7385 3.5227 10.7594 -2.3063 36.1794 -0.6260
# 6 -5.7625 -13.0603 -10.7848 10.0294 -0.6260 36.8650
#
#
#
# Elastic Compliance Matrix: (Units=1/GPa)
#
#
# Indices 1 2 3 4 5 6 
#
# 1 0.015560 0.000620 -0.002455 0.004478 -0.004082 0.000646
# 2 0.000620 0.012315 -0.000735 0.004103 -0.000866 0.003114
# 3 -0.002455 -0.000735 0.024322 0.000972 -0.006198 0.006102
# 4 0.004478 0.004103 0.000972 0.040308 0.000281 -0.008524
# 5 -0.004082 -0.000866 -0.006198 0.000281 0.030870 -0.002310
# 6 0.000646 0.003114 0.006102 -0.008524 -0.002310 0.032395
#
#
# Mechanical properties :
#
#
# Convention : Reuss Voigt Hill
#
# Bulk Modulus (GPa) = 21.25039 28.30000 24.77520
# Shear Modulus (GPa) = 28.31350 32.97556 30.64453
#
# Velocity S-wave (km/s) = 3.50118 3.77845 3.64246
# Velocity P-wave (km/s) = 5.05417 5.59357 5.33070
#
# Compressibility (1/GPa) = 0.04705795
#
# Stress axis : x y z
#
# Youngs Moduli (GPa) = 64.26897 81.20351 41.11483
#
# Poissons Ratio (x) = -0.05038 0.10092
# Poissons Ratio (y) = -0.03987 0.03022
# Poissons Ratio (z) = 0.15776 0.05969
#
# Static dielectric constant tensor:
#      x y z
#    x 2.358520 0.261880 -0.112740 
#    y 0.261880 1.971700 -0.026250 
#    z -0.112740 -0.026250 1.878110 
# 
# From -- ./inp_files/222838.got.cif
#   From: 2010.05.17/outbox.cif.g08.bks.cpg/sg2_112_cif.got.tgz:222838.got - 2010.06.03 11:33:40.
