data_PCOD9038254
_publ_section_title
;
Structure prediction by ZEFSAII (Michael W. Deem and Ramdas Pophale) SiO2 
 PCOD9038254
Probable space group: P -1
;
_chemical_formula_sum "Si O2"
_cell_formula_units_Z 16
_cell_length_a 23.130990
_cell_length_b 8.244502
_cell_length_c 12.125365
_cell_angle_alpha 93.660769
_cell_angle_beta 159.296881
_cell_angle_gamma 78.460462
_cell_volume 748.507825
_symmetry_space_group_name_H-M "P -1"
_symmetry_group_IT_number 2
_symmetry_cell_setting 'triclinic'
loop_
_space_group_symop_operation_xyz
x,y,z
-x,-y,-z
loop_
_atom_site_type_symbol
_atom_site_label
_atom_site_fract_x
_atom_site_fract_y
_atom_site_fract_z
Si Si1 0.095311 0.942859 0.347272
Si Si2 0.967242 0.873900 0.523005
Si Si3 0.789613 0.586064 0.599459
Si Si4 0.897250 0.653513 0.236212
Si Si5 0.695430 0.440132 0.798801
Si Si6 0.392821 0.633841 0.600175
Si Si7 0.223709 0.577532 0.654301
Si Si8 0.232383 0.042154 0.376027
O O1 0.231326 0.743128 0.607451
O O2 0.143682 0.040596 0.336746
O O3 0.085496 0.044818 0.447520
O O4 0.914842 0.925455 0.981604
O O5 0.828821 0.816496 0.205845
O O6 0.156553 0.711261 0.872618
O O7 0.000000 0.000000 0.500000
O O8 0.694960 0.466947 0.480623
O O9 0.778301 0.563866 0.446673
O O10 0.712047 0.790524 0.511342
O O11 0.000000 0.500000 0.000000
O O12 0.000000 0.500000 0.500000
O O13 0.045582 0.653346 0.413504
O O14 0.752956 0.605590 0.912548
O O15 0.500000 0.500000 0.500000
O O16 0.697539 0.364959 0.677948
O O17 0.362333 0.835137 0.585374
O O18 0.602623 0.514803 0.966039
#
# Coordination Sequence:
#
# PCOD9038254 Si02
#       8
#     2   2   2   2   2   2   2   2
#     4  11  22  42  69  97 136 182 225 288 341 410
#     4  11  22  40  70 100 132 174 231 281 339 408
#     4  12  24  41  71 100 136 187 233 282 347 413
#     4  10  23  41  67  97 129 180 227 269 344 417
#     4  11  25  46  70  96 137 181 222 284 347 412
#     4  12  25  45  67 102 143 180 225 295 345 401
#     4  12  24  43  70  98 140 178 233 288 345 410
#     4  11  24  43  69 100 137 184 232 277 350 409
#
# _framework density 21.375861
#
# number of rings (size 3 to 8) (size 9 to 14) (size 15 to 20)
#    0.000    0.750    5.000    3.375    3.500    0.500 
#    0.000    0.625    0.000    0.000    0.000    0.000 
#    0.000    0.000    0.000    0.000    0.000    0.000 
#
# Total GULP energy -89304.844835 kJ/mol
# GULP energy per Si atom -5581.552802 kJ/mol
# Density = 2.132721 g / cm^3
# Si number density = 21.375861 Si / 1000 Ang^3
#
#
#
# Elastic Constant Matrix: (Units=GPa)
#
#
# Indices 1 2 3 4 5 6 
#
# 1 95.8121 36.4339 14.3817 11.5201 -13.4372 -19.9463
# 2 36.4339 150.2405 31.7409 4.3388 -5.1187 -19.9298
# 3 14.3817 31.7409 79.2084 2.2087 -6.1385 -3.6826
# 4 11.5201 4.3388 2.2087 27.2463 -0.6549 -11.9464
# 5 -13.4372 -5.1187 -6.1385 -0.6549 30.1196 1.0701
# 6 -19.9463 -19.9298 -3.6826 -11.9464 1.0701 36.5033
#
#
#
# Elastic Compliance Matrix: (Units=1/GPa)
#
#
# Indices 1 2 3 4 5 6 
#
# 1 0.013526 -0.002171 -0.000864 -0.002991 0.005247 0.004986
# 2 -0.002171 0.008180 -0.002779 0.001346 -0.000238 0.003447
# 3 -0.000864 -0.002779 0.014031 -0.000652 0.002018 -0.000847
# 4 -0.002991 0.001346 -0.000652 0.043635 -0.000764 0.013338
# 5 0.005247 -0.000238 0.002018 -0.000764 0.035838 0.001640
# 6 0.004986 0.003447 -0.000847 0.013338 0.001640 0.036232
#
#
# Mechanical properties :
#
#
# Convention : Reuss Voigt Hill
#
# Bulk Modulus (GPa) = 41.48093 54.48600 47.98347
# Shear Modulus (GPa) = 29.22159 34.95414 32.08786
#
# Velocity S-wave (km/s) = 3.70136 4.04817 3.87864
# Velocity P-wave (km/s) = 6.14120 6.88441 6.52340
#
# Compressibility (1/GPa) = 0.02410747
#
# Stress axis : x y z
#
# Youngs Moduli (GPa) = 73.93292 122.25039 71.27184
#
# Poissons Ratio (x) = 0.26541 0.06158
# Poissons Ratio (y) = 0.16051 0.19810
# Poissons Ratio (z) = 0.06388 0.33979
#
# Static dielectric constant tensor:
#      x y z
#    x 1.779730 0.035120 0.029610 
#    y 0.035120 1.877710 0.013560 
#    z 0.029610 0.013560 1.752060 
# 
# From -- ./inp_files/474418.got.cif
#   From: 2010.05.17/outbox.cif.g08.bks.cpg/sg2_238_cif.got.tgz:474418.got - 2010.06.03 11:33:40.
