data_PCOD9038542
_publ_section_title
;
Structure prediction by ZEFSAII (Michael W. Deem and Ramdas Pophale) SiO2 
 PCOD9038542
Probable space group: P -1
;
_chemical_formula_sum "Si O2"
_cell_formula_units_Z 14
_cell_length_a 17.794898
_cell_length_b 9.444663
_cell_length_c 23.090572
_cell_angle_alpha 153.062870
_cell_angle_beta 159.193746
_cell_angle_gamma 26.568008
_cell_volume 577.799981
_symmetry_space_group_name_H-M "P -1"
_symmetry_group_IT_number 2
_symmetry_cell_setting 'triclinic'
loop_
_space_group_symop_operation_xyz
x,y,z
-x,-y,-z
loop_
_atom_site_type_symbol
_atom_site_label
_atom_site_fract_x
_atom_site_fract_y
_atom_site_fract_z
Si Si1 0.001053 0.399285 0.052844
Si Si2 0.745701 0.798278 0.718771
Si Si3 0.326539 0.419075 0.801324
Si Si4 0.532033 0.626585 0.661791
Si Si5 0.567297 0.080600 0.014305
Si Si6 0.623346 0.244022 0.698447
Si Si7 0.923351 0.687833 0.317588
O O1 0.112093 0.227724 0.130534
O O2 0.201613 0.467510 0.190951
O O3 0.780213 0.739149 0.026456
O O4 0.892195 0.169680 0.856778
O O5 0.565978 0.616916 0.531489
O O6 0.912132 0.563089 0.703042
O O7 0.624773 0.177452 0.744454
O O8 0.335201 0.630453 0.827653
O O9 0.100127 0.479213 0.698506
O O10 0.415405 0.020163 0.706666
O O11 0.500000 0.500000 0.000000
O O12 0.503882 0.557218 0.684110
O O13 0.328388 0.182229 0.844912
O O14 0.500000 0.000000 0.000000
O O15 0.500000 0.000000 0.500000
O O16 0.000000 0.000000 0.500000
#
# Coordination Sequence:
#
# PCOD9038542 Si02
#       7
#     2   2   2   2   2   2   2
#     4  12  25  43  68 100 143 175 230 290 348 408
#     4  11  24  43  68 102 139 185 223 287 346 403
#     4  10  23  41  70  98 132 183 230 276 342 410
#     4  11  24  46  68 103 136 183 235 282 338 416
#     4  11  25  45  67 103 134 180 230 285 353 407
#     4  10  24  41  68  99 133 178 231 277 340 407
#     4  11  22  43  71  94 141 178 235 280 340 414
#
# _framework density 24.229838000000001
#
# number of rings (size 3 to 8) (size 9 to 14) (size 15 to 20)
#    0.000    1.143    2.857    3.000    8.000    1.143 
#    0.000    2.857    0.000    0.000    0.000    0.000 
#    0.000    0.000    0.000    0.000    0.000    0.000 
#
# Total GULP energy -78099.427020 kJ/mol
# GULP energy per Si atom -5578.530501 kJ/mol
# Density = 2.417469 g / cm^3
# Si number density = 24.229838 Si / 1000 Ang^3
#
#
#
# Elastic Constant Matrix: (Units=GPa)
#
#
# Indices 1 2 3 4 5 6 
#
# 1 130.2943 57.3450 35.4248 13.4609 33.4253 27.4393
# 2 57.3450 118.0877 34.3267 14.6841 14.5468 29.5300
# 3 35.4248 34.3267 148.2358 -1.8559 26.4008 15.2773
# 4 13.4609 14.6841 -1.8559 40.4270 12.9394 9.9030
# 5 33.4253 14.5468 26.4008 12.9394 45.9352 -7.7552
# 6 27.4393 29.5300 15.2773 9.9030 -7.7552 58.6600
#
#
#
# Elastic Compliance Matrix: (Units=1/GPa)
#
#
# Indices 1 2 3 4 5 6 
#
# 1 0.012819 -0.003880 0.000138 0.001586 -0.009573 -0.005613
# 2 -0.003880 0.011931 -0.001506 -0.002264 -0.000029 -0.003421
# 3 0.000138 -0.001506 0.008466 0.003508 -0.005966 -0.002892
# 4 0.001586 -0.002264 0.003508 0.030979 -0.012427 -0.007389
# 5 -0.009573 -0.000029 -0.005966 -0.012427 0.037895 0.013154
# 6 -0.005613 -0.003421 -0.002892 -0.007389 0.013154 0.025135
#
#
# Mechanical properties :
#
#
# Convention : Reuss Voigt Hill
#
# Bulk Modulus (GPa) = 44.01289 72.31231 58.16260
# Shear Modulus (GPa) = 34.41331 46.97252 40.69291
#
# Velocity S-wave (km/s) = 3.77276 4.40776 4.10256
# Velocity P-wave (km/s) = 6.09774 7.47085 6.81894
#
# Compressibility (1/GPa) = 0.02272062
#
# Stress axis : x y z
#
# Youngs Moduli (GPa) = 78.01062 83.81810 118.11548
#
# Poissons Ratio (x) = 0.32518 -0.01633
# Poissons Ratio (y) = 0.30265 0.17790
# Poissons Ratio (z) = -0.01079 0.12625
#
# Static dielectric constant tensor:
#      x y z
#    x 2.008340 0.033320 0.015160 
#    y 0.033320 2.047910 0.067750 
#    z 0.015160 0.067750 1.954750 
# 
# From -- ./inp_files/328929.got.cif
#   From: 2010.05.17/outbox.cif.g08.bks.cpg/sg2_165_cif.got.tgz:328929.got - 2010.06.03 11:33:40.
