data_PCOD9038091
_publ_section_title
;
Structure prediction by ZEFSAII (Michael W. Deem and Ramdas Pophale) SiO2 
 PCOD9038091
Probable space group: P -1
;
_chemical_formula_sum "Si O2"
_cell_formula_units_Z 14
_cell_length_a 10.296484
_cell_length_b 8.076445
_cell_length_c 15.932622
_cell_angle_alpha 41.198846
_cell_angle_beta 129.133297
_cell_angle_gamma 100.896107
_cell_volume 561.077668
_symmetry_space_group_name_H-M "P -1"
_symmetry_group_IT_number 2
_symmetry_cell_setting 'triclinic'
loop_
_space_group_symop_operation_xyz
x,y,z
-x,-y,-z
loop_
_atom_site_type_symbol
_atom_site_label
_atom_site_fract_x
_atom_site_fract_y
_atom_site_fract_z
Si Si1 0.019080 0.389480 0.169407
Si Si2 0.325612 0.073850 0.547704
Si Si3 0.637210 0.207426 0.560057
Si Si4 0.394819 0.468118 0.733423
Si Si5 0.417589 0.290786 0.065824
Si Si6 0.239259 0.177590 0.868840
Si Si7 0.042415 0.000302 0.114117
O O1 0.103647 0.315555 0.328496
O O2 0.668724 0.778394 0.024997
O O3 0.781397 0.529067 0.023737
O O4 0.043132 0.646484 0.041646
O O5 0.166542 0.076924 0.299431
O O6 0.403252 0.011243 0.698569
O O7 0.466531 0.143515 0.525635
O O8 0.574128 0.486374 0.368068
O O9 0.723274 0.200352 0.689049
O O10 0.366810 0.752312 0.660803
O O11 0.216280 0.424721 0.699876
O O12 0.590958 0.160584 0.963761
O O13 0.500000 0.500000 0.000000
O O14 0.053574 0.150842 0.818689
O O15 0.000000 0.000000 0.000000
#
# Coordination Sequence:
#
# PCOD9038091 Si02
#       7
#     2   2   2   2   2   2   2
#     4  11  24  42  69 101 130 176 219 273 323 387
#     4  11  22  44  71  97 132 170 226 272 319 391
#     4  11  23  42  70  98 130 172 229 266 325 395
#     4  10  23  41  66  93 127 178 215 277 323 381
#     4  12  25  44  67  97 134 175 218 266 336 392
#     4  11  23  42  63  93 137 169 218 272 330 386
#     4  12  23  39  65  96 135 169 212 274 326 387
#
# _framework density 24.951981
#
# number of rings (size 3 to 8) (size 9 to 14) (size 15 to 20)
#    0.000    0.857    4.286    3.857    2.000    2.286 
#    0.000    2.857    0.000    0.000    0.000    0.000 
#    0.000    0.000    0.000    0.000    0.000    0.000 
#
# Total GULP energy -78332.669775 kJ/mol
# GULP energy per Si atom -5595.190698 kJ/mol
# Density = 2.489519 g / cm^3
# Si number density = 24.951981 Si / 1000 Ang^3
#
#
#
# Elastic Constant Matrix: (Units=GPa)
#
#
# Indices 1 2 3 4 5 6 
#
# 1 65.7573 35.7029 14.5034 -16.0986 -7.1939 26.9941
# 2 35.7029 115.8805 31.8306 -25.1503 -6.2142 32.7030
# 3 14.5034 31.8306 128.1097 -4.2355 -17.6443 26.2451
# 4 -16.0986 -25.1503 -4.2355 40.4879 13.6870 -9.5821
# 5 -7.1939 -6.2142 -17.6443 13.6870 40.8210 -8.9379
# 6 26.9941 32.7030 26.2451 -9.5821 -8.9379 46.3715
#
#
#
# Elastic Compliance Matrix: (Units=1/GPa)
#
#
# Indices 1 2 3 4 5 6 
#
# 1 0.021976 -0.003113 0.000458 0.004533 -0.000099 -0.009939
# 2 -0.003113 0.012826 -0.001890 0.006151 -0.002659 -0.005405
# 3 0.000458 -0.001890 0.009496 -0.002226 0.003758 -0.004044
# 4 0.004533 0.006151 -0.002226 0.033486 -0.010640 -0.000849
# 5 -0.000099 -0.002659 0.003758 -0.010640 0.030010 0.003391
# 6 -0.009939 -0.005405 -0.004044 -0.000849 0.003391 0.033929
#
#
# Mechanical properties :
#
#
# Convention : Reuss Voigt Hill
#
# Bulk Modulus (GPa) = 28.40342 52.64684 40.52513
# Shear Modulus (GPa) = 30.76029 40.71677 35.73853
#
# Velocity S-wave (km/s) = 3.51491 4.04394 3.78867
# Velocity P-wave (km/s) = 5.28022 6.55360 5.95107
#
# Compressibility (1/GPa) = 0.03520703
#
# Stress axis : x y z
#
# Youngs Moduli (GPa) = 45.50502 77.96929 105.30732
#
# Poissons Ratio (x) = 0.24273 -0.04822
# Poissons Ratio (y) = 0.14166 0.19902
# Poissons Ratio (z) = -0.02084 0.14735
#
# Static dielectric constant tensor:
#      x y z
#    x 2.089080 -0.051760 -0.032490 
#    y -0.051760 2.033160 0.071630 
#    z -0.032490 0.071630 2.013100 
# 
# From -- ./inp_files/567810.got.cif
#   From: 2010.05.17/outbox.cif.g08.bks.cpg/sg2_284_cif.got.tgz:567810.got - 2010.06.03 11:33:40.
