data_PCOD9038962
_publ_section_title
;
Structure prediction by ZEFSAII (Michael W. Deem and Ramdas Pophale) SiO2 
 PCOD9038962
Probable space group: P -1
;
_chemical_formula_sum "Si O2"
_cell_formula_units_Z 16
_cell_length_a 19.494888
_cell_length_b 9.162610
_cell_length_c 8.080356
_cell_angle_alpha 137.487715
_cell_angle_beta 98.515820
_cell_angle_gamma 58.702563
_cell_volume 761.364992
_symmetry_space_group_name_H-M "P -1"
_symmetry_group_IT_number 2
_symmetry_cell_setting 'triclinic'
loop_
_space_group_symop_operation_xyz
x,y,z
-x,-y,-z
loop_
_atom_site_type_symbol
_atom_site_label
_atom_site_fract_x
_atom_site_fract_y
_atom_site_fract_z
Si Si1 0.835240 0.699500 0.765177
Si Si2 0.716605 0.662211 0.465138
Si Si3 0.326429 0.699981 0.709786
Si Si4 0.143991 0.781917 0.441870
Si Si5 0.400549 0.726286 0.101874
Si Si6 0.287700 0.869481 0.495668
Si Si7 0.162447 0.514631 0.906548
Si Si8 0.984218 0.658374 0.953432
O O1 0.787614 0.705948 0.588259
O O2 0.828882 0.493762 0.696502
O O3 0.930798 0.616107 0.766597
O O4 0.768813 0.008650 0.060975
O O5 0.688955 0.525870 0.464183
O O6 0.772827 0.465784 0.167120
O O7 0.630104 0.964649 0.646890
O O8 0.352842 0.733234 0.564552
O O9 0.381845 0.672351 0.865498
O O10 0.221485 0.800514 0.448453
O O11 0.075521 0.028217 0.744473
O O12 0.116373 0.754182 0.227370
O O13 0.339154 0.742114 0.236288
O O14 0.500000 0.500000 0.000000
O O15 0.228253 0.201515 0.738958
O O16 0.077985 0.555594 0.834247
O O17 0.000000 0.500000 0.000000
#
# Coordination Sequence:
#
# PCOD9038962 Si02
#       8
#     2   2   2   2   2   2   2   2
#     4  11  21  37  60  85 122 162 209 254 296 353
#     4  10  23  42  65  85 124 165 198 256 309 361
#     4  11  20  43  65  90 123 163 208 247 301 377
#     4  12  19  36  62  85 118 163 213 252 296 358
#     4  10  25  43  64  99 127 150 196 257 311 376
#     4  11  21  40  67  89 121 168 207 242 310 373
#     4  11  23  37  58  92 120 167 213 253 308 353
#     4  12  21  34  56  89 125 158 214 261 294 353
#
# _framework density 21.014887999999999
#
# number of rings (size 3 to 8) (size 9 to 14) (size 15 to 20)
#    0.000    1.000    6.250    1.125    0.000    1.500 
#    0.000    3.125    0.000    0.000    0.000    0.000 
#    0.000    0.000    0.000    0.000    0.000    0.000 
#
# Total GULP energy -89148.740230 kJ/mol
# GULP energy per Si atom -5571.796264 kJ/mol
# Density = 2.096706 g / cm^3
# Si number density = 21.014888 Si / 1000 Ang^3
#
#
#
# Elastic Constant Matrix: (Units=GPa)
#
#
# Indices 1 2 3 4 5 6 
#
# 1 43.1899 24.5376 23.0094 8.7764 -0.5261 -9.0069
# 2 24.5376 89.0118 15.4470 3.9094 -0.7446 -12.5579
# 3 23.0094 15.4470 55.1712 8.1153 2.3043 -5.8414
# 4 8.7764 3.9094 8.1153 25.9914 -2.5316 6.3629
# 5 -0.5261 -0.7446 2.3043 -2.5316 20.1525 -2.2310
# 6 -9.0069 -12.5579 -5.8414 6.3629 -2.2310 33.0952
#
#
#
# Elastic Compliance Matrix: (Units=1/GPa)
#
#
# Indices 1 2 3 4 5 6 
#
# 1 0.036343 -0.006613 -0.011214 -0.009411 0.001615 0.007321
# 2 -0.006613 0.013678 -0.000690 -0.000366 0.000741 0.003389
# 3 -0.011214 -0.000690 0.023927 -0.004282 -0.003426 0.001502
# 4 -0.009411 -0.000366 -0.004282 0.046459 0.004730 -0.012069
# 5 0.001615 0.000741 -0.003426 0.004730 0.050970 0.002642
# 6 0.007321 0.003389 0.001502 -0.012069 0.002642 0.036258
#
#
# Mechanical properties :
#
#
# Convention : Reuss Voigt Hill
#
# Bulk Modulus (GPa) = 27.08916 34.81787 30.95351
# Shear Modulus (GPa) = 19.45731 24.13975 21.79853
#
# Velocity S-wave (km/s) = 3.04613 3.39292 3.22419
# Velocity P-wave (km/s) = 5.02895 5.65273 5.34994
#
# Compressibility (1/GPa) = 0.03691513
#
# Stress axis : x y z
#
# Youngs Moduli (GPa) = 27.51537 73.11263 41.79344
#
# Poissons Ratio (x) = 0.48349 0.46866
# Poissons Ratio (y) = 0.18196 0.02883
# Poissons Ratio (z) = 0.30855 0.05043
#
# Static dielectric constant tensor:
#      x y z
#    x 1.726930 -0.025750 0.029960 
#    y -0.025750 1.862960 -0.099810 
#    z 0.029960 -0.099810 1.824500 
# 
# From -- ./inp_files/57030.got.cif
#   From: 2010.05.17/outbox.cif.g08.bks.cpg/sg2_29_cif.got.tgz:57030.got - 2010.06.03 11:33:40.
