data_PCOD9038555
_publ_section_title
;
Structure prediction by ZEFSAII (Michael W. Deem and Ramdas Pophale) SiO2 
 PCOD9038555
Probable space group: P -1
;
_chemical_formula_sum "Si O2"
_cell_formula_units_Z 16
_cell_length_a 8.850812
_cell_length_b 12.864888
_cell_length_c 12.479526
_cell_angle_alpha 131.138151
_cell_angle_beta 114.410156
_cell_angle_gamma 41.878537
_cell_volume 706.066039
_symmetry_space_group_name_H-M "P -1"
_symmetry_group_IT_number 2
_symmetry_cell_setting 'triclinic'
loop_
_space_group_symop_operation_xyz
x,y,z
-x,-y,-z
loop_
_atom_site_type_symbol
_atom_site_label
_atom_site_fract_x
_atom_site_fract_y
_atom_site_fract_z
Si Si1 0.000028 0.938807 0.078536
Si Si2 0.050500 0.600612 0.848876
Si Si3 0.178449 0.773941 0.394201
Si Si4 0.515539 0.714784 0.091784
Si Si5 0.145438 0.733307 0.600452
Si Si6 0.659672 0.598798 0.409611
Si Si7 0.154590 0.491518 0.126259
Si Si8 0.374374 0.068672 0.395392
O O1 0.267536 0.793044 0.093009
O O2 0.935171 0.815672 0.974674
O O3 0.854579 0.122497 0.236570
O O4 0.000000 0.000000 0.000000
O O5 0.281871 0.461613 0.894976
O O6 0.141982 0.528322 0.706926
O O7 0.888603 0.569553 0.820097
O O8 0.225633 0.706476 0.485160
O O9 0.414782 0.688944 0.353315
O O10 0.085141 0.690068 0.253964
O O11 0.000000 0.000000 0.500000
O O12 0.495427 0.887475 0.232915
O O13 0.593374 0.653179 0.949693
O O14 0.276494 0.538833 0.569430
O O15 0.880988 0.837533 0.593803
O O16 0.632493 0.774682 0.548752
O O17 0.000000 0.500000 0.000000
O O18 0.500000 0.000000 0.500000
#
# Coordination Sequence:
#
# PCOD9038555 Si02
#       8
#     2   2   2   2   2   2   2   2
#     4  11  23  42  69 101 137 179 233 278 341 417
#     4  11  22  41  72  94 138 176 229 279 343 399
#     4  12  28  44  72 103 137 178 235 290 345 409
#     4  10  23  41  70  99 136 176 231 283 343 402
#     4  11  26  44  67  99 143 182 227 282 354 413
#     4  12  24  43  71  96 142 184 225 285 354 410
#     4  10  25  44  67 101 139 170 225 286 347 395
#     4  11  22  41  70 103 133 178 234 286 333 414
#
# _framework density 22.660772000000001
#
# number of rings (size 3 to 8) (size 9 to 14) (size 15 to 20)
#    0.000    1.000    2.500    3.375   10.500    0.000 
#    0.000    0.625    0.000    0.000    0.000    0.000 
#    0.000    0.000    0.000    0.000    0.000    0.000 
#
# Total GULP energy -89570.632654 kJ/mol
# GULP energy per Si atom -5598.164541 kJ/mol
# Density = 2.260920 g / cm^3
# Si number density = 22.660772 Si / 1000 Ang^3
#
#
#
# Elastic Constant Matrix: (Units=GPa)
#
#
# Indices 1 2 3 4 5 6 
#
# 1 65.3378 13.5468 34.9192 20.6786 3.1548 18.8997
# 2 13.5468 85.5489 32.1414 23.0406 2.2736 15.3898
# 3 34.9192 32.1414 128.3343 35.3638 18.7448 20.7292
# 4 20.6786 23.0406 35.3638 38.1409 17.5502 11.5139
# 5 3.1548 2.2736 18.7448 17.5502 37.4376 2.5286
# 6 18.8997 15.3898 20.7292 11.5139 2.5286 31.6807
#
#
#
# Elastic Compliance Matrix: (Units=1/GPa)
#
#
# Indices 1 2 3 4 5 6 
#
# 1 0.021924 0.001708 -0.002998 -0.009617 0.004654 -0.008824
# 2 0.001708 0.015204 -0.001660 -0.009310 0.004418 -0.004288
# 3 -0.002998 -0.001660 0.011468 -0.006191 -0.002319 -0.002474
# 4 -0.009617 -0.009310 -0.006191 0.053108 -0.020192 -0.003379
# 5 0.004654 0.004418 -0.002319 -0.020192 0.036609 0.001012
# 6 -0.008824 -0.004288 -0.002474 -0.003379 0.001012 0.041678
#
#
# Mechanical properties :
#
#
# Convention : Reuss Voigt Hill
#
# Bulk Modulus (GPa) = 23.42076 48.93732 36.17904
# Shear Modulus (GPa) = 24.98467 34.69275 29.83871
#
# Velocity S-wave (km/s) = 3.32407 3.91699 3.63265
# Velocity P-wave (km/s) = 5.00903 6.48842 5.79612
#
# Compressibility (1/GPa) = 0.04269715
#
# Stress axis : x y z
#
# Youngs Moduli (GPa) = 45.61136 65.77348 87.20036
#
# Poissons Ratio (x) = -0.11236 0.26141
# Poissons Ratio (y) = -0.07792 0.14474
# Poissons Ratio (z) = 0.13674 0.10917
#
# Static dielectric constant tensor:
#      x y z
#    x 1.849060 -0.012210 -0.001110 
#    y -0.012210 1.858970 -0.027940 
#    z -0.001110 -0.027940 1.850410 
# 
# From -- ./inp_files/378021.got.cif
#   From: 2010.05.17/outbox.cif.g08.bks.cpg/sg2_190_cif.got.tgz:378021.got - 2010.06.03 11:33:40.
