data_PCOD9038590
_publ_section_title
;
Structure prediction by ZEFSAII (Michael W. Deem and Ramdas Pophale) SiO2 
 PCOD9038590
Probable space group: P -1
;
_chemical_formula_sum "Si O2"
_cell_formula_units_Z 16
_cell_length_a 5.454385
_cell_length_b 22.843388
_cell_length_c 17.335475
_cell_angle_alpha 157.907161
_cell_angle_beta 123.204168
_cell_angle_gamma 60.859446
_cell_volume 678.293568
_symmetry_space_group_name_H-M "P -1"
_symmetry_group_IT_number 2
_symmetry_cell_setting 'triclinic'
loop_
_space_group_symop_operation_xyz
x,y,z
-x,-y,-z
loop_
_atom_site_type_symbol
_atom_site_label
_atom_site_fract_x
_atom_site_fract_y
_atom_site_fract_z
Si Si1 0.182838 0.557841 0.996479
Si Si2 0.641669 0.368224 0.663676
Si Si3 0.162218 0.602067 0.869528
Si Si4 0.929283 0.046587 0.739224
Si Si5 0.451723 0.145058 0.062723
Si Si6 0.363129 0.167392 0.256338
Si Si7 0.365934 0.855474 0.478241
Si Si8 0.898582 0.417018 0.461715
O O1 0.099780 0.551949 0.884894
O O2 0.191799 0.734091 0.242996
O O3 0.500000 0.500000 0.000000
O O4 0.943304 0.429304 0.829026
O O5 0.643925 0.263397 0.459754
O O6 0.503128 0.248715 0.557748
O O7 0.461802 0.519317 0.801941
O O8 0.185706 0.787710 0.102003
O O9 0.934712 0.537628 0.686162
O O10 0.644275 0.941072 0.588204
O O11 0.134508 0.966452 0.613593
O O12 0.154501 0.091734 0.902811
O O13 0.396447 0.152317 0.152830
O O14 0.597629 0.313160 0.269564
O O15 0.662586 0.001252 0.913906
O O16 0.105418 0.282169 0.361665
O O17 0.000000 0.500000 0.500000
#
# Coordination Sequence:
#
# PCOD9038590 Si02
#       8
#     2   2   2   2   2   2   2   2
#     4  12  26  47  81 110 150 199 262 321 383 447
#     4  11  24  47  77 109 148 198 256 321 376 463
#     4  11  28  46  75 111 153 194 262 310 393 448
#     4  12  30  49  76 112 157 204 251 321 380 458
#     4  11  24  43  73 104 152 197 254 307 382 451
#     4  10  23  41  71 108 146 195 256 307 381 451
#     4  12  28  50  77 109 151 202 259 309 384 447
#     4  11  25  44  72 109 151 197 247 313 381 457
#
# _framework density 23.588608000000001
#
# number of rings (size 3 to 8) (size 9 to 14) (size 15 to 20)
#    0.000    0.750    2.500    3.000    7.000    8.000 
#    0.000    0.000    0.000    0.000    0.000    0.000 
#    0.000    0.000    0.000    0.000    0.000    0.000 
#
# Total GULP energy -89441.481501 kJ/mol
# GULP energy per Si atom -5590.092594 kJ/mol
# Density = 2.353492 g / cm^3
# Si number density = 23.588608 Si / 1000 Ang^3
#
#
#
# Elastic Constant Matrix: (Units=GPa)
#
#
# Indices 1 2 3 4 5 6 
#
# 1 89.3179 10.9986 48.6760 4.4203 10.7874 -7.3907
# 2 10.9986 56.3535 16.3866 10.3278 -7.5899 1.8378
# 3 48.6760 16.3866 142.2483 -11.6573 -4.1488 0.5551
# 4 4.4203 10.3278 -11.6573 57.8359 2.9481 -11.8370
# 5 10.7874 -7.5899 -4.1488 2.9481 42.1320 2.8008
# 6 -7.3907 1.8378 0.5551 -11.8370 2.8008 37.3802
#
#
#
# Elastic Compliance Matrix: (Units=1/GPa)
#
#
# Indices 1 2 3 4 5 6 
#
# 1 0.015188 -0.002054 -0.005193 -0.000923 -0.004922 0.003258
# 2 -0.002054 0.020274 -0.001875 -0.004730 0.004538 -0.003213
# 3 -0.005193 -0.001875 0.009274 0.002422 0.001765 -0.000438
# 4 -0.000923 -0.004730 0.002422 0.020150 -0.002224 0.006562
# 5 -0.004922 0.004538 0.001765 -0.002224 0.026402 -0.003905
# 6 0.003258 -0.003213 -0.000438 0.006562 -0.003905 0.029931
#
#
# Mechanical properties :
#
#
# Convention : Reuss Voigt Hill
#
# Bulk Modulus (GPa) = 37.74642 48.89359 43.32000
# Shear Modulus (GPa) = 33.71647 41.59352 37.65499
#
# Velocity S-wave (km/s) = 3.78478 4.20371 3.99973
# Velocity P-wave (km/s) = 5.92757 6.65839 6.30358
#
# Compressibility (1/GPa) = 0.02649258
#
# Stress axis : x y z
#
# Youngs Moduli (GPa) = 65.83930 49.32349 107.82293
#
# Poissons Ratio (x) = 0.10133 0.55988
# Poissons Ratio (y) = 0.13527 0.20220
# Poissons Ratio (z) = 0.34188 0.09249
#
# Static dielectric constant tensor:
#      x y z
#    x 1.909120 -0.068190 -0.067670 
#    y -0.068190 1.873230 -0.022990 
#    z -0.067670 -0.022990 1.904960 
# 
# From -- ./inp_files/551312.got.cif
#   From: 2010.05.17/outbox.cif.g08.bks.cpg/sg2_276_cif.got.tgz:551312.got - 2010.06.03 11:33:40.
