data_PCOD9038316
_publ_section_title
;
Structure prediction by ZEFSAII (Michael W. Deem and Ramdas Pophale) SiO2 
 PCOD9038316
Probable space group: P -1
;
_chemical_formula_sum "Si O2"
_cell_formula_units_Z 14
_cell_length_a 9.538420
_cell_length_b 12.079192
_cell_length_c 5.368107
_cell_angle_alpha 77.545154
_cell_angle_beta 99.611427
_cell_angle_gamma 85.997781
_cell_volume 591.854169
_symmetry_space_group_name_H-M "P -1"
_symmetry_group_IT_number 2
_symmetry_cell_setting 'triclinic'
loop_
_space_group_symop_operation_xyz
x,y,z
-x,-y,-z
loop_
_atom_site_type_symbol
_atom_site_label
_atom_site_fract_x
_atom_site_fract_y
_atom_site_fract_z
Si Si1 0.088298 0.197388 0.348950
Si Si2 0.367335 0.843873 0.059142
Si Si3 0.383256 0.058005 0.626637
Si Si4 0.626380 0.578457 0.526459
Si Si5 0.078994 0.462054 0.291261
Si Si6 0.472331 0.367284 0.027621
Si Si7 0.058635 0.870722 0.154748
O O1 0.242613 0.123059 0.429458
O O2 0.108934 0.326120 0.361044
O O3 0.996436 0.153570 0.572776
O O4 0.010359 0.197050 0.058167
O O5 0.519681 0.866019 0.215195
O O6 0.399075 0.725383 0.974552
O O7 0.230871 0.844638 0.198914
O O8 0.331827 0.954818 0.822528
O O9 0.500000 0.000000 0.500000
O O10 0.500000 0.500000 0.500000
O O11 0.765576 0.496257 0.679099
O O12 0.641624 0.630588 0.232141
O O13 0.583875 0.662118 0.703426
O O14 0.000000 0.500000 0.500000
O O15 0.000000 0.500000 0.000000
O O16 0.500000 0.500000 0.000000
O O17 0.000000 0.000000 0.000000
#
# Coordination Sequence:
#
# PCOD9038316 Si02
#       7
#     2   2   2   2   2   2   2
#     4  12  28  47  76 105 151 196 243 303 374 434
#     4  11  26  43  74 106 144 190 248 303 366 440
#     4  11  26  46  73 109 141 191 247 308 373 433
#     4  10  23  45  72  97 144 184 239 292 353 422
#     4  12  27  48  72 108 149 194 241 299 369 444
#     4  10  23  41  68 106 138 181 230 295 355 423
#     4  12  26  49  72 106 146 195 249 304 363 438
#
# _framework density 23.654477
#
# number of rings (size 3 to 8) (size 9 to 14) (size 15 to 20)
#    0.000    0.857    1.429    3.857    8.000    6.857 
#    0.000    0.000    0.000    0.000    0.000    0.000 
#    0.000    0.000    0.000    0.000    0.000    0.000 
#
# Total GULP energy -78300.586235 kJ/mol
# GULP energy per Si atom -5592.899017 kJ/mol
# Density = 2.360064 g / cm^3
# Si number density = 23.654477 Si / 1000 Ang^3
#
#
#
# Elastic Constant Matrix: (Units=GPa)
#
#
# Indices 1 2 3 4 5 6 
#
# 1 144.8797 30.7871 28.3864 5.2165 0.1131 -23.4543
# 2 30.7871 109.0047 10.5425 11.4768 -1.9038 -14.7733
# 3 28.3864 10.5425 129.1740 12.4851 0.0852 -11.4317
# 4 5.2165 11.4768 12.4851 39.3131 -8.7177 -4.0290
# 5 0.1131 -1.9038 0.0852 -8.7177 42.7690 2.8108
# 6 -23.4543 -14.7733 -11.4317 -4.0290 2.8108 34.2993
#
#
#
# Elastic Compliance Matrix: (Units=1/GPa)
#
#
# Indices 1 2 3 4 5 6 
#
# 1 0.008228 -0.001606 -0.001291 0.000175 -0.000354 0.004554
# 2 -0.001606 0.010305 0.000030 -0.002547 -0.000258 0.003072
# 3 -0.001291 0.000030 0.008412 -0.002475 -0.000628 0.001695
# 4 0.000175 -0.002547 -0.002475 0.028291 0.005588 0.001063
# 5 -0.000354 -0.000258 -0.000628 0.005588 0.024638 -0.001925
# 6 0.004554 0.003072 0.001695 0.001063 -0.001925 0.034440
#
#
# Mechanical properties :
#
#
# Convention : Reuss Voigt Hill
#
# Bulk Modulus (GPa) = 47.14560 58.05449 52.60005
# Shear Modulus (GPa) = 39.33374 44.16576 41.74975
#
# Velocity S-wave (km/s) = 4.08222 4.32571 4.20573
# Velocity P-wave (km/s) = 6.49566 7.03882 6.77269
#
# Compressibility (1/GPa) = 0.02121089
#
# Stress axis : x y z
#
# Youngs Moduli (GPa) = 121.54072 97.04285 118.87418
#
# Poissons Ratio (x) = 0.15590 0.15343
# Poissons Ratio (y) = 0.19525 -0.00359
# Poissons Ratio (z) = 0.15687 -0.00293
#
# Static dielectric constant tensor:
#      x y z
#    x 2.015270 0.069480 0.003490 
#    y 0.069480 1.905250 0.032010 
#    z 0.003490 0.032010 1.956460 
# 
# From -- ./inp_files/27806.got.cif
#   From: 2010.05.17/outbox.cif.g08.bks.cpg/sg2_14_cif.got.tgz:27806.got - 2010.06.03 11:33:40.
