data_PCOD9038161
_publ_section_title
;
Structure prediction by ZEFSAII (Michael W. Deem and Ramdas Pophale) SiO2 
 PCOD9038161
Probable space group: P -1
;
_chemical_formula_sum "Si O2"
_cell_formula_units_Z 15
_cell_length_a 5.424213
_cell_length_b 14.223913
_cell_length_c 22.743345
_cell_angle_alpha 158.424491
_cell_angle_beta 83.793100
_cell_angle_gamma 98.415682
_cell_volume 636.422520
_symmetry_space_group_name_H-M "P -1"
_symmetry_group_IT_number 2
_symmetry_cell_setting 'triclinic'
loop_
_space_group_symop_operation_xyz
x,y,z
-x,-y,-z
loop_
_atom_site_type_symbol
_atom_site_label
_atom_site_fract_x
_atom_site_fract_y
_atom_site_fract_z
Si Si1 0.904775 0.775320 0.954892
Si Si2 0.179355 0.504758 0.554066
Si Si3 0.834089 0.500613 0.670491
Si Si4 0.761727 0.943957 0.312977
Si Si5 0.514723 0.929823 0.723795
Si Si6 0.452298 0.076075 0.111986
Si Si7 0.000000 0.500000 0.000000
Si Si8 0.612377 0.541925 0.934036
O O1 0.904128 0.640871 0.812433
O O2 0.801264 0.589237 0.902313
O O3 0.687475 0.961006 0.066836
O O4 0.180265 0.922182 0.047079
O O5 0.396424 0.732409 0.662600
O O6 0.261954 0.221354 0.389763
O O7 0.000000 0.500000 0.500000
O O8 0.046088 0.552908 0.645960
O O9 0.600993 0.626392 0.720179
O O10 0.799023 0.193631 0.498739
O O11 0.554196 0.729194 0.220896
O O12 0.663477 0.058172 0.320840
O O13 0.985733 0.775470 0.197383
O O14 0.564128 0.223764 0.917390
O O15 0.500000 0.000000 0.000000
O O16 0.773849 0.565976 0.002686
#
# Coordination Sequence:
#
# PCOD9038161 Si02
#       8
#     2   2   2   2   2   2   1   2
#     4  11  26  48  75 111 145 194 239 300 366 448
#     4  11  23  38  64 103 134 173 229 293 364 421
#     4  11  24  43  72 104 145 186 235 301 366 433
#     4  11  25  42  68 101 138 190 238 306 354 434
#     4  10  23  41  66  99 134 181 236 296 359 430
#     4  10  23  46  75 107 148 189 237 290 371 436
#     4  10  24  48  66  96 132 192 246 300 354 416
#     4  11  26  44  73  97 142 192 246 295 366 433
#
# _framework density 23.569247000000001
#
# number of rings (size 3 to 8) (size 9 to 14) (size 15 to 20)
#    0.000    1.333    1.333    4.000    7.467    3.733 
#    0.000    0.667    0.000    0.000    0.000    0.000 
#    0.000    0.000    0.000    0.000    0.000    0.000 
#
# Total GULP energy -83599.342694 kJ/mol
# GULP energy per Si atom -5573.289513 kJ/mol
# Density = 2.351560 g / cm^3
# Si number density = 23.569247 Si / 1000 Ang^3
#
#
#
# Elastic Constant Matrix: (Units=GPa)
#
#
# Indices 1 2 3 4 5 6 
#
# 1 103.2697 28.6664 64.1597 10.7496 -27.5058 0.8106
# 2 28.6664 95.8828 40.0779 6.1546 -2.8901 27.8617
# 3 64.1597 40.0779 195.7676 11.6383 -15.0774 9.9588
# 4 10.7496 6.1546 11.6383 44.6783 5.4958 -0.2618
# 5 -27.5058 -2.8901 -15.0774 5.4958 48.2729 6.4356
# 6 0.8106 27.8617 9.9588 -0.2618 6.4356 37.8083
#
#
#
# Elastic Compliance Matrix: (Units=1/GPa)
#
#
# Indices 1 2 3 4 5 6 
#
# 1 0.015080 -0.003015 -0.003645 -0.003167 0.007424 0.001573
# 2 -0.003015 0.015157 -0.001481 -0.001075 0.000285 -0.010771
# 3 -0.003645 -0.001481 0.006683 -0.000673 0.000080 -0.000609
# 4 -0.003167 -0.001075 -0.000673 0.024107 -0.005100 0.002073
# 5 0.007424 0.000285 0.000080 -0.005100 0.026220 -0.004889
# 6 0.001573 -0.010771 -0.000609 0.002073 -0.004889 0.035360
#
#
# Mechanical properties :
#
#
# Convention : Reuss Voigt Hill
#
# Bulk Modulus (GPa) = 48.45361 73.41425 60.93393
# Shear Modulus (GPa) = 34.30103 43.61963 38.96033
#
# Velocity S-wave (km/s) = 3.81902 4.30664 4.07014
# Velocity P-wave (km/s) = 6.32844 7.47967 6.92801
#
# Compressibility (1/GPa) = 0.02063830
#
# Stress axis : x y z
#
# Youngs Moduli (GPa) = 66.31510 65.97476 149.63377
#
# Poissons Ratio (x) = 0.19890 0.54538
# Poissons Ratio (y) = 0.19993 0.22163
# Poissons Ratio (z) = 0.24170 0.09772
#
# Static dielectric constant tensor:
#      x y z
#    x 2.042220 0.051720 0.117560 
#    y 0.051720 1.978820 0.008920 
#    z 0.117560 0.008920 1.963960 
# 
# From -- ./inp_files/604779.got.cif
#   From: 2010.05.17/outbox.cif.g08.bks.cpg/sg2_303_cif.got.tgz:604779.got - 2010.06.03 11:33:40.
