data_PCOD9038722
_publ_section_title
;
Structure prediction by ZEFSAII (Michael W. Deem and Ramdas Pophale) SiO2 
 PCOD9038722
Probable space group: P -1
;
_chemical_formula_sum "Si O2"
_cell_formula_units_Z 16
_cell_length_a 18.705881
_cell_length_b 6.747499
_cell_length_c 9.132668
_cell_angle_alpha 61.074997
_cell_angle_beta 44.811791
_cell_angle_gamma 86.566576
_cell_volume 631.674388
_symmetry_space_group_name_H-M "P -1"
_symmetry_group_IT_number 2
_symmetry_cell_setting 'triclinic'
loop_
_space_group_symop_operation_xyz
x,y,z
-x,-y,-z
loop_
_atom_site_type_symbol
_atom_site_label
_atom_site_fract_x
_atom_site_fract_y
_atom_site_fract_z
Si Si1 0.167497 0.161929 0.812998
Si Si2 0.017560 0.614518 0.771750
Si Si3 0.925600 0.759364 0.375548
Si Si4 0.198276 0.407423 0.074924
Si Si5 0.351592 0.965633 0.584506
Si Si6 0.343092 0.733087 0.370342
Si Si7 0.480761 0.482417 0.861916
Si Si8 0.260872 0.049460 0.213087
O O1 0.137725 0.159517 0.685214
O O2 0.235158 0.458932 0.647264
O O3 0.250313 0.034288 0.745347
O O4 0.050209 0.998773 0.126260
O O5 0.049274 0.449809 0.669798
O O6 0.904224 0.607855 0.871395
O O7 0.000000 0.500000 0.000000
O O8 0.867111 0.119916 0.482724
O O9 0.857328 0.645516 0.663180
O O10 0.307839 0.682808 0.811399
O O11 0.236436 0.187310 0.060158
O O12 0.356337 0.916897 0.421007
O O13 0.463524 0.222653 0.376674
O O14 0.447304 0.663889 0.242740
O O15 0.319102 0.861336 0.214270
O O16 0.500000 0.500000 0.000000
O O17 0.350550 0.302981 0.075834
#
# Coordination Sequence:
#
# PCOD9038722 Si02
#       8
#     2   2   2   2   2   2   2   2
#     4  10  23  41  75 109 147 201 253 307 366 449
#     4  12  27  46  75 108 151 199 257 310 376 463
#     4  11  24  43  71 107 154 196 251 305 381 446
#     4  12  28  46  70 112 157 202 243 314 389 449
#     4  11  24  47  72 106 154 193 253 308 377 444
#     4  11  23  45  77 111 139 198 256 312 369 445
#     4  11  26  46  82 110 143 195 264 313 366 454
#     4  12  26  45  71 110 152 192 249 311 376 445
#
# _framework density 25.329505000000001
#
# number of rings (size 3 to 8) (size 9 to 14) (size 15 to 20)
#    0.000    0.750    3.750    2.625    5.250    1.500 
#    2.250    1.250    0.000    0.000    0.000    0.000 
#    0.000    0.000    0.000    0.000    0.000    0.000 
#
# Total GULP energy -89539.943668 kJ/mol
# GULP energy per Si atom -5596.246479 kJ/mol
# Density = 2.527185 g / cm^3
# Si number density = 25.329505 Si / 1000 Ang^3
#
#
#
# Elastic Constant Matrix: (Units=GPa)
#
#
# Indices 1 2 3 4 5 6 
#
# 1 120.9732 40.3063 50.5481 -20.9707 -24.6181 3.5924
# 2 40.3063 137.0570 51.4259 -29.4000 -5.4592 -2.3865
# 3 50.5481 51.4259 132.4049 -32.8150 -14.3980 5.5180
# 4 -20.9707 -29.4000 -32.8150 59.5583 12.3628 -0.7875
# 5 -24.6181 -5.4592 -14.3980 12.3628 44.6374 -17.3018
# 6 3.5924 -2.3865 5.5180 -0.7875 -17.3018 36.2470
#
#
#
# Elastic Compliance Matrix: (Units=1/GPa)
#
#
# Indices 1 2 3 4 5 6 
#
# 1 0.011287 -0.001890 -0.002974 0.000240 0.005722 0.001946
# 2 -0.001890 0.009314 -0.002334 0.002906 -0.001213 0.000640
# 3 -0.002974 -0.002334 0.010539 0.003604 -0.000075 -0.001421
# 4 0.000240 0.002906 0.003604 0.021341 -0.005188 -0.002394
# 5 0.005722 -0.001213 -0.000075 -0.005188 0.032556 0.014792
# 6 0.001946 0.000640 -0.001421 -0.002394 0.014792 0.034663
#
#
# Mechanical properties :
#
#
# Convention : Reuss Voigt Hill
#
# Bulk Modulus (GPa) = 59.72598 74.99951 67.36275
# Shear Modulus (GPa) = 35.79656 44.63219 40.21437
#
# Velocity S-wave (km/s) = 3.76338 4.20225 3.98885
# Velocity P-wave (km/s) = 6.52034 7.29514 6.91859
#
# Compressibility (1/GPa) = 0.01674313
#
# Stress axis : x y z
#
# Youngs Moduli (GPa) = 88.59616 107.36276 94.88601
#
# Poissons Ratio (x) = 0.20291 0.28222
# Poissons Ratio (y) = 0.16744 0.22150
# Poissons Ratio (z) = 0.26351 0.25062
#
# Static dielectric constant tensor:
#      x y z
#    x 2.029460 -0.072690 0.009270 
#    y -0.072690 2.134050 -0.003830 
#    z 0.009270 -0.003830 1.991400 
# 
# From -- ./inp_files/339649.got.cif
#   From: 2010.05.17/outbox.cif.g08.bks.cpg/sg2_170_cif.got.tgz:339649.got - 2010.06.03 11:33:40.
