data_PCOD9038351
_publ_section_title
;
Structure prediction by ZEFSAII (Michael W. Deem and Ramdas Pophale) SiO2 
 PCOD9038351
Probable space group: P -1
;
_chemical_formula_sum "Si O2"
_cell_formula_units_Z 12
_cell_length_a 10.554392
_cell_length_b 13.998011
_cell_length_c 10.363260
_cell_angle_alpha 44.517761
_cell_angle_beta 117.923823
_cell_angle_gamma 149.398804
_cell_volume 499.043033
_symmetry_space_group_name_H-M "P -1"
_symmetry_group_IT_number 2
_symmetry_cell_setting 'triclinic'
loop_
_space_group_symop_operation_xyz
x,y,z
-x,-y,-z
loop_
_atom_site_type_symbol
_atom_site_label
_atom_site_fract_x
_atom_site_fract_y
_atom_site_fract_z
Si Si1 0.375998 0.428948 0.787538
Si Si2 0.418060 0.767034 0.535798
Si Si3 0.156172 0.007312 0.198315
Si Si4 0.446274 0.808990 0.218508
Si Si5 0.879882 0.280033 0.389402
Si Si6 0.173463 0.128247 0.593288
O O1 0.454783 0.634293 0.694128
O O2 0.057468 0.181791 0.838230
O O3 0.552934 0.570282 0.606355
O O4 0.398084 0.304768 0.991105
O O5 0.319853 0.713690 0.394754
O O6 0.222456 0.660947 0.657723
O O7 0.703031 0.080530 0.379402
O O8 0.995788 0.944742 0.301729
O O9 0.220015 0.907727 0.368289
O O10 0.710035 0.925261 0.254180
O O11 0.203676 0.542227 0.277853
O O12 0.500000 0.000000 0.000000
O O13 0.000000 0.000000 0.500000
#
# Coordination Sequence:
#
# PCOD9038351 Si02
#       6
#     2   2   2   2   2   2
#     4  10  23  41  68  96 132 176 228 276 336 404
#     4  10  23  44  65  97 132 176 223 283 329 406
#     4  11  22  40  70  99 127 182 226 274 342 403
#     4  11  25  43  69  97 136 181 219 278 342 402
#     4  11  23  42  69  95 135 174 228 277 337 400
#     4  11  24  44  66  99 140 175 223 286 332 404
#
# _framework density 24.046021
#
# number of rings (size 3 to 8) (size 9 to 14) (size 15 to 20)
#    0.000    1.333    3.333    3.000    2.333    4.667 
#    3.000    0.000    0.000    0.000    0.000    0.000 
#    0.000    0.000    0.000    0.000    0.000    0.000 
#
# Total GULP energy -67016.949680 kJ/mol
# GULP energy per Si atom -5584.745807 kJ/mol
# Density = 2.399129 g / cm^3
# Si number density = 24.046021 Si / 1000 Ang^3
#
#
#
# Elastic Constant Matrix: (Units=GPa)
#
#
# Indices 1 2 3 4 5 6 
#
# 1 80.8075 21.9422 15.2914 -12.4523 15.5024 -5.5644
# 2 21.9422 103.1787 3.7917 -10.8293 13.7588 9.9888
# 3 15.2914 3.7917 135.9870 -5.3587 25.2941 4.7973
# 4 -12.4523 -10.8293 -5.3587 24.2968 -3.2623 6.5791
# 5 15.5024 13.7588 25.2941 -3.2623 20.6576 6.2150
# 6 -5.5644 9.9888 4.7973 6.5791 6.2150 32.0360
#
#
#
# Elastic Compliance Matrix: (Units=1/GPa)
#
#
# Indices 1 2 3 4 5 6 
#
# 1 0.016157 -0.001784 0.000533 0.004684 -0.012263 0.004700
# 2 -0.001784 0.011740 0.001354 0.004864 -0.006174 -0.003974
# 3 0.000533 0.001354 0.009738 0.001100 -0.013217 0.000550
# 4 0.004684 0.004864 0.001100 0.049565 0.003238 -0.011675
# 5 -0.012263 -0.006174 -0.013217 0.003238 0.082925 -0.014978
# 6 0.004700 -0.003974 0.000550 -0.011675 -0.014978 0.038491
#
#
# Mechanical properties :
#
#
# Convention : Reuss Voigt Hill
#
# Bulk Modulus (GPa) = 26.42665 44.66932 35.54798
# Shear Modulus (GPa) = 22.62193 33.99461 28.30827
#
# Velocity S-wave (km/s) = 3.07054 3.76404 3.43484
# Velocity P-wave (km/s) = 4.85642 6.12434 5.52686
#
# Compressibility (1/GPa) = 0.03784059
#
# Stress axis : x y z
#
# Youngs Moduli (GPa) = 61.89421 85.17815 102.68621
#
# Poissons Ratio (x) = 0.15192 -0.05471
# Poissons Ratio (y) = 0.11039 -0.13899
# Poissons Ratio (z) = -0.03298 -0.11529
#
# Static dielectric constant tensor:
#      x y z
#    x 1.943360 0.019240 0.028190 
#    y 0.019240 2.038680 0.002110 
#    z 0.028190 0.002110 1.921450 
# 
# From -- ./inp_files/231778.got.cif
#   From: 2010.05.17/outbox.cif.g08.bks.cpg/sg2_116_cif.got.tgz:231778.got - 2010.06.03 11:33:40.
