data_PCOD9038831
_publ_section_title
;
Structure prediction by ZEFSAII (Michael W. Deem and Ramdas Pophale) SiO2 
 PCOD9038831
Probable space group: P -1
;
_chemical_formula_sum "Si O2"
_cell_formula_units_Z 14
_cell_length_a 17.380160
_cell_length_b 11.754836
_cell_length_c 18.323301
_cell_angle_alpha 42.232103
_cell_angle_beta 149.796664
_cell_angle_gamma 158.034848
_cell_volume 666.260340
_symmetry_space_group_name_H-M "P -1"
_symmetry_group_IT_number 2
_symmetry_cell_setting 'triclinic'
loop_
_space_group_symop_operation_xyz
x,y,z
-x,-y,-z
loop_
_atom_site_type_symbol
_atom_site_label
_atom_site_fract_x
_atom_site_fract_y
_atom_site_fract_z
Si Si1 0.653284 0.787489 0.540537
Si Si2 0.226748 0.367040 0.823346
Si Si3 0.155870 0.325101 0.467594
Si Si4 0.731231 0.217209 0.324767
Si Si5 0.362455 0.732377 0.569516
Si Si6 0.042430 0.854364 0.132274
Si Si7 0.724750 0.218538 0.145705
O O1 0.500000 0.500000 0.500000
O O2 0.454197 0.595088 0.540419
O O3 0.624480 0.947232 0.405183
O O4 0.993817 0.090634 0.700972
O O5 0.354849 0.677153 0.768945
O O6 0.030826 0.204050 0.813693
O O7 0.500000 0.500000 0.000000
O O8 0.219062 0.445911 0.543064
O O9 0.960883 0.292854 0.290062
O O10 0.000000 0.000000 0.500000
O O11 0.649129 0.123656 0.215365
O O12 0.084299 0.552917 0.463529
O O13 0.500000 0.000000 0.500000
O O14 0.643770 0.913665 0.746936
O O15 0.838019 0.516154 0.095195
O O16 0.000000 0.000000 0.000000
O O17 0.500000 0.000000 0.000000
#
# Coordination Sequence:
#
# PCOD9038831 Si02
#       7
#     2   2   2   2   2   2   2
#     4  12  25  42  66  99 132 175 223 269 331 395
#     4  11  25  44  63  98 139 174 215 269 334 393
#     4  11  23  41  67  93 125 172 215 271 321 395
#     4  10  23  43  68  93 129 173 221 269 325 393
#     4  11  18  42  67  89 121 166 229 264 305 388
#     4  11  24  38  65  95 126 168 219 267 324 382
#     4  10  23  42  63  95 131 165 218 275 330 379
#
# _framework density 21.012806000000001
#
# number of rings (size 3 to 8) (size 9 to 14) (size 15 to 20)
#    0.000    1.143    5.714    2.143    4.000    4.571 
#    0.000    1.429    0.000    0.000    0.000    0.000 
#    0.000    0.000    0.000    0.000    0.000    0.000 
#
# Total GULP energy -78084.690644 kJ/mol
# GULP energy per Si atom -5577.477903 kJ/mol
# Density = 2.096498 g / cm^3
# Si number density = 21.012806 Si / 1000 Ang^3
#
#
#
# Elastic Constant Matrix: (Units=GPa)
#
#
# Indices 1 2 3 4 5 6 
#
# 1 91.2214 41.6723 57.9116 9.1722 10.0878 -13.7876
# 2 41.6723 159.8286 72.3023 -21.4765 1.6313 -31.5430
# 3 57.9116 72.3023 125.0144 -0.2607 -6.3712 -14.3992
# 4 9.1722 -21.4765 -0.2607 43.8630 -13.0321 -1.3180
# 5 10.0878 1.6313 -6.3712 -13.0321 32.5284 5.3065
# 6 -13.7876 -31.5430 -14.3992 -1.3180 5.3065 44.1707
#
#
#
# Elastic Compliance Matrix: (Units=1/GPa)
#
#
# Indices 1 2 3 4 5 6 
#
# 1 0.019642 -0.001685 -0.008343 -0.008302 -0.011513 0.003343
# 2 -0.001685 0.010764 -0.004748 0.005911 0.000486 0.005731
# 3 -0.008343 -0.004748 0.014725 0.001407 0.006591 -0.001944
# 4 -0.008302 0.005911 0.001407 0.031980 0.015167 0.001221
# 5 -0.011513 0.000486 0.006591 0.015167 0.042596 -0.005763
# 6 0.003343 0.005731 -0.001944 0.001221 -0.005763 0.027871
#
#
# Mechanical properties :
#
#
# Convention : Reuss Voigt Hill
#
# Bulk Modulus (GPa) = 64.19025 79.98185 72.08605
# Shear Modulus (GPa) = 27.42385 37.72430 32.57407
#
# Velocity S-wave (km/s) = 3.61654 4.24170 3.94153
# Velocity P-wave (km/s) = 6.93207 7.88260 7.42256
#
# Compressibility (1/GPa) = 0.01557869
#
# Stress axis : x y z
#
# Youngs Moduli (GPa) = 50.91075 92.90035 67.91315
#
# Poissons Ratio (x) = 0.15657 0.56662
# Poissons Ratio (y) = 0.08580 0.32242
# Poissons Ratio (z) = 0.42476 0.44105
#
# Static dielectric constant tensor:
#      x y z
#    x 1.846940 0.020250 0.008620 
#    y 0.020250 1.729160 0.006620 
#    z 0.008620 0.006620 1.871800 
# 
# From -- ./inp_files/155466.got.cif
#   From: 2010.05.17/outbox.cif.g08.bks.cpg/sg2_78_cif.got.tgz:155466.got - 2010.06.03 11:33:40.
