data_PCOD9038108
_publ_section_title
;
Structure prediction by ZEFSAII (Michael W. Deem and Ramdas Pophale) SiO2 
 PCOD9038108
Probable space group: P -1
;
_chemical_formula_sum "Si O2"
_cell_formula_units_Z 16
_cell_length_a 9.378779
_cell_length_b 14.291344
_cell_length_c 14.304451
_cell_angle_alpha 44.697037
_cell_angle_beta 41.136612
_cell_angle_gamma 39.679200
_cell_volume 765.041524
_symmetry_space_group_name_H-M "P -1"
_symmetry_group_IT_number 2
_symmetry_cell_setting 'triclinic'
loop_
_space_group_symop_operation_xyz
x,y,z
-x,-y,-z
loop_
_atom_site_type_symbol
_atom_site_label
_atom_site_fract_x
_atom_site_fract_y
_atom_site_fract_z
Si Si1 0.789266 0.403814 0.450892
Si Si2 0.272875 0.248060 0.195698
Si Si3 0.155407 0.329080 0.998783
Si Si4 0.489516 0.134351 0.351911
Si Si5 0.907768 0.525979 0.632192
Si Si6 0.983607 0.149472 0.083685
Si Si7 0.263189 0.709430 0.086335
Si Si8 0.282944 0.801434 0.220161
O O1 0.500000 0.500000 0.500000
O O2 0.824554 0.262631 0.601134
O O3 0.993639 0.341953 0.310342
O O4 0.848120 0.522188 0.392409
O O5 0.240906 0.216214 0.127435
O O6 0.434082 0.114389 0.285362
O O7 0.454131 0.323779 0.050693
O O8 0.014457 0.280185 0.028707
O O9 0.415723 0.301720 0.848015
O O10 0.000000 0.500000 0.000000
O O11 0.265452 0.296120 0.383254
O O12 0.735024 0.145938 0.236460
O O13 0.500000 0.000000 0.500000
O O14 0.756007 0.442548 0.793004
O O15 0.000000 0.500000 0.500000
O O16 0.202216 0.981039 0.128865
O O17 0.933916 0.183401 0.972542
O O18 0.202357 0.776238 0.174134
#
# Coordination Sequence:
#
# PCOD9038108 Si02
#       8
#     2   2   2   2   2   2   2   2
#     4  11  23  39  64  93 134 177 211 267 330 388
#     4   9  22  42  63  92 134 166 217 269 322 381
#     4  11  25  41  66  96 135 173 222 267 322 395
#     4  10  23  41  66  95 131 172 217 272 333 386
#     4  11  23  41  65  97 131 168 225 273 327 391
#     4  11  24  41  71  96 127 178 219 269 336 390
#     4  10  23  41  72  97 126 171 224 276 327 389
#     4  11  23  45  64  96 139 167 217 275 331 389
#
# _framework density 20.913898
#
# number of rings (size 3 to 8) (size 9 to 14) (size 15 to 20)
#    0.000    1.500    1.250    3.000    8.750    3.500 
#    0.000    2.500    0.000    0.000    0.000    0.000 
#    0.000    0.000    0.000    0.000    0.000    0.000 
#
# Total GULP energy -89239.818080 kJ/mol
# GULP energy per Si atom -5577.488630 kJ/mol
# Density = 2.086630 g / cm^3
# Si number density = 20.913898 Si / 1000 Ang^3
#
#
#
# Elastic Constant Matrix: (Units=GPa)
#
#
# Indices 1 2 3 4 5 6 
#
# 1 105.7962 3.7634 25.5947 -2.3161 -1.5973 -3.0709
# 2 3.7634 61.9310 16.9635 -8.0719 -6.4285 -8.0193
# 3 25.5947 16.9635 123.9545 0.8431 11.1395 -7.0039
# 4 -2.3161 -8.0719 0.8431 38.5770 -4.3232 -3.9752
# 5 -1.5973 -6.4285 11.1395 -4.3232 30.7049 4.0098
# 6 -3.0709 -8.0193 -7.0039 -3.9752 4.0098 27.4331
#
#
#
# Elastic Compliance Matrix: (Units=1/GPa)
#
#
# Indices 1 2 3 4 5 6 
#
# 1 0.010038 0.000350 -0.002225 0.000948 0.001460 0.000582
# 2 0.000350 0.018709 -0.002852 0.005057 0.005059 0.004774
# 3 -0.002225 -0.002852 0.009437 -0.001260 -0.004550 0.001809
# 4 0.000948 0.005057 -0.001260 0.028091 0.004918 0.004614
# 5 0.001460 0.005059 -0.004550 0.004918 0.036589 -0.004155
# 6 0.000582 0.004774 0.001809 0.004614 -0.004155 0.039651
#
#
# Mechanical properties :
#
#
# Convention : Reuss Voigt Hill
#
# Bulk Modulus (GPa) = 34.80755 42.70279 38.75517
# Shear Modulus (GPa) = 30.95095 35.70033 33.32564
#
# Velocity S-wave (km/s) = 3.85115 4.13609 3.99616
# Velocity P-wave (km/s) = 6.03776 6.57817 6.31375
#
# Compressibility (1/GPa) = 0.02872940
#
# Stress axis : x y z
#
# Youngs Moduli (GPa) = 99.62403 53.44968 105.96611
#
# Poissons Ratio (x) = -0.01871 0.23581
# Poissons Ratio (y) = -0.03487 0.30221
# Poissons Ratio (z) = 0.22170 0.15244
#
# Static dielectric constant tensor:
#      x y z
#    x 1.490770 -0.913500 -0.574870 
#    y -0.913500 0.392370 -1.207580 
#    z -0.574870 -1.207580 0.834470 
# 
# From -- ./inp_files/505221.got.cif
#   From: 2010.05.17/outbox.cif.g08.bks.cpg/sg2_253_cif.got.tgz:505221.got - 2010.06.03 11:33:40.
