data_PCOD9038483
_publ_section_title
;
Structure prediction by ZEFSAII (Michael W. Deem and Ramdas Pophale) SiO2 
 PCOD9038483
Probable space group: P -1
;
_chemical_formula_sum "Si O2"
_cell_formula_units_Z 14
_cell_length_a 6.701248
_cell_length_b 13.333891
_cell_length_c 11.423392
_cell_angle_alpha 40.401727
_cell_angle_beta 111.978891
_cell_angle_gamma 98.289860
_cell_volume 596.413599
_symmetry_space_group_name_H-M "P -1"
_symmetry_group_IT_number 2
_symmetry_cell_setting 'triclinic'
loop_
_space_group_symop_operation_xyz
x,y,z
-x,-y,-z
loop_
_atom_site_type_symbol
_atom_site_label
_atom_site_fract_x
_atom_site_fract_y
_atom_site_fract_z
Si Si1 0.847700 0.978444 0.666485
Si Si2 0.252966 0.720624 0.945255
Si Si3 0.716835 0.384289 0.525809
Si Si4 0.279158 0.374366 0.298593
Si Si5 0.893216 0.789948 0.379635
Si Si6 0.540544 0.774184 0.770348
Si Si7 0.488609 0.748405 0.203202
O O1 0.698409 0.868604 0.788638
O O2 0.042970 0.859886 0.744515
O O3 0.670133 0.099089 0.441931
O O4 0.971610 0.075394 0.692509
O O5 0.430397 0.671157 0.924753
O O6 0.177554 0.563415 0.108782
O O7 0.382032 0.785972 0.020032
O O8 0.522406 0.356266 0.423234
O O9 0.637936 0.566374 0.387348
O O10 0.706433 0.268997 0.735426
O O11 0.943093 0.343707 0.541806
O O12 0.152327 0.279592 0.441529
O O13 0.319698 0.311159 0.232366
O O14 0.658828 0.840114 0.216567
#
# Coordination Sequence:
#
# PCOD9038483 Si02
#       7
#     2   2   2   2   2   2   2
#     4  11  27  42  67  94 128 180 215 257 331 383
#     4  11  25  44  65 100 134 164 211 279 318 374
#     4   9  18  39  65  96 130 170 207 267 316 384
#     4  10  23  41  70 100 124 167 226 261 316 383
#     4  11  22  40  72  94 129 173 215 260 324 387
#     4  11  25  45  67  90 133 176 218 259 319 393
#     4   9  21  38  65  98 130 163 218 259 323 382
#
# _framework density 23.473641000000001
#
# number of rings (size 3 to 8) (size 9 to 14) (size 15 to 20)
#    0.000    1.714    1.429    2.143    6.000    4.571 
#    0.000    1.429    0.000    0.000    0.000    0.000 
#    0.000    0.000    0.000    0.000    0.000    0.000 
#
# Total GULP energy -78250.499283 kJ/mol
# GULP energy per Si atom -5589.321377 kJ/mol
# Density = 2.342021 g / cm^3
# Si number density = 23.473641 Si / 1000 Ang^3
#
#
#
# Elastic Constant Matrix: (Units=GPa)
#
#
# Indices 1 2 3 4 5 6 
#
# 1 89.2605 41.0494 21.2497 10.8498 6.4152 1.7539
# 2 41.0494 105.0023 23.8668 9.5468 4.6518 19.1717
# 3 21.2497 23.8668 35.0373 6.6908 5.4935 -3.1892
# 4 10.8498 9.5468 6.6908 22.4163 -8.2264 -0.5874
# 5 6.4152 4.6518 5.4935 -8.2264 15.6581 4.0133
# 6 1.7539 19.1717 -3.1892 -0.5874 4.0133 41.5492
#
#
#
# Elastic Compliance Matrix: (Units=1/GPa)
#
#
# Indices 1 2 3 4 5 6 
#
# 1 0.015619 -0.004625 -0.003402 -0.007570 -0.008298 0.001908
# 2 -0.004625 0.014446 -0.007684 -0.001264 0.001486 -0.007222
# 3 -0.003402 -0.007684 0.043123 -0.015807 -0.022040 0.008905
# 4 -0.007570 -0.001264 -0.015807 0.070744 0.047181 -0.003868
# 5 -0.008298 0.001486 -0.022040 0.047181 0.102222 -0.011234
# 6 0.001908 -0.007222 0.008905 -0.003868 -0.011234 0.029033
#
#
# Mechanical properties :
#
#
# Convention : Reuss Voigt Hill
#
# Bulk Modulus (GPa) = 23.94319 44.62575 34.28447
# Shear Modulus (GPa) = 15.59902 25.46700 20.53301
#
# Velocity S-wave (km/s) = 2.58065 3.29738 2.96079
# Velocity P-wave (km/s) = 4.37057 5.79217 5.13084
#
# Compressibility (1/GPa) = 0.04176553
#
# Stress axis : x y z
#
# Youngs Moduli (GPa) = 64.02395 69.22288 23.18940
#
# Poissons Ratio (x) = 0.32019 0.07889
# Poissons Ratio (y) = 0.29614 0.17819
# Poissons Ratio (z) = 0.21780 0.53192
#
# Static dielectric constant tensor:
#      x y z
#    x 1.856110 0.004690 0.001350 
#    y 0.004690 1.941300 -0.028620 
#    z 0.001350 -0.028620 1.875080 
# 
# From -- ./inp_files/68864.got.cif
#   From: 2010.05.17/outbox.cif.g08.bks.cpg/sg2_35_cif.got.tgz:68864.got - 2010.06.03 11:33:40.
