data_PCOD9038421
_publ_section_title
;
Structure prediction by ZEFSAII (Michael W. Deem and Ramdas Pophale) SiO2 
 PCOD9038421
Probable space group: P -1
;
_chemical_formula_sum "Si O2"
_cell_formula_units_Z 10
_cell_length_a 17.130585
_cell_length_b 12.743621
_cell_length_c 16.454551
_cell_angle_alpha 156.571296
_cell_angle_beta 163.306328
_cell_angle_gamma 23.500739
_cell_volume 386.683311
_symmetry_space_group_name_H-M "P -1"
_symmetry_group_IT_number 2
_symmetry_cell_setting 'triclinic'
loop_
_space_group_symop_operation_xyz
x,y,z
-x,-y,-z
loop_
_atom_site_type_symbol
_atom_site_label
_atom_site_fract_x
_atom_site_fract_y
_atom_site_fract_z
Si Si1 0.386039 0.182269 0.727127
Si Si2 0.174981 0.741394 0.674875
Si Si3 0.203635 0.131162 0.844412
Si Si4 0.046904 0.342777 0.127406
Si Si5 0.251138 0.988260 0.303901
O O1 0.672050 0.916051 0.800624
O O2 0.231399 0.238273 0.525058
O O3 0.132421 0.157816 0.514791
O O4 0.543967 0.369550 0.065345
O O5 0.144951 0.520820 0.420969
O O6 0.223221 0.003246 0.862146
O O7 0.080048 0.459458 0.935859
O O8 0.000000 0.000000 0.500000
O O9 0.500000 0.000000 0.000000
O O10 0.794972 0.244310 0.845140
O O11 0.500000 0.000000 0.500000
O O12 0.000000 0.000000 0.000000
#
# Coordination Sequence:
#
# PCOD9038421 Si02
#       5
#     2   2   2   2   2
#     4  12  25  45  72 106 140 182 242 285 345 423
#     4  11  25  44  71 108 145 179 235 286 336 433
#     4  10  23  41  69 107 144 184 229 274 344 427
#     4  11  26  46  76  98 148 192 225 286 363 397
#     4  12  25  48  73 100 139 184 237 300 350 409
#
# _framework density 25.860956000000002
#
# number of rings (size 3 to 8) (size 9 to 14) (size 15 to 20)
#    0.000    0.800    4.000    2.400    8.400    1.600 
#    0.000    6.000    0.000    0.000    0.000    0.000 
#    0.000    0.000    0.000    0.000    0.000    0.000 
#
# Total GULP energy -55891.063570 kJ/mol
# GULP energy per Si atom -5589.106357 kJ/mol
# Density = 2.580210 g / cm^3
# Si number density = 25.860956 Si / 1000 Ang^3
#
#
#
# Elastic Constant Matrix: (Units=GPa)
#
#
# Indices 1 2 3 4 5 6 
#
# 1 172.0524 40.0295 81.6527 13.3260 29.1805 -19.5396
# 2 40.0295 85.4842 26.7350 8.7691 27.1017 -13.0507
# 3 81.6527 26.7350 215.4077 -20.5685 24.9691 0.2628
# 4 13.3260 8.7691 -20.5685 36.4189 -5.0383 19.7878
# 5 29.1805 27.1017 24.9691 -5.0383 77.6703 -1.9008
# 6 -19.5396 -13.0507 0.2628 19.7878 -1.9008 52.9979
#
#
#
# Elastic Compliance Matrix: (Units=1/GPa)
#
#
# Indices 1 2 3 4 5 6 
#
# 1 0.010213 -0.000171 -0.004568 -0.010847 -0.002824 0.007694
# 2 -0.000171 0.016384 -0.002312 -0.010025 -0.005375 0.007533
# 3 -0.004568 -0.002312 0.007534 0.009782 0.000591 -0.005922
# 4 -0.010847 -0.010025 0.009782 0.054920 0.007336 -0.026758
# 5 -0.002824 -0.005375 0.000591 0.007336 0.015987 -0.004533
# 6 0.007694 0.007533 -0.005922 -0.026758 -0.004533 0.033418
#
#
# Mechanical properties :
#
#
# Convention : Reuss Voigt Hill
#
# Bulk Modulus (GPa) = 49.92859 85.53097 67.72978
# Shear Modulus (GPa) = 31.40072 55.05256 43.22664
#
# Velocity S-wave (km/s) = 3.48834 4.61889 4.09284
# Velocity P-wave (km/s) = 5.96432 7.84797 6.97007
#
# Compressibility (1/GPa) = 0.02002860
#
# Stress axis : x y z
#
# Youngs Moduli (GPa) = 97.91759 61.03594 132.73851
#
# Poissons Ratio (x) = 0.01044 0.60632
# Poissons Ratio (y) = 0.01674 0.30689
# Poissons Ratio (z) = 0.44726 0.14111
#
# Static dielectric constant tensor:
#      x y z
#    x 2.151880 0.123510 -0.130360 
#    y 0.123510 2.219330 -0.018330 
#    z -0.130360 -0.018330 2.048980 
# 
# From -- ./inp_files/530827.got.cif
#   From: 2010.05.17/outbox.cif.g08.bks.cpg/sg2_266_cif.got.tgz:530827.got - 2010.06.03 11:33:40.
