data_PCOD9038284
_publ_section_title
;
Structure prediction by ZEFSAII (Michael W. Deem and Ramdas Pophale) SiO2 
 PCOD9038284
Probable space group: P -1
;
_chemical_formula_sum "Si O2"
_cell_formula_units_Z 14
_cell_length_a 12.255494
_cell_length_b 5.748784
_cell_length_c 8.660821
_cell_angle_alpha 101.096469
_cell_angle_beta 90.477048
_cell_angle_gamma 102.149568
_cell_volume 584.612599
_symmetry_space_group_name_H-M "P -1"
_symmetry_group_IT_number 2
_symmetry_cell_setting 'triclinic'
loop_
_space_group_symop_operation_xyz
x,y,z
-x,-y,-z
loop_
_atom_site_type_symbol
_atom_site_label
_atom_site_fract_x
_atom_site_fract_y
_atom_site_fract_z
Si Si1 0.830425 0.436157 0.395262
Si Si2 0.604543 0.436576 0.340692
Si Si3 0.874057 0.998584 0.550497
Si Si4 0.990147 0.344817 0.133043
Si Si5 0.461127 0.760281 0.369344
Si Si6 0.832667 0.943111 0.892185
Si Si7 0.584283 0.961762 0.864155
O O1 0.718519 0.372226 0.280552
O O2 0.822542 0.707486 0.488483
O O3 0.940478 0.455418 0.293968
O O4 0.830557 0.206063 0.478582
O O5 0.577429 0.687255 0.317715
O O6 0.605170 0.420020 0.525584
O O7 0.493716 0.255502 0.257595
O O8 0.861154 0.060835 0.737817
O O9 0.000000 0.000000 0.500000
O O10 0.110898 0.287270 0.152408
O O11 0.000000 0.500000 0.000000
O O12 0.899713 0.099648 0.052815
O O13 0.500000 0.000000 0.500000
O O14 0.395302 0.811304 0.225145
O O15 0.700746 0.903367 0.908018
O O16 0.500000 0.000000 0.000000
#
# Coordination Sequence:
#
# PCOD9038284 Si02
#       7
#     2   2   2   2   2   2   2
#     4  12  27  44  78 107 146 187 236 300 356 427
#     4  10  23  41  68 100 133 183 227 282 353 417
#     4  12  26  47  73 111 144 183 246 298 352 416
#     4  11  26  47  69 100 142 190 240 292 366 430
#     4   9  21  40  63  93 136 175 229 280 336 417
#     4  11  26  44  71 101 143 191 235 301 359 421
#     4  11  24  42  67  98 142 177 234 283 350 424
#
# _framework density 23.947481
#
# number of rings (size 3 to 8) (size 9 to 14) (size 15 to 20)
#    0.000    1.143    1.429    3.000   14.000    2.857 
#    0.000    0.000    0.000    0.000    0.000    0.000 
#    0.000    0.000    0.000    0.000    0.000    0.000 
#
# Total GULP energy -78150.153037 kJ/mol
# GULP energy per Si atom -5582.153788 kJ/mol
# Density = 2.389298 g / cm^3
# Si number density = 23.947481 Si / 1000 Ang^3
#
#
#
# Elastic Constant Matrix: (Units=GPa)
#
#
# Indices 1 2 3 4 5 6 
#
# 1 195.6793 39.1457 17.1938 -1.0167 5.7478 -27.7389
# 2 39.1457 99.7461 19.9942 -3.0006 8.7745 -24.4846
# 3 17.1938 19.9942 76.6314 2.2999 -11.4851 -9.1238
# 4 -1.0167 -3.0006 2.2999 31.2758 -5.9295 5.6846
# 5 5.7478 8.7745 -11.4851 -5.9295 32.3083 -4.1063
# 6 -27.7389 -24.4846 -9.1238 5.6846 -4.1063 41.9392
#
#
#
# Elastic Compliance Matrix: (Units=1/GPa)
#
#
# Indices 1 2 3 4 5 6 
#
# 1 0.005884 -0.001414 -0.000681 -0.000547 -0.000633 0.002930
# 2 -0.001414 0.012850 -0.002898 -0.000307 -0.003610 0.005624
# 3 -0.000681 -0.002898 0.015160 -0.000533 0.006436 0.001858
# 4 -0.000547 -0.000307 -0.000533 0.033884 0.005613 -0.004700
# 5 -0.000633 -0.003610 0.006436 0.005613 0.035565 0.001596
# 6 0.002930 0.005624 0.001858 -0.004700 0.001596 0.030263
#
#
# Mechanical properties :
#
#
# Convention : Reuss Voigt Hill
#
# Bulk Modulus (GPa) = 41.82503 58.30269 50.06386
# Shear Modulus (GPa) = 32.98966 40.81952 36.90459
#
# Velocity S-wave (km/s) = 3.71561 4.13309 3.92990
# Velocity P-wave (km/s) = 5.99257 6.86844 6.44540
#
# Compressibility (1/GPa) = 0.02390913
#
# Stress axis : x y z
#
# Youngs Moduli (GPa) = 169.94399 77.81901 65.96280
#
# Poissons Ratio (x) = 0.11006 0.04490
# Poissons Ratio (y) = 0.24036 0.19114
# Poissons Ratio (z) = 0.11569 0.22549
#
# Static dielectric constant tensor:
#      x y z
#    x 2.249630 -0.178020 -0.188220 
#    y -0.178020 2.281030 0.201500 
#    z -0.188220 0.201500 2.116500 
# 
# From -- ./inp_files/229887.got.cif
#   From: 2010.05.17/outbox.cif.g08.bks.cpg/sg2_115_cif.got.tgz:229887.got - 2010.06.03 11:33:40.
