data_PCOD9038245
_publ_section_title
;
Structure prediction by ZEFSAII (Michael W. Deem and Ramdas Pophale) SiO2 
 PCOD9038245
Probable space group: P -1
;
_chemical_formula_sum "Si O2"
_cell_formula_units_Z 12
_cell_length_a 14.205977
_cell_length_b 8.414467
_cell_length_c 7.333602
_cell_angle_alpha 126.280401
_cell_angle_beta 137.466703
_cell_angle_gamma 71.401337
_cell_volume 466.566036
_symmetry_space_group_name_H-M "P -1"
_symmetry_group_IT_number 2
_symmetry_cell_setting 'triclinic'
loop_
_space_group_symop_operation_xyz
x,y,z
-x,-y,-z
loop_
_atom_site_type_symbol
_atom_site_label
_atom_site_fract_x
_atom_site_fract_y
_atom_site_fract_z
Si Si1 0.937512 0.762071 0.757360
Si Si2 0.352954 0.268899 0.132810
Si Si3 0.908281 0.574373 0.184492
Si Si4 0.202409 0.839967 0.703875
Si Si5 0.471730 0.672831 0.938803
Si Si6 0.673310 0.877041 0.628853
O O1 0.903629 0.650567 0.438915
O O2 0.791133 0.754746 0.651059
O O3 0.047446 0.639031 0.915002
O O4 0.000000 0.000000 0.000000
O O5 0.245279 0.416564 0.101146
O O6 0.461331 0.330727 0.167066
O O7 0.249651 0.046686 0.797678
O O8 0.410967 0.231605 0.389176
O O9 0.038166 0.734547 0.387102
O O10 0.310997 0.698640 0.721374
O O11 0.239944 0.914632 0.018448
O O12 0.565868 0.874536 0.308810
O O13 0.500000 0.500000 0.000000
#
# Coordination Sequence:
#
# PCOD9038245 Si02
#       6
#     2   2   2   2   2   2
#     4  11  21  39  67 102 137 175 228 280 334 405
#     4  10  24  42  70  97 137 176 230 284 336 403
#     4  11  22  41  72 100 135 184 224 275 350 401
#     4  10  23  42  67 100 134 179 231 279 336 407
#     4  12  24  43  68  95 138 184 225 282 338 407
#     4  10  23  41  67  96 133 176 233 268 344 396
#
# _framework density 25.719833000000001
#
# number of rings (size 3 to 8) (size 9 to 14) (size 15 to 20)
#    1.000    0.333    3.333    2.500    2.333    1.333 
#    0.000    1.667    0.000    0.000    0.000    0.000 
#    0.000    0.000    0.000    0.000    0.000    0.000 
#
# Total GULP energy -67167.295686 kJ/mol
# GULP energy per Si atom -5597.274641 kJ/mol
# Density = 2.566129 g / cm^3
# Si number density = 25.719833 Si / 1000 Ang^3
#
#
#
# Elastic Constant Matrix: (Units=GPa)
#
#
# Indices 1 2 3 4 5 6 
#
# 1 196.2128 51.5157 38.2437 0.5355 -7.1781 -27.6371
# 2 51.5157 120.5982 13.9817 20.6223 10.0515 -37.2034
# 3 38.2437 13.9817 84.6275 13.0639 -13.3742 -12.3075
# 4 0.5355 20.6223 13.0639 40.6819 3.0380 9.7191
# 5 -7.1781 10.0515 -13.3742 3.0380 40.0356 -2.2472
# 6 -27.6371 -37.2034 -12.3075 9.7191 -2.2472 41.7543
#
#
#
# Elastic Compliance Matrix: (Units=1/GPa)
#
#
# Indices 1 2 3 4 5 6 
#
# 1 0.006397 -0.002537 -0.002467 0.001715 0.000880 0.000894
# 2 -0.002537 0.016708 0.002595 -0.013180 -0.001832 0.016942
# 3 -0.002467 0.002595 0.015756 -0.008549 0.005245 0.007596
# 4 0.001715 -0.013180 -0.008549 0.039633 -0.003512 -0.022543
# 5 0.000880 -0.001832 0.005245 -0.003512 0.027771 0.002808
# 6 0.000894 0.016942 0.007596 -0.022543 0.002808 0.047274
#
#
# Mechanical properties :
#
#
# Convention : Reuss Voigt Hill
#
# Bulk Modulus (GPa) = 29.37544 67.65785 48.51665
# Shear Modulus (GPa) = 29.46297 44.34085 36.90191
#
# Velocity S-wave (km/s) = 3.38825 4.15661 3.79194
# Velocity P-wave (km/s) = 5.17234 7.02846 6.17059
#
# Compressibility (1/GPa) = 0.03404204
#
# Stress axis : x y z
#
# Youngs Moduli (GPa) = 156.32241 59.85272 63.46841
#
# Poissons Ratio (x) = 0.15186 0.15659
# Poissons Ratio (y) = 0.39662 -0.16471
# Poissons Ratio (z) = 0.38569 -0.15533
#
# Static dielectric constant tensor:
#      x y z
#    x 1.979010 0.047830 -0.026970 
#    y 0.047830 2.042660 0.071330 
#    z -0.026970 0.071330 2.121530 
# 
# From -- ./inp_files/241658.got.cif
#   From: 2010.05.17/outbox.cif.g08.bks.cpg/sg2_121_cif.got.tgz:241658.got - 2010.06.03 11:33:40.
