data_PCOD9038742
_publ_section_title
;
Structure prediction by ZEFSAII (Michael W. Deem and Ramdas Pophale) SiO2 
 PCOD9038742
Probable space group: P -1
;
_chemical_formula_sum "Si O2"
_cell_formula_units_Z 16
_cell_length_a 12.082599
_cell_length_b 14.376175
_cell_length_c 14.926814
_cell_angle_alpha 50.849258
_cell_angle_beta 142.081070
_cell_angle_gamma 152.653515
_cell_volume 709.527235
_symmetry_space_group_name_H-M "P -1"
_symmetry_group_IT_number 2
_symmetry_cell_setting 'triclinic'
loop_
_space_group_symop_operation_xyz
x,y,z
-x,-y,-z
loop_
_atom_site_type_symbol
_atom_site_label
_atom_site_fract_x
_atom_site_fract_y
_atom_site_fract_z
Si Si1 0.453337 0.250331 0.162111
Si Si2 0.895330 0.731166 0.964140
Si Si3 0.262538 0.255284 0.850006
Si Si4 0.572041 0.450698 0.466209
Si Si5 0.889501 0.027337 0.209056
Si Si6 0.122344 0.577533 0.431785
Si Si7 0.215403 0.864038 0.275530
Si Si8 0.327290 0.220135 0.620380
O O1 0.301163 0.259476 0.130166
O O2 0.822615 0.462325 0.255974
O O3 0.415050 0.093984 0.265358
O O4 0.297550 0.195374 0.000344
O O5 0.612780 0.487410 0.906249
O O6 0.127397 0.887381 0.935277
O O7 0.090344 0.796409 0.134888
O O8 0.057331 0.254152 0.754636
O O9 0.099880 0.091247 0.768091
O O10 0.763476 0.485762 0.492559
O O11 0.582296 0.376288 0.609287
O O12 0.684360 0.647913 0.432455
O O13 0.210459 0.244221 0.329672
O O14 0.638795 0.856988 0.230048
O O15 0.365152 0.819038 0.425118
O O16 0.000000 0.500000 0.500000
O O17 0.000000 0.000000 0.500000
#
# Coordination Sequence:
#
# PCOD9038742 Si02
#       8
#     2   2   2   2   2   2   2   2
#     4  11  20  36  53  83 118 168 200 236 292 347
#     4  11  18  33  57  85 118 155 206 247 284 337
#     4  11  19  33  60  84 120 156 205 246 284 344
#     4  10  23  42  60  91 122 156 194 243 303 350
#     4  11  20  33  64  94 109 145 204 259 290 334
#     4  12  26  37  56  87 132 166 189 228 294 375
#     4  11  21  36  53  81 125 167 194 237 289 347
#     4   9  21  42  67  87 111 152 206 255 293 334
#
# _framework density 22.550225000000001
#
# number of rings (size 3 to 8) (size 9 to 14) (size 15 to 20)
#    0.000    1.250    5.000    3.000    1.750    2.500 
#    0.000    0.000    0.000    1.500    0.000    0.000 
#    0.000    0.000    0.000    0.000    0.000    0.000 
#
# Total GULP energy -89217.013123 kJ/mol
# GULP energy per Si atom -5576.063320 kJ/mol
# Density = 2.249890 g / cm^3
# Si number density = 22.550225 Si / 1000 Ang^3
#
#
#
# Elastic Constant Matrix: (Units=GPa)
#
#
# Indices 1 2 3 4 5 6 
#
# 1 68.2198 29.9890 12.9764 -17.0879 -19.6199 -3.7574
# 2 29.9890 129.8383 24.5888 -29.6177 -13.7570 -16.7239
# 3 12.9764 24.5888 38.2372 -14.4685 -18.8567 0.4088
# 4 -17.0879 -29.6177 -14.4685 32.7621 9.3972 -13.1616
# 5 -19.6199 -13.7570 -18.8567 9.3972 25.7135 -10.8247
# 6 -3.7574 -16.7239 0.4088 -13.1616 -10.8247 44.7771
#
#
#
# Elastic Compliance Matrix: (Units=1/GPa)
#
#
# Indices 1 2 3 4 5 6 
#
# 1 0.024673 0.000328 0.009943 0.015238 0.026157 0.012904
# 2 0.000328 0.012929 0.000052 0.014297 0.006450 0.010617
# 3 0.009943 0.000052 0.054457 0.023290 0.046837 0.018525
# 4 0.015238 0.014297 0.023290 0.067408 0.025337 0.032345
# 5 0.026157 0.006450 0.046837 0.025337 0.102736 0.036460
# 6 0.012904 0.010617 0.018525 0.032345 0.036460 0.045533
#
#
# Mechanical properties :
#
#
# Convention : Reuss Voigt Hill
#
# Bulk Modulus (GPa) = 8.87275 41.26708 25.06991
# Shear Modulus (GPa) = 15.40079 31.89994 23.65036
#
# Velocity S-wave (km/s) = 2.61618 3.76522 3.24201
# Velocity P-wave (km/s) = 3.61511 6.10265 5.01554
#
# Compressibility (1/GPa) = 0.11270468
#
# Stress axis : x y z
#
# Youngs Moduli (GPa) = 40.52962 77.34759 18.36296
#
# Poissons Ratio (x) = -0.02534 -0.18259
# Poissons Ratio (y) = -0.01328 -0.00095
# Poissons Ratio (z) = -0.40299 -0.00401
#
# Static dielectric constant tensor:
#      x y z
#    x 1.831720 0.014950 -0.046800 
#    y 0.014950 1.967440 0.007550 
#    z -0.046800 0.007550 1.877820 
# 
# From -- ./inp_files/519926.got.cif
#   From: 2010.05.17/outbox.cif.g08.bks.cpg/sg2_260_cif.got.tgz:519926.got - 2010.06.03 11:33:40.
