data_PCOD9038260
_publ_section_title
;
Structure prediction by ZEFSAII (Michael W. Deem and Ramdas Pophale) SiO2 
 PCOD9038260
Probable space group: P -1
;
_chemical_formula_sum "Si O2"
_cell_formula_units_Z 16
_cell_length_a 6.338671
_cell_length_b 26.325580
_cell_length_c 11.929109
_cell_angle_alpha 151.774822
_cell_angle_beta 131.653991
_cell_angle_gamma 48.457692
_cell_volume 686.253737
_symmetry_space_group_name_H-M "P -1"
_symmetry_group_IT_number 2
_symmetry_cell_setting 'triclinic'
loop_
_space_group_symop_operation_xyz
x,y,z
-x,-y,-z
loop_
_atom_site_type_symbol
_atom_site_label
_atom_site_fract_x
_atom_site_fract_y
_atom_site_fract_z
Si Si1 0.019937 0.698934 0.964523
Si Si2 0.935848 0.096740 0.757174
Si Si3 0.373187 0.953398 0.759151
Si Si4 0.153828 0.758634 0.371350
Si Si5 0.693715 0.589413 0.261973
Si Si6 0.804139 0.422243 0.422937
Si Si7 0.330647 0.785352 0.904118
Si Si8 0.893848 0.754592 0.500501
O O1 0.138871 0.796548 0.138013
O O2 0.114264 0.696818 0.122356
O O3 0.670416 0.737273 0.910544
O O4 0.139860 0.596733 0.726299
O O5 0.251489 0.063132 0.859501
O O6 0.000000 0.000000 0.500000
O O7 0.727752 0.115252 0.830500
O O8 0.131832 0.885955 0.579926
O O9 0.616214 0.855163 0.605211
O O10 0.500000 0.000000 0.000000
O O11 0.463796 0.703339 0.428661
O O12 0.942925 0.741209 0.360100
O O13 0.853104 0.637250 0.307830
O O14 0.926039 0.547562 0.358970
O O15 0.500000 0.500000 0.000000
O O16 0.500000 0.500000 0.500000
O O17 0.793624 0.305546 0.247791
O O18 0.142967 0.794321 0.740339
#
# Coordination Sequence:
#
# PCOD9038260 Si02
#       8
#     2   2   2   2   2   2   2   2
#     4  11  25  43  69  98 141 183 227 291 353 416
#     4  11  23  42  62  98 139 181 235 283 339 416
#     4  11  23  42  66  96 139 187 239 282 340 413
#     4  11  25  43  66 103 140 180 234 288 349 415
#     4  10  24  48  72 102 134 179 231 291 347 418
#     4  10  24  48  74 100 135 177 235 290 355 424
#     4  10  23  41  67  97 134 183 226 286 352 411
#     4  10  23  43  67  98 137 181 232 286 345 420
#
# _framework density 23.314990999999999
#
# number of rings (size 3 to 8) (size 9 to 14) (size 15 to 20)
#    0.000    1.500    2.500    0.750    7.000    4.000 
#    4.500    0.000    0.000    0.000    0.000    0.000 
#    0.000    0.000    0.000    0.000    0.000    0.000 
#
# Total GULP energy -89186.558430 kJ/mol
# GULP energy per Si atom -5574.159902 kJ/mol
# Density = 2.326193 g / cm^3
# Si number density = 23.314991 Si / 1000 Ang^3
#
#
#
# Elastic Constant Matrix: (Units=GPa)
#
#
# Indices 1 2 3 4 5 6 
#
# 1 118.5505 44.5549 62.7870 -19.4175 -39.3642 6.6430
# 2 44.5549 98.1127 33.5750 -17.0532 -23.1678 1.4416
# 3 62.7870 33.5750 110.5561 -9.2706 -28.0681 4.5152
# 4 -19.4175 -17.0532 -9.2706 40.2414 6.0993 0.4830
# 5 -39.3642 -23.1678 -28.0681 6.0993 36.7036 -7.6534
# 6 6.6430 1.4416 4.5152 0.4830 -7.6534 38.4035
#
#
#
# Elastic Compliance Matrix: (Units=1/GPa)
#
#
# Indices 1 2 3 4 5 6 
#
# 1 0.016740 -0.002251 -0.005528 0.004083 0.011649 0.000109
# 2 -0.002251 0.013367 -0.001355 0.003560 0.004586 0.000916
# 3 -0.005528 -0.001355 0.013460 -0.000697 0.003659 0.000163
# 4 0.004083 0.003560 -0.000697 0.027987 0.001263 -0.000858
# 5 0.011649 0.004586 0.003659 0.001263 0.046609 0.006655
# 6 0.000109 0.000916 0.000163 -0.000858 0.006655 0.027304
#
#
# Mechanical properties :
#
#
# Convention : Reuss Voigt Hill
#
# Bulk Modulus (GPa) = 39.53011 67.67258 53.60135
# Shear Modulus (GPa) = 29.04147 35.48986 32.26566
#
# Velocity S-wave (km/s) = 3.53315 3.90576 3.72412
# Velocity P-wave (km/s) = 5.79964 7.03053 6.44454
#
# Compressibility (1/GPa) = 0.02529717
#
# Stress axis : x y z
#
# Youngs Moduli (GPa) = 59.73886 74.81279 74.29474
#
# Poissons Ratio (x) = 0.16843 0.41067
# Poissons Ratio (y) = 0.13449 0.10071
# Poissons Ratio (z) = 0.33021 0.10141
#
# Static dielectric constant tensor:
#      x y z
#    x 1.957770 -0.002790 0.045620 
#    y -0.002790 1.816520 0.011710 
#    z 0.045620 0.011710 1.931330 
# 
# From -- ./inp_files/371498.got.cif
#   From: 2010.05.17/outbox.cif.g08.bks.cpg/sg2_186_cif.got.tgz:371498.got - 2010.06.03 11:33:40.
