data_PCOD9038111
_publ_section_title
;
Structure prediction by ZEFSAII (Michael W. Deem and Ramdas Pophale) SiO2 
 PCOD9038111
Probable space group: P -1
;
_chemical_formula_sum "Si O2"
_cell_formula_units_Z 14
_cell_length_a 10.101316
_cell_length_b 11.430473
_cell_length_c 14.276410
_cell_angle_alpha 47.988750
_cell_angle_beta 149.013191
_cell_angle_gamma 123.465485
_cell_volume 629.491314
_symmetry_space_group_name_H-M "P -1"
_symmetry_group_IT_number 2
_symmetry_cell_setting 'triclinic'
loop_
_space_group_symop_operation_xyz
x,y,z
-x,-y,-z
loop_
_atom_site_type_symbol
_atom_site_label
_atom_site_fract_x
_atom_site_fract_y
_atom_site_fract_z
Si Si1 0.210744 0.239443 0.015258
Si Si2 0.364374 0.720299 0.383261
Si Si3 0.610691 0.993543 0.467621
Si Si4 0.643706 0.578013 0.172383
Si Si5 0.708894 0.624762 0.490347
Si Si6 0.101784 0.496733 0.957030
Si Si7 0.989442 0.255098 0.557433
O O1 0.330379 0.363891 0.950048
O O2 0.413645 0.093775 0.226571
O O3 0.925401 0.205057 0.824271
O O4 0.164429 0.322824 0.043501
O O5 0.581863 0.815726 0.512932
O O6 0.452163 0.703523 0.337396
O O7 0.348697 0.540632 0.505744
O O8 0.500000 0.000000 0.500000
O O9 0.869118 0.086429 0.578099
O O10 0.769203 0.399039 0.350284
O O11 0.818117 0.697853 0.269749
O O12 0.364877 0.582410 0.049117
O O13 0.889992 0.573219 0.715484
O O14 0.858255 0.729563 0.454929
O O15 0.000000 0.500000 0.000000
#
# Coordination Sequence:
#
# PCOD9038111 Si02
#       7
#     2   2   2   2   2   2   2
#     4  11  22  43  67  95 130 178 219 268 326 391
#     4  10  23  41  66  95 133 168 218 266 331 380
#     4  12  26  40  65  98 134 172 218 273 332 387
#     4  11  22  40  68  96 129 173 228 267 314 394
#     4  10  23  42  68  95 131 174 221 267 328 386
#     4  11  23  35  66 100 129 165 221 278 320 377
#     4  11  23  40  68  95 132 173 224 267 324 388
#
# _framework density 22.240181
#
# number of rings (size 3 to 8) (size 9 to 14) (size 15 to 20)
#    0.000    1.143    4.286    2.571   10.000    0.571 
#    0.000    0.000    0.000    2.571    0.000    0.000 
#    0.000    0.000    0.000    0.000    0.000    0.000 
#
# Total GULP energy -78257.877039 kJ/mol
# GULP energy per Si atom -5589.848360 kJ/mol
# Density = 2.218956 g / cm^3
# Si number density = 22.240181 Si / 1000 Ang^3
#
#
#
# Elastic Constant Matrix: (Units=GPa)
#
#
# Indices 1 2 3 4 5 6 
#
# 1 135.3823 38.4063 13.9643 12.9814 -1.5603 29.1347
# 2 38.4063 158.7995 13.7917 35.7784 -1.9009 20.6954
# 3 13.9643 13.7917 48.0428 17.3841 6.5674 7.0610
# 4 12.9814 35.7784 17.3841 24.5863 5.7457 6.7963
# 5 -1.5603 -1.9009 6.5674 5.7457 29.8794 8.1695
# 6 29.1347 20.6954 7.0610 6.7963 8.1695 39.0794
#
#
#
# Elastic Compliance Matrix: (Units=1/GPa)
#
#
# Indices 1 2 3 4 5 6 
#
# 1 0.009381 -0.000921 -0.001334 -0.001506 0.002816 -0.006592
# 2 -0.000921 0.010658 0.003477 -0.017513 0.004166 -0.003411
# 3 -0.001334 0.003477 0.029456 -0.024448 -0.001164 -0.001674
# 4 -0.001506 -0.017513 -0.024448 0.086623 -0.013160 0.002501
# 5 0.002816 0.004166 -0.001164 -0.013160 0.039413 -0.010046
# 6 -0.006592 -0.003411 -0.001674 0.002501 -0.010046 0.034277
#
#
# Mechanical properties :
#
#
# Convention : Reuss Voigt Hill
#
# Bulk Modulus (GPa) = 19.25321 52.72770 35.99045
# Shear Modulus (GPa) = 22.25418 37.11316 29.68367
#
# Velocity S-wave (km/s) = 3.16670 4.08946 3.65730
# Velocity P-wave (km/s) = 4.69536 6.78660 5.83543
#
# Compressibility (1/GPa) = 0.05193939
#
# Stress axis : x y z
#
# Youngs Moduli (GPa) = 106.60170 93.82510 33.94922
#
# Poissons Ratio (x) = 0.08640 0.04527
# Poissons Ratio (y) = 0.09816 -0.11803
# Poissons Ratio (z) = 0.14215 -0.32621
#
# Static dielectric constant tensor:
#      x y z
#    x 1.816220 -0.043950 0.006180 
#    y -0.043950 1.884360 0.040010 
#    z 0.006180 0.040010 1.883860 
# 
# From -- ./inp_files/567293.got.cif
#   From: 2010.05.17/outbox.cif.g08.bks.cpg/sg2_284_cif.got.tgz:567293.got - 2010.06.03 11:33:40.
