data_PCOD9038344
_publ_section_title
;
Structure prediction by ZEFSAII (Michael W. Deem and Ramdas Pophale) SiO2 
 PCOD9038344
Probable space group: P -1
;
_chemical_formula_sum "Si O2"
_cell_formula_units_Z 14
_cell_length_a 27.743786
_cell_length_b 11.530361
_cell_length_c 13.612133
_cell_angle_alpha 33.374749
_cell_angle_beta 157.809309
_cell_angle_gamma 159.978418
_cell_volume 542.208759
_symmetry_space_group_name_H-M "P -1"
_symmetry_group_IT_number 2
_symmetry_cell_setting 'triclinic'
loop_
_space_group_symop_operation_xyz
x,y,z
-x,-y,-z
loop_
_atom_site_type_symbol
_atom_site_label
_atom_site_fract_x
_atom_site_fract_y
_atom_site_fract_z
Si Si1 0.528593 0.616237 0.582579
Si Si2 0.242845 0.604480 0.012758
Si Si3 0.023867 0.187170 0.266871
Si Si4 0.775372 0.158110 0.932106
Si Si5 0.250189 0.491709 0.876899
Si Si6 0.455900 0.684365 0.812364
Si Si7 0.125557 0.679470 0.369730
O O1 0.500000 0.500000 0.500000
O O2 0.340781 0.532282 0.307352
O O3 0.738248 0.035420 0.662020
O O4 0.569999 0.452660 0.831962
O O5 0.406344 0.014496 0.056921
O O6 0.234481 0.543250 0.924174
O O7 0.006330 0.338180 0.795631
O O8 0.202714 0.378872 0.551396
O O9 0.806624 0.999341 0.033795
O O10 0.128765 0.513110 0.172133
O O11 0.961764 0.910671 0.276225
O O12 0.931404 0.310536 0.209547
O O13 0.552020 0.910543 0.734079
O O14 0.265791 0.711058 0.678983
O O15 0.500000 0.500000 0.000000
#
# Coordination Sequence:
#
# PCOD9038344 Si02
#       7
#     2   2   2   2   2   2   2
#     4  10  23  43  63  97 139 177 220 272 339 402
#     4  10  24  44  69  99 141 176 223 282 339 408
#     4  11  22  43  69  95 135 174 233 274 334 406
#     4  10  23  41  68  95 133 183 219 282 336 395
#     4  11  24  43  72 103 134 182 224 278 348 400
#     4  11  24  42  68 101 135 177 230 278 338 408
#     4  11  22  44  68  96 138 177 229 279 334 404
#
# _framework density 25.820314
#
# number of rings (size 3 to 8) (size 9 to 14) (size 15 to 20)
#    0.000    1.429    1.429    3.429    2.000    8.000 
#    0.000    2.857    0.000    0.000    0.000    0.000 
#    0.000    0.000    0.000    0.000    0.000    0.000 
#
# Total GULP energy -78222.587825 kJ/mol
# GULP energy per Si atom -5587.327702 kJ/mol
# Density = 2.576155 g / cm^3
# Si number density = 25.820314 Si / 1000 Ang^3
#
#
#
# Elastic Constant Matrix: (Units=GPa)
#
#
# Indices 1 2 3 4 5 6 
#
# 1 108.7911 27.9764 22.3198 -2.0174 10.1701 -17.5873
# 2 27.9764 84.9580 18.1074 -1.9717 -2.7675 -26.8061
# 3 22.3198 18.1074 140.0701 -22.8261 -2.0971 7.7100
# 4 -2.0174 -1.9717 -22.8261 39.1708 3.9855 -4.5265
# 5 10.1701 -2.7675 -2.0971 3.9855 37.1310 5.4722
# 6 -17.5873 -26.8061 7.7100 -4.5265 5.4722 46.7730
#
#
#
# Elastic Compliance Matrix: (Units=1/GPa)
#
#
# Indices 1 2 3 4 5 6 
#
# 1 0.011071 -0.002263 -0.001682 0.000288 -0.003861 0.003622
# 2 -0.002263 0.015640 -0.002053 0.000411 0.000381 0.008446
# 3 -0.001682 -0.002053 0.008558 0.004388 0.000745 -0.002882
# 4 0.000288 0.000411 0.004388 0.028780 -0.003301 0.002792
# 5 -0.003861 0.000381 0.000745 -0.003301 0.029164 -0.005088
# 6 0.003622 0.008446 -0.002882 0.002792 -0.005088 0.028923
#
#
# Mechanical properties :
#
#
# Convention : Reuss Voigt Hill
#
# Bulk Modulus (GPa) = 42.97044 52.29184 47.63114
# Shear Modulus (GPa) = 35.23844 42.30932 38.77388
#
# Velocity S-wave (km/s) = 3.69827 4.05236 3.87936
# Velocity P-wave (km/s) = 5.90885 6.49551 6.20911
#
# Compressibility (1/GPa) = 0.02327181
#
# Stress axis : x y z
#
# Youngs Moduli (GPa) = 90.32738 63.93674 116.85493
#
# Poissons Ratio (x) = 0.14471 0.19653
# Poissons Ratio (y) = 0.20443 0.23995
# Poissons Ratio (z) = 0.15192 0.13129
#
# Static dielectric constant tensor:
#      x y z
#    x 2.023110 0.172960 0.074530 
#    y 0.172960 0.284030 -0.811150 
#    z 0.074530 -0.811150 1.719750 
# 
# From -- ./inp_files/544957.got.cif
#   From: 2010.05.17/outbox.cif.g08.bks.cpg/sg2_273_cif.got.tgz:544957.got - 2010.06.03 11:33:40.
