data_PCOD9038400
_publ_section_title
;
Structure prediction by ZEFSAII (Michael W. Deem and Ramdas Pophale) SiO2 
 PCOD9038400
Probable space group: P -1
;
_chemical_formula_sum "Si O2"
_cell_formula_units_Z 16
_cell_length_a 8.957387
_cell_length_b 14.325874
_cell_length_c 20.428678
_cell_angle_alpha 161.904698
_cell_angle_beta 129.598363
_cell_angle_gamma 49.010200
_cell_volume 613.511128
_symmetry_space_group_name_H-M "P -1"
_symmetry_group_IT_number 2
_symmetry_cell_setting 'triclinic'
loop_
_space_group_symop_operation_xyz
x,y,z
-x,-y,-z
loop_
_atom_site_type_symbol
_atom_site_label
_atom_site_fract_x
_atom_site_fract_y
_atom_site_fract_z
Si Si1 0.942858 0.521477 0.838906
Si Si2 0.592434 0.047454 0.127778
Si Si3 0.366747 0.226158 0.908810
Si Si4 0.765352 0.181737 0.666153
Si Si5 0.730006 0.412467 0.572872
Si Si6 0.717110 0.180632 0.879488
Si Si7 0.034094 0.243302 0.226160
Si Si8 0.681727 0.765089 0.470463
O O1 0.902035 0.247454 0.689881
O O2 0.852823 0.480103 0.715391
O O3 0.169163 0.544116 0.914900
O O4 0.817842 0.850769 0.052521
O O5 0.497178 0.403500 0.354437
O O6 0.525313 0.885376 0.065810
O O7 0.500000 0.000000 0.000000
O O8 0.522173 0.275885 0.931529
O O9 0.268250 0.943653 0.673989
O O10 0.225542 0.548958 0.099928
O O11 0.541847 0.243639 0.616179
O O12 0.784603 0.870270 0.504132
O O13 0.826393 0.549243 0.629171
O O14 0.863006 0.933247 0.800258
O O15 0.677435 0.015473 0.692224
O O16 0.821036 0.450559 0.322519
O O17 0.000000 0.000000 0.000000
#
# Coordination Sequence:
#
# PCOD9038400 Si02
#       8
#     2   2   2   2   2   2   2   2
#     4  10  23  41  69 101 138 186 230 285 353 410
#     4   9  20  37  61  93 138 184 225 272 340 420
#     4  11  23  42  69  99 140 184 235 284 341 419
#     4  10  25  52  72  94 139 194 242 282 336 424
#     4  11  22  40  66 102 140 185 229 281 359 410
#     4  12  25  42  71 112 142 177 230 296 360 407
#     4  12  25  44  70 110 145 176 223 302 355 415
#     4  11  27  47  74  99 139 190 239 285 353 409
#
# _framework density 26.079395999999999
#
# number of rings (size 3 to 8) (size 9 to 14) (size 15 to 20)
#    0.000    1.250    2.500    2.250    5.250    3.000 
#    0.000    1.875    0.000    0.000    0.000    0.000 
#    0.000    0.000    0.000    0.000    0.000    0.000 
#
# Total GULP energy -89734.540106 kJ/mol
# GULP energy per Si atom -5608.408757 kJ/mol
# Density = 2.602004 g / cm^3
# Si number density = 26.079396 Si / 1000 Ang^3
#
#
#
# Elastic Constant Matrix: (Units=GPa)
#
#
# Indices 1 2 3 4 5 6 
#
# 1 147.1603 29.4029 39.6159 -16.3138 23.9552 15.9358
# 2 29.4029 107.4534 27.3771 -1.0799 -1.2778 -2.5655
# 3 39.6159 27.3771 114.6017 -20.7592 12.1368 -6.3764
# 4 -16.3138 -1.0799 -20.7592 35.8753 -1.2088 -5.7092
# 5 23.9552 -1.2778 12.1368 -1.2088 48.1181 1.7288
# 6 15.9358 -2.5655 -6.3764 -5.7092 1.7288 33.4609
#
#
#
# Elastic Compliance Matrix: (Units=1/GPa)
#
#
# Indices 1 2 3 4 5 6 
#
# 1 0.009103 -0.002081 -0.002117 0.002030 -0.003846 -0.004354
# 2 -0.002081 0.010471 -0.002226 -0.001701 0.001797 0.000987
# 3 -0.002117 -0.002226 0.011561 0.006265 -0.001915 0.004209
# 4 0.002030 -0.001701 0.006265 0.033238 -0.002012 0.005872
# 5 -0.003846 0.001797 -0.001915 -0.002012 0.023175 0.000064
# 6 -0.004354 0.000987 0.004209 0.005872 0.000064 0.033835
#
#
# Mechanical properties :
#
#
# Convention : Reuss Voigt Hill
#
# Bulk Modulus (GPa) = 54.68005 62.44524 58.56264
# Shear Modulus (GPa) = 35.63103 41.67884 38.65494
#
# Velocity S-wave (km/s) = 3.70029 4.00203 3.85411
# Velocity P-wave (km/s) = 6.26646 6.73433 6.50460
#
# Compressibility (1/GPa) = 0.01828821
#
# Stress axis : x y z
#
# Youngs Moduli (GPa) = 109.84792 95.50517 86.49524
#
# Poissons Ratio (x) = 0.19874 0.18312
# Poissons Ratio (y) = 0.22858 0.19251
# Poissons Ratio (z) = 0.23256 0.21256
#
# Static dielectric constant tensor:
#      x y z
#    x 2.022800 -0.017140 -0.007380 
#    y -0.017140 2.051180 0.038120 
#    z -0.007380 0.038120 2.015760 
# 
# From -- ./inp_files/590572.got.cif
#   From: 2010.05.17/outbox.cif.g08.bks.cpg/sg2_296_cif.got.tgz:590572.got - 2010.06.03 11:33:40.
