data_PCOD9038492
_publ_section_title
;
Structure prediction by ZEFSAII (Michael W. Deem and Ramdas Pophale) SiO2 
 PCOD9038492
Probable space group: P -1
;
_chemical_formula_sum "Si O2"
_cell_formula_units_Z 16
_cell_length_a 9.408806
_cell_length_b 8.496944
_cell_length_c 13.145896
_cell_angle_alpha 124.794953
_cell_angle_beta 114.063050
_cell_angle_gamma 104.292972
_cell_volume 605.814539
_symmetry_space_group_name_H-M "P -1"
_symmetry_group_IT_number 2
_symmetry_cell_setting 'triclinic'
loop_
_space_group_symop_operation_xyz
x,y,z
-x,-y,-z
loop_
_atom_site_type_symbol
_atom_site_label
_atom_site_fract_x
_atom_site_fract_y
_atom_site_fract_z
Si Si1 0.367136 0.010741 0.048285
Si Si2 0.220313 0.277359 0.667424
Si Si3 0.854507 0.488557 0.105227
Si Si4 0.843651 0.770573 0.940813
Si Si5 0.879418 0.016892 0.718476
Si Si6 0.529961 0.219979 0.403687
Si Si7 0.118072 0.394236 0.478045
Si Si8 0.578152 0.261563 0.738574
O O1 0.173186 0.723062 0.913534
O O2 0.500000 0.000000 0.000000
O O3 0.303206 0.169465 0.048437
O O4 0.465902 0.119396 0.229655
O O5 0.253701 0.428366 0.832576
O O6 0.228397 0.428124 0.629059
O O7 0.389670 0.251416 0.699446
O O8 0.000000 0.000000 0.500000
O O9 0.729514 0.365857 0.919006
O O10 0.075462 0.762443 0.257210
O O11 0.705093 0.477361 0.769665
O O12 0.000000 0.000000 0.000000
O O13 0.999236 0.822435 0.089360
O O14 0.648157 0.797613 0.601885
O O15 0.981732 0.894829 0.673678
O O16 0.749262 0.473076 0.536025
O O17 0.518587 0.022955 0.396617
O O18 0.000000 0.500000 0.500000
#
# Coordination Sequence:
#
# PCOD9038492 Si02
#       8
#     2   2   2   2   2   2   2   2
#     4  11  23  40  68 103 136 174 228 284 341 411
#     4  12  23  44  69 101 139 183 231 288 344 415
#     4  10  23  41  70 101 141 175 230 280 357 400
#     4  11  23  41  68 101 139 177 230 285 349 408
#     4  11  25  44  67  98 142 184 224 290 344 418
#     4  11  24  44  68  97 137 182 228 282 353 407
#     4  12  27  46  69  98 141 183 236 285 348 413
#     4  10  24  42  70 100 140 177 230 289 345 410
#
# _framework density 26.410724999999999
#
# number of rings (size 3 to 8) (size 9 to 14) (size 15 to 20)
#    0.000    1.000    2.500    3.750    5.250    3.500 
#    0.000    0.625    0.000    0.000    0.000    0.000 
#    0.000    0.000    0.000    0.000    0.000    0.000 
#
# Total GULP energy -89335.679160 kJ/mol
# GULP energy per Si atom -5583.479947 kJ/mol
# Density = 2.635061 g / cm^3
# Si number density = 26.410725 Si / 1000 Ang^3
#
#
#
# Elastic Constant Matrix: (Units=GPa)
#
#
# Indices 1 2 3 4 5 6 
#
# 1 124.3437 65.1093 3.0910 16.7732 -1.9186 -22.8997
# 2 65.1093 173.2839 33.2959 46.7687 5.5277 2.0711
# 3 3.0910 33.2959 59.4595 15.2105 -0.2810 0.3707
# 4 16.7732 46.7687 15.2105 54.5344 1.1278 1.4065
# 5 -1.9186 5.5277 -0.2810 1.1278 30.6296 6.1678
# 6 -22.8997 2.0711 0.3707 1.4065 6.1678 51.9690
#
#
#
# Elastic Compliance Matrix: (Units=1/GPa)
#
#
# Indices 1 2 3 4 5 6 
#
# 1 0.011451 -0.004729 0.002072 -0.000189 0.000558 0.005158
# 2 -0.004729 0.009953 -0.003803 -0.005935 -0.001483 -0.002117
# 3 0.002072 -0.003803 0.019575 -0.002877 0.000922 0.000893
# 4 -0.000189 -0.005935 -0.002877 0.024296 0.000241 -0.000512
# 5 0.000558 -0.001483 0.000922 0.000241 0.033697 -0.003707
# 6 0.005158 -0.002117 0.000893 -0.000512 -0.003707 0.022047
#
#
# Mechanical properties :
#
#
# Convention : Reuss Voigt Hill
#
# Bulk Modulus (GPa) = 35.64062 62.23104 48.93583
# Shear Modulus (GPa) = 34.89358 44.46600 39.67979
#
# Velocity S-wave (km/s) = 3.63876 4.10766 3.88030
# Velocity P-wave (km/s) = 5.58374 6.79052 6.21648
#
# Compressibility (1/GPa) = 0.02805788
#
# Stress axis : x y z
#
# Youngs Moduli (GPa) = 87.32776 100.47173 51.08547
#
# Poissons Ratio (x) = 0.47515 -0.10583
# Poissons Ratio (y) = 0.41299 0.19429
# Poissons Ratio (z) = -0.18092 0.38211
#
# Static dielectric constant tensor:
#      x y z
#    x 2.110150 0.100670 0.007790 
#    y 0.100670 2.303580 0.058160 
#    z 0.007790 0.058160 2.188380 
# 
# From -- ./inp_files/298291.got.cif
#   From: 2010.05.17/outbox.cif.g08.bks.cpg/sg2_150_cif.got.tgz:298291.got - 2010.06.03 11:33:40.
