data_PCOD9038762
_publ_section_title
;
Structure prediction by ZEFSAII (Michael W. Deem and Ramdas Pophale) SiO2 
 PCOD9038762
Probable space group: P -1
;
_chemical_formula_sum "Si O2"
_cell_formula_units_Z 12
_cell_length_a 4.932900
_cell_length_b 17.227558
_cell_length_c 19.621996
_cell_angle_alpha 20.455128
_cell_angle_beta 131.773331
_cell_angle_gamma 131.138487
_cell_volume 430.959665
_symmetry_space_group_name_H-M "P -1"
_symmetry_group_IT_number 2
_symmetry_cell_setting 'triclinic'
loop_
_space_group_symop_operation_xyz
x,y,z
-x,-y,-z
loop_
_atom_site_type_symbol
_atom_site_label
_atom_site_fract_x
_atom_site_fract_y
_atom_site_fract_z
Si Si1 0.157408 0.044666 0.818419
Si Si2 0.626018 0.610810 0.837839
Si Si3 0.182588 0.182964 0.167492
Si Si4 0.452161 0.619708 0.546432
Si Si5 0.139906 0.682419 0.225561
Si Si6 0.726192 0.857555 0.519785
O O1 0.559475 0.158167 0.812762
O O2 0.864712 0.216640 0.647030
O O3 0.159988 0.950044 0.818573
O O4 0.054340 0.824112 0.028761
O O5 0.725743 0.818832 0.735340
O O6 0.554761 0.671893 0.698428
O O7 0.292534 0.439897 0.952712
O O8 0.000000 0.500000 0.000000
O O9 0.484006 0.043767 0.301687
O O10 0.658905 0.528893 0.591942
O O11 0.761987 0.726799 0.563692
O O12 0.217127 0.404435 0.719628
O O13 0.000000 0.000000 0.500000
#
# Coordination Sequence:
#
# PCOD9038762 Si02
#       6
#     2   2   2   2   2   2
#     4  10  24  44  70 101 131 183 227 282 336 406
#     4  11  22  38  62  88 128 167 209 265 319 390
#     4  10  23  42  61  93 129 169 217 267 327 393
#     4  11  26  45  71 100 140 178 225 282 339 402
#     4  11  25  47  70 101 138 178 227 283 339 401
#     4  11  23  41  63  97 126 173 215 269 329 396
#
# _framework density 27.844833999999999
#
# number of rings (size 3 to 8) (size 9 to 14) (size 15 to 20)
#    0.000    1.333    1.667    2.500    2.333    8.000 
#    3.000    0.000    0.000    0.000    0.000    0.000 
#    0.000    0.000    0.000    0.000    0.000    0.000 
#
# Total GULP energy -67172.522760 kJ/mol
# GULP energy per Si atom -5597.710230 kJ/mol
# Density = 2.778146 g / cm^3
# Si number density = 27.844834 Si / 1000 Ang^3
#
#
#
# Elastic Constant Matrix: (Units=GPa)
#
#
# Indices 1 2 3 4 5 6 
#
# 1 100.0670 10.1809 6.7610 -5.3541 2.0213 -2.9323
# 2 10.1809 162.0644 2.0060 -27.1361 -1.8816 -16.3119
# 3 6.7610 2.0060 92.9780 10.0903 -3.5684 3.0244
# 4 -5.3541 -27.1361 10.0903 41.1253 -4.8579 -3.8712
# 5 2.0213 -1.8816 -3.5684 -4.8579 38.9435 5.9735
# 6 -2.9323 -16.3119 3.0244 -3.8712 5.9735 38.4832
#
#
#
# Elastic Compliance Matrix: (Units=1/GPa)
#
#
# Indices 1 2 3 4 5 6 
#
# 1 0.010202 -0.000311 -0.000938 0.001371 -0.000605 0.000951
# 2 -0.000311 0.007502 -0.000842 0.005516 0.000420 0.003712
# 3 -0.000938 -0.000842 0.011316 -0.003521 0.000883 -0.001809
# 4 0.001371 0.005516 -0.003521 0.029824 0.002782 0.005287
# 5 -0.000605 0.000420 0.000883 0.002782 0.026742 -0.003809
# 6 0.000951 0.003712 -0.001809 0.005287 -0.003809 0.028897
#
#
# Mechanical properties :
#
#
# Convention : Reuss Voigt Hill
#
# Bulk Modulus (GPa) = 40.26159 43.66725 41.96442
# Shear Modulus (GPa) = 39.38696 46.12117 42.75407
#
# Velocity S-wave (km/s) = 3.76509 4.07426 3.92272
# Velocity P-wave (km/s) = 5.77857 6.15217 5.96829
#
# Compressibility (1/GPa) = 0.02483757
#
# Stress axis : x y z
#
# Youngs Moduli (GPa) = 98.02201 133.29064 88.36713
#
# Poissons Ratio (x) = 0.04145 0.08290
# Poissons Ratio (y) = 0.03048 0.07445
# Poissons Ratio (z) = 0.09195 0.11229
#
# Static dielectric constant tensor:
#      x y z
#    x 2.198940 0.032080 -0.028170 
#    y 0.032080 2.281980 0.044890 
#    z -0.028170 0.044890 2.201040 
# 
# From -- ./inp_files/35976.got.cif
#   From: 2010.05.17/outbox.cif.g08.bks.cpg/sg2_18_cif.got.tgz:35976.got - 2010.06.03 11:33:40.
