data_PCOD9038585
_publ_section_title
;
Structure prediction by ZEFSAII (Michael W. Deem and Ramdas Pophale) SiO2 
 PCOD9038585
Probable space group: P -1
;
_chemical_formula_sum "Si O2"
_cell_formula_units_Z 12
_cell_length_a 4.899774
_cell_length_b 13.351848
_cell_length_c 12.259929
_cell_angle_alpha 38.389202
_cell_angle_beta 94.904757
_cell_angle_gamma 77.933402
_cell_volume 444.118631
_symmetry_space_group_name_H-M "P -1"
_symmetry_group_IT_number 2
_symmetry_cell_setting 'triclinic'
loop_
_space_group_symop_operation_xyz
x,y,z
-x,-y,-z
loop_
_atom_site_type_symbol
_atom_site_label
_atom_site_fract_x
_atom_site_fract_y
_atom_site_fract_z
Si Si1 0.319561 0.865582 0.531880
Si Si2 0.549886 0.682242 0.363847
Si Si3 0.892044 0.299037 0.506680
Si Si4 0.152489 0.509099 0.111956
Si Si5 0.627965 0.694677 0.110982
Si Si6 0.799515 0.158469 0.204991
O O1 0.637903 0.694464 0.668936
O O2 0.296007 0.884021 0.644789
O O3 0.074711 0.809881 0.510664
O O4 0.170496 0.063859 0.305662
O O5 0.500000 0.500000 0.500000
O O6 0.837200 0.668650 0.457061
O O7 0.604269 0.749764 0.190377
O O8 0.249165 0.790112 0.334508
O O9 0.632558 0.498938 0.295308
O O10 0.928349 0.625745 0.102892
O O11 0.326466 0.625829 0.984253
O O12 0.000000 0.500000 0.000000
O O13 0.358628 0.856036 0.899078
#
# Coordination Sequence:
#
# PCOD9038585 Si02
#       6
#     2   2   2   2   2   2
#     4  11  24  46  67 103 144 180 238 292 359 422
#     4  10  23  41  71 107 139 189 243 293 357 420
#     4  11  22  42  72 104 141 190 239 295 351 430
#     4  12  23  42  70 102 136 189 234 288 356 431
#     4  11  22  41  69  99 138 180 237 289 350 425
#     4  11  25  44  66 104 142 181 232 297 359 419
#
# _framework density 27.019805000000002
#
# number of rings (size 3 to 8) (size 9 to 14) (size 15 to 20)
#    0.000    1.000    3.333    4.500    4.667    0.667 
#    6.000    1.667    0.000    0.000    0.000    0.000 
#    0.000    0.000    0.000    0.000    0.000    0.000 
#
# Total GULP energy -66860.358260 kJ/mol
# GULP energy per Si atom -5571.696522 kJ/mol
# Density = 2.695831 g / cm^3
# Si number density = 27.019805 Si / 1000 Ang^3
#
#
#
# Elastic Constant Matrix: (Units=GPa)
#
#
# Indices 1 2 3 4 5 6 
#
# 1 130.7638 53.6001 62.9487 23.1248 24.8325 -2.6683
# 2 53.6001 123.6387 65.7618 40.9567 14.4688 -8.4777
# 3 62.9487 65.7618 182.7913 49.6754 33.7963 -21.2431
# 4 23.1248 40.9567 49.6754 42.1624 4.3056 12.5719
# 5 24.8325 14.4688 33.7963 4.3056 36.2865 10.6213
# 6 -2.6683 -8.4777 -21.2431 12.5719 10.6213 46.5857
#
#
#
# Elastic Compliance Matrix: (Units=1/GPa)
#
#
# Indices 1 2 3 4 5 6 
#
# 1 0.010643 -0.002730 -0.001012 -0.001852 -0.005439 0.001391
# 2 -0.002730 0.016644 0.004930 -0.023536 -0.010635 0.013897
# 3 -0.001012 0.004930 0.019868 -0.032420 -0.022919 0.023874
# 4 -0.001852 -0.023536 -0.032420 0.097826 0.045624 -0.055975
# 5 -0.005439 -0.010635 -0.022919 0.045624 0.062977 -0.039369
# 6 0.001391 0.013897 0.023874 -0.055975 -0.039369 0.059042
#
#
# Mechanical properties :
#
#
# Convention : Reuss Voigt Hill
#
# Bulk Modulus (GPa) = 20.19001 89.09054 54.64028
# Shear Modulus (GPa) = 17.78512 41.99913 29.89212
#
# Velocity S-wave (km/s) = 2.56837 3.94684 3.32972
# Velocity P-wave (km/s) = 4.03533 7.33580 5.92022
#
# Compressibility (1/GPa) = 0.04952944
#
# Stress axis : x y z
#
# Youngs Moduli (GPa) = 93.96288 60.08330 50.33154
#
# Poissons Ratio (x) = 0.16403 0.05095
# Poissons Ratio (y) = 0.25652 -0.24813
# Poissons Ratio (z) = 0.09512 -0.29620
#
# Static dielectric constant tensor:
#      x y z
#    x 2.299590 -0.034610 0.091020 
#    y -0.034610 2.373640 0.012240 
#    z 0.091020 0.012240 2.248000 
# 
# From -- ./inp_files/359510.got.cif
#   From: 2010.05.17/outbox.cif.g08.bks.cpg/sg2_180_cif.got.tgz:359510.got - 2010.06.03 11:33:40.
