data_PCOD9038297
_publ_section_title
;
Structure prediction by ZEFSAII (Michael W. Deem and Ramdas Pophale) SiO2 
 PCOD9038297
Probable space group: P -1
;
_chemical_formula_sum "Si O2"
_cell_formula_units_Z 16
_cell_length_a 16.363789
_cell_length_b 10.900826
_cell_length_c 8.942565
_cell_angle_alpha 44.160262
_cell_angle_beta 93.197693
_cell_angle_gamma 123.985069
_cell_volume 738.815199
_symmetry_space_group_name_H-M "P -1"
_symmetry_group_IT_number 2
_symmetry_cell_setting 'triclinic'
loop_
_space_group_symop_operation_xyz
x,y,z
-x,-y,-z
loop_
_atom_site_type_symbol
_atom_site_label
_atom_site_fract_x
_atom_site_fract_y
_atom_site_fract_z
Si Si1 0.409119 0.931962 0.176656
Si Si2 0.956369 0.272062 0.584232
Si Si3 0.850480 0.982378 0.110729
Si Si4 0.200026 0.476858 0.356308
Si Si5 0.067046 0.519615 0.847701
Si Si6 0.553530 0.283903 0.369762
Si Si7 0.697043 0.287950 0.165201
Si Si8 0.399269 0.304682 0.786637
O O1 0.273528 0.689242 0.310262
O O2 0.423133 0.838547 0.405246
O O3 0.500000 0.000000 0.000000
O O4 0.429045 0.169833 0.987509
O O5 0.882438 0.251449 0.463702
O O6 0.000000 0.500000 0.500000
O O7 0.068581 0.357753 0.438716
O O8 0.898364 0.037064 0.896983
O O9 0.811454 0.742839 0.400303
O O10 0.729934 0.906445 0.131847
O O11 0.958531 0.243579 0.989773
O O12 0.271032 0.620066 0.083765
O O13 0.178056 0.573263 0.863343
O O14 0.000000 0.500000 0.000000
O O15 0.634636 0.359416 0.170363
O O16 0.594990 0.527206 0.242467
O O17 0.406909 0.031658 0.550488
O O18 0.500000 0.500000 0.500000
#
# Coordination Sequence:
#
# PCOD9038297 Si02
#       8
#     2   2   2   2   2   2   2   2
#     4  12  22  42  75 102 135 184 237 305 348 406
#     4  10  23  41  68 101 131 180 237 292 345 410
#     4  11  26  42  70 108 131 182 244 295 351 413
#     4  12  22  45  69 100 143 181 236 294 358 426
#     4  11  24  46  68 100 144 189 231 289 361 433
#     4  11  26  47  70 108 142 193 241 294 355 428
#     4  11  26  46  70  99 155 191 230 291 369 431
#     4  12  24  43  76 106 135 179 247 298 351 417
#
# _framework density 21.656296000000001
#
# number of rings (size 3 to 8) (size 9 to 14) (size 15 to 20)
#    0.000    0.750    5.000    1.875    7.000    1.500 
#    2.250    2.500    0.000    0.000    0.000    0.000 
#    0.000    0.000    0.000    0.000    0.000    0.000 
#
# Total GULP energy -89449.328104 kJ/mol
# GULP energy per Si atom -5590.583007 kJ/mol
# Density = 2.160700 g / cm^3
# Si number density = 21.656296 Si / 1000 Ang^3
#
#
#
# Elastic Constant Matrix: (Units=GPa)
#
#
# Indices 1 2 3 4 5 6 
#
# 1 98.0068 32.4515 37.2295 -5.8402 2.2769 -0.7895
# 2 32.4515 90.5124 26.9017 -3.8282 -3.5565 4.7806
# 3 37.2295 26.9017 69.5307 7.2505 -3.7848 -4.2744
# 4 -5.8402 -3.8282 7.2505 37.4774 -4.1626 -6.8889
# 5 2.2769 -3.5565 -3.7848 -4.1626 47.6342 -2.1579
# 6 -0.7895 4.7806 -4.2744 -6.8889 -2.1579 30.6404
#
#
#
# Elastic Compliance Matrix: (Units=1/GPa)
#
#
# Indices 1 2 3 4 5 6 
#
# 1 0.013932 -0.002950 -0.006674 0.003131 -0.001120 0.000513
# 2 -0.002950 0.013470 -0.003869 0.001325 0.000848 -0.002360
# 3 -0.006674 -0.003869 0.020161 -0.004773 0.001318 0.002264
# 4 0.003131 0.001325 -0.004773 0.029609 0.002431 0.006036
# 5 -0.001120 0.000848 0.001318 0.002431 0.021522 0.002085
# 6 0.000513 -0.002360 0.002264 0.006036 0.002085 0.034838
#
#
# Mechanical properties :
#
#
# Convention : Reuss Voigt Hill
#
# Bulk Modulus (GPa) = 48.59892 50.13502 49.36697
# Shear Modulus (GPa) = 29.87251 33.91489 31.89370
#
# Velocity S-wave (km/s) = 3.71805 3.96163 3.84177
# Velocity P-wave (km/s) = 6.39699 6.64279 6.52105
#
# Compressibility (1/GPa) = 0.02057659
#
# Stress axis : x y z
#
# Youngs Moduli (GPa) = 71.77572 74.23986 49.59969
#
# Poissons Ratio (x) = 0.21902 0.33105
# Poissons Ratio (y) = 0.21175 0.19190
# Poissons Ratio (z) = 0.47906 0.28723
#
# Static dielectric constant tensor:
#      x y z
#    x 1.811610 0.026100 -0.023790 
#    y 0.026100 1.791890 -0.023360 
#    z -0.023790 -0.023360 1.832240 
# 
# From -- ./inp_files/332743.got.cif
#   From: 2010.05.17/outbox.cif.g08.bks.cpg/sg2_167_cif.got.tgz:332743.got - 2010.06.03 11:33:40.
