data_PCOD9038341
_publ_section_title
;
Structure prediction by ZEFSAII (Michael W. Deem and Ramdas Pophale) SiO2 
 PCOD9038341
Probable space group: P -1
;
_chemical_formula_sum "Si O2"
_cell_formula_units_Z 14
_cell_length_a 11.385526
_cell_length_b 16.401675
_cell_length_c 7.883353
_cell_angle_alpha 123.343007
_cell_angle_beta 53.169137
_cell_angle_gamma 151.409981
_cell_volume 562.829691
_symmetry_space_group_name_H-M "P -1"
_symmetry_group_IT_number 2
_symmetry_cell_setting 'triclinic'
loop_
_space_group_symop_operation_xyz
x,y,z
-x,-y,-z
loop_
_atom_site_type_symbol
_atom_site_label
_atom_site_fract_x
_atom_site_fract_y
_atom_site_fract_z
Si Si1 0.904602 0.101996 0.229652
Si Si2 0.718267 0.707226 0.201617
Si Si3 0.601317 0.086343 0.273744
Si Si4 0.421808 0.389742 0.286188
Si Si5 0.876349 0.158994 0.800952
Si Si6 0.579860 0.276984 0.648087
Si Si7 0.833049 0.477146 0.997851
O O1 0.740814 0.109397 0.335164
O O2 0.121931 0.225806 0.326035
O O3 0.682846 0.903637 0.238366
O O4 0.090744 0.184547 0.000644
O O5 0.557735 0.519157 0.155586
O O6 0.510927 0.679652 0.332145
O O7 0.921477 0.816535 0.307463
O O8 0.675729 0.240453 0.405849
O O9 0.300617 0.933364 0.315893
O O10 0.690386 0.065411 0.018462
O O11 0.500000 0.500000 0.500000
O O12 0.545889 0.351394 0.161600
O O13 0.024239 0.341653 0.902758
O O14 0.779820 0.409801 0.776954
O O15 0.000000 0.500000 0.000000
#
# Coordination Sequence:
#
# PCOD9038341 Si02
#       7
#     2   2   2   2   2   2   2
#     4  11  23  44  68  93 138 176 219 268 334 402
#     4  10  23  44  68  92 135 174 221 272 330 399
#     4  10  23  41  68  95 130 177 222 269 332 390
#     4  11  26  44  69  97 131 183 219 267 343 399
#     4   9  22  45  64  91 134 182 213 267 339 397
#     4  12  25  39  70 106 128 173 229 278 325 385
#     4  11  25  42  65  96 136 170 225 278 328 387
#
# _framework density 24.874310000000001
#
# number of rings (size 3 to 8) (size 9 to 14) (size 15 to 20)
#    0.000    1.429    1.429    2.143   10.000    2.286 
#    0.000    0.000    0.000    0.000    0.000    0.000 
#    0.000    0.000    0.000    0.000    0.000    0.000 
#
# Total GULP energy -78131.526491 kJ/mol
# GULP energy per Si atom -5580.823321 kJ/mol
# Density = 2.481770 g / cm^3
# Si number density = 24.874310 Si / 1000 Ang^3
#
#
#
# Elastic Constant Matrix: (Units=GPa)
#
#
# Indices 1 2 3 4 5 6 
#
# 1 234.5504 49.4006 28.6546 18.6703 -11.6350 56.2613
# 2 49.4006 114.9621 12.4207 3.6043 4.4127 36.5512
# 3 28.6546 12.4207 55.1661 6.7709 11.3818 22.0068
# 4 18.6703 3.6043 6.7709 47.0957 5.8474 9.0928
# 5 -11.6350 4.4127 11.3818 5.8474 49.6733 5.1455
# 6 56.2613 36.5512 22.0068 9.0928 5.1455 52.1996
#
#
#
# Elastic Compliance Matrix: (Units=1/GPa)
#
#
# Indices 1 2 3 4 5 6 
#
# 1 0.006150 -0.000794 -0.001126 -0.001448 0.002519 -0.005594
# 2 -0.000794 0.011342 0.000914 0.000863 -0.000722 -0.007551
# 3 -0.001126 0.000914 0.022949 -0.000702 -0.004638 -0.008522
# 4 -0.001448 0.000863 -0.000702 0.022643 -0.002669 -0.002429
# 5 0.002519 -0.000722 -0.004638 -0.002669 0.022369 -0.001994
# 6 -0.005594 -0.007551 -0.008522 -0.002429 -0.001994 0.034686
#
#
# Mechanical properties :
#
#
# Convention : Reuss Voigt Hill
#
# Bulk Modulus (GPa) = 26.02186 65.07005 45.54595
# Shear Modulus (GPa) = 37.04751 50.74056 43.89404
#
# Velocity S-wave (km/s) = 3.86345 4.52140 4.20531
# Velocity P-wave (km/s) = 5.51232 7.31257 6.47532
#
# Compressibility (1/GPa) = 0.03842923
#
# Stress axis : x y z
#
# Youngs Moduli (GPa) = 162.59039 88.16540 43.57533
#
# Poissons Ratio (x) = 0.06999 0.04908
# Poissons Ratio (y) = 0.12907 -0.03983
# Poissons Ratio (z) = 0.18312 -0.08058
#
# Static dielectric constant tensor:
#      x y z
#    x 2.026750 -0.029730 0.075490 
#    y -0.029730 2.036250 -0.140950 
#    z 0.075490 -0.140950 2.144310 
# 
# From -- ./inp_files/279788.got.cif
#   From: 2010.05.17/outbox.cif.g08.bks.cpg/sg2_140_cif.got.tgz:279788.got - 2010.06.03 11:33:40.
