data_PCOD9038557
_publ_section_title
;
Structure prediction by ZEFSAII (Michael W. Deem and Ramdas Pophale) SiO2 
 PCOD9038557
Probable space group: P -1
;
_chemical_formula_sum "Si O2"
_cell_formula_units_Z 16
_cell_length_a 9.212321
_cell_length_b 9.077575
_cell_length_c 11.862002
_cell_angle_alpha 58.805492
_cell_angle_beta 116.334209
_cell_angle_gamma 105.643541
_cell_volume 759.451508
_symmetry_space_group_name_H-M "P -1"
_symmetry_group_IT_number 2
_symmetry_cell_setting 'triclinic'
loop_
_space_group_symop_operation_xyz
x,y,z
-x,-y,-z
loop_
_atom_site_type_symbol
_atom_site_label
_atom_site_fract_x
_atom_site_fract_y
_atom_site_fract_z
Si Si1 0.576484 0.521785 0.894013
Si Si2 0.224430 0.306291 0.605483
Si Si3 0.103671 0.835786 0.078590
Si Si4 0.744842 0.366922 0.354037
Si Si5 0.044882 0.473655 0.276415
Si Si6 0.937367 0.047369 0.586178
Si Si7 0.895650 0.714874 0.851125
Si Si8 0.545342 0.172506 0.876029
O O1 0.442643 0.623280 0.739526
O O2 0.743373 0.636294 0.900643
O O3 0.584564 0.335756 0.908832
O O4 0.500000 0.500000 0.000000
O O5 0.209043 0.477920 0.606068
O O6 0.171269 0.372666 0.437167
O O7 0.398935 0.232512 0.721780
O O8 0.091804 0.154306 0.650555
O O9 0.067296 0.678789 0.214778
O O10 0.295937 0.866959 0.125124
O O11 0.041311 0.769015 0.962136
O O12 0.000000 0.000000 0.000000
O O13 0.796711 0.181077 0.481605
O O14 0.863485 0.410412 0.272352
O O15 0.070204 0.425325 0.175573
O O16 0.875451 0.884490 0.701302
O O17 0.000000 0.000000 0.500000
O O18 0.500000 0.000000 0.000000
#
# Coordination Sequence:
#
# PCOD9038557 Si02
#       8
#     2   2   2   2   2   2   2   2
#     4  11  26  46  67  99 140 188 231 285 353 407
#     4  10  23  44  71 103 138 182 230 282 355 411
#     4  12  29  44  69 103 137 184 236 290 347 417
#     4  10  23  41  70  99 138 184 227 282 351 412
#     4  11  22  45  72  99 137 185 231 285 348 417
#     4  11  21  41  69 104 135 177 228 287 345 418
#     4  12  25  45  69 102 139 182 237 284 351 417
#     4  11  26  47  70 100 138 180 233 289 346 417
#
# _framework density 21.067834999999999
#
# number of rings (size 3 to 8) (size 9 to 14) (size 15 to 20)
#    0.000    1.000    3.750    3.375   10.500    2.000 
#    0.000    0.000    0.000    0.000    0.000    0.000 
#    0.000    0.000    0.000    0.000    0.000    0.000 
#
# Total GULP energy -89388.361719 kJ/mol
# GULP energy per Si atom -5586.772607 kJ/mol
# Density = 2.101988 g / cm^3
# Si number density = 21.067835 Si / 1000 Ang^3
#
#
#
# Elastic Constant Matrix: (Units=GPa)
#
#
# Indices 1 2 3 4 5 6 
#
# 1 66.5610 16.2849 43.3955 -16.7696 17.6347 -14.8195
# 2 16.2849 84.6499 45.0497 -31.1862 14.5016 -11.7956
# 3 43.3955 45.0497 82.8842 -25.3772 11.8612 -3.6555
# 4 -16.7696 -31.1862 -25.3772 55.3052 -3.0682 -3.7652
# 5 17.6347 14.5016 11.8612 -3.0682 38.9434 -6.0902
# 6 -14.8195 -11.7956 -3.6555 -3.7652 -6.0902 29.8027
#
#
#
# Elastic Compliance Matrix: (Units=1/GPa)
#
#
# Indices 1 2 3 4 5 6 
#
# 1 0.032856 0.010475 -0.018230 0.008130 -0.009887 0.017254
# 2 0.010475 0.024100 -0.013685 0.011011 -0.006633 0.013104
# 3 -0.018230 -0.013685 0.027819 -0.001024 0.003147 -0.010556
# 4 0.008130 0.011011 -0.001024 0.026827 -0.003649 0.010919
# 5 -0.009887 -0.006633 0.003147 -0.003649 0.031185 -0.001244
# 6 0.017254 0.013104 -0.010556 0.010919 -0.001244 0.047151
#
#
# Mechanical properties :
#
#
# Convention : Reuss Voigt Hill
#
# Bulk Modulus (GPa) = 23.87019 49.28394 36.57707
# Shear Modulus (GPa) = 20.26076 33.43460 26.84768
#
# Velocity S-wave (km/s) = 3.10448 3.98804 3.57367
# Velocity P-wave (km/s) = 4.91987 6.68204 5.86749
#
# Compressibility (1/GPa) = 0.04189326
#
# Stress axis : x y z
#
# Youngs Moduli (GPa) = 30.43571 41.49404 35.94722
#
# Poissons Ratio (x) = -0.43463 0.65533
# Poissons Ratio (y) = -0.31880 0.49193
# Poissons Ratio (z) = 0.55486 0.56783
#
# Static dielectric constant tensor:
#      x y z
#    x 1.732050 -0.012160 -0.013440 
#    y -0.012160 1.789340 -0.018570 
#    z -0.013440 -0.018570 1.808930 
# 
# From -- ./inp_files/243204.got.cif
#   From: 2010.05.17/outbox.cif.g08.bks.cpg/sg2_122_cif.got.tgz:243204.got - 2010.06.03 11:33:40.
