data_PCOD9038972
_publ_section_title
;
Structure prediction by ZEFSAII (Michael W. Deem and Ramdas Pophale) SiO2 
 PCOD9038972
Probable space group: P -1
;
_chemical_formula_sum "Si O2"
_cell_formula_units_Z 12
_cell_length_a 16.228262
_cell_length_b 5.006118
_cell_length_c 20.118787
_cell_angle_alpha 63.608902
_cell_angle_beta 158.687348
_cell_angle_gamma 106.977350
_cell_volume 493.303245
_symmetry_space_group_name_H-M "P -1"
_symmetry_group_IT_number 2
_symmetry_cell_setting 'triclinic'
loop_
_space_group_symop_operation_xyz
x,y,z
-x,-y,-z
loop_
_atom_site_type_symbol
_atom_site_label
_atom_site_fract_x
_atom_site_fract_y
_atom_site_fract_z
Si Si1 0.553296 0.241837 0.890975
Si Si2 0.990532 0.790022 0.126685
Si Si3 0.936912 0.808712 0.665777
Si Si4 0.770693 0.101999 0.364876
Si Si5 0.418863 0.289952 0.252383
Si Si6 0.240834 0.278025 0.263948
O O1 0.343432 0.524074 0.742205
O O2 0.575230 0.414093 0.819446
O O3 0.450669 0.969866 0.827298
O O4 0.814108 0.138775 0.134762
O O5 0.018929 0.550568 0.236265
O O6 0.174657 0.574437 0.231710
O O7 0.060647 0.089731 0.161484
O O8 0.726024 0.870879 0.885969
O O9 0.862521 0.890936 0.524278
O O10 0.697170 0.047600 0.497793
O O11 0.000000 0.000000 0.500000
O O12 0.270075 0.369870 0.200056
O O13 0.500000 0.000000 0.500000
#
# Coordination Sequence:
#
# PCOD9038972 Si02
#       6
#     2   2   2   2   2   2
#     4  10  25  44  68 100 130 172 212 261 327 385
#     4  11  25  42  62  92 126 173 219 265 319 370
#     4  10  24  44  68  95 135 170 215 268 323 388
#     4  11  25  45  71 100 130 166 212 265 325 392
#     4  10  23  42  65  91 130 172 215 266 316 375
#     4  12  24  40  63  91 128 171 220 267 315 366
#
# _framework density 24.325807999999999
#
# number of rings (size 3 to 8) (size 9 to 14) (size 15 to 20)
#    0.000    1.333    1.667    2.000    2.333   13.333 
#    0.000    0.000    0.000    0.000    0.000    0.000 
#    0.000    0.000    0.000    0.000    0.000    0.000 
#
# Total GULP energy -67279.208861 kJ/mol
# GULP energy per Si atom -5606.600738 kJ/mol
# Density = 2.427044 g / cm^3
# Si number density = 24.325808 Si / 1000 Ang^3
#
#
#
# Elastic Constant Matrix: (Units=GPa)
#
#
# Indices 1 2 3 4 5 6 
#
# 1 126.1970 4.4051 32.1397 -3.2097 27.0370 -4.0202
# 2 4.4051 39.3161 8.0320 4.7516 -4.6281 -5.7965
# 3 32.1397 8.0320 156.7154 6.3338 -2.1929 1.2752
# 4 -3.2097 4.7516 6.3338 23.0643 1.3425 13.2184
# 5 27.0370 -4.6281 -2.1929 1.3425 40.6324 0.9541
# 6 -4.0202 -5.7965 1.2752 13.2184 0.9541 22.1963
#
#
#
# Elastic Compliance Matrix: (Units=1/GPa)
#
#
# Indices 1 2 3 4 5 6 
#
# 1 0.010163 -0.001835 -0.002202 0.002711 -0.007184 0.000183
# 2 -0.001835 0.030969 -0.000605 -0.016847 0.004859 0.017614
# 3 -0.002202 -0.000605 0.006985 -0.002448 0.001844 0.000421
# 4 0.002711 -0.016847 -0.002448 0.076229 -0.005224 -0.048940
# 5 -0.007184 0.004859 0.001844 -0.005224 0.030177 0.001676
# 6 0.000183 0.017614 0.000421 -0.048940 0.001676 0.078734
#
#
# Mechanical properties :
#
#
# Convention : Reuss Voigt Hill
#
# Bulk Modulus (GPa) = 25.75180 45.70912 35.73046
# Shear Modulus (GPa) = 19.57056 35.68871 27.62964
#
# Velocity S-wave (km/s) = 2.83948 3.83445 3.37384
# Velocity P-wave (km/s) = 4.62162 6.19961 5.46784
#
# Compressibility (1/GPa) = 0.03883224
#
# Stress axis : x y z
#
# Youngs Moduli (GPa) = 98.39790 32.29029 143.16630
#
# Poissons Ratio (x) = 0.05926 0.31521
# Poissons Ratio (y) = 0.18058 0.08666
# Poissons Ratio (z) = 0.21665 0.01955
#
# Static dielectric constant tensor:
#      x y z
#    x 1.948800 -0.015690 -0.004850 
#    y -0.015690 1.879660 0.006870 
#    z -0.004850 0.006870 2.006810 
# 
# From -- ./inp_files/121305.got.cif
#   From: 2010.05.17/outbox.cif.g08.bks.cpg/sg2_61_cif.got.tgz:121305.got - 2010.06.03 11:33:40.
