data_PCOD9038390
_publ_section_title
;
Structure prediction by ZEFSAII (Michael W. Deem and Ramdas Pophale) SiO2 
 PCOD9038390
Probable space group: P -1
;
_chemical_formula_sum "Si O2"
_cell_formula_units_Z 16
_cell_length_a 11.275441
_cell_length_b 6.157600
_cell_length_c 10.303216
_cell_angle_alpha 96.507698
_cell_angle_beta 100.428553
_cell_angle_gamma 79.004214
_cell_volume 688.311155
_symmetry_space_group_name_H-M "P -1"
_symmetry_group_IT_number 2
_symmetry_cell_setting 'triclinic'
loop_
_space_group_symop_operation_xyz
x,y,z
-x,-y,-z
loop_
_atom_site_type_symbol
_atom_site_label
_atom_site_fract_x
_atom_site_fract_y
_atom_site_fract_z
Si Si1 0.364012 0.135383 0.004853
Si Si2 0.924577 0.694673 0.394092
Si Si3 0.664533 0.515873 0.338698
Si Si4 0.756282 0.035309 0.772746
Si Si5 0.006118 0.265389 0.286419
Si Si6 0.416233 0.510784 0.200368
Si Si7 0.415359 0.201999 0.422810
Si Si8 0.791313 0.074785 0.239013
O O1 0.299240 0.039872 0.109128
O O2 0.377325 0.387240 0.057622
O O3 0.279437 0.082513 0.867006
O O4 0.500000 0.000000 0.000000
O O5 0.792360 0.610074 0.365569
O O6 0.979238 0.724908 0.550137
O O7 0.008463 0.530699 0.297143
O O8 0.889878 0.932274 0.340188
O O9 0.547241 0.596043 0.226019
O O10 0.611859 0.594680 0.471944
O O11 0.698675 0.253014 0.312092
O O12 0.694548 0.294008 0.768050
O O13 0.896883 0.923236 0.776152
O O14 0.702158 0.907207 0.637038
O O15 0.876744 0.227346 0.196924
O O16 0.441484 0.313795 0.299518
O O17 0.500000 0.000000 0.500000
#
# Coordination Sequence:
#
# PCOD9038390 Si02
#       8
#     2   2   2   2   2   2   2   2
#     4  11  26  47  64  98 138 174 235 276 327 401
#     4  10  23  41  69 100 136 175 217 284 331 400
#     4  11  22  36  65 100 129 170 217 266 345 399
#     4  11  25  43  68  95 139 178 217 287 328 400
#     4  10  23  45  64 102 131 176 228 271 338 398
#     4  11  25  39  65  99 130 186 217 273 343 395
#     4  11  23  37  60 101 141 168 217 275 342 410
#     4  11  25  42  70  94 132 185 220 278 329 393
#
# _framework density 23.245301000000001
#
# number of rings (size 3 to 8) (size 9 to 14) (size 15 to 20)
#    0.000    1.250    3.750    0.750    5.250    5.000 
#    0.000    1.250    0.000    0.000    0.000    0.000 
#    0.000    0.000    0.000    0.000    0.000    0.000 
#
# Total GULP energy -89113.434795 kJ/mol
# GULP energy per Si atom -5569.589675 kJ/mol
# Density = 2.319239 g / cm^3
# Si number density = 23.245301 Si / 1000 Ang^3
#
#
#
# Elastic Constant Matrix: (Units=GPa)
#
#
# Indices 1 2 3 4 5 6 
#
# 1 80.3822 36.9225 30.1014 22.2368 18.6480 -13.2318
# 2 36.9225 90.8854 33.8864 32.2257 -3.3488 -30.5589
# 3 30.1014 33.8864 98.4945 36.4789 15.4397 2.4372
# 4 22.2368 32.2257 36.4789 43.5155 9.8975 -1.9027
# 5 18.6480 -3.3488 15.4397 9.8975 31.8241 8.1849
# 6 -13.2318 -30.5589 2.4372 -1.9027 8.1849 35.5784
#
#
#
# Elastic Compliance Matrix: (Units=1/GPa)
#
#
# Indices 1 2 3 4 5 6 
#
# 1 0.019784 -0.005355 -0.001845 -0.001574 -0.012214 0.005611
# 2 -0.005355 0.025970 -0.003579 -0.014396 0.007434 0.018080
# 3 -0.001845 -0.003579 0.015985 -0.009342 -0.002942 -0.004679
# 4 -0.001574 -0.014396 -0.009342 0.043623 -0.007505 -0.008251
# 5 -0.012214 0.007434 -0.002942 -0.007505 0.045387 -0.008798
# 6 0.005611 0.018080 -0.004679 -0.008251 -0.008798 0.047626
#
#
# Mechanical properties :
#
#
# Convention : Reuss Voigt Hill
#
# Bulk Modulus (GPa) = 24.88772 52.39806 38.64289
# Shear Modulus (GPa) = 21.42909 33.44038 27.43473
#
# Velocity S-wave (km/s) = 3.03952 3.79699 3.43917
# Velocity P-wave (km/s) = 4.80084 6.46630 5.69478
#
# Compressibility (1/GPa) = 0.04018046
#
# Stress axis : x y z
#
# Youngs Moduli (GPa) = 50.54639 38.50554 62.55789
#
# Poissons Ratio (x) = 0.20619 0.11543
# Poissons Ratio (y) = 0.27067 0.22392
# Poissons Ratio (z) = 0.09327 0.13783
#
# Static dielectric constant tensor:
#      x y z
#    x 2.000330 0.002270 0.005150 
#    y 0.002270 2.084760 -0.076740 
#    z 0.005150 -0.076740 1.885540 
# 
# From -- ./inp_files/411116.got.cif
#   From: 2010.05.17/outbox.cif.g08.bks.cpg/sg2_206_cif.got.tgz:411116.got - 2010.06.03 11:33:40.
