data_PCOD9038943
_publ_section_title
;
Structure prediction by ZEFSAII (Michael W. Deem and Ramdas Pophale) SiO2 
 PCOD9038943
Probable space group: P -1
;
_chemical_formula_sum "Si O2"
_cell_formula_units_Z 16
_cell_length_a 9.856740
_cell_length_b 9.424030
_cell_length_c 11.177166
_cell_angle_alpha 120.046420
_cell_angle_beta 56.231675
_cell_angle_gamma 111.591720
_cell_volume 741.281418
_symmetry_space_group_name_H-M "P -1"
_symmetry_group_IT_number 2
_symmetry_cell_setting 'triclinic'
loop_
_space_group_symop_operation_xyz
x,y,z
-x,-y,-z
loop_
_atom_site_type_symbol
_atom_site_label
_atom_site_fract_x
_atom_site_fract_y
_atom_site_fract_z
Si Si1 0.623454 0.365563 0.361438
Si Si2 0.962964 0.584793 0.272592
Si Si3 0.444059 0.068361 0.182154
Si Si4 0.441968 0.169800 0.563465
Si Si5 0.752707 0.556720 0.830520
Si Si6 0.504392 0.751816 0.172801
Si Si7 0.109734 0.229959 0.367769
Si Si8 0.918816 0.922715 0.382666
O O1 0.500000 0.500000 0.500000
O O2 0.796044 0.464878 0.284090
O O3 0.562756 0.229098 0.235287
O O4 0.594286 0.269438 0.460916
O O5 0.939710 0.663905 0.449953
O O6 0.991959 0.751452 0.249753
O O7 0.111333 0.476907 0.153767
O O8 0.267676 0.134498 0.280218
O O9 0.456873 0.921594 0.210841
O O10 0.500000 0.000000 0.000000
O O11 0.404447 0.241883 0.741313
O O12 0.276399 0.137059 0.551736
O O13 0.500000 0.000000 0.500000
O O14 0.658162 0.375055 0.777566
O O15 0.841272 0.644425 0.709954
O O16 0.619628 0.670555 0.989132
O O17 0.967536 0.080735 0.341401
O O18 0.000000 0.000000 0.500000
#
# Coordination Sequence:
#
# PCOD9038943 Si02
#       8
#     2   2   2   2   2   2   2   2
#     4  12  23  44  71 103 138 179 238 293 346 416
#     4  11  23  41  68 100 138 178 237 292 347 413
#     4  12  24  45  70 102 140 191 231 287 359 432
#     4  12  25  41  71 103 135 181 235 292 345 413
#     4  11  25  43  67  99 142 182 232 288 355 423
#     4  11  26  46  67 100 141 185 232 291 360 417
#     4  11  22  40  71 100 131 185 238 283 347 420
#     4  10  23  42  65 100 139 176 226 287 350 412
#
# _framework density 21.584244999999999
#
# number of rings (size 3 to 8) (size 9 to 14) (size 15 to 20)
#    0.000    0.750    5.000    2.625    5.250    0.000 
#    2.250    1.875    0.000    0.000    0.000    0.000 
#    0.000    0.000    0.000    0.000    0.000    0.000 
#
# Total GULP energy -89317.946715 kJ/mol
# GULP energy per Si atom -5582.371670 kJ/mol
# Density = 2.153512 g / cm^3
# Si number density = 21.584245 Si / 1000 Ang^3
#
#
#
# Elastic Constant Matrix: (Units=GPa)
#
#
# Indices 1 2 3 4 5 6 
#
# 1 70.5815 22.6339 -1.7816 15.7573 -7.2837 7.9706
# 2 22.6339 145.5125 16.9699 16.3500 3.6529 20.2184
# 3 -1.7816 16.9699 44.9843 6.5303 12.0956 -1.4562
# 4 15.7573 16.3500 6.5303 29.8192 -7.3453 -3.9346
# 5 -7.2837 3.6529 12.0956 -7.3453 35.8571 5.2563
# 6 7.9706 20.2184 -1.4562 -3.9346 5.2563 36.7735
#
#
#
# Elastic Compliance Matrix: (Units=1/GPa)
#
#
# Indices 1 2 3 4 5 6 
#
# 1 0.017296 -0.001383 0.001879 -0.008893 0.001803 -0.004124
# 2 -0.001383 0.008558 -0.002756 -0.004089 -0.000342 -0.004904
# 3 0.001879 -0.002756 0.027402 -0.007709 -0.010583 0.002881
# 4 -0.008893 -0.004089 -0.007709 0.045466 0.009442 0.007386
# 5 0.001803 -0.000342 -0.010583 0.009442 0.034459 -0.004537
# 6 -0.004124 -0.004904 0.002881 0.007386 -0.004537 0.032336
#
#
# Mechanical properties :
#
#
# Convention : Reuss Voigt Hill
#
# Bulk Modulus (GPa) = 20.51832 37.41364 28.96598
# Shear Modulus (GPa) = 26.84109 35.37371 31.10740
#
# Velocity S-wave (km/s) = 3.53023 4.05268 3.80044
# Velocity P-wave (km/s) = 5.11307 6.26661 5.71900
#
# Compressibility (1/GPa) = 0.04873693
#
# Stress axis : x y z
#
# Youngs Moduli (GPa) = 57.81709 116.84739 36.49350
#
# Poissons Ratio (x) = 0.16155 -0.06858
# Poissons Ratio (y) = 0.07993 0.10059
# Poissons Ratio (z) = -0.10866 0.32208
#
# Static dielectric constant tensor:
#      x y z
#    x 1.837630 0.004190 0.057320 
#    y 0.004190 1.808310 -0.024200 
#    z 0.057320 -0.024200 1.821830 
# 
# From -- ./inp_files/242867.got.cif
#   From: 2010.05.17/outbox.cif.g08.bks.cpg/sg2_122_cif.got.tgz:242867.got - 2010.06.03 11:33:40.
