data_PCOD9038717
_publ_section_title
;
Structure prediction by ZEFSAII (Michael W. Deem and Ramdas Pophale) SiO2 
 PCOD9038717
Probable space group: P -1
;
_chemical_formula_sum "Si O2"
_cell_formula_units_Z 14
_cell_length_a 17.661697
_cell_length_b 15.683534
_cell_length_c 11.124300
_cell_angle_alpha 136.249249
_cell_angle_beta 148.033988
_cell_angle_gamma 21.307578
_cell_volume 554.503039
_symmetry_space_group_name_H-M "P -1"
_symmetry_group_IT_number 2
_symmetry_cell_setting 'triclinic'
loop_
_space_group_symop_operation_xyz
x,y,z
-x,-y,-z
loop_
_atom_site_type_symbol
_atom_site_label
_atom_site_fract_x
_atom_site_fract_y
_atom_site_fract_z
Si Si1 0.327472 0.957795 0.444459
Si Si2 0.758949 0.475423 0.916293
Si Si3 0.739052 0.051530 0.933543
Si Si4 0.876789 0.050657 0.515345
Si Si5 0.680044 0.430625 0.026609
Si Si6 0.227268 0.554334 0.518185
Si Si7 0.280414 0.205158 0.805965
O O1 0.575648 0.678530 0.539898
O O2 0.368673 0.060888 0.660347
O O3 0.329380 0.941917 0.286685
O O4 0.994911 0.170321 0.242935
O O5 0.464143 0.671762 0.647490
O O6 0.724244 0.417774 0.930601
O O7 0.737068 0.636503 0.077910
O O8 0.076072 0.198827 0.011887
O O9 0.448735 0.338713 0.878057
O O10 0.959522 0.997519 0.209710
O O11 0.000000 0.000000 0.500000
O O12 0.971593 0.837604 0.422454
O O13 0.531879 0.526663 0.192352
O O14 0.041968 0.597159 0.389531
O O15 0.500000 0.000000 0.000000
#
# Coordination Sequence:
#
# PCOD9038717 Si02
#       7
#     2   2   2   2   2   2   2
#     4  11  26  46  71 102 138 181 232 277 346 402
#     4  11  23  45  69 101 139 181 228 274 342 408
#     4  10  23  41  75 102 131 177 226 290 339 387
#     4  11  21  43  72 104 136 172 232 288 330 402
#     4  10  23  46  74 104 133 174 232 293 329 399
#     4  11  24  45  72 102 140 179 222 288 341 400
#     4  12  28  46  65 100 147 183 223 276 339 419
#
# _framework density 25.247833
#
# number of rings (size 3 to 8) (size 9 to 14) (size 15 to 20)
#    0.000    1.143    4.286    1.714    0.000   14.857 
#    0.000    4.286    0.000    0.000    0.000    0.000 
#    0.000    0.000    0.000    0.000    0.000    0.000 
#
# Total GULP energy -78147.057512 kJ/mol
# GULP energy per Si atom -5581.932679 kJ/mol
# Density = 2.519037 g / cm^3
# Si number density = 25.247833 Si / 1000 Ang^3
#
#
#
# Elastic Constant Matrix: (Units=GPa)
#
#
# Indices 1 2 3 4 5 6 
#
# 1 56.8826 11.1097 29.9720 -1.8048 6.7782 1.4637
# 2 11.1097 214.2979 38.3724 4.7777 3.6928 -1.2670
# 3 29.9720 38.3724 85.2480 -0.5614 7.8253 -3.4043
# 4 -1.8048 4.7777 -0.5614 53.5989 0.4671 3.0152
# 5 6.7782 3.6928 7.8253 0.4671 25.8954 4.5479
# 6 1.4637 -1.2670 -3.4043 3.0152 4.5479 36.0871
#
#
#
# Elastic Compliance Matrix: (Units=1/GPa)
#
#
# Indices 1 2 3 4 5 6 
#
# 1 0.021973 0.000251 -0.007581 0.000737 -0.003291 -0.001244
# 2 0.000251 0.005091 -0.002377 -0.000469 -0.000063 -0.000009
# 3 -0.007581 -0.002377 0.015807 0.000030 -0.002817 0.002068
# 4 0.000737 -0.000469 0.000030 0.018815 -0.000195 -0.001591
# 5 -0.003291 -0.000063 -0.002817 -0.000195 0.041277 -0.005320
# 6 -0.001244 -0.000009 0.002068 -0.001591 -0.005320 0.028759
#
#
# Mechanical properties :
#
#
# Convention : Reuss Voigt Hill
#
# Bulk Modulus (GPa) = 42.63217 57.25962 49.94590
# Shear Modulus (GPa) = 31.45522 41.58122 36.51822
#
# Velocity S-wave (km/s) = 3.53350 4.06263 3.80727
# Velocity P-wave (km/s) = 5.79393 6.68841 6.25718
#
# Compressibility (1/GPa) = 0.02345646
#
# Stress axis : x y z
#
# Youngs Moduli (GPa) = 45.50989 196.44162 63.26122
#
# Poissons Ratio (x) = -0.04937 0.47961
# Poissons Ratio (y) = -0.01144 0.15040
# Poissons Ratio (z) = 0.34503 0.46702
#
# Static dielectric constant tensor:
#      x y z
#    x 2.036710 -0.026740 -0.051100 
#    y -0.026740 2.063140 -0.040070 
#    z -0.051100 -0.040070 2.023930 
# 
# From -- ./inp_files/472429.got.cif
#   From: 2010.05.17/outbox.cif.g08.bks.cpg/sg2_237_cif.got.tgz:472429.got - 2010.06.03 11:33:40.
