data_PCOD9038979
_publ_section_title
;
Structure prediction by ZEFSAII (Michael W. Deem and Ramdas Pophale) SiO2 
 PCOD9038979
Probable space group: P -1
;
_chemical_formula_sum "Si O2"
_cell_formula_units_Z 16
_cell_length_a 11.834554
_cell_length_b 20.520384
_cell_length_c 11.007823
_cell_angle_alpha 45.603557
_cell_angle_beta 36.463968
_cell_angle_gamma 26.670227
_cell_volume 711.300606
_symmetry_space_group_name_H-M "P -1"
_symmetry_group_IT_number 2
_symmetry_cell_setting 'triclinic'
loop_
_space_group_symop_operation_xyz
x,y,z
-x,-y,-z
loop_
_atom_site_type_symbol
_atom_site_label
_atom_site_fract_x
_atom_site_fract_y
_atom_site_fract_z
Si Si1 0.277329 0.462535 0.273437
Si Si2 0.289622 0.589941 0.872626
Si Si3 0.883208 0.116007 0.146972
Si Si4 0.792863 0.883865 0.310041
Si Si5 0.109444 0.718810 0.483781
Si Si6 0.335402 0.977411 0.433061
Si Si7 0.178977 0.070913 0.192555
Si Si8 0.751229 0.514346 0.198735
O O1 0.404320 0.474809 0.260218
O O2 0.574445 0.292048 0.196610
O O3 0.000000 0.500000 0.500000
O O4 0.193786 0.563262 0.105557
O O5 0.284355 0.524713 0.847650
O O6 0.070029 0.755640 0.810001
O O7 0.091955 0.054686 0.164492
O O8 0.787468 0.047501 0.329671
O O9 0.070922 0.076727 0.919114
O O10 0.040150 0.751768 0.358869
O O11 0.500000 0.000000 0.500000
O O12 0.684914 0.862938 0.316032
O O13 0.403669 0.669735 0.326447
O O14 0.159993 0.596521 0.637583
O O15 0.827848 0.864990 0.610251
O O16 0.233855 0.988026 0.372361
O O17 0.500000 0.000000 0.000000
O O18 0.000000 0.500000 0.000000
#
# Coordination Sequence:
#
# PCOD9038979 Si02
#       8
#     2   2   2   2   2   2   2   2
#     4  10  24  42  68 101 136 180 223 280 346 403
#     4  10  23  44  66  95 139 172 231 281 333 405
#     4  11  24  40  67 102 132 175 227 272 338 413
#     4  10  23  42  65  92 131 176 217 278 335 393
#     4  10  24  42  64  95 128 170 226 273 335 396
#     4  11  23  42  68  96 136 172 217 281 340 404
#     4  11  22  41  67  95 136 176 216 276 343 399
#     4  11  24  43  66  94 129 182 224 280 333 397
#
# _framework density 22.494005999999999
#
# number of rings (size 3 to 8) (size 9 to 14) (size 15 to 20)
#    0.000    1.500    2.500    1.125    1.750   11.000 
#    0.000    0.000    0.000    0.000    0.000    0.000 
#    0.000    0.000    0.000    0.000    0.000    0.000 
#
# Total GULP energy -89333.798246 kJ/mol
# GULP energy per Si atom -5583.362390 kJ/mol
# Density = 2.244281 g / cm^3
# Si number density = 22.494006 Si / 1000 Ang^3
#
#
#
# Elastic Constant Matrix: (Units=GPa)
#
#
# Indices 1 2 3 4 5 6 
#
# 1 115.6840 22.8513 52.4166 -14.8517 3.9446 -31.7736
# 2 22.8513 41.3956 21.4428 -1.9951 2.5519 -17.6674
# 3 52.4166 21.4428 178.8751 -7.5265 -5.8698 -29.4028
# 4 -14.8517 -1.9951 -7.5265 27.2575 -9.0385 8.3962
# 5 3.9446 2.5519 -5.8698 -9.0385 42.0784 -2.7217
# 6 -31.7736 -17.6674 -29.4028 8.3962 -2.7217 38.2391
#
#
#
# Elastic Compliance Matrix: (Units=1/GPa)
#
#
# Indices 1 2 3 4 5 6 
#
# 1 0.012454 -0.002800 -0.002063 0.003979 -0.000004 0.006595
# 2 -0.002800 0.031354 -0.001197 -0.003861 -0.001862 0.011955
# 3 -0.002063 -0.001197 0.006906 0.000232 0.001479 0.003098
# 4 0.003979 -0.003861 0.000232 0.043811 0.008833 -0.007291
# 5 -0.000004 -0.001862 0.001479 0.008833 0.025994 0.000184
# 6 0.006595 0.011955 0.003098 -0.007291 0.000184 0.041150
#
#
# Mechanical properties :
#
#
# Convention : Reuss Voigt Hill
#
# Bulk Modulus (GPa) = 25.90974 58.81959 42.36466
# Shear Modulus (GPa) = 26.78780 37.46458 32.12619
#
# Velocity S-wave (km/s) = 3.45467 4.08553 3.78327
# Velocity P-wave (km/s) = 5.23989 6.96140 6.16107
#
# Compressibility (1/GPa) = 0.03859553
#
# Stress axis : x y z
#
# Youngs Moduli (GPa) = 80.29466 31.89434 144.80521
#
# Poissons Ratio (x) = 0.08930 0.29867
# Poissons Ratio (y) = 0.22482 0.17327
# Poissons Ratio (z) = 0.16561 0.03816
#
# Static dielectric constant tensor:
#      x y z
#    x 1.875600 0.007400 0.037170 
#    y 0.007400 1.846180 0.060420 
#    z 0.037170 0.060420 1.835700 
# 
# From -- ./inp_files/438621.got.cif
#   From: 2010.05.17/outbox.cif.g08.bks.cpg/sg2_220_cif.got.tgz:438621.got - 2010.06.03 11:33:40.
