data_PCOD9038335
_publ_section_title
;
Structure prediction by ZEFSAII (Michael W. Deem and Ramdas Pophale) SiO2 
 PCOD9038335
Probable space group: P -1
;
_chemical_formula_sum "Si O2"
_cell_formula_units_Z 15
_cell_length_a 19.745979
_cell_length_b 6.144729
_cell_length_c 18.046619
_cell_angle_alpha 107.494464
_cell_angle_beta 15.617460
_cell_angle_gamma 110.793284
_cell_volume 543.629194
_symmetry_space_group_name_H-M "P -1"
_symmetry_group_IT_number 2
_symmetry_cell_setting 'triclinic'
loop_
_space_group_symop_operation_xyz
x,y,z
-x,-y,-z
loop_
_atom_site_type_symbol
_atom_site_label
_atom_site_fract_x
_atom_site_fract_y
_atom_site_fract_z
Si Si1 0.305838 0.046210 0.922487
Si Si2 0.886941 0.579964 0.294353
Si Si3 0.169926 0.313425 0.788459
Si Si4 0.812582 0.718819 0.678327
Si Si5 0.500000 0.000000 0.000000
Si Si6 0.082154 0.408516 0.278532
Si Si7 0.205594 0.202986 0.896270
Si Si8 0.450746 0.184002 0.232309
O O1 0.151866 0.787516 0.033616
O O2 0.103414 0.178435 0.186802
O O3 0.388589 0.184277 0.771876
O O4 0.505476 0.999388 0.769026
O O5 0.718102 0.616144 0.403976
O O6 0.739458 0.657552 0.526322
O O7 0.997874 0.350906 0.153353
O O8 0.323270 0.293557 0.700716
O O9 0.971575 0.058147 0.960178
O O10 0.000000 0.500000 0.000000
O O11 0.855128 0.657716 0.710865
O O12 0.867965 0.546974 0.540031
O O13 0.527881 0.748217 0.970927
O O14 0.000000 0.000000 0.500000
O O15 0.605591 0.950988 0.799426
O O16 0.283887 0.619166 0.044764
#
# Coordination Sequence:
#
# PCOD9038335 Si02
#       8
#     2   2   2   2   1   2   2   2
#     4  11  23  43  61  95 131 173 211 273 317 381
#     4  10  23  41  68  94 134 172 213 267 322 382
#     4   8  16  36  65 101 129 166 216 260 312 387
#     4  11  24  47  64  89 121 165 217 273 327 384
#     4  12  26  44  66  88 130 168 214 278 322 378
#     4  11  24  44  66  87 129 166 214 272 326 389
#     4   9  18  36  68  96 127 175 214 256 324 378
#     4  12  27  42  61  98 131 166 221 271 323 384
#
# _framework density 27.592338999999999
#
# number of rings (size 3 to 8) (size 9 to 14) (size 15 to 20)
#    0.000    1.600    2.667    0.800    5.600    2.667 
#    0.000    0.667    0.000   32.800    0.000    0.000 
#    0.000    0.000    0.000    0.000    0.000    0.000 
#
# Total GULP energy -83618.790951 kJ/mol
# GULP energy per Si atom -5574.586063 kJ/mol
# Density = 2.752954 g / cm^3
# Si number density = 27.592339 Si / 1000 Ang^3
#
#
#
# Elastic Constant Matrix: (Units=GPa)
#
#
# Indices 1 2 3 4 5 6 
#
# 1 215.2230 37.1013 28.9221 0.0857 34.0205 -27.3937
# 2 37.1013 183.5330 48.8713 38.2794 6.8266 3.1543
# 3 28.9221 48.8713 64.2955 11.5817 24.1397 -12.9357
# 4 0.0857 38.2794 11.5817 55.1933 1.1135 7.7705
# 5 34.0205 6.8266 24.1397 1.1135 39.5122 -6.7950
# 6 -27.3937 3.1543 -12.9357 7.7705 -6.7950 53.5971
#
#
#
# Elastic Compliance Matrix: (Units=1/GPa)
#
#
# Indices 1 2 3 4 5 6 
#
# 1 0.005870 -0.001310 0.000552 0.000522 -0.004744 0.002533
# 2 -0.001310 0.008234 -0.006599 -0.004158 0.003563 -0.001692
# 3 0.000552 -0.006599 0.027407 -0.001662 -0.015066 0.005616
# 4 0.000522 -0.004158 -0.001662 0.021773 0.000150 -0.003027
# 5 -0.004744 0.003563 -0.015066 0.000150 0.037718 -0.001510
# 6 0.002533 -0.001692 0.005616 -0.003027 -0.001510 0.021655
#
#
# Mechanical properties :
#
#
# Convention : Reuss Voigt Hill
#
# Bulk Modulus (GPa) = 37.31723 76.98235 57.14979
# Shear Modulus (GPa) = 34.17556 52.87097 43.52327
#
# Velocity S-wave (km/s) = 3.52318 4.38213 3.97592
# Velocity P-wave (km/s) = 5.48673 7.31878 6.46795
#
# Compressibility (1/GPa) = 0.02679727
#
# Stress axis : x y z
#
# Youngs Moduli (GPa) = 170.35514 121.44394 36.48740
#
# Poissons Ratio (x) = 0.15904 -0.02012
# Poissons Ratio (y) = 0.22309 0.24078
# Poissons Ratio (z) = -0.09396 0.80139
#
# Static dielectric constant tensor:
#      x y z
#    x 2.258340 0.025660 -0.088420 
#    y 0.025660 2.238890 -0.144770 
#    z -0.088420 -0.144770 2.200110 
# 
# From -- ./inp_files/119911.got.cif
#   From: 2010.05.17/outbox.cif.g08.bks.cpg/sg2_60_cif.got.tgz:119911.got - 2010.06.03 11:33:40.
