data_PCOD9038818
_publ_section_title
;
Structure prediction by ZEFSAII (Michael W. Deem and Ramdas Pophale) SiO2 
 PCOD9038818
Probable space group: P -1
;
_chemical_formula_sum "Si O2"
_cell_formula_units_Z 14
_cell_length_a 14.402280
_cell_length_b 13.603553
_cell_length_c 13.454001
_cell_angle_alpha 44.341643
_cell_angle_beta 19.584832
_cell_angle_gamma 40.285155
_cell_volume 571.235366
_symmetry_space_group_name_H-M "P -1"
_symmetry_group_IT_number 2
_symmetry_cell_setting 'triclinic'
loop_
_space_group_symop_operation_xyz
x,y,z
-x,-y,-z
loop_
_atom_site_type_symbol
_atom_site_label
_atom_site_fract_x
_atom_site_fract_y
_atom_site_fract_z
Si Si1 0.586591 0.826960 0.659483
Si Si2 0.386418 0.604626 0.301303
Si Si3 0.420479 0.855557 0.203514
Si Si4 0.767951 0.357332 0.785000
Si Si5 0.057748 0.670412 0.004838
Si Si6 0.041229 0.707174 0.768960
Si Si7 0.416494 0.848905 0.583735
O O1 0.472236 0.839775 0.652077
O O2 0.918453 0.698381 0.433353
O O3 0.602297 0.988258 0.553203
O O4 0.354714 0.778325 0.989475
O O5 0.206497 0.606400 0.382243
O O6 0.710557 0.471840 0.067853
O O7 0.213486 0.600403 0.581104
O O8 0.425666 0.764507 0.163097
O O9 0.693113 0.747933 0.074218
O O10 0.124436 0.856796 0.557254
O O11 0.500000 0.000000 0.000000
O O12 0.500000 0.500000 0.000000
O O13 0.129871 0.647348 0.832340
O O14 0.129791 0.813449 0.869020
O O15 0.708130 0.716174 0.341367
#
# Coordination Sequence:
#
# PCOD9038818 Si02
#       7
#     2   2   2   2   2   2   2
#     4  11  25  46  66  98 136 170 224 273 333 388
#     4  10  27  40  69  95 139 171 219 279 324 393
#     4  10  23  42  63  92 134 174 214 266 329 388
#     4  12  25  43  71 101 133 175 219 270 334 393
#     4  12  24  43  68  99 128 175 230 262 336 388
#     4  10  24  42  65  94 130 175 213 276 321 387
#     4  11  25  44  70  96 132 175 219 282 321 392
#
# _framework density 24.508285000000001
#
# number of rings (size 3 to 8) (size 9 to 14) (size 15 to 20)
#    0.857    0.286    0.000    5.571    4.000    6.286 
#    0.000    0.000    0.000    0.000    0.000    0.000 
#    0.000    0.000    0.000    0.000    0.000    0.000 
#
# Total GULP energy -78359.630147 kJ/mol
# GULP energy per Si atom -5597.116439 kJ/mol
# Density = 2.445250 g / cm^3
# Si number density = 24.508285 Si / 1000 Ang^3
#
#
#
# Elastic Constant Matrix: (Units=GPa)
#
#
# Indices 1 2 3 4 5 6 
#
# 1 99.8633 10.4172 7.1941 -2.3511 -5.8220 -4.9037
# 2 10.4172 77.9163 -4.8700 -4.7191 4.4650 7.0571
# 3 7.1941 -4.8700 82.4711 -4.2134 -16.5652 -6.7136
# 4 -2.3511 -4.7191 -4.2134 33.2947 -3.1678 -5.3215
# 5 -5.8220 4.4650 -16.5652 -3.1678 36.8000 -1.4581
# 6 -4.9037 7.0571 -6.7136 -5.3215 -1.4581 29.9191
#
#
#
# Elastic Compliance Matrix: (Units=1/GPa)
#
#
# Indices 1 2 3 4 5 6 
#
# 1 0.010461 -0.001677 -0.000403 0.000992 0.001853 0.002287
# 2 -0.001677 0.013550 0.000385 0.001161 -0.001765 -0.003264
# 3 -0.000403 0.000385 0.013976 0.003036 0.006594 0.003840
# 4 0.000992 0.001161 0.003036 0.032111 0.004404 0.006496
# 5 0.001853 -0.001765 0.006594 0.004404 0.031207 0.004504
# 6 0.002287 -0.003264 0.003840 0.006496 0.004504 0.036805
#
#
# Mechanical properties :
#
#
# Convention : Reuss Voigt Hill
#
# Bulk Modulus (GPa) = 28.90303 31.74816 30.32560
# Shear Modulus (GPa) = 32.67328 36.50339 34.58834
#
# Velocity S-wave (km/s) = 3.65520 3.86350 3.76079
# Velocity P-wave (km/s) = 5.44359 5.73449 5.59093
#
# Compressibility (1/GPa) = 0.03459844
#
# Stress axis : x y z
#
# Youngs Moduli (GPa) = 95.59037 73.80237 71.55344
#
# Poissons Ratio (x) = 0.12377 0.02880
# Poissons Ratio (y) = 0.16031 -0.02758
# Poissons Ratio (z) = 0.03848 -0.02845
#
# Static dielectric constant tensor:
#      x y z
#    x 1.904300 0.002300 0.004800 
#    y 0.002300 2.023760 -0.023750 
#    z 0.004800 -0.023750 1.901870 
# 
# From -- ./inp_files/533732.got.cif
#   From: 2010.05.17/outbox.cif.g08.bks.cpg/sg2_267_cif.got.tgz:533732.got - 2010.06.03 11:33:40.
