data_PCOD9038637
_publ_section_title
;
Structure prediction by ZEFSAII (Michael W. Deem and Ramdas Pophale) SiO2 
 PCOD9038637
Probable space group: P -1
;
_chemical_formula_sum "Si O2"
_cell_formula_units_Z 16
_cell_length_a 10.328095
_cell_length_b 5.472730
_cell_length_c 15.711564
_cell_angle_alpha 85.515110
_cell_angle_beta 129.265858
_cell_angle_gamma 112.651227
_cell_volume 617.252131
_symmetry_space_group_name_H-M "P -1"
_symmetry_group_IT_number 2
_symmetry_cell_setting 'triclinic'
loop_
_space_group_symop_operation_xyz
x,y,z
-x,-y,-z
loop_
_atom_site_type_symbol
_atom_site_label
_atom_site_fract_x
_atom_site_fract_y
_atom_site_fract_z
Si Si1 0.191436 0.963797 0.400862
Si Si2 0.822757 0.844734 0.802243
Si Si3 0.769182 0.680696 0.224750
Si Si4 0.747559 0.249367 0.325784
Si Si5 0.398511 0.179971 0.985491
Si Si6 0.161621 0.844383 0.032004
Si Si7 0.448721 0.672288 0.210618
Si Si8 0.182101 0.433402 0.484603
O O1 0.197586 0.049970 0.302284
O O2 0.260044 0.234384 0.480423
O O3 0.248090 0.717514 0.450372
O O4 0.975539 0.808715 0.341443
O O5 0.866152 0.079484 0.885723
O O6 0.633628 0.578594 0.752927
O O7 0.987691 0.757092 0.898755
O O8 0.718788 0.359099 0.218133
O O9 0.781881 0.868422 0.145085
O O10 0.602447 0.685766 0.208066
O O11 0.761717 0.465156 0.398786
O O12 0.954368 0.266859 0.402433
O O13 0.571209 0.976749 0.289101
O O14 0.500000 0.500000 0.000000
O O15 0.319836 0.113736 0.048693
O O16 0.500000 0.000000 0.000000
O O17 0.266977 0.654172 0.085227
#
# Coordination Sequence:
#
# PCOD9038637 Si02
#       8
#     2   2   2   2   2   2   2   2
#     4  11  24  46  71 105 137 183 233 288 346 412
#     4  11  26  45  67  96 144 192 231 281 344 423
#     4  11  23  41  69 100 137 180 229 294 339 408
#     4  10  23  41  72 105 139 174 230 291 359 412
#     4  12  24  41  66 103 141 175 233 289 338 401
#     4  11  25  45  64  99 139 194 231 276 349 414
#     4  12  22  42  68 100 136 185 233 283 346 409
#     4  10  24  44  74 106 139 178 229 294 358 411
#
# _framework density 25.921337000000001
#
# number of rings (size 3 to 8) (size 9 to 14) (size 15 to 20)
#    0.000    1.000    3.750    2.625    3.500    1.500 
#    0.000    1.250    0.000    0.000    0.000    0.000 
#    0.000    0.000    0.000    0.000    0.000    0.000 
#
# Total GULP energy -89257.912100 kJ/mol
# GULP energy per Si atom -5578.619506 kJ/mol
# Density = 2.586234 g / cm^3
# Si number density = 25.921337 Si / 1000 Ang^3
#
#
#
# Elastic Constant Matrix: (Units=GPa)
#
#
# Indices 1 2 3 4 5 6 
#
# 1 52.4920 35.9556 20.8594 -8.8250 -16.7173 14.1435
# 2 35.9556 160.7457 37.4232 -10.4961 -17.6462 22.9123
# 3 20.8594 37.4232 59.5362 -19.2742 -14.6609 5.1162
# 4 -8.8250 -10.4961 -19.2742 46.7896 4.6084 -5.0504
# 5 -16.7173 -17.6462 -14.6609 4.6084 39.5161 -9.1090
# 6 14.1435 22.9123 5.1162 -5.0504 -9.1090 48.9239
#
#
#
# Elastic Compliance Matrix: (Units=1/GPa)
#
#
# Indices 1 2 3 4 5 6 
#
# 1 0.026866 -0.003452 -0.004790 0.001180 0.006933 -0.004237
# 2 -0.003452 0.008243 -0.003921 -0.000712 0.000278 -0.002474
# 3 -0.004790 -0.003921 0.024578 0.008114 0.004951 0.002410
# 4 0.001180 -0.000712 0.008114 0.024907 0.000713 0.001848
# 5 0.006933 0.000278 0.004951 0.000713 0.030847 0.003164
# 6 -0.004237 -0.002474 0.002410 0.001848 0.003164 0.023351
#
#
# Mechanical properties :
#
#
# Convention : Reuss Voigt Hill
#
# Bulk Modulus (GPa) = 28.27949 51.25004 39.76477
# Shear Modulus (GPa) = 28.58694 38.94830 33.76762
#
# Velocity S-wave (km/s) = 3.32450 3.88049 3.61320
# Velocity P-wave (km/s) = 5.06654 6.31600 5.72546
#
# Compressibility (1/GPa) = 0.03536131
#
# Stress axis : x y z
#
# Youngs Moduli (GPa) = 37.22109 121.31846 40.68658
#
# Poissons Ratio (x) = 0.41884 0.19488
# Poissons Ratio (y) = 0.12850 0.15953
# Poissons Ratio (z) = 0.17828 0.47567
#
# Static dielectric constant tensor:
#      x y z
#    x 2.019690 -0.055610 -0.047400 
#    y -0.055610 2.186580 -0.036800 
#    z -0.047400 -0.036800 2.604960 
# 
# From -- ./inp_files/549108.got.cif
#   From: 2010.05.17/outbox.cif.g08.bks.cpg/sg2_275_cif.got.tgz:549108.got - 2010.06.03 11:33:40.
