data_PCOD9038702
_publ_section_title
;
Structure prediction by ZEFSAII (Michael W. Deem and Ramdas Pophale) SiO2 
 PCOD9038702
Probable space group: P -1
;
_chemical_formula_sum "Si O2"
_cell_formula_units_Z 13
_cell_length_a 9.010396
_cell_length_b 8.151284
_cell_length_c 8.706136
_cell_angle_alpha 70.099115
_cell_angle_beta 62.805152
_cell_angle_gamma 92.833063
_cell_volume 518.471888
_symmetry_space_group_name_H-M "P -1"
_symmetry_group_IT_number 2
_symmetry_cell_setting 'triclinic'
loop_
_space_group_symop_operation_xyz
x,y,z
-x,-y,-z
loop_
_atom_site_type_symbol
_atom_site_label
_atom_site_fract_x
_atom_site_fract_y
_atom_site_fract_z
Si Si1 0.606584 0.018289 0.787046
Si Si2 0.859301 0.484102 0.940964
Si Si3 0.507008 0.524270 0.737203
Si Si4 0.169423 0.627270 0.307898
Si Si5 0.899679 0.873839 0.722711
Si Si6 0.620066 0.802463 0.340077
Si Si7 0.000000 0.000000 0.000000
O O1 0.760817 0.196081 0.681951
O O2 0.492121 0.055425 0.690382
O O3 0.697585 0.857190 0.789467
O O4 0.500000 0.000000 0.000000
O O5 0.869738 0.327557 0.864525
O O6 0.924698 0.674222 0.764594
O O7 0.665218 0.460537 0.098431
O O8 0.000000 0.500000 0.000000
O O9 0.669269 0.464830 0.753016
O O10 0.581761 0.708028 0.551430
O O11 0.439305 0.361242 0.700393
O O12 0.000000 0.500000 0.500000
O O13 0.000000 0.000000 0.500000
O O14 0.938348 0.936524 0.861400
O O15 0.815257 0.893806 0.185539
#
# Coordination Sequence:
#
# PCOD9038702 Si02
#       7
#     2   2   2   2   2   2   1
#     4  11  23  47  71 102 149 191 244 309 381 441
#     4  12  28  47  72 111 153 193 260 314 368 456
#     4  10  23  45  70 103 152 185 253 303 376 439
#     4  11  26  44  77 105 139 201 245 303 379 450
#     4  12  28  47  76 109 154 193 250 315 376 450
#     4  10  23  41  74 105 140 195 245 306 373 455
#     4  12  24  48  74 108 148 196 244 304 388 434
#
# _framework density 25.073681000000001
#
# number of rings (size 3 to 8) (size 9 to 14) (size 15 to 20)
#    0.000    0.923    3.077    2.308   15.077    0.000 
#    0.000    0.769    0.000    0.000    0.000    0.000 
#    0.000    0.000    0.000    0.000    0.000    0.000 
#
# Total GULP energy -72567.356232 kJ/mol
# GULP energy per Si atom -5582.104326 kJ/mol
# Density = 2.501661 g / cm^3
# Si number density = 25.073681 Si / 1000 Ang^3
#
#
#
# Elastic Constant Matrix: (Units=GPa)
#
#
# Indices 1 2 3 4 5 6 
#
# 1 135.3481 26.7698 52.9459 -1.1397 -11.7139 11.9837
# 2 26.7698 65.4470 22.8500 3.6851 -2.5680 0.0413
# 3 52.9459 22.8500 161.7723 -8.2971 -20.5444 8.8976
# 4 -1.1397 3.6851 -8.2971 47.0214 5.9628 -2.4572
# 5 -11.7139 -2.5680 -20.5444 5.9628 49.2067 -3.4991
# 6 11.9837 0.0413 8.8976 -2.4572 -3.4991 37.6741
#
#
#
# Elastic Compliance Matrix: (Units=1/GPa)
#
#
# Indices 1 2 3 4 5 6 
#
# 1 0.009159 -0.002873 -0.002362 -0.000204 0.000907 -0.002282
# 2 -0.002873 0.017113 -0.001649 -0.001616 -0.000201 0.001161
# 3 -0.002362 -0.001649 0.007580 0.001074 0.002333 -0.000750
# 4 -0.000204 -0.001616 0.001074 0.021920 -0.002267 0.001032
# 5 0.000907 -0.000201 0.002333 -0.002267 0.021851 0.001042
# 6 -0.002282 0.001161 -0.000750 0.001032 0.001042 0.027609
#
#
# Mechanical properties :
#
#
# Convention : Reuss Voigt Hill
#
# Bulk Modulus (GPa) = 49.79036 63.07765 56.43401
# Shear Modulus (GPa) = 39.77897 44.11387 41.94642
#
# Velocity S-wave (km/s) = 3.98739 4.19903 4.09458
# Velocity P-wave (km/s) = 6.41091 6.98002 6.70151
#
# Compressibility (1/GPa) = 0.02008421
#
# Stress axis : x y z
#
# Youngs Moduli (GPa) = 109.17872 58.43542 131.92555
#
# Poissons Ratio (x) = 0.16791 0.31156
# Poissons Ratio (y) = 0.31371 0.21754
# Poissons Ratio (z) = 0.25784 0.09636
#
# Static dielectric constant tensor:
#      x y z
#    x 2.064880 -0.013570 0.118010 
#    y -0.013570 2.247810 -0.003710 
#    z 0.118010 -0.003710 1.972190 
# 
# From -- ./inp_files/153311.got.cif
#   From: 2010.05.17/outbox.cif.g08.bks.cpg/sg2_77_cif.got.tgz:153311.got - 2010.06.03 11:33:40.
