data_PCOD9038775
_publ_section_title
;
Structure prediction by ZEFSAII (Michael W. Deem and Ramdas Pophale) SiO2 
 PCOD9038775
Probable space group: P -1
;
_chemical_formula_sum "Si O2"
_cell_formula_units_Z 11
_cell_length_a 8.129112
_cell_length_b 11.452158
_cell_length_c 8.372153
_cell_angle_alpha 50.871608
_cell_angle_beta 78.549562
_cell_angle_gamma 46.293588
_cell_volume 395.929211
_symmetry_space_group_name_H-M "P -1"
_symmetry_group_IT_number 2
_symmetry_cell_setting 'triclinic'
loop_
_space_group_symop_operation_xyz
x,y,z
-x,-y,-z
loop_
_atom_site_type_symbol
_atom_site_label
_atom_site_fract_x
_atom_site_fract_y
_atom_site_fract_z
Si Si1 0.137442 0.519096 0.618250
Si Si2 0.131081 0.833229 0.864136
Si Si3 0.678246 0.593668 0.965186
Si Si4 0.500000 0.000000 0.500000
Si Si5 0.102346 0.194098 0.835239
Si Si6 0.400067 0.843801 0.349042
O O1 0.068389 0.389433 0.727385
O O2 0.354873 0.406416 0.541436
O O3 0.904863 0.778829 0.378788
O O4 0.247923 0.469765 0.811131
O O5 0.176424 0.638832 0.945801
O O6 0.092337 0.805724 0.077601
O O7 0.380515 0.759691 0.858959
O O8 0.861557 0.071270 0.647841
O O9 0.704034 0.743245 0.762281
O O10 0.452181 0.912297 0.432119
O O11 0.333926 0.983583 0.079976
#
# Coordination Sequence:
#
# PCOD9038775 Si02
#       6
#     2   2   2   1   2   2
#     4  11  21  40  69  91 132 160 222 253 324 366
#     4   9  23  44  62  91 136 162 218 251 329 369
#     4  11  23  42  65  96 124 177 206 266 311 390
#     4  12  24  38  70  90 128 164 222 252 320 372
#     4   9  21  40  62  93 126 167 201 271 307 382
#     4  10  23  42  61  99 124 168 209 270 305 388
#
# _framework density 27.782741999999999
#
# number of rings (size 3 to 8) (size 9 to 14) (size 15 to 20)
#    1.091    0.727    1.818    1.636    0.000    8.000 
#    0.000    0.000    0.000    0.000    0.000    0.000 
#    0.000    0.000    0.000    0.000    0.000    0.000 
#
# Total GULP energy -61279.066626 kJ/mol
# GULP energy per Si atom -5570.824239 kJ/mol
# Density = 2.771951 g / cm^3
# Si number density = 27.782742 Si / 1000 Ang^3
#
#
#
# Elastic Constant Matrix: (Units=GPa)
#
#
# Indices 1 2 3 4 5 6 
#
# 1 66.2743 71.0236 -10.9656 14.6929 26.9761 -20.1886
# 2 71.0236 73.8782 56.5263 -2.6560 -5.2510 31.6432
# 3 -10.9656 56.5263 143.9391 19.7373 38.9723 27.1466
# 4 14.6929 -2.6560 19.7373 30.0036 13.0905 9.7651
# 5 26.9761 -5.2510 38.9723 13.0905 40.4461 7.6577
# 6 -20.1886 31.6432 27.1466 9.7651 7.6577 58.5560
#
#
#
# Elastic Compliance Matrix: (Units=1/GPa)
#
#
# Indices 1 2 3 4 5 6 
#
# 1 -0.002522 0.009982 -0.005946 0.004093 0.008384 -0.005286
# 2 0.009982 -0.002309 0.004223 -0.004952 -0.010354 0.004911
# 3 -0.005946 0.004223 0.006138 0.001934 -0.000621 -0.007419
# 4 0.004093 -0.004952 0.001934 0.037369 -0.017180 -0.000794
# 5 0.008384 -0.010354 -0.000621 -0.017180 0.022296 0.008723
# 6 -0.005286 0.004911 -0.007419 -0.000794 0.008723 0.015033
#
#
# Mechanical properties :
#
#
# Convention : Reuss Voigt Hill
#
# Bulk Modulus (GPa) = 56.10394 57.47336 56.78865
# Shear Modulus (GPa) = 76.42044 36.96829 56.69436
#
# Velocity S-wave (km/s) = 5.25035 3.65172 4.52224
# Velocity P-wave (km/s) = 7.54934 6.20578 6.91029
#
# Compressibility (1/GPa) = 0.01782406
#
# Stress axis : x y z
#
# Youngs Moduli (GPa) = -396.46073 -433.05729 162.91663
#
# Poissons Ratio (x) = 4.32266 0.96877
# Poissons Ratio (y) = 3.95736 -0.68806
# Poissons Ratio (z) = -2.35752 1.82898
#
# Static dielectric constant tensor:
#      x y z
#    x 2.215940 -0.094160 -0.012740 
#    y -0.094160 2.251660 0.062130 
#    z -0.012740 0.062130 2.126390 
# 
# From -- ./inp_files/167087.got.cif
#   From: 2010.05.17/outbox.cif.g08.bks.cpg/sg2_84_cif.got.tgz:167087.got - 2010.06.03 11:33:40.
