data_PCOD9038367
_publ_section_title
;
Structure prediction by ZEFSAII (Michael W. Deem and Ramdas Pophale) SiO2 
 PCOD9038367
Probable space group: P -1
;
_chemical_formula_sum "Si O2"
_cell_formula_units_Z 16
_cell_length_a 5.218895
_cell_length_b 11.308549
_cell_length_c 26.814590
_cell_angle_alpha 33.070111
_cell_angle_beta 61.282754
_cell_angle_gamma 60.193083
_cell_volume 742.436117
_symmetry_space_group_name_H-M "P -1"
_symmetry_group_IT_number 2
_symmetry_cell_setting 'triclinic'
loop_
_space_group_symop_operation_xyz
x,y,z
-x,-y,-z
loop_
_atom_site_type_symbol
_atom_site_label
_atom_site_fract_x
_atom_site_fract_y
_atom_site_fract_z
Si Si1 0.148118 0.596230 0.999221
Si Si2 0.091164 0.046494 0.639352
Si Si3 0.113773 0.536553 0.217499
Si Si4 0.967776 0.925105 0.594153
Si Si5 0.785464 0.457294 0.174018
Si Si6 0.246130 0.751261 0.307752
Si Si7 0.445918 0.756449 0.541848
Si Si8 0.152623 0.102464 0.803659
O O1 0.099614 0.860211 0.906300
O O2 0.500000 0.500000 0.000000
O O3 0.000000 0.500000 0.000000
O O4 0.993237 0.526941 0.087709
O O5 0.205963 0.805965 0.737261
O O6 0.872188 0.991555 0.636012
O O7 0.322532 0.143302 0.549040
O O8 0.945185 0.211332 0.637122
O O9 0.154774 0.298030 0.325716
O O10 0.440752 0.571834 0.159906
O O11 0.911356 0.513384 0.196357
O O12 0.959424 0.727860 0.201120
O O13 0.319500 0.841249 0.578204
O O14 0.854474 0.148544 0.495007
O O15 0.429370 0.501602 0.375561
O O16 0.495706 0.902145 0.234032
O O17 0.030762 0.809954 0.259908
#
# Coordination Sequence:
#
# PCOD9038367 Si02
#       8
#     2   2   2   2   2   2   2   2
#     4  12  26  48  76 104 139 182 230 281 355 423
#     4  11  24  40  65  99 140 179 237 290 339 413
#     4  11  23  44  69 102 140 181 229 287 344 408
#     4  10  23  41  68  97 139 187 239 280 342 410
#     4  11  24  42  72 102 137 180 233 287 346 406
#     4  12  28  43  71 100 146 184 232 286 351 408
#     4  11  23  42  66 101 135 194 229 288 341 412
#     4  12  27  48  71 102 141 182 227 291 350 411
#
# _framework density 21.550677
#
# number of rings (size 3 to 8) (size 9 to 14) (size 15 to 20)
#    0.000    0.750    2.500    4.500    5.250    2.500 
#    0.000    0.000    0.000    0.000    0.000    0.000 
#    0.000    0.000    0.000    0.000    0.000    0.000 
#
# Total GULP energy -89380.598694 kJ/mol
# GULP energy per Si atom -5586.287418 kJ/mol
# Density = 2.150163 g / cm^3
# Si number density = 21.550677 Si / 1000 Ang^3
#
#
#
# Elastic Constant Matrix: (Units=GPa)
#
#
# Indices 1 2 3 4 5 6 
#
# 1 92.0355 43.3472 21.3355 2.6147 -13.2101 1.8023
# 2 43.3472 123.6517 38.3501 11.1063 5.2186 1.8976
# 3 21.3355 38.3501 112.2672 10.2122 -12.6297 8.1691
# 4 2.6147 11.1063 10.2122 35.5835 -11.5823 -7.7768
# 5 -13.2101 5.2186 -12.6297 -11.5823 31.3721 7.9053
# 6 1.8023 1.8976 8.1691 -7.7768 7.9053 28.1851
#
#
#
# Elastic Compliance Matrix: (Units=1/GPa)
#
#
# Indices 1 2 3 4 5 6 
#
# 1 0.014850 -0.005853 0.000062 0.003154 0.008975 -0.002220
# 2 -0.005853 0.011966 -0.003576 -0.004524 -0.007965 0.001591
# 3 0.000062 -0.003576 0.011272 -0.001290 0.005957 -0.005057
# 4 0.003154 -0.004524 -0.001290 0.035304 0.012934 0.006590
# 5 0.008975 -0.007965 0.005957 0.012934 0.047022 -0.011384
# 6 -0.002220 0.001591 -0.005057 0.006590 -0.011384 0.041991
#
#
# Mechanical properties :
#
#
# Convention : Reuss Voigt Hill
#
# Bulk Modulus (GPa) = 51.66753 59.33557 55.50155
# Shear Modulus (GPa) = 26.65380 34.02291 30.33836
#
# Velocity S-wave (km/s) = 3.52063 3.97765 3.75609
# Velocity P-wave (km/s) = 6.36815 6.97771 6.67989
#
# Compressibility (1/GPa) = 0.01935451
#
# Stress axis : x y z
#
# Youngs Moduli (GPa) = 67.34093 83.56991 88.71158
#
# Poissons Ratio (x) = 0.48912 -0.00546
# Poissons Ratio (y) = 0.39414 0.31720
# Poissons Ratio (z) = -0.00415 0.29882
#
# Static dielectric constant tensor:
#      x y z
#    x 1.880890 0.001050 -0.012540 
#    y 0.001050 1.745170 0.021160 
#    z -0.012540 0.021160 1.791920 
# 
# From -- ./inp_files/615475.got.cif
#   From: 2010.05.17/outbox.cif.g08.bks.cpg/sg2_308_cif.got.tgz:615475.got - 2010.06.03 11:33:40.
