data_PCOD9038177
_publ_section_title
;
Structure prediction by ZEFSAII (Michael W. Deem and Ramdas Pophale) SiO2 
 PCOD9038177
Probable space group: P -1
;
_chemical_formula_sum "Si O2"
_cell_formula_units_Z 14
_cell_length_a 16.505666
_cell_length_b 8.258174
_cell_length_c 11.264918
_cell_angle_alpha 72.605211
_cell_angle_beta 34.372563
_cell_angle_gamma 51.571160
_cell_volume 594.266804
_symmetry_space_group_name_H-M "P -1"
_symmetry_group_IT_number 2
_symmetry_cell_setting 'triclinic'
loop_
_space_group_symop_operation_xyz
x,y,z
-x,-y,-z
loop_
_atom_site_type_symbol
_atom_site_label
_atom_site_fract_x
_atom_site_fract_y
_atom_site_fract_z
Si Si1 0.835713 0.488905 0.708775
Si Si2 0.284766 0.540129 0.396761
Si Si3 0.981315 0.585409 0.870401
Si Si4 0.547683 0.263210 0.767276
Si Si5 0.056286 0.189080 0.727175
Si Si6 0.410587 0.943636 0.717244
Si Si7 0.315493 0.681609 0.773471
O O1 0.788862 0.451989 0.645226
O O2 0.000000 0.500000 0.500000
O O3 0.948131 0.271096 0.711901
O O4 0.616502 0.720540 0.974728
O O5 0.350056 0.682287 0.282223
O O6 0.448700 0.275833 0.314021
O O7 0.105600 0.654119 0.681973
O O8 0.058672 0.376757 0.734843
O O9 0.000000 0.500000 0.000000
O O10 0.752714 0.813453 0.069150
O O11 0.407606 0.500000 0.808976
O O12 0.717638 0.050514 0.521856
O O13 0.907438 0.211435 0.991978
O O14 0.305728 0.885500 0.776525
O O15 0.500000 0.000000 0.500000
O O16 0.500000 0.500000 0.500000
#
# Coordination Sequence:
#
# PCOD9038177 Si02
#       7
#     2   2   2   2   2   2   2
#     4  11  24  48  70 105 139 178 240 295 351 419
#     4  11  24  46  71 104 136 186 232 284 355 418
#     4  12  25  41  67 101 142 180 234 283 344 419
#     4  10  25  44  72 102 139 184 233 289 354 419
#     4  11  25  45  68 104 141 184 233 287 352 416
#     4  11  23  42  66  97 138 184 225 281 344 410
#     4  10  23  41  67 101 141 180 230 284 343 416
#
# _framework density 23.558441999999999
#
# number of rings (size 3 to 8) (size 9 to 14) (size 15 to 20)
#    0.000    1.143    2.857    2.143    4.000    5.143 
#    0.000    0.000    0.000    0.000    0.000    0.000 
#    0.000    0.000    0.000    0.000    0.000    0.000 
#
# Total GULP energy -78127.121742 kJ/mol
# GULP energy per Si atom -5580.508696 kJ/mol
# Density = 2.350482 g / cm^3
# Si number density = 23.558442 Si / 1000 Ang^3
#
#
#
# Elastic Constant Matrix: (Units=GPa)
#
#
# Indices 1 2 3 4 5 6 
#
# 1 84.4472 15.7842 26.5403 2.2573 2.4554 3.3177
# 2 15.7842 70.2539 37.9275 16.8674 -4.5755 10.0657
# 3 26.5403 37.9275 181.2529 -0.2574 -23.0443 30.6684
# 4 2.2573 16.8674 -0.2574 37.5246 2.2615 1.6987
# 5 2.4554 -4.5755 -23.0443 2.2615 28.6333 -2.8328
# 6 3.3177 10.0657 30.6684 1.6987 -2.8328 36.4550
#
#
#
# Elastic Compliance Matrix: (Units=1/GPa)
#
#
# Indices 1 2 3 4 5 6 
#
# 1 0.012916 -0.002257 -0.001937 0.000366 -0.002974 0.000829
# 2 -0.002257 0.018778 -0.003154 -0.008311 0.001129 -0.001851
# 3 -0.001937 -0.003154 0.008075 0.001501 0.005509 -0.005388
# 4 0.000366 -0.008311 0.001501 0.030560 -0.002627 -0.000630
# 5 -0.002974 0.001129 0.005509 -0.002627 0.039857 -0.001456
# 6 0.000829 -0.001851 -0.005388 -0.000630 -0.001456 0.032316
#
#
# Mechanical properties :
#
#
# Convention : Reuss Voigt Hill
#
# Bulk Modulus (GPa) = 39.88136 55.16201 47.52168
# Shear Modulus (GPa) = 30.20143 37.56937 33.88540
#
# Velocity S-wave (km/s) = 3.58436 3.99774 3.79668
# Velocity P-wave (km/s) = 5.83914 6.69141 6.27975
#
# Compressibility (1/GPa) = 0.02507437
#
# Stress axis : x y z
#
# Youngs Moduli (GPa) = 77.42111 53.25417 123.83959
#
# Poissons Ratio (x) = 0.12017 0.23987
# Poissons Ratio (y) = 0.17470 0.39058
# Poissons Ratio (z) = 0.14996 0.16796
#
# Static dielectric constant tensor:
#      x y z
#    x 1.822430 0.075950 -0.136030 
#    y 0.075950 1.834750 0.014950 
#    z -0.136030 0.014950 1.972160 
# 
# From -- ./inp_files/462029.got.cif
#   From: 2010.05.17/outbox.cif.g08.bks.cpg/sg2_232_cif.got.tgz:462029.got - 2010.06.03 11:33:40.
