data_PCOD9038324
_publ_section_title
;
Structure prediction by ZEFSAII (Michael W. Deem and Ramdas Pophale) SiO2 
 PCOD9038324
Probable space group: P -1
;
_chemical_formula_sum "Si O2"
_cell_formula_units_Z 11
_cell_length_a 18.042431
_cell_length_b 8.479142
_cell_length_c 9.629558
_cell_angle_alpha 146.995560
_cell_angle_beta 134.889612
_cell_angle_gamma 37.053530
_cell_volume 480.528470
_symmetry_space_group_name_H-M "P -1"
_symmetry_group_IT_number 2
_symmetry_cell_setting 'triclinic'
loop_
_space_group_symop_operation_xyz
x,y,z
-x,-y,-z
loop_
_atom_site_type_symbol
_atom_site_label
_atom_site_fract_x
_atom_site_fract_y
_atom_site_fract_z
Si Si1 0.434596 0.285469 0.242362
Si Si2 0.828502 0.265047 0.260925
Si Si3 0.000000 0.000000 0.500000
Si Si4 0.058668 0.270776 0.232790
Si Si5 0.539519 0.771609 0.249845
Si Si6 0.139561 0.752242 0.196953
O O1 0.500000 0.500000 0.500000
O O2 0.286975 0.536674 0.221456
O O3 0.467045 0.047276 0.240938
O O4 0.500000 0.000000 0.000000
O O5 0.879527 0.016532 0.277422
O O6 0.900619 0.460255 0.538211
O O7 0.687111 0.556037 0.275187
O O8 0.865260 0.045262 0.007423
O O9 0.914453 0.190285 0.675686
O O10 0.088667 0.112102 0.309619
O O11 0.920513 0.411573 0.100404
O O12 0.500000 0.000000 0.500000
O O13 0.500000 0.500000 0.000000
#
# Coordination Sequence:
#
# PCOD9038324 Si02
#       6
#     2   2   1   2   2   2
#     4  12  26  45  72 101 137 183 232 282 331 409
#     4  11  23  43  63  95 129 173 221 270 339 395
#     4  10  24  40  68  96 132 168 214 282 330 396
#     4  10  23  41  68  91 129 171 218 279 329 401
#     4  12  25  42  66  96 137 180 222 278 340 407
#     4  10  23  43  67 101 132 174 226 275 344 397
#
# _framework density 22.891463000000002
#
# number of rings (size 3 to 8) (size 9 to 14) (size 15 to 20)
#    0.000    1.091    0.000    5.455    0.000   13.818 
#    0.000    0.000    0.000    0.000    0.000    0.000 
#    0.000    0.000    0.000    0.000    0.000    0.000 
#
# Total GULP energy -61257.941167 kJ/mol
# GULP energy per Si atom -5568.903742 kJ/mol
# Density = 2.283936 g / cm^3
# Si number density = 22.891463 Si / 1000 Ang^3
#
#
#
# Elastic Constant Matrix: (Units=GPa)
#
#
# Indices 1 2 3 4 5 6 
#
# 1 81.4528 49.8136 70.6190 -4.3227 -17.3871 -18.9501
# 2 49.8136 147.9948 45.0246 -20.6605 9.3392 -35.1932
# 3 70.6190 45.0246 166.4580 10.7390 2.8035 -13.2493
# 4 -4.3227 -20.6605 10.7390 41.8612 6.2402 4.3832
# 5 -17.3871 9.3392 2.8035 6.2402 65.5644 -15.2293
# 6 -18.9501 -35.1932 -13.2493 4.3832 -15.2293 55.5090
#
#
#
# Elastic Compliance Matrix: (Units=1/GPa)
#
#
# Indices 1 2 3 4 5 6 
#
# 1 0.028035 -0.005354 -0.010145 0.000677 0.010068 0.006464
# 2 -0.005354 0.010378 -0.000512 0.004698 -0.002493 0.003575
# 3 -0.010145 -0.000512 0.010570 -0.003340 -0.003187 -0.001876
# 4 0.000677 0.004698 -0.003340 0.027666 -0.003126 -0.000630
# 5 0.010068 -0.002493 -0.003187 -0.003126 0.020318 0.006917
# 6 0.006464 0.003575 -0.001876 -0.000630 0.006917 0.023988
#
#
# Mechanical properties :
#
#
# Convention : Reuss Voigt Hill
#
# Bulk Modulus (GPa) = 58.95547 80.75775 69.85661
# Shear Modulus (GPa) = 31.51973 47.95016 39.73494
#
# Velocity S-wave (km/s) = 3.71471 4.58173 4.17081
# Velocity P-wave (km/s) = 6.64899 7.95894 7.33327
#
# Compressibility (1/GPa) = 0.01696195
#
# Stress axis : x y z
#
# Youngs Moduli (GPa) = 35.66912 96.35570 94.60946
#
# Poissons Ratio (x) = 0.51587 0.95977
# Poissons Ratio (y) = 0.19097 0.04848
# Poissons Ratio (z) = 0.36185 0.04937
#
# Static dielectric constant tensor:
#      x y z
#    x 1.586880 -0.459400 0.045770 
#    y -0.459400 1.099620 0.040210 
#    z 0.045770 0.040210 1.818830 
# 
# From -- ./inp_files/328244.got.cif
#   From: 2010.05.17/outbox.cif.g08.bks.cpg/sg2_165_cif.got.tgz:328244.got - 2010.06.03 11:33:40.
