data_PCOD9038234
_publ_section_title
;
Structure prediction by ZEFSAII (Michael W. Deem and Ramdas Pophale) SiO2 
 PCOD9038234
Probable space group: P -1
;
_chemical_formula_sum "Si O2"
_cell_formula_units_Z 16
_cell_length_a 11.199022
_cell_length_b 13.196143
_cell_length_c 11.569997
_cell_angle_alpha 22.373452
_cell_angle_beta 86.865326
_cell_angle_gamma 84.985123
_cell_volume 646.809004
_symmetry_space_group_name_H-M "P -1"
_symmetry_group_IT_number 2
_symmetry_cell_setting 'triclinic'
loop_
_space_group_symop_operation_xyz
x,y,z
-x,-y,-z
loop_
_atom_site_type_symbol
_atom_site_label
_atom_site_fract_x
_atom_site_fract_y
_atom_site_fract_z
Si Si1 0.996135 0.118385 0.650082
Si Si2 0.857968 0.617615 0.231480
Si Si3 0.192298 0.400330 0.484356
Si Si4 0.159723 0.208348 0.344405
Si Si5 0.535304 0.725008 0.347845
Si Si6 0.702207 0.869788 0.790107
Si Si7 0.543203 0.404859 0.259055
Si Si8 0.273923 0.662595 0.979924
O O1 0.101757 0.212141 0.627983
O O2 0.043332 0.144272 0.489493
O O3 0.888417 0.349877 0.437057
O O4 0.957883 0.828324 0.990680
O O5 0.850526 0.528150 0.459120
O O6 0.740120 0.787169 0.006026
O O7 0.325589 0.264902 0.640144
O O8 0.220431 0.620558 0.155373
O O9 0.174124 0.165585 0.252445
O O10 0.189874 0.502480 0.069985
O O11 0.261688 0.978985 0.626985
O O12 0.500000 0.500000 0.500000
O O13 0.469227 0.673097 0.524485
O O14 0.500000 0.000000 0.000000
O O15 0.623379 0.147119 0.479089
O O16 0.620774 0.649710 0.981796
O O17 0.407429 0.512931 0.117032
#
# Coordination Sequence:
#
# PCOD9038234 Si02
#       8
#     2   2   2   2   2   2   2   2
#     4  11  25  43  65  91 125 167 218 269 314 367
#     4  12  25  42  65  95 126 165 214 267 322 371
#     4  10  23  42  67  95 128 163 208 261 316 377
#     4  11  24  44  64  93 126 167 216 263 318 371
#     4  11  23  39  64  95 135 172 200 246 313 390
#     4  12  26  42  65  93 132 169 212 264 311 381
#     4  11  23  41  63  98 130 167 211 253 318 377
#     4  10  23  41  67  95 128 166 208 258 313 384
#
# _framework density 24.736823999999999
#
# number of rings (size 3 to 8) (size 9 to 14) (size 15 to 20)
#    0.000    1.000    0.000    6.750    0.000   13.000 
#    0.000    0.000    0.000    0.000    0.000    0.000 
#    0.000    0.000    0.000    0.000    0.000    0.000 
#
# Total GULP energy -89562.114584 kJ/mol
# GULP energy per Si atom -5597.632162 kJ/mol
# Density = 2.468052 g / cm^3
# Si number density = 24.736824 Si / 1000 Ang^3
#
#
#
# Elastic Constant Matrix: (Units=GPa)
#
#
# Indices 1 2 3 4 5 6 
#
# 1 57.0772 26.8482 51.6527 3.7908 -5.8443 -28.4428
# 2 26.8482 74.7045 -1.3913 0.0541 -6.7956 -9.2469
# 3 51.6527 -1.3913 9.1586 -41.6813 0.0919 54.3751
# 4 3.7908 0.0541 -41.6813 44.3169 -4.9042 12.7983
# 5 -5.8443 -6.7956 0.0919 -4.9042 35.9438 6.9850
# 6 -28.4428 -9.2469 54.3751 12.7983 6.9850 5.1027
#
#
#
# Elastic Compliance Matrix: (Units=1/GPa)
#
#
# Indices 1 2 3 4 5 6 
#
# 1 0.011924 -0.004874 0.004371 0.005718 0.003304 -0.007810
# 2 -0.004874 0.015785 -0.000213 -0.000926 0.001219 0.004358
# 3 0.004371 -0.000213 0.001911 -0.002306 -0.002010 0.012147
# 4 0.005718 -0.000926 -0.002306 0.017636 0.001525 0.008449
# 5 0.003304 0.001219 -0.002010 0.001525 0.029123 -0.001649
# 6 -0.007810 0.004358 0.012147 0.008449 -0.001649 0.011964
#
#
# Mechanical properties :
#
#
# Convention : Reuss Voigt Hill
#
# Bulk Modulus (GPa) = 35.47664 32.79550 34.13607
# Shear Modulus (GPa) = 50.41757 21.32806 35.87282
#
# Velocity S-wave (km/s) = 4.51949 2.93951 3.81225
# Velocity P-wave (km/s) = 6.45037 4.98071 5.76258
#
# Compressibility (1/GPa) = 0.02818756
#
# Stress axis : x y z
#
# Youngs Moduli (GPa) = 83.86493 63.35179 523.21430
#
# Poissons Ratio (x) = 0.30879 -2.28694
# Poissons Ratio (y) = 0.40878 0.11139
# Poissons Ratio (z) = -0.36657 0.01349
#
# Static dielectric constant tensor:
#      x y z
#    x 1.978670 -0.042950 0.039370 
#    y -0.042950 1.965360 0.051570 
#    z 0.039370 0.051570 1.923890 
# 
# From -- ./inp_files/433619.got.cif
#   From: 2010.05.17/outbox.cif.g08.bks.cpg/sg2_217_cif.got.tgz:433619.got - 2010.06.03 11:33:40.
