data_PCOD9038704
_publ_section_title
;
Structure prediction by ZEFSAII (Michael W. Deem and Ramdas Pophale) SiO2 
 PCOD9038704
Probable space group: P -1
;
_chemical_formula_sum "Si O2"
_cell_formula_units_Z 16
_cell_length_a 11.766893
_cell_length_b 8.269668
_cell_length_c 11.097949
_cell_angle_alpha 88.416370
_cell_angle_beta 62.041994
_cell_angle_gamma 49.786627
_cell_volume 665.117051
_symmetry_space_group_name_H-M "P -1"
_symmetry_group_IT_number 2
_symmetry_cell_setting 'triclinic'
loop_
_space_group_symop_operation_xyz
x,y,z
-x,-y,-z
loop_
_atom_site_type_symbol
_atom_site_label
_atom_site_fract_x
_atom_site_fract_y
_atom_site_fract_z
Si Si1 0.312582 0.065023 0.599122
Si Si2 0.896403 0.849102 0.068720
Si Si3 0.447215 0.642078 0.403537
Si Si4 0.831047 0.225018 0.653719
Si Si5 0.298813 0.793104 0.035238
Si Si6 0.056485 0.513135 0.341884
Si Si7 0.684370 0.537893 0.082849
Si Si8 0.710138 0.846358 0.967345
O O1 0.879680 0.727635 0.976795
O O2 0.131172 0.325146 0.645455
O O3 0.500000 0.000000 0.500000
O O4 0.329461 0.901566 0.500498
O O5 0.094857 0.663126 0.034782
O O6 0.736874 0.962532 0.244355
O O7 0.845702 0.050445 0.008132
O O8 0.500000 0.500000 0.500000
O O9 0.336587 0.634930 0.361420
O O10 0.624049 0.552079 0.247465
O O11 0.797305 0.145227 0.790005
O O12 0.871480 0.368583 0.678128
O O13 0.000000 0.000000 0.500000
O O14 0.390110 0.889145 0.983602
O O15 0.391709 0.539231 0.960454
O O16 0.209341 0.272923 0.199418
O O17 0.000000 0.500000 0.500000
O O18 0.614000 0.777249 0.074025
#
# Coordination Sequence:
#
# PCOD9038704 Si02
#       8
#     2   2   2   2   2   2   2   2
#     4  12  26  47  74 115 155 191 253 321 367 449
#     4  10  23  42  74 106 148 195 251 302 374 448
#     4  12  31  46  74 114 152 199 250 315 387 440
#     4  12  25  51  72 105 156 195 251 310 376 455
#     4  10  24  41  74 103 143 197 251 302 366 452
#     4  12  26  47  76 109 149 206 251 305 384 457
#     4  12  22  46  70 108 152 197 250 311 369 451
#     4  10  23  41  74 108 138 196 255 297 373 446
#
# _framework density 24.055913
#
# number of rings (size 3 to 8) (size 9 to 14) (size 15 to 20)
#    0.750    0.000    3.750    3.000    5.250    0.500 
#    0.000    0.625    0.000    0.000    0.000    0.000 
#    0.000    0.000    0.000    0.000    0.000    0.000 
#
# Total GULP energy -89450.493412 kJ/mol
# GULP energy per Si atom -5590.655838 kJ/mol
# Density = 2.400116 g / cm^3
# Si number density = 24.055913 Si / 1000 Ang^3
#
#
#
# Elastic Constant Matrix: (Units=GPa)
#
#
# Indices 1 2 3 4 5 6 
#
# 1 141.5340 46.2188 31.8680 -4.0279 4.9271 6.5492
# 2 46.2188 108.7273 34.7688 -20.2144 -7.5952 29.1268
# 3 31.8680 34.7688 166.1630 -27.5958 -3.0850 14.0533
# 4 -4.0279 -20.2144 -27.5958 54.4133 5.2357 6.3430
# 5 4.9271 -7.5952 -3.0850 5.2357 39.5246 6.7390
# 6 6.5492 29.1268 14.0533 6.3430 6.7390 48.8534
#
#
#
# Elastic Compliance Matrix: (Units=1/GPa)
#
#
# Indices 1 2 3 4 5 6 
#
# 1 0.008705 -0.004389 -0.001271 -0.001691 -0.002202 0.002339
# 2 -0.004389 0.015184 -0.000476 0.005787 0.004310 -0.009673
# 3 -0.001271 -0.000476 0.007141 0.003549 0.000518 -0.002132
# 4 -0.001691 0.005787 0.003549 0.023065 -0.000226 -0.007208
# 5 -0.002202 0.004310 0.000518 -0.000226 0.027530 -0.006192
# 6 0.002339 -0.009673 -0.002132 -0.007208 -0.006192 0.028327
#
#
# Mechanical properties :
#
#
# Convention : Reuss Voigt Hill
#
# Bulk Modulus (GPa) = 53.30976 71.34839 62.32907
# Shear Modulus (GPa) = 38.91817 48.79616 43.85717
#
# Velocity S-wave (km/s) = 4.02658 4.50872 4.27445
# Velocity P-wave (km/s) = 6.62017 7.53847 7.09419
#
# Compressibility (1/GPa) = 0.01875829
#
# Stress axis : x y z
#
# Youngs Moduli (GPa) = 114.87533 65.86031 140.03786
#
# Poissons Ratio (x) = 0.28905 0.17795
# Poissons Ratio (y) = 0.50417 0.06667
# Poissons Ratio (z) = 0.14598 0.03136
#
# Static dielectric constant tensor:
#      x y z
#    x 1.981170 -0.026040 -0.021740 
#    y -0.026040 2.002970 0.022600 
#    z -0.021740 0.022600 1.881300 
# 
# From -- ./inp_files/447497.got.cif
#   From: 2010.05.17/outbox.cif.g08.bks.cpg/sg2_224_cif.got.tgz:447497.got - 2010.06.03 11:33:40.
