data_PCOD9038608
_publ_section_title
;
Structure prediction by ZEFSAII (Michael W. Deem and Ramdas Pophale) SiO2 
 PCOD9038608
Probable space group: P -1
;
_chemical_formula_sum "Si O2"
_cell_formula_units_Z 16
_cell_length_a 13.236276
_cell_length_b 11.730031
_cell_length_c 9.824306
_cell_angle_alpha 52.120798
_cell_angle_beta 47.439417
_cell_angle_gamma 47.022265
_cell_volume 788.195218
_symmetry_space_group_name_H-M "P -1"
_symmetry_group_IT_number 2
_symmetry_cell_setting 'triclinic'
loop_
_space_group_symop_operation_xyz
x,y,z
-x,-y,-z
loop_
_atom_site_type_symbol
_atom_site_label
_atom_site_fract_x
_atom_site_fract_y
_atom_site_fract_z
Si Si1 0.101947 0.584709 0.886411
Si Si2 0.846469 0.729563 0.565995
Si Si3 0.451627 0.429178 0.726168
Si Si4 0.058625 0.133197 0.362366
Si Si5 0.619898 0.366609 0.087824
Si Si6 0.944909 0.355367 0.811473
Si Si7 0.511789 0.109916 0.289151
Si Si8 0.614154 0.052107 0.937221
O O1 0.278729 0.453268 0.840881
O O2 0.077715 0.707690 0.696689
O O3 0.039644 0.679255 0.016469
O O4 0.000000 0.500000 0.000000
O O5 0.894199 0.825562 0.563856
O O6 0.916193 0.541653 0.686322
O O7 0.665033 0.785970 0.676343
O O8 0.916480 0.741739 0.347251
O O9 0.500000 0.500000 0.500000
O O10 0.427495 0.553812 0.779112
O O11 0.561173 0.242636 0.807171
O O12 0.214610 0.064730 0.182752
O O13 0.000000 0.000000 0.500000
O O14 0.592292 0.211508 0.205249
O O15 0.500000 0.500000 0.000000
O O16 0.791975 0.340467 0.919197
O O17 0.500000 0.000000 0.500000
O O18 0.599755 0.032563 0.125881
O O19 0.500000 0.000000 0.000000
#
# Coordination Sequence:
#
# PCOD9038608 Si02
#       8
#     2   2   2   2   2   2   2   2
#     4  11  22  43  68  98 127 173 228 269 325 400
#     4  11  23  45  64 100 135 173 223 282 333 401
#     4  11  25  42  71 102 131 172 231 280 328 405
#     4  12  27  43  68 100 142 176 218 275 350 408
#     4  11  22  44  69  96 131 177 232 279 331 398
#     4  10  23  41  71  96 131 171 229 285 327 386
#     4  12  27  44  68 100 137 180 228 278 343 408
#     4  12  25  46  68  96 144 182 216 286 349 394
#
# _framework density 20.299541000000001
#
# number of rings (size 3 to 8) (size 9 to 14) (size 15 to 20)
#    0.000    0.750    5.000    2.250    5.250    4.000 
#    0.000    1.250    0.000    0.000    0.000    0.000 
#    0.000    0.000    0.000    0.000    0.000    0.000 
#
# Total GULP energy -89403.028818 kJ/mol
# GULP energy per Si atom -5587.689301 kJ/mol
# Density = 2.025334 g / cm^3
# Si number density = 20.299541 Si / 1000 Ang^3
#
#
#
# Elastic Constant Matrix: (Units=GPa)
#
#
# Indices 1 2 3 4 5 6 
#
# 1 115.3117 7.8159 20.5044 6.1857 -14.8906 23.1731
# 2 7.8159 36.8153 0.5246 1.0947 -0.9008 14.3375
# 3 20.5044 0.5246 87.9614 11.1267 -1.2542 16.9705
# 4 6.1857 1.0947 11.1267 47.6024 3.4069 -6.5988
# 5 -14.8906 -0.9008 -1.2542 3.4069 32.9084 -9.9988
# 6 23.1731 14.3375 16.9705 -6.5988 -9.9988 36.0602
#
#
#
# Elastic Compliance Matrix: (Units=1/GPa)
#
#
# Indices 1 2 3 4 5 6 
#
# 1 0.010551 0.000223 -0.000996 -0.002191 0.003170 -0.005923
# 2 0.000223 0.033618 0.003395 -0.003665 -0.003564 -0.016767
# 3 -0.000996 0.003395 0.013719 -0.004189 -0.001978 -0.008481
# 4 -0.002191 -0.003665 -0.004189 0.023659 -0.001000 0.008889
# 5 0.003170 -0.003564 -0.001978 -0.001000 0.034716 0.009754
# 6 -0.005923 -0.016767 -0.008481 0.008889 0.009754 0.046527
#
#
# Mechanical properties :
#
#
# Convention : Reuss Voigt Hill
#
# Bulk Modulus (GPa) = 15.83951 33.08648 24.46299
# Shear Modulus (GPa) = 27.99723 37.39708 32.69716
#
# Velocity S-wave (km/s) = 3.71779 4.29681 4.01775
# Velocity P-wave (km/s) = 5.12339 6.39932 5.79657
#
# Compressibility (1/GPa) = 0.06313327
#
# Stress axis : x y z
#
# Youngs Moduli (GPa) = 94.77614 29.74569 72.89416
#
# Poissons Ratio (x) = -0.00665 0.07259
# Poissons Ratio (y) = -0.02118 -0.24748
# Poissons Ratio (z) = 0.09438 -0.10099
#
# Static dielectric constant tensor:
#      x y z
#    x 0.492720 -0.311010 0.805160 
#    y -0.311010 1.630670 0.192540 
#    z 0.805160 0.192540 1.199040 
# 
# From -- ./inp_files/261956.got.cif
#   From: 2010.05.17/outbox.cif.g08.bks.cpg/sg2_131_cif.got.tgz:261956.got - 2010.06.03 11:33:40.
