data_PCOD9038303
_publ_section_title
;
Structure prediction by ZEFSAII (Michael W. Deem and Ramdas Pophale) SiO2 
 PCOD9038303
Probable space group: P -1
;
_chemical_formula_sum "Si O2"
_cell_formula_units_Z 16
_cell_length_a 15.749310
_cell_length_b 8.020029
_cell_length_c 5.153732
_cell_angle_alpha 84.951392
_cell_angle_beta 103.253873
_cell_angle_gamma 102.430076
_cell_volume 618.263789
_symmetry_space_group_name_H-M "P -1"
_symmetry_group_IT_number 2
_symmetry_cell_setting 'triclinic'
loop_
_space_group_symop_operation_xyz
x,y,z
-x,-y,-z
loop_
_atom_site_type_symbol
_atom_site_label
_atom_site_fract_x
_atom_site_fract_y
_atom_site_fract_z
Si Si1 0.021861 0.193128 0.876524
Si Si2 0.219866 0.852064 0.457729
Si Si3 0.489104 0.284644 0.897343
Si Si4 0.424046 0.930181 0.656805
Si Si5 0.925361 0.284612 0.287673
Si Si6 0.352931 0.469674 0.048191
Si Si7 0.181730 0.491929 0.595757
Si Si8 0.798408 0.780954 0.767286
O O1 0.980170 0.210836 0.563396
O O2 0.128806 0.241433 0.963951
O O3 0.973409 0.285757 0.049680
O O4 0.000000 0.000000 0.000000
O O5 0.174189 0.832511 0.717939
O O6 0.191548 0.654026 0.376280
O O7 0.324593 0.889411 0.500670
O O8 0.192790 0.018297 0.296795
O O9 0.571391 0.390464 0.769406
O O10 0.550022 0.234898 0.176993
O O11 0.433182 0.097397 0.819784
O O12 0.416228 0.392453 0.905996
O O13 0.500000 0.000000 0.500000
O O14 0.095529 0.530890 0.680653
O O15 0.270879 0.525587 0.831611
O O16 0.300599 0.315684 0.210467
O O17 0.177483 0.321652 0.451887
#
# Coordination Sequence:
#
# PCOD9038303 Si02
#       8
#     2   2   2   2   2   2   2   2
#     4  12  25  48  77 113 150 197 254 313 374 451
#     4  10  23  48  66 108 143 192 245 307 376 445
#     4  10  23  41  68 101 140 184 241 301 368 442
#     4  11  22  41  70 101 136 188 243 296 371 443
#     4  10  26  47  77 107 152 198 246 313 377 441
#     4  11  24  45  66 104 145 187 238 309 369 446
#     4  10  25  46  70 102 146 187 245 301 371 441
#     4  12  27  43  76 104 142 197 244 302 382 444
#
# _framework density 25.878921999999999
#
# number of rings (size 3 to 8) (size 9 to 14) (size 15 to 20)
#    0.750    0.500    2.500    1.875    5.250    2.000 
#    4.500    3.125    0.000    0.000    0.000    0.000 
#    0.000    0.000    0.000    0.000    0.000    0.000 
#
# Total GULP energy -89355.468852 kJ/mol
# GULP energy per Si atom -5584.716803 kJ/mol
# Density = 2.582002 g / cm^3
# Si number density = 25.878922 Si / 1000 Ang^3
#
#
#
# Elastic Constant Matrix: (Units=GPa)
#
#
# Indices 1 2 3 4 5 6 
#
# 1 158.9450 26.7419 18.9646 1.2941 0.4682 4.2960
# 2 26.7419 79.8318 5.8547 -17.0835 0.4798 -19.0128
# 3 18.9646 5.8547 54.0326 0.3005 -6.5479 -17.3743
# 4 1.2941 -17.0835 0.3005 30.4352 -0.3934 0.6702
# 5 0.4682 0.4798 -6.5479 -0.3934 28.5917 -17.7466
# 6 4.2960 -19.0128 -17.3743 0.6702 -17.7466 55.9315
#
#
#
# Elastic Compliance Matrix: (Units=1/GPa)
#
#
# Indices 1 2 3 4 5 6 
#
# 1 0.007539 -0.003708 -0.004027 -0.002316 -0.003631 -0.004215
# 2 -0.003708 0.017833 0.003017 0.010017 0.006272 0.009154
# 3 -0.004027 0.003017 0.025861 0.001490 0.014647 0.013998
# 4 -0.002316 0.010017 0.001490 0.038506 0.003693 0.004756
# 5 -0.003631 0.006272 0.014647 0.003693 0.053081 0.023759
# 6 -0.004215 0.009154 0.013998 0.004756 0.023759 0.033144
#
#
# Mechanical properties :
#
#
# Convention : Reuss Voigt Hill
#
# Bulk Modulus (GPa) = 23.92441 43.99241 33.95841
# Shear Modulus (GPa) = 25.08361 39.07491 32.07926
#
# Velocity S-wave (km/s) = 3.11668 3.88997 3.52460
# Velocity P-wave (km/s) = 4.71343 6.10017 5.45108
#
# Compressibility (1/GPa) = 0.04179831
#
# Stress axis : x y z
#
# Youngs Moduli (GPa) = 132.63940 56.07545 38.66757
#
# Poissons Ratio (x) = 0.20791 0.15571
# Poissons Ratio (y) = 0.49179 -0.11665
# Poissons Ratio (z) = 0.53412 -0.16917
#
# Static dielectric constant tensor:
#      x y z
#    x 1.920870 -0.027890 0.023450 
#    y -0.027890 1.601310 -0.136770 
#    z 0.023450 -0.136770 2.025750 
# 
# From -- ./inp_files/90164.got.cif
#   From: 2010.05.17/outbox.cif.g08.bks.cpg/sg2_46_cif.got.tgz:90164.got - 2010.06.03 11:33:40.
