data_PCOD9038837
_publ_section_title
;
Structure prediction by ZEFSAII (Michael W. Deem and Ramdas Pophale) SiO2 
 PCOD9038837
Probable space group: P -1
;
_chemical_formula_sum "Si O2"
_cell_formula_units_Z 14
_cell_length_a 20.101659
_cell_length_b 8.102932
_cell_length_c 12.702956
_cell_angle_alpha 113.579219
_cell_angle_beta 147.677643
_cell_angle_gamma 43.848498
_cell_volume 632.153818
_symmetry_space_group_name_H-M "P -1"
_symmetry_group_IT_number 2
_symmetry_cell_setting 'triclinic'
loop_
_space_group_symop_operation_xyz
x,y,z
-x,-y,-z
loop_
_atom_site_type_symbol
_atom_site_label
_atom_site_fract_x
_atom_site_fract_y
_atom_site_fract_z
Si Si1 0.518793 0.672188 0.441903
Si Si2 0.572209 0.137508 0.014270
Si Si3 0.706707 0.864191 0.337481
Si Si4 0.252493 0.947389 0.354748
Si Si5 0.874278 0.505224 0.904212
Si Si6 0.199989 0.086588 0.951347
Si Si7 0.873391 0.307676 0.455274
O O1 0.398292 0.854613 0.433889
O O2 0.647364 0.349528 0.550965
O O3 0.679014 0.645565 0.625536
O O4 0.355982 0.822739 0.172794
O O5 0.673604 0.033314 0.237732
O O6 0.500039 0.008909 0.882995
O O7 0.360666 0.478601 0.801542
O O8 0.713867 0.019011 0.077331
O O9 0.854960 0.525878 0.428358
O O10 0.763504 0.903297 0.528820
O O11 0.033779 0.177496 0.070707
O O12 0.812638 0.694904 0.970139
O O13 0.000000 0.500000 0.000000
O O14 0.983655 0.236908 0.693600
O O15 0.000000 0.000000 0.500000
#
# Coordination Sequence:
#
# PCOD9038837 Si02
#       7
#     2   2   2   2   2   2   2
#     4  11  27  40  70 101 134 179 222 277 337 390
#     4   9  22  41  64  93 132 169 223 264 339 398
#     4   9  20  44  64  89 132 178 205 281 330 392
#     4  11  23  47  65  97 140 171 229 273 333 402
#     4  12  24  43  69 100 136 176 228 272 335 400
#     4  12  24  40  69  95 129 178 217 276 339 388
#     4  10  23  42  63  96 127 168 223 272 330 395
#
# _framework density 22.146509999999999
#
# number of rings (size 3 to 8) (size 9 to 14) (size 15 to 20)
#    0.857    0.571    2.857    1.714    6.000    1.143 
#    0.000    0.000    0.000    0.000    0.000    0.000 
#    0.000    0.000    0.000    0.000    0.000    0.000 
#
# Total GULP energy -78102.303225 kJ/mol
# GULP energy per Si atom -5578.735945 kJ/mol
# Density = 2.209610 g / cm^3
# Si number density = 22.146510 Si / 1000 Ang^3
#
#
#
# Elastic Constant Matrix: (Units=GPa)
#
#
# Indices 1 2 3 4 5 6 
#
# 1 84.7493 28.1216 31.0239 -2.3720 -12.7534 -4.2177
# 2 28.1216 100.0298 22.4241 -28.1738 -3.3796 3.6234
# 3 31.0239 22.4241 126.7130 -19.8510 -19.1827 11.0155
# 4 -2.3720 -28.1738 -19.8510 41.5230 5.2137 -6.7303
# 5 -12.7534 -3.3796 -19.1827 5.2137 28.3159 -2.2282
# 6 -4.2177 3.6234 11.0155 -6.7303 -2.2282 25.7081
#
#
#
# Elastic Compliance Matrix: (Units=1/GPa)
#
#
# Indices 1 2 3 4 5 6 
#
# 1 0.015356 -0.004656 -0.003071 -0.003771 0.005286 0.003962
# 2 -0.004656 0.013903 -0.000175 0.009306 -0.002302 -0.000411
# 3 -0.003071 -0.000175 0.010220 0.003436 0.004607 -0.003559
# 4 -0.003771 0.009306 0.003436 0.033121 -0.003971 0.004924
# 5 0.005286 -0.002302 0.004607 -0.003971 0.041413 0.001768
# 6 0.003962 -0.000411 -0.003559 0.004924 0.001768 0.042574
#
#
# Mechanical properties :
#
#
# Convention : Reuss Voigt Hill
#
# Bulk Modulus (GPa) = 42.23811 52.73683 47.48747
# Shear Modulus (GPa) = 27.73424 34.43754 31.08589
#
# Velocity S-wave (km/s) = 3.54263 3.94761 3.75059
# Velocity P-wave (km/s) = 5.98725 6.68151 6.34389
#
# Compressibility (1/GPa) = 0.02367530
#
# Stress axis : x y z
#
# Youngs Moduli (GPa) = 65.12297 71.92442 97.84926
#
# Poissons Ratio (x) = 0.33486 0.30046
# Poissons Ratio (y) = 0.30319 0.01716
# Poissons Ratio (z) = 0.19997 0.01262
#
# Static dielectric constant tensor:
#      x y z
#    x 1.817210 0.012040 -0.000550 
#    y 0.012040 1.841280 -0.021450 
#    z -0.000550 -0.021450 1.849860 
# 
# From -- ./inp_files/470094.got.cif
#   From: 2010.05.17/outbox.cif.g08.bks.cpg/sg2_236_cif.got.tgz:470094.got - 2010.06.03 11:33:40.
