data_PCOD9038887
_publ_section_title
;
Structure prediction by ZEFSAII (Michael W. Deem and Ramdas Pophale) SiO2 
 PCOD9038887
Probable space group: P -1
;
_chemical_formula_sum "Si O2"
_cell_formula_units_Z 16
_cell_length_a 8.435722
_cell_length_b 15.201589
_cell_length_c 12.453380
_cell_angle_alpha 42.226431
_cell_angle_beta 126.485450
_cell_angle_gamma 101.273663
_cell_volume 769.265018
_symmetry_space_group_name_H-M "P -1"
_symmetry_group_IT_number 2
_symmetry_cell_setting 'triclinic'
loop_
_space_group_symop_operation_xyz
x,y,z
-x,-y,-z
loop_
_atom_site_type_symbol
_atom_site_label
_atom_site_fract_x
_atom_site_fract_y
_atom_site_fract_z
Si Si1 0.686201 0.055068 0.524155
Si Si2 0.843182 0.950842 0.915625
Si Si3 0.542916 0.442864 0.895606
Si Si4 0.239913 0.437089 0.596632
Si Si5 0.335044 0.379750 0.066995
Si Si6 0.146395 0.840681 0.830976
Si Si7 0.516233 0.915761 0.972949
Si Si8 0.074110 0.657097 0.150522
O O1 0.552027 0.224706 0.291654
O O2 0.500000 0.000000 0.500000
O O3 0.887773 0.952825 0.620733
O O4 0.783376 0.032775 0.703536
O O5 0.631434 0.972307 0.879701
O O6 0.963861 0.779093 0.088474
O O7 0.000000 0.000000 0.000000
O O8 0.397720 0.479555 0.696377
O O9 0.659891 0.539999 0.893707
O O10 0.369163 0.462078 0.903114
O O11 0.731923 0.275379 0.108902
O O12 0.341628 0.260591 0.795698
O O13 0.000000 0.500000 0.500000
O O14 0.219107 0.507449 0.407003
O O15 0.118607 0.358709 0.978643
O O16 0.280091 0.932642 0.824449
O O17 0.176059 0.732313 0.042522
O O18 0.500000 0.000000 0.000000
#
# Coordination Sequence:
#
# PCOD9038887 Si02
#       8
#     2   2   2   2   2   2   2   2
#     4  11  23  42  66  91 123 179 211 256 327 384
#     4  11  23  41  67  93 129 168 216 261 319 382
#     4  10  24  40  63  95 124 166 211 273 313 376
#     4  11  21  40  71  89 123 173 213 259 321 382
#     4  11  22  43  63  90 131 165 220 254 318 393
#     4  10  23  42  64  93 132 165 212 276 317 372
#     4  11  23  42  62  99 133 158 214 274 321 375
#     4  11  21  42  66  91 127 169 214 263 318 385
#
# _framework density 20.799075999999999
#
# number of rings (size 3 to 8) (size 9 to 14) (size 15 to 20)
#    0.000    1.250    5.000    2.250    1.750    4.000 
#    2.250    0.000    0.000    0.000    0.000    0.000 
#    0.000    0.000    0.000    0.000    0.000    0.000 
#
# Total GULP energy -89365.657737 kJ/mol
# GULP energy per Si atom -5585.353609 kJ/mol
# Density = 2.075174 g / cm^3
# Si number density = 20.799076 Si / 1000 Ang^3
#
#
#
# Elastic Constant Matrix: (Units=GPa)
#
#
# Indices 1 2 3 4 5 6 
#
# 1 90.1024 33.8030 -1.6357 15.0747 14.3611 12.9493
# 2 33.8030 143.6604 24.7627 22.2928 23.7465 10.3625
# 3 -1.6357 24.7627 87.0188 13.0386 5.4648 7.6967
# 4 15.0747 22.2928 13.0386 22.4308 3.4264 6.5532
# 5 14.3611 23.7465 5.4648 3.4264 39.4283 1.7334
# 6 12.9493 10.3625 7.6967 6.5532 1.7334 33.5493
#
#
#
# Elastic Compliance Matrix: (Units=1/GPa)
#
#
# Indices 1 2 3 4 5 6 
#
# 1 0.014186 -0.001703 0.002458 -0.007590 -0.003654 -0.003842
# 2 -0.001703 0.009351 -0.001408 -0.006566 -0.004228 -0.000407
# 3 0.002458 -0.001408 0.013273 -0.007177 -0.001171 -0.002096
# 4 -0.007590 -0.006566 -0.007177 0.061608 0.002605 -0.005564
# 5 -0.003654 -0.004228 -0.001171 0.002605 0.029133 0.000971
# 6 -0.003842 -0.000407 -0.002096 -0.005564 0.000971 0.032933
#
#
# Mechanical properties :
#
#
# Convention : Reuss Voigt Hill
#
# Bulk Modulus (GPa) = 28.16508 48.29353 38.22931
# Shear Modulus (GPa) = 28.79766 36.67178 32.73472
#
# Velocity S-wave (km/s) = 3.72501 4.20354 3.97149
# Velocity P-wave (km/s) = 5.66320 6.84318 6.28096
#
# Compressibility (1/GPa) = 0.03550496
#
# Stress axis : x y z
#
# Youngs Moduli (GPa) = 70.49075 106.93576 75.34184
#
# Poissons Ratio (x) = 0.18209 -0.18517
# Poissons Ratio (y) = 0.12003 0.10606
# Poissons Ratio (z) = -0.17325 0.15053
#
# Static dielectric constant tensor:
#      x y z
#    x 1.783060 -0.013730 0.010870 
#    y -0.013730 1.741720 -0.018530 
#    z 0.010870 -0.018530 1.750580 
# 
# From -- ./inp_files/398653.got.cif
#   From: 2010.05.17/outbox.cif.g08.bks.cpg/sg2_200_cif.got.tgz:398653.got - 2010.06.03 11:33:40.
