data_PCOD9038380
_publ_section_title
;
Structure prediction by ZEFSAII (Michael W. Deem and Ramdas Pophale) SiO2 
 PCOD9038380
Probable space group: P -1
;
_chemical_formula_sum "Si O2"
_cell_formula_units_Z 16
_cell_length_a 8.778540
_cell_length_b 25.061530
_cell_length_c 20.264895
_cell_angle_alpha 21.147182
_cell_angle_beta 30.312743
_cell_angle_gamma 31.176780
_cell_volume 780.047196
_symmetry_space_group_name_H-M "P -1"
_symmetry_group_IT_number 2
_symmetry_cell_setting 'triclinic'
loop_
_space_group_symop_operation_xyz
x,y,z
-x,-y,-z
loop_
_atom_site_type_symbol
_atom_site_label
_atom_site_fract_x
_atom_site_fract_y
_atom_site_fract_z
Si Si1 0.407448 0.882240 0.719042
Si Si2 0.786072 0.413149 0.384909
Si Si3 0.197738 0.939976 0.192673
Si Si4 0.339522 0.454540 0.046330
Si Si5 0.351169 0.002699 0.374170
Si Si6 0.092546 0.610339 0.390505
Si Si7 0.847663 0.073877 0.038094
Si Si8 0.700692 0.654036 0.619486
O O1 0.496598 0.716043 0.844720
O O2 0.040770 0.948190 0.796919
O O3 0.500000 0.000000 0.500000
O O4 0.589767 0.898243 0.700057
O O5 0.438739 0.527559 0.384815
O O6 0.989091 0.452360 0.202293
O O7 0.998928 0.423025 0.357755
O O8 0.756796 0.236972 0.598507
O O9 0.024283 0.972137 0.149857
O O10 0.500000 0.000000 0.000000
O O11 0.500000 0.500000 0.000000
O O12 0.428345 0.567289 0.829042
O O13 0.550191 0.823878 0.509539
O O14 0.487836 0.073216 0.179517
O O15 0.000000 0.000000 0.500000
O O16 0.000000 0.500000 0.500000
O O17 0.838471 0.654645 0.493728
O O18 0.112719 0.757602 0.171456
O O19 0.000000 0.000000 0.000000
#
# Coordination Sequence:
#
# PCOD9038380 Si02
#       8
#     2   2   2   2   2   2   2   2
#     4  11  21  44  68  95 134 174 225 282 328 400
#     4  11  22  46  67  99 131 177 225 276 334 405
#     4  11  23  40  70  99 131 170 233 276 327 397
#     4  10  23  41  68  99 135 167 221 282 340 389
#     4  11  25  43  70  97 137 179 228 274 341 399
#     4  12  27  42  68  99 139 176 224 278 344 397
#     4  11  23  47  64  93 137 179 218 278 334 399
#     4  11  23  47  66  98 134 177 225 281 332 406
#
# _framework density 20.511579999999999
#
# number of rings (size 3 to 8) (size 9 to 14) (size 15 to 20)
#    0.000    1.000    5.000    1.875    7.000    2.000 
#    2.250    1.250    0.000    0.000    0.000    0.000 
#    0.000    0.000    0.000    0.000    0.000    0.000 
#
# Total GULP energy -89322.659442 kJ/mol
# GULP energy per Si atom -5582.666215 kJ/mol
# Density = 2.046489 g / cm^3
# Si number density = 20.511580 Si / 1000 Ang^3
#
#
#
# Elastic Constant Matrix: (Units=GPa)
#
#
# Indices 1 2 3 4 5 6 
#
# 1 39.0262 28.6530 14.4544 6.5252 -8.2678 2.0754
# 2 28.6530 97.1303 48.2109 22.2258 -10.9373 13.8697
# 3 14.4544 48.2109 174.1130 20.4519 -13.4210 1.0827
# 4 6.5252 22.2258 20.4519 56.9326 3.7621 -5.0564
# 5 -8.2678 -10.9373 -13.4210 3.7621 30.7864 0.0172
# 6 2.0754 13.8697 1.0827 -5.0564 0.0172 30.8549
#
#
#
# Elastic Compliance Matrix: (Units=1/GPa)
#
#
# Indices 1 2 3 4 5 6 
#
# 1 0.033800 -0.009676 0.000363 -0.000437 0.005850 0.001989
# 2 -0.009676 0.017405 -0.003100 -0.005471 0.002906 -0.007962
# 3 0.000363 -0.003100 0.006894 -0.001371 0.002169 0.000901
# 4 -0.000437 -0.005471 -0.001371 0.021123 -0.005243 0.006001
# 5 0.005850 0.002906 0.002169 -0.005243 0.036673 -0.002656
# 6 0.001989 -0.007962 0.000901 0.006001 -0.002656 0.036808
#
#
# Mechanical properties :
#
#
# Convention : Reuss Voigt Hill
#
# Bulk Modulus (GPa) = 30.05416 54.76733 42.41074
# Shear Modulus (GPa) = 26.50823 38.31154 32.40988
#
# Velocity S-wave (km/s) = 3.59883 4.32649 3.97933
# Velocity P-wave (km/s) = 5.65269 7.19143 6.46798
#
# Compressibility (1/GPa) = 0.03327327
#
# Stress axis : x y z
#
# Youngs Moduli (GPa) = 29.58548 57.45568 145.04922
#
# Poissons Ratio (x) = 0.55597 -0.05268
# Poissons Ratio (y) = 0.28628 0.44961
# Poissons Ratio (z) = -0.01075 0.17810
#
# Static dielectric constant tensor:
#      x y z
#    x 1.723280 -0.017110 -0.040360 
#    y -0.017110 1.720800 0.101590 
#    z -0.040360 0.101590 1.560670 
# 
# From -- ./inp_files/591928.got.cif
#   From: 2010.05.17/outbox.cif.g08.bks.cpg/sg2_296_cif.got.tgz:591928.got - 2010.06.03 11:33:40.
