data_PCOD9038074
_publ_section_title
;
Structure prediction by ZEFSAII (Michael W. Deem and Ramdas Pophale) SiO2 
 PCOD9038074
Probable space group: P -1
;
_chemical_formula_sum "Si O2"
_cell_formula_units_Z 16
_cell_length_a 11.934535
_cell_length_b 19.585518
_cell_length_c 9.519440
_cell_angle_alpha 27.055990
_cell_angle_beta 124.205987
_cell_angle_gamma 133.616655
_cell_volume 723.491034
_symmetry_space_group_name_H-M "P -1"
_symmetry_group_IT_number 2
_symmetry_cell_setting 'triclinic'
loop_
_space_group_symop_operation_xyz
x,y,z
-x,-y,-z
loop_
_atom_site_type_symbol
_atom_site_label
_atom_site_fract_x
_atom_site_fract_y
_atom_site_fract_z
Si Si1 0.316139 0.971360 0.301356
Si Si2 0.071478 0.129633 0.444633
Si Si3 0.857248 0.458494 0.584923
Si Si4 0.978214 0.636492 0.641715
Si Si5 0.484644 0.889739 0.329098
Si Si6 0.842073 0.855911 0.227976
Si Si7 0.253919 0.911152 0.681399
Si Si8 0.339785 0.502917 0.850784
O O1 0.428720 0.964833 0.277543
O O2 0.336832 0.945330 0.526665
O O3 0.147683 0.807009 0.445471
O O4 0.299976 0.140755 0.955395
O O5 0.150455 0.087939 0.707270
O O6 0.916392 0.118934 0.419434
O O7 0.195736 0.325880 0.132129
O O8 0.000000 0.000000 0.500000
O O9 0.927259 0.571456 0.566933
O O10 0.724656 0.489255 0.363856
O O11 0.000000 0.500000 0.500000
O O12 0.777142 0.260342 0.944252
O O13 0.852932 0.682604 0.537054
O O14 0.000000 0.500000 0.000000
O O15 0.372218 0.685499 0.604463
O O16 0.653699 0.931992 0.430637
O O17 0.500000 0.000000 0.000000
O O18 0.000000 0.000000 0.000000
O O19 0.500000 0.500000 0.000000
#
# Coordination Sequence:
#
# PCOD9038074 Si02
#       8
#     2   2   2   2   2   2   2   2
#     4  11  25  44  72 101 147 193 241 307 379 445
#     4  12  26  43  76 106 146 192 248 311 366 440
#     4  12  24  42  74 112 144 192 253 312 363 444
#     4  11  22  41  72 108 148 186 246 313 371 442
#     4  12  28  47  73 101 149 197 239 308 376 440
#     4  10  23  41  66 108 143 179 241 303 372 433
#     4  12  24  46  71 106 139 191 256 296 372 447
#     4  12  29  48  70 112 153 191 249 308 381 437
#
# _framework density 22.114995
#
# number of rings (size 3 to 8) (size 9 to 14) (size 15 to 20)
#    0.000    0.500    6.250    1.875    8.750    1.000 
#    0.000    0.000    0.000    3.000    0.000    0.000 
#    0.000    0.000    0.000    0.000    0.000    0.000 
#
# Total GULP energy -89365.830728 kJ/mol
# GULP energy per Si atom -5585.364421 kJ/mol
# Density = 2.206466 g / cm^3
# Si number density = 22.114995 Si / 1000 Ang^3
#
#
#
# Elastic Constant Matrix: (Units=GPa)
#
#
# Indices 1 2 3 4 5 6 
#
# 1 98.3824 39.2177 41.2336 13.1835 -0.3581 -14.3041
# 2 39.2177 170.7769 51.2094 13.0220 -13.9669 -14.8881
# 3 41.2336 51.2094 126.4171 17.5715 -4.2437 -12.8474
# 4 13.1835 13.0220 17.5715 46.1361 0.4921 -4.2028
# 5 -0.3581 -13.9669 -4.2437 0.4921 32.8149 6.1632
# 6 -14.3041 -14.8881 -12.8474 -4.2028 6.1632 38.0814
#
#
#
# Elastic Compliance Matrix: (Units=1/GPa)
#
#
# Indices 1 2 3 4 5 6 
#
# 1 0.012794 -0.001775 -0.002943 -0.001727 -0.001568 0.003182
# 2 -0.001775 0.007235 -0.002071 -0.000687 0.002622 0.000963
# 3 -0.002943 -0.002071 0.010165 -0.002337 0.000207 0.001223
# 4 -0.001727 -0.000687 -0.002337 0.023361 -0.001163 0.001061
# 5 -0.001568 0.002622 0.000207 -0.001163 0.032535 -0.004888
# 6 0.003182 0.000963 0.001223 0.001061 -0.004888 0.029152
#
#
# Mechanical properties :
#
#
# Convention : Reuss Voigt Hill
#
# Bulk Modulus (GPa) = 60.17971 73.21087 66.69529
# Shear Modulus (GPa) = 37.21407 41.00085 39.10746
#
# Velocity S-wave (km/s) = 4.10659 4.31046 4.20976
# Velocity P-wave (km/s) = 7.05384 7.61249 7.33848
#
# Compressibility (1/GPa) = 0.01661690
#
# Stress axis : x y z
#
# Youngs Moduli (GPa) = 78.16296 138.22266 98.37587
#
# Poissons Ratio (x) = 0.24528 0.28955
# Poissons Ratio (y) = 0.13870 0.20369
# Poissons Ratio (z) = 0.23006 0.28619
#
# Static dielectric constant tensor:
#      x y z
#    x 1.903330 0.041900 0.040140 
#    y 0.041900 1.845160 0.007100 
#    z 0.040140 0.007100 2.190750 
# 
# From -- ./inp_files/278692.got.cif
#   From: 2010.05.17/outbox.cif.g08.bks.cpg/sg2_140_cif.got.tgz:278692.got - 2010.06.03 11:33:40.
