data_PCOD9038602
_publ_section_title
;
Structure prediction by ZEFSAII (Michael W. Deem and Ramdas Pophale) SiO2 
 PCOD9038602
Probable space group: P -1
;
_chemical_formula_sum "Si O2"
_cell_formula_units_Z 16
_cell_length_a 13.476782
_cell_length_b 12.221461
_cell_length_c 9.588350
_cell_angle_alpha 91.816731
_cell_angle_beta 40.445729
_cell_angle_gamma 123.035261
_cell_volume 609.506751
_symmetry_space_group_name_H-M "P -1"
_symmetry_group_IT_number 2
_symmetry_cell_setting 'triclinic'
loop_
_space_group_symop_operation_xyz
x,y,z
-x,-y,-z
loop_
_atom_site_type_symbol
_atom_site_label
_atom_site_fract_x
_atom_site_fract_y
_atom_site_fract_z
Si Si1 0.040425 0.558512 0.165206
Si Si2 0.481263 0.201539 0.719974
Si Si3 0.793054 0.979945 0.718468
Si Si4 0.138591 0.387413 0.421406
Si Si5 0.207335 0.864313 0.835395
Si Si6 0.603428 0.558670 0.110596
Si Si7 0.887788 0.050800 0.323966
Si Si8 0.519984 0.688378 0.560005
O O1 0.782785 0.341632 0.398805
O O2 0.996044 0.583730 0.367692
O O3 0.706044 0.362872 0.140641
O O4 0.056540 0.677424 0.056504
O O5 0.479807 0.293591 0.604628
O O6 0.260150 0.992763 0.892705
O O7 0.420685 0.176001 0.947394
O O8 0.706018 0.951155 0.651121
O O9 0.000000 0.000000 0.500000
O O10 0.929421 0.170690 0.625431
O O11 0.360666 0.473765 0.292989
O O12 0.279257 0.465282 0.123422
O O13 0.112436 0.856430 0.789911
O O14 0.500000 0.000000 0.500000
O O15 0.524696 0.454333 0.331923
O O16 0.835735 0.776154 0.894993
O O17 0.788453 0.887397 0.343363
#
# Coordination Sequence:
#
# PCOD9038602 Si02
#       8
#     2   2   2   2   2   2   2   2
#     4  12  24  41  72 102 139 183 227 280 351 408
#     4  11  25  41  70 100 135 184 223 285 350 403
#     4  11  24  46  70  98 139 185 237 285 344 416
#     4  10  24  45  69  99 142 184 226 287 352 401
#     4  11  22  46  68  95 145 177 226 286 342 412
#     4  10  23  45  68  98 140 180 234 285 338 419
#     4  10  23  41  71  94 132 184 226 282 346 396
#     4  11  24  44  69 103 138 175 232 287 341 415
#
# _framework density 26.250733
#
# number of rings (size 3 to 8) (size 9 to 14) (size 15 to 20)
#    0.000    1.250    3.750    1.875    8.750    0.500 
#    2.250    5.000    0.000    0.000    0.000    0.000 
#    0.000    0.000    0.000    0.000    0.000    0.000 
#
# Total GULP energy -89551.078929 kJ/mol
# GULP energy per Si atom -5596.942433 kJ/mol
# Density = 2.619099 g / cm^3
# Si number density = 26.250733 Si / 1000 Ang^3
#
#
#
# Elastic Constant Matrix: (Units=GPa)
#
#
# Indices 1 2 3 4 5 6 
#
# 1 59.2729 24.9774 41.0076 -0.9405 28.3468 6.9149
# 2 24.9774 87.7005 45.1969 -2.2061 -1.6878 12.1974
# 3 41.0076 45.1969 143.5642 19.6497 24.5365 12.3345
# 4 -0.9405 -2.2061 19.6497 58.3574 -3.3139 3.6846
# 5 28.3468 -1.6878 24.5365 -3.3139 50.9436 -1.2217
# 6 6.9149 12.1974 12.3345 3.6846 -1.2217 37.7645
#
#
#
# Elastic Compliance Matrix: (Units=1/GPa)
#
#
# Indices 1 2 3 4 5 6 
#
# 1 0.029625 -0.006371 -0.003798 0.000840 -0.014876 -0.002690
# 2 -0.006371 0.016049 -0.004432 0.002520 0.006313 -0.002611
# 3 -0.003798 -0.004432 0.010670 -0.003949 -0.003456 -0.001085
# 4 0.000840 0.002520 -0.003949 0.018818 0.002708 -0.001426
# 5 -0.014876 0.006313 -0.003456 0.002708 0.030017 0.002520
# 6 -0.002690 -0.002611 -0.001085 -0.001426 0.002520 0.028391
#
#
# Mechanical properties :
#
#
# Convention : Reuss Voigt Hill
#
# Bulk Modulus (GPa) = 36.84371 56.98905 46.91638
# Shear Modulus (GPa) = 29.10036 41.37015 35.23525
#
# Velocity S-wave (km/s) = 3.33311 3.97415 3.66766
# Velocity P-wave (km/s) = 5.37388 6.54332 5.98722
#
# Compressibility (1/GPa) = 0.02714168
#
# Stress axis : x y z
#
# Youngs Moduli (GPa) = 33.75560 62.30865 93.72094
#
# Poissons Ratio (x) = 0.39698 0.35593
# Poissons Ratio (y) = 0.21506 0.41539
# Poissons Ratio (z) = 0.12819 0.27617
#
# Static dielectric constant tensor:
#      x y z
#    x 2.056210 0.020700 -0.018900 
#    y 0.020700 2.207900 0.072560 
#    z -0.018900 0.072560 2.043030 
# 
# From -- ./inp_files/315183.got.cif
#   From: 2010.05.17/outbox.cif.g08.bks.cpg/sg2_158_cif.got.tgz:315183.got - 2010.06.03 11:33:40.
