data_PCOD9038345
_publ_section_title
;
Structure prediction by ZEFSAII (Michael W. Deem and Ramdas Pophale) SiO2 
 PCOD9038345
Probable space group: P -1
;
_chemical_formula_sum "Si O2"
_cell_formula_units_Z 16
_cell_length_a 8.145647
_cell_length_b 9.289620
_cell_length_c 17.971756
_cell_angle_alpha 84.692987
_cell_angle_beta 149.112523
_cell_angle_gamma 94.563148
_cell_volume 695.128440
_symmetry_space_group_name_H-M "P -1"
_symmetry_group_IT_number 2
_symmetry_cell_setting 'triclinic'
loop_
_space_group_symop_operation_xyz
x,y,z
-x,-y,-z
loop_
_atom_site_type_symbol
_atom_site_label
_atom_site_fract_x
_atom_site_fract_y
_atom_site_fract_z
Si Si1 0.944622 0.150527 0.351806
Si Si2 0.945151 0.329149 0.870833
Si Si3 0.536197 0.154295 0.044651
Si Si4 0.353019 0.388800 0.713361
Si Si5 0.588196 0.425610 0.959021
Si Si6 0.685501 0.298840 0.382649
Si Si7 0.313446 0.882452 0.482259
Si Si8 0.574794 0.347829 0.574519
O O1 0.789467 0.156142 0.210018
O O2 0.713809 0.205019 0.324040
O O3 0.244765 0.261311 0.465465
O O4 0.054030 0.985328 0.415048
O O5 0.664232 0.291261 0.821292
O O6 0.763191 0.369270 0.722241
O O7 0.207335 0.211207 0.953127
O O8 0.130150 0.471008 0.964451
O O9 0.642569 0.263982 0.015564
O O10 0.500000 0.000000 0.000000
O O11 0.340602 0.423562 0.794536
O O12 0.412035 0.541487 0.687120
O O13 0.033436 0.322562 0.556534
O O14 0.500000 0.500000 0.000000
O O15 0.499621 0.207722 0.377459
O O16 0.223209 0.760800 0.393531
O O17 0.500000 0.000000 0.500000
O O18 0.500000 0.500000 0.500000
#
# Coordination Sequence:
#
# PCOD9038345 Si02
#       8
#     2   2   2   2   2   2   2   2
#     4  11  23  44  64 101 136 181 229 277 354 406
#     4  11  22  43  64  97 135 175 230 282 345 403
#     4  11  25  44  68  99 139 189 228 274 342 424
#     4  11  24  41  69 104 133 178 232 290 350 402
#     4  10  23  41  68  95 135 182 227 281 342 412
#     4  11  23  41  70 101 137 175 232 290 350 408
#     4  10  24  41  65 100 138 181 221 287 345 414
#     4  11  22  39  68 100 134 172 231 288 339 404
#
# _framework density 23.017329
#
# number of rings (size 3 to 8) (size 9 to 14) (size 15 to 20)
#    0.000    1.250    1.250    4.500    7.000    1.000 
#    0.000    0.625    0.000    0.000    0.000    0.000 
#    0.000    0.000    0.000    0.000    0.000    0.000 
#
# Total GULP energy -89401.217893 kJ/mol
# GULP energy per Si atom -5587.576118 kJ/mol
# Density = 2.296494 g / cm^3
# Si number density = 23.017329 Si / 1000 Ang^3
#
#
#
# Elastic Constant Matrix: (Units=GPa)
#
#
# Indices 1 2 3 4 5 6 
#
# 1 72.9527 26.0527 10.2429 5.4045 -9.8449 -4.7319
# 2 26.0527 152.1003 30.1630 1.1716 -12.1577 -3.4646
# 3 10.2429 30.1630 105.4215 12.8710 -13.9154 5.1138
# 4 5.4045 1.1716 12.8710 29.2200 -0.1846 -7.6608
# 5 -9.8449 -12.1577 -13.9154 -0.1846 40.0923 -5.9102
# 6 -4.7319 -3.4646 5.1138 -7.6608 -5.9102 36.9506
#
#
#
# Elastic Compliance Matrix: (Units=1/GPa)
#
#
# Indices 1 2 3 4 5 6 
#
# 1 0.015260 -0.002248 -0.000243 -0.002118 0.003245 0.001857
# 2 -0.002248 0.007463 -0.001972 0.001293 0.001202 0.001145
# 3 -0.000243 -0.001972 0.011234 -0.005447 0.002856 -0.002443
# 4 -0.002118 0.001293 -0.005447 0.039226 -0.000563 0.008646
# 5 0.003245 0.001202 0.002856 -0.000563 0.027749 0.004455
# 6 0.001857 0.001145 -0.002443 0.008646 0.004455 0.030251
#
#
# Mechanical properties :
#
#
# Convention : Reuss Voigt Hill
#
# Bulk Modulus (GPa) = 39.94813 51.48798 45.71805
# Shear Modulus (GPa) = 33.68126 38.85363 36.26745
#
# Velocity S-wave (km/s) = 3.82946 4.11301 3.97376
# Velocity P-wave (km/s) = 6.07835 6.70623 6.40000
#
# Compressibility (1/GPa) = 0.02503246
#
# Stress axis : x y z
#
# Youngs Moduli (GPa) = 65.53277 133.99890 89.01551
#
# Poissons Ratio (x) = 0.30118 0.02160
# Poissons Ratio (y) = 0.14729 0.17550
# Poissons Ratio (z) = 0.01590 0.26419
#
# Static dielectric constant tensor:
#      x y z
#    x 2.046800 -0.029010 0.116330 
#    y -0.029010 1.876880 -0.056670 
#    z 0.116330 -0.056670 1.902220 
# 
# From -- ./inp_files/216334.got.cif
#   From: 2010.05.17/outbox.cif.g08.bks.cpg/sg2_109_cif.got.tgz:216334.got - 2010.06.03 11:33:40.
