data_PCOD9038296
_publ_section_title
;
Structure prediction by ZEFSAII (Michael W. Deem and Ramdas Pophale) SiO2 
 PCOD9038296
Probable space group: P -1
;
_chemical_formula_sum "Si O2"
_cell_formula_units_Z 15
_cell_length_a 7.527075
_cell_length_b 14.745600
_cell_length_c 8.076274
_cell_angle_alpha 56.888861
_cell_angle_beta 110.726532
_cell_angle_gamma 121.629260
_cell_volume 636.438772
_symmetry_space_group_name_H-M "P -1"
_symmetry_group_IT_number 2
_symmetry_cell_setting 'triclinic'
loop_
_space_group_symop_operation_xyz
x,y,z
-x,-y,-z
loop_
_atom_site_type_symbol
_atom_site_label
_atom_site_fract_x
_atom_site_fract_y
_atom_site_fract_z
Si Si1 0.502396 0.334753 0.092636
Si Si2 0.000000 0.000000 0.500000
Si Si3 0.983354 0.762591 0.868416
Si Si4 0.836037 0.577003 0.473386
Si Si5 0.503435 0.888976 0.516280
Si Si6 0.519399 0.667524 0.300094
Si Si7 0.641499 0.135444 0.860541
Si Si8 0.098246 0.470526 0.825379
O O1 0.260091 0.292348 0.103217
O O2 0.549860 0.222351 0.268851
O O3 0.664062 0.448715 0.129642
O O4 0.523697 0.360479 0.879919
O O5 0.982175 0.131266 0.352335
O O6 0.258517 0.071361 0.508957
O O7 0.010654 0.639610 0.974379
O O8 0.143158 0.827408 0.006580
O O9 0.750446 0.674028 0.396198
O O10 0.637894 0.446451 0.536180
O O11 0.924352 0.589736 0.304396
O O12 0.987461 0.558530 0.673568
O O13 0.346459 0.856267 0.341743
O O14 0.500000 0.000000 0.500000
O O15 0.473422 0.780418 0.211176
O O16 0.500000 0.000000 0.000000
#
# Coordination Sequence:
#
# PCOD9038296 Si02
#       8
#     2   1   2   2   2   2   2   2
#     4  11  25  41  68 105 143 188 235 292 361 421
#     4  10  24  48  66 110 140 182 240 302 348 430
#     4  11  23  45  71 100 144 184 240 292 352 429
#     4  10  23  41  68 100 144 180 240 284 353 428
#     4  11  25  48  73 102 141 188 245 301 360 432
#     4  11  23  43  63 107 142 177 239 292 349 435
#     4  12  24  47  74  97 138 193 237 297 364 422
#     4  11  22  45  70 100 142 194 233 289 359 426
#
# _framework density 23.568645
#
# number of rings (size 3 to 8) (size 9 to 14) (size 15 to 20)
#    0.000    1.067    4.000    2.000    1.867    0.533 
#    7.200    2.000    0.000    0.000    0.000    0.000 
#    0.000    0.000    0.000    0.000    0.000    0.000 
#
# Total GULP energy -83626.118712 kJ/mol
# GULP energy per Si atom -5575.074581 kJ/mol
# Density = 2.351500 g / cm^3
# Si number density = 23.568645 Si / 1000 Ang^3
#
#
#
# Elastic Constant Matrix: (Units=GPa)
#
#
# Indices 1 2 3 4 5 6 
#
# 1 63.8572 21.5378 16.9801 6.6695 27.9179 5.5974
# 2 21.5378 97.9397 32.7113 -5.5657 16.4358 14.6482
# 3 16.9801 32.7113 119.7365 -23.0540 21.5690 -6.2685
# 4 6.6695 -5.5657 -23.0540 48.8238 1.7895 0.0833
# 5 27.9179 16.4358 21.5690 1.7895 48.3977 -2.0895
# 6 5.5974 14.6482 -6.2685 0.0833 -2.0895 37.2829
#
#
#
# Elastic Compliance Matrix: (Units=1/GPa)
#
#
# Indices 1 2 3 4 5 6 
#
# 1 0.022534 -0.002250 -0.001339 -0.003534 -0.011653 -0.003369
# 2 -0.002250 0.012874 -0.003043 0.000419 -0.001964 -0.005343
# 3 -0.001339 -0.003043 0.011112 0.005195 -0.003206 0.003074
# 4 -0.003534 0.000419 0.005195 0.023509 -0.001240 0.001117
# 5 -0.011653 -0.001964 -0.003206 -0.001240 0.029683 0.003649
# 6 -0.003369 -0.005343 0.003074 0.001117 0.003649 0.030146
#
#
# Mechanical properties :
#
#
# Convention : Reuss Voigt Hill
#
# Bulk Modulus (GPa) = 30.06986 47.11020 38.59003
# Shear Modulus (GPa) = 32.42431 40.92115 36.67273
#
# Velocity S-wave (km/s) = 3.71312 4.17136 3.94889
# Velocity P-wave (km/s) = 5.58293 6.57512 6.09923
#
# Compressibility (1/GPa) = 0.03325589
#
# Stress axis : x y z
#
# Youngs Moduli (GPa) = 44.37835 77.67537 89.99654
#
# Poissons Ratio (x) = 0.17474 0.12048
# Poissons Ratio (y) = 0.09983 0.27389
# Poissons Ratio (z) = 0.05941 0.23639
#
# Static dielectric constant tensor:
#      x y z
#    x 1.961320 0.002010 0.021470 
#    y 0.002010 1.874500 -0.006000 
#    z 0.021470 -0.006000 1.857460 
# 
# From -- ./inp_files/199880.got.cif
#   From: 2010.05.17/outbox.cif.g08.bks.cpg/sg2_100_cif.got.tgz:199880.got - 2010.06.03 11:33:40.
