data_PCOD9038819
_publ_section_title
;
Structure prediction by ZEFSAII (Michael W. Deem and Ramdas Pophale) SiO2 
 PCOD9038819
Probable space group: P -1
;
_chemical_formula_sum "Si O2"
_cell_formula_units_Z 14
_cell_length_a 13.749899
_cell_length_b 8.669714
_cell_length_c 8.960604
_cell_angle_alpha 53.953430
_cell_angle_beta 45.388926
_cell_angle_gamma 53.168620
_cell_volume 581.770005
_symmetry_space_group_name_H-M "P -1"
_symmetry_group_IT_number 2
_symmetry_cell_setting 'triclinic'
loop_
_space_group_symop_operation_xyz
x,y,z
-x,-y,-z
loop_
_atom_site_type_symbol
_atom_site_label
_atom_site_fract_x
_atom_site_fract_y
_atom_site_fract_z
Si Si1 0.158682 0.661012 0.670402
Si Si2 0.216797 0.226266 0.369817
Si Si3 0.511123 0.095284 0.591465
Si Si4 0.243898 0.619516 0.271468
Si Si5 0.018852 0.947747 0.182625
Si Si6 0.278894 0.285319 0.950187
Si Si7 0.532561 0.442795 0.699631
O O1 0.147822 0.631851 0.520536
O O2 0.170689 0.464838 0.868695
O O3 0.323835 0.668164 0.489726
O O4 0.048510 0.856523 0.752421
O O5 0.238098 0.431771 0.287124
O O6 0.072612 0.201889 0.604786
O O7 0.349949 0.045386 0.393416
O O8 0.210245 0.212974 0.205539
O O9 0.370705 0.119634 0.830626
O O10 0.507384 0.322402 0.429984
O O11 0.500000 0.000000 0.500000
O O12 0.179252 0.821469 0.131570
O O13 0.599114 0.407617 0.813346
O O14 0.000000 0.000000 0.000000
O O15 0.402227 0.363439 0.849339
#
# Coordination Sequence:
#
# PCOD9038819 Si02
#       7
#     2   2   2   2   2   2   2
#     4   9  20  42  65  91 123 163 210 255 314 375
#     4  12  24  41  62  93 130 163 215 260 315 377
#     4  11  20  41  63  99 133 163 207 254 313 382
#     4  10  23  42  63  93 126 166 212 261 306 372
#     4  12  25  45  65  86 121 173 220 265 314 370
#     4  11  21  39  66  98 127 173 197 257 324 373
#     4   9  20  39  66  90 131 161 206 248 319 378
#
# _framework density 24.064494
#
# number of rings (size 3 to 8) (size 9 to 14) (size 15 to 20)
#    0.857    0.571    1.429    5.571    0.000    0.571 
#    2.571    5.714    0.000    0.000    0.000    0.000 
#    0.000    0.000    0.000    0.000    0.000    0.000 
#
# Total GULP energy -78364.986386 kJ/mol
# GULP energy per Si atom -5597.499028 kJ/mol
# Density = 2.400972 g / cm^3
# Si number density = 24.064494 Si / 1000 Ang^3
#
#
#
# Elastic Constant Matrix: (Units=GPa)
#
#
# Indices 1 2 3 4 5 6 
#
# 1 95.4913 48.9637 46.9347 -0.8315 30.0903 -17.4826
# 2 48.9637 119.6124 20.6070 24.9641 12.8578 -13.5015
# 3 46.9347 20.6070 113.6082 -0.4397 36.2147 6.3527
# 4 -0.8315 24.9641 -0.4397 30.2405 5.2777 15.6939
# 5 30.0903 12.8578 36.2147 5.2777 48.0540 -2.3146
# 6 -17.4826 -13.5015 6.3527 15.6939 -2.3146 44.1528
#
#
#
# Elastic Compliance Matrix: (Units=1/GPa)
#
#
# Indices 1 2 3 4 5 6 
#
# 1 0.019408 -0.007123 -0.004621 0.005636 -0.007201 0.003790
# 2 -0.007123 0.016271 -0.001938 -0.019319 0.004147 0.009518
# 3 -0.004621 -0.001938 0.014178 0.006974 -0.008395 -0.007381
# 4 0.005636 -0.019319 0.006974 0.066440 -0.012307 -0.028940
# 5 -0.007201 0.004147 -0.008395 -0.012307 0.032161 0.005685
# 6 0.003790 0.009518 -0.007381 -0.028940 0.005685 0.038707
#
#
# Mechanical properties :
#
#
# Convention : Reuss Voigt Hill
#
# Bulk Modulus (GPa) = 44.45540 62.41364 53.43452
# Shear Modulus (GPa) = 22.52005 38.63654 30.57830
#
# Velocity S-wave (km/s) = 3.06244 4.01127 3.56853
# Velocity P-wave (km/s) = 5.56940 6.88810 6.26355
#
# Compressibility (1/GPa) = 0.02249445
#
# Stress axis : x y z
#
# Youngs Moduli (GPa) = 51.52602 61.46076 70.53078
#
# Poissons Ratio (x) = 0.43778 0.32589
# Poissons Ratio (y) = 0.36702 0.13665
# Poissons Ratio (z) = 0.23808 0.11908
#
# Static dielectric constant tensor:
#      x y z
#    x 1.954260 -0.025890 -0.016700 
#    y -0.025890 1.915900 -0.003030 
#    z -0.016700 -0.003030 1.940130 
# 
# From -- ./inp_files/294699.got.cif
#   From: 2010.05.17/outbox.cif.g08.bks.cpg/sg2_148_cif.got.tgz:294699.got - 2010.06.03 11:33:40.
