data_PCOD9038257
_publ_section_title
;
Structure prediction by ZEFSAII (Michael W. Deem and Ramdas Pophale) SiO2 
 PCOD9038257
Probable space group: P -1
;
_chemical_formula_sum "Si O2"
_cell_formula_units_Z 16
_cell_length_a 18.629312
_cell_length_b 9.306786
_cell_length_c 12.660829
_cell_angle_alpha 128.748503
_cell_angle_beta 26.808237
_cell_angle_gamma 129.495302
_cell_volume 753.194812
_symmetry_space_group_name_H-M "P -1"
_symmetry_group_IT_number 2
_symmetry_cell_setting 'triclinic'
loop_
_space_group_symop_operation_xyz
x,y,z
-x,-y,-z
loop_
_atom_site_type_symbol
_atom_site_label
_atom_site_fract_x
_atom_site_fract_y
_atom_site_fract_z
Si Si1 0.352105 0.528104 0.278454
Si Si2 0.848364 0.882005 0.045374
Si Si3 0.646757 0.413802 0.314983
Si Si4 0.134009 0.193086 0.776618
Si Si5 0.834648 0.194196 0.830874
Si Si6 0.495559 0.212024 0.626933
Si Si7 0.175665 0.157912 0.464591
Si Si8 0.019147 0.549579 0.620014
O O1 0.420788 0.713706 0.341033
O O2 0.287006 0.349703 0.359510
O O3 0.200756 0.550316 0.417480
O O4 0.500000 0.500000 0.000000
O O5 0.801575 0.875815 0.228305
O O6 0.695245 0.790303 0.132920
O O7 0.973820 0.746398 0.800303
O O8 0.942330 0.092404 0.987293
O O9 0.500000 0.500000 0.500000
O O10 0.809326 0.581103 0.185486
O O11 0.590518 0.342284 0.470954
O O12 0.689458 0.243453 0.113101
O O13 0.195465 0.141283 0.557293
O O14 0.986106 0.163166 0.690460
O O15 0.902068 0.381169 0.759652
O O16 0.790135 0.016976 0.728790
O O17 0.500000 0.000000 0.500000
O O18 0.000000 0.500000 0.500000
#
# Coordination Sequence:
#
# PCOD9038257 Si02
#       8
#     2   2   2   2   2   2   2   2
#     4  11  26  43  67 100 139 178 232 289 350 413
#     4  11  25  43  70  98 141 179 237 280 344 422
#     4  12  24  45  70 100 141 178 231 287 355 412
#     4  11  23  43  70  98 133 184 233 284 335 429
#     4  10  23  41  67  97 131 179 222 283 342 420
#     4  12  28  44  69 105 143 182 226 297 356 401
#     4  10  23  43  66  98 134 178 232 277 348 415
#     4  11  22  43  70  97 136 183 229 280 347 418
#
# _framework density 21.242844000000002
#
# number of rings (size 3 to 8) (size 9 to 14) (size 15 to 20)
#    0.000    1.000    3.750    1.500    7.000    1.500 
#    0.000    0.625    0.000    0.000    0.000    0.000 
#    0.000    0.000    0.000    0.000    0.000    0.000 
#
# Total GULP energy -89450.681625 kJ/mol
# GULP energy per Si atom -5590.667602 kJ/mol
# Density = 2.119449 g / cm^3
# Si number density = 21.242844 Si / 1000 Ang^3
#
#
#
# Elastic Constant Matrix: (Units=GPa)
#
#
# Indices 1 2 3 4 5 6 
#
# 1 100.6837 34.9159 35.5413 -3.4704 20.4145 18.7792
# 2 34.9159 112.2232 28.6225 -0.8963 4.8574 19.8698
# 3 35.5413 28.6225 99.8733 12.2805 1.3490 6.8766
# 4 -3.4704 -0.8963 12.2805 38.7264 8.0356 5.2691
# 5 20.4145 4.8574 1.3490 8.0356 22.4132 7.9089
# 6 18.7792 19.8698 6.8766 5.2691 7.9089 31.1009
#
#
#
# Elastic Compliance Matrix: (Units=1/GPa)
#
#
# Indices 1 2 3 4 5 6 
#
# 1 0.017056 -0.002246 -0.005766 0.007195 -0.015570 -0.004848
# 2 -0.002246 0.011148 -0.002166 0.001254 0.001374 -0.005849
# 3 -0.005766 -0.002166 0.013287 -0.006355 0.006746 0.001289
# 4 0.007195 0.001254 -0.006355 0.032594 -0.016325 -0.005111
# 5 -0.015570 0.001374 0.006746 -0.016325 0.066453 -0.007101
# 6 -0.004848 -0.005849 0.001289 -0.005111 -0.007101 0.041205
#
#
# Mechanical properties :
#
#
# Convention : Reuss Voigt Hill
#
# Bulk Modulus (GPa) = 47.31576 56.77106 52.04341
# Shear Modulus (GPa) = 23.90701 32.69482 28.30091
#
# Velocity S-wave (km/s) = 3.35836 3.92739 3.65397
# Velocity P-wave (km/s) = 6.11230 6.88104 6.50803
#
# Compressibility (1/GPa) = 0.02113461
#
# Stress axis : x y z
#
# Youngs Moduli (GPa) = 58.63125 89.70094 75.26144
#
# Poissons Ratio (x) = 0.20147 0.43399
# Poissons Ratio (y) = 0.13169 0.16299
# Poissons Ratio (z) = 0.33810 0.19426
#
# Static dielectric constant tensor:
#      x y z
#    x 1.811810 0.014120 -0.064630 
#    y 0.014120 1.764150 -0.017200 
#    z -0.064630 -0.017200 1.857580 
# 
# From -- ./inp_files/462406.got.cif
#   From: 2010.05.17/outbox.cif.g08.bks.cpg/sg2_232_cif.got.tgz:462406.got - 2010.06.03 11:33:40.
