data_PCOD9038743
_publ_section_title
;
Structure prediction by ZEFSAII (Michael W. Deem and Ramdas Pophale) SiO2 
 PCOD9038743
Probable space group: P -1
;
_chemical_formula_sum "Si O2"
_cell_formula_units_Z 14
_cell_length_a 5.257044
_cell_length_b 20.914742
_cell_length_c 25.754973
_cell_angle_alpha 12.594924
_cell_angle_beta 75.422867
_cell_angle_gamma 77.220470
_cell_volume 593.589242
_symmetry_space_group_name_H-M "P -1"
_symmetry_group_IT_number 2
_symmetry_cell_setting 'triclinic'
loop_
_space_group_symop_operation_xyz
x,y,z
-x,-y,-z
loop_
_atom_site_type_symbol
_atom_site_label
_atom_site_fract_x
_atom_site_fract_y
_atom_site_fract_z
Si Si1 0.070205 0.314366 0.062040
Si Si2 0.288371 0.864358 0.338618
Si Si3 0.748054 0.315042 0.634127
Si Si4 0.333800 0.338124 0.832044
Si Si5 0.502782 0.230962 0.362532
Si Si6 0.246877 0.257335 0.211825
Si Si7 0.253760 0.641853 0.113000
O O1 0.078371 0.233319 0.186502
O O2 0.066895 0.037337 0.243112
O O3 0.348147 0.480250 0.899329
O O4 0.896404 0.591010 0.853459
O O5 0.192446 0.759236 0.369960
O O6 0.342564 0.587457 0.590365
O O7 0.565010 0.076571 0.144924
O O8 0.500000 0.500000 0.500000
O O9 0.000000 0.500000 0.500000
O O10 0.666727 0.002501 0.914836
O O11 0.575143 0.407495 0.805004
O O12 0.047789 0.328203 0.882813
O O13 0.259258 0.354068 0.304797
O O14 0.500000 0.000000 0.500000
O O15 0.660135 0.060238 0.531932
O O16 0.500000 0.500000 0.000000
#
# Coordination Sequence:
#
# PCOD9038743 Si02
#       7
#     2   2   2   2   2   2   2
#     4  10  23  42  60  91 129 173 226 272 330 394
#     4  10  24  45  71 101 132 188 227 278 344 417
#     4  11  25  47  71 105 141 169 222 283 338 415
#     4  11  24  46  73 100 135 179 219 279 346 404
#     4  11  22  38  59  89 125 180 220 277 337 382
#     4  11  22  37  59  90 129 168 220 280 315 380
#     4  10  25  43  66 102 139 175 234 289 326 404
#
# _framework density 23.585332000000001
#
# number of rings (size 3 to 8) (size 9 to 14) (size 15 to 20)
#    0.000    1.429    1.429    3.000    2.000    9.143 
#    2.571    0.000    0.000    0.000    0.000    0.000 
#    0.000    0.000    0.000    0.000    0.000    0.000 
#
# Total GULP energy -78180.281771 kJ/mol
# GULP energy per Si atom -5584.305841 kJ/mol
# Density = 2.353165 g / cm^3
# Si number density = 23.585332 Si / 1000 Ang^3
#
#
#
# Elastic Constant Matrix: (Units=GPa)
#
#
# Indices 1 2 3 4 5 6 
#
# 1 82.2476 29.7868 7.3396 -22.1595 3.6828 -4.2673
# 2 29.7868 97.1347 53.9536 -20.1529 5.3722 9.4038
# 3 7.3396 53.9536 124.2678 -3.2765 10.8974 19.3812
# 4 -22.1595 -20.1529 -3.2765 44.3000 -0.8487 1.6376
# 5 3.6828 5.3722 10.8974 -0.8487 37.3806 -3.9389
# 6 -4.2673 9.4038 19.3812 1.6376 -3.9389 18.8995
#
#
#
# Elastic Compliance Matrix: (Units=1/GPa)
#
#
# Indices 1 2 3 4 5 6 
#
# 1 0.015424 -0.004186 0.000374 0.005660 -0.000413 0.004606
# 2 -0.004186 0.016400 -0.006201 0.005022 -0.000366 -0.003258
# 3 0.000374 -0.006201 0.012673 -0.001383 -0.003982 -0.010537
# 4 0.005660 0.005022 -0.001383 0.027663 -0.000491 -0.002301
# 5 -0.000413 -0.000366 -0.003982 -0.000491 0.029078 0.010275
# 6 0.004606 -0.003258 -0.010537 -0.002301 0.010275 0.068719
#
#
# Mechanical properties :
#
#
# Convention : Reuss Voigt Hill
#
# Bulk Modulus (GPa) = 40.86428 53.97890 47.42159
# Shear Modulus (GPa) = 25.23482 34.28736 29.76109
#
# Velocity S-wave (km/s) = 3.27454 3.81695 3.55610
# Velocity P-wave (km/s) = 5.62677 6.50860 6.08368
#
# Compressibility (1/GPa) = 0.02447125
#
# Stress axis : x y z
#
# Youngs Moduli (GPa) = 64.83610 60.97432 78.90630
#
# Poissons Ratio (x) = 0.25523 -0.02948
# Poissons Ratio (y) = 0.27140 0.48927
# Poissons Ratio (z) = -0.02422 0.37808
#
# Static dielectric constant tensor:
#      x y z
#    x 1.963340 -0.011100 0.079110 
#    y -0.011100 1.965750 -0.040740 
#    z 0.079110 -0.040740 1.949140 
# 
# From -- ./inp_files/117397.got.cif
#   From: 2010.05.17/outbox.cif.g08.bks.cpg/sg2_59_cif.got.tgz:117397.got - 2010.06.03 11:33:40.
