data_PCOD9038012
_publ_section_title
;
Structure prediction by ZEFSAII (Michael W. Deem and Ramdas Pophale) SiO2 
 PCOD9038012
Probable space group: P -1
;
_chemical_formula_sum "Si O2"
_cell_formula_units_Z 16
_cell_length_a 7.943634
_cell_length_b 19.192541
_cell_length_c 6.389676
_cell_angle_alpha 73.107351
_cell_angle_beta 61.510341
_cell_angle_gamma 55.544049
_cell_volume 705.695358
_symmetry_space_group_name_H-M "P -1"
_symmetry_group_IT_number 2
_symmetry_cell_setting 'triclinic'
loop_
_space_group_symop_operation_xyz
x,y,z
-x,-y,-z
loop_
_atom_site_type_symbol
_atom_site_label
_atom_site_fract_x
_atom_site_fract_y
_atom_site_fract_z
Si Si1 0.159382 0.293338 0.848455
Si Si2 0.262287 0.547101 0.985908
Si Si3 0.020360 0.053392 0.629113
Si Si4 0.842576 0.812468 0.698945
Si Si5 0.551628 0.254278 0.357298
Si Si6 0.655740 0.620810 0.015606
Si Si7 0.678641 0.104477 0.144123
Si Si8 0.735360 0.341249 0.481590
O O1 0.355712 0.252717 0.602181
O O2 0.235114 0.339255 0.937077
O O3 0.922668 0.371240 0.849701
O O4 0.133779 0.222601 0.047841
O O5 0.500000 0.500000 0.000000
O O6 0.195416 0.476021 0.057851
O O7 0.275567 0.585154 0.720386
O O8 0.087835 0.118598 0.445159
O O9 0.204169 0.987707 0.741022
O O10 0.000000 0.000000 0.500000
O O11 0.793595 0.099853 0.858461
O O12 0.584511 0.853419 0.760706
O O13 0.013086 0.727428 0.544139
O O14 0.711040 0.165479 0.230348
O O15 0.669940 0.286769 0.414891
O O16 0.439106 0.322204 0.181629
O O17 0.449105 0.625786 0.260395
#
# Coordination Sequence:
#
# PCOD9038012 Si02
#       8
#     2   2   2   2   2   2   2   2
#     4  10  25  42  63  95 128 176 223 270 329 390
#     4  11  22  41  60  96 131 176 227 276 332 384
#     4  11  26  48  71  99 138 169 212 271 332 392
#     4  11  23  45  69  97 134 171 221 265 329 394
#     4  11  22  43  67  94 134 172 220 275 327 392
#     4  11  21  42  65  89 135 176 221 277 330 385
#     4  11  25  45  70 103 130 173 219 265 331 396
#     4  10  23  41  65  97 132 178 221 275 330 385
#
# _framework density 22.672671000000001
#
# number of rings (size 3 to 8) (size 9 to 14) (size 15 to 20)
#    0.000    1.250    2.500    2.625    3.500    2.000 
#   11.250    0.000    0.000    0.000    0.000    0.000 
#    0.000    0.000    0.000    0.000    0.000    0.000 
#
# Total GULP energy -89556.282842 kJ/mol
# GULP energy per Si atom -5597.267678 kJ/mol
# Density = 2.262107 g / cm^3
# Si number density = 22.672671 Si / 1000 Ang^3
#
#
#
# Elastic Constant Matrix: (Units=GPa)
#
#
# Indices 1 2 3 4 5 6 
#
# 1 86.8094 34.6782 16.8142 0.0097 -0.4014 -14.4794
# 2 34.6782 114.5724 53.6262 -17.6478 -4.6237 0.5710
# 3 16.8142 53.6262 114.4924 -0.5038 -21.5022 11.6416
# 4 0.0097 -17.6478 -0.5038 45.3785 9.7840 -1.5496
# 5 -0.4014 -4.6237 -21.5022 9.7840 25.5201 1.8753
# 6 -14.4794 0.5710 11.6416 -1.5496 1.8753 43.9829
#
#
#
# Elastic Compliance Matrix: (Units=1/GPa)
#
#
# Indices 1 2 3 4 5 6 
#
# 1 0.014161 -0.004136 -0.000870 -0.001201 -0.001163 0.004953
# 2 -0.004136 0.014180 -0.007280 0.006826 -0.006312 0.000891
# 3 -0.000870 -0.007280 0.015457 -0.005925 0.014338 -0.005103
# 4 -0.001201 0.006826 -0.005925 0.027879 -0.014660 0.002691
# 5 -0.001163 -0.006312 0.014338 -0.014660 0.056239 -0.007010
# 6 0.004953 0.000891 -0.005103 0.002691 -0.007010 0.026100
#
#
# Mechanical properties :
#
#
# Convention : Reuss Voigt Hill
#
# Bulk Modulus (GPa) = 52.01168 58.45684 55.23426
# Shear Modulus (GPa) = 27.02767 37.02667 32.02717
#
# Velocity S-wave (km/s) = 3.45640 4.04554 3.76252
# Velocity P-wave (km/s) = 6.23851 6.90368 6.57951
#
# Compressibility (1/GPa) = 0.01922645
#
# Stress axis : x y z
#
# Youngs Moduli (GPa) = 70.61658 70.52373 64.69408
#
# Poissons Ratio (x) = 0.29166 0.05628
# Poissons Ratio (y) = 0.29205 0.47099
# Poissons Ratio (z) = 0.06143 0.51343
#
# Static dielectric constant tensor:
#      x y z
#    x 1.892460 -0.032870 0.011360 
#    y -0.032870 1.844830 0.011310 
#    z 0.011360 0.011310 1.807890 
# 
# From -- ./inp_files/52356.got.cif
#   From: 2010.05.17/outbox.cif.g08.bks.cpg/sg2_27_cif.got.tgz:52356.got - 2010.06.03 11:33:40.
