data_PCOD9038918
_publ_section_title
;
Structure prediction by ZEFSAII (Michael W. Deem and Ramdas Pophale) SiO2 
 PCOD9038918
Probable space group: P -1
;
_chemical_formula_sum "Si O2"
_cell_formula_units_Z 15
_cell_length_a 11.750856
_cell_length_b 5.235041
_cell_length_c 12.366531
_cell_angle_alpha 74.811626
_cell_angle_beta 122.620858
_cell_angle_gamma 93.986732
_cell_volume 615.947524
_symmetry_space_group_name_H-M "P -1"
_symmetry_group_IT_number 2
_symmetry_cell_setting 'triclinic'
loop_
_space_group_symop_operation_xyz
x,y,z
-x,-y,-z
loop_
_atom_site_type_symbol
_atom_site_label
_atom_site_fract_x
_atom_site_fract_y
_atom_site_fract_z
Si Si1 0.629951 0.680473 0.754954
Si Si2 0.431446 0.532299 0.840783
Si Si3 0.721770 0.378596 0.619387
Si Si4 0.020957 0.578964 0.380138
Si Si5 0.080920 0.817458 0.792019
Si Si6 0.894638 0.892435 0.877628
Si Si7 0.500000 0.000000 0.500000
Si Si8 0.352383 0.003294 0.866977
O O1 0.544143 0.511459 0.807599
O O2 0.659985 0.593713 0.653061
O O3 0.776156 0.719821 0.876484
O O4 0.547247 0.962498 0.656631
O O5 0.363135 0.829733 0.783464
O O6 0.327012 0.313657 0.795939
O O7 0.500000 0.500000 0.000000
O O8 0.825390 0.494856 0.576304
O O9 0.813803 0.153427 0.756431
O O10 0.608515 0.230654 0.516236
O O11 0.929498 0.411492 0.274612
O O12 0.000000 0.500000 0.500000
O O13 0.985509 0.895693 0.314659
O O14 0.235032 0.880440 0.889109
O O15 0.987442 0.740718 0.851518
O O16 0.000000 0.000000 0.000000
O O17 0.500000 0.000000 0.000000
#
# Coordination Sequence:
#
# PCOD9038918 Si02
#       8
#     2   2   2   2   2   2   1   2
#     4  11  23  45  68 101 139 180 238 285 356 417
#     4  10  24  41  65  97 139 182 224 283 341 415
#     4  10  23  45  67 100 135 178 238 282 355 415
#     4  11  24  46  70 100 133 179 229 294 341 411
#     4  11  23  45  68 100 137 177 233 279 349 412
#     4  10  24  40  70 101 135 186 228 290 349 422
#     4  10  24  42  70  94 138 180 232 292 344 414
#     4  10  23  42  64  96 138 180 221 279 339 417
#
# _framework density 24.352722
#
# number of rings (size 3 to 8) (size 9 to 14) (size 15 to 20)
#    0.000    1.600    1.333    1.600    7.467    3.733 
#    4.800    0.000    0.000    0.000    0.000    0.000 
#    0.000    0.000    0.000    0.000    0.000    0.000 
#
# Total GULP energy -83570.295554 kJ/mol
# GULP energy per Si atom -5571.353037 kJ/mol
# Density = 2.429729 g / cm^3
# Si number density = 24.352722 Si / 1000 Ang^3
#
#
#
# Elastic Constant Matrix: (Units=GPa)
#
#
# Indices 1 2 3 4 5 6 
#
# 1 121.5433 20.2850 26.5946 10.6255 -0.9613 28.4740
# 2 20.2850 94.6156 0.3563 33.0154 -5.4361 15.1401
# 3 26.5946 0.3563 68.4117 12.5789 10.0239 7.7939
# 4 10.6255 33.0154 12.5789 37.2551 4.8294 7.8225
# 5 -0.9613 -5.4361 10.0239 4.8294 40.9786 13.5927
# 6 28.4740 15.1401 7.7939 7.8225 13.5927 37.6747
#
#
#
# Elastic Compliance Matrix: (Units=1/GPa)
#
#
# Indices 1 2 3 4 5 6 
#
# 1 0.011353 -0.000825 -0.004026 0.000198 0.004080 -0.008929
# 2 -0.000825 0.017425 0.002988 -0.015716 0.005285 -0.005641
# 3 -0.004026 0.002988 0.017919 -0.007286 -0.003528 0.000921
# 4 0.000198 -0.015716 -0.007286 0.043776 -0.005665 0.000628
# 5 0.004080 0.005285 -0.003528 -0.005665 0.031608 -0.014705
# 6 -0.008929 -0.005641 0.000921 0.000628 -0.014705 0.040543
#
#
# Mechanical properties :
#
#
# Convention : Reuss Voigt Hill
#
# Bulk Modulus (GPa) = 23.27175 42.11585 32.69380
# Shear Modulus (GPa) = 27.67433 39.00398 33.33916
#
# Velocity S-wave (km/s) = 3.37470 4.00638 3.70403
# Velocity P-wave (km/s) = 4.97611 6.22359 5.63448
#
# Compressibility (1/GPa) = 0.04297056
#
# Stress axis : x y z
#
# Youngs Moduli (GPa) = 88.08298 57.38901 55.80796
#
# Poissons Ratio (x) = 0.04733 0.22469
# Poissons Ratio (y) = 0.07265 -0.16675
# Poissons Ratio (z) = 0.35463 -0.17147
#
# Static dielectric constant tensor:
#      x y z
#    x 1.136790 1.507690 -0.479760 
#    y 1.507690 -0.737860 0.798650 
#    z -0.479760 0.798650 1.919720 
# 
# From -- ./inp_files/75320.got.cif
#   From: 2010.05.17/outbox.cif.g08.bks.cpg/sg2_38_cif.got.tgz:75320.got - 2010.06.03 11:33:40.
