data_PCOD9038360
_publ_section_title
;
Structure prediction by ZEFSAII (Michael W. Deem and Ramdas Pophale) SiO2 
 PCOD9038360
Probable space group: P -1
;
_chemical_formula_sum "Si O2"
_cell_formula_units_Z 16
_cell_length_a 13.853485
_cell_length_b 12.214064
_cell_length_c 9.072750
_cell_angle_alpha 34.201923
_cell_angle_beta 108.871748
_cell_angle_gamma 119.260675
_cell_volume 742.542462
_symmetry_space_group_name_H-M "P -1"
_symmetry_group_IT_number 2
_symmetry_cell_setting 'triclinic'
loop_
_space_group_symop_operation_xyz
x,y,z
-x,-y,-z
loop_
_atom_site_type_symbol
_atom_site_label
_atom_site_fract_x
_atom_site_fract_y
_atom_site_fract_z
Si Si1 0.663954 0.133692 0.692892
Si Si2 0.965474 0.544422 0.192167
Si Si3 0.765589 0.193505 0.359071
Si Si4 0.055269 0.254612 0.732974
Si Si5 0.698742 0.880690 0.228921
Si Si6 0.593320 0.115681 0.104694
Si Si7 0.891223 0.044727 0.363788
Si Si8 0.312791 0.501846 0.508687
O O1 0.713563 0.122633 0.572619
O O2 0.661450 0.361029 0.480185
O O3 0.536744 0.961827 0.840183
O O4 0.738278 0.079781 0.912110
O O5 0.857775 0.435367 0.156863
O O6 0.943702 0.656802 0.200413
O O7 0.990511 0.351059 0.485526
O O8 0.064271 0.720678 0.951586
O O9 0.667043 0.173679 0.222531
O O10 0.827184 0.057716 0.466030
O O11 0.180741 0.354245 0.621877
O O12 0.000000 0.000000 0.000000
O O13 0.643782 0.670807 0.335272
O O14 0.612387 0.923840 0.245116
O O15 0.800330 0.891057 0.372750
O O16 0.645467 0.315422 0.798367
O O17 0.000000 0.000000 0.500000
#
# Coordination Sequence:
#
# PCOD9038360 Si02
#       8
#     2   2   2   2   2   2   2   2
#     4  11  23  45  69  96 127 173 222 285 334 378
#     4  11  24  41  64  96 136 177 227 267 330 400
#     4  11  24  43  66  95 137 169 221 275 329 403
#     4  11  24  39  67 100 136 178 220 275 330 394
#     4  10  23  41  68  97 129 167 227 266 322 403
#     4  10  24  44  68  94 131 173 221 279 339 385
#     4  11  26  43  68  99 141 183 217 267 340 406
#     4  11  22  40  69  96 130 166 223 268 332 395
#
# _framework density 21.54759
#
# number of rings (size 3 to 8) (size 9 to 14) (size 15 to 20)
#    0.000    1.250    1.250    5.250    8.750    2.000 
#    0.000    0.625    0.000    3.750    0.000    0.000 
#    0.000    0.000    0.000    0.000    0.000    0.000 
#
# Total GULP energy -89406.461178 kJ/mol
# GULP energy per Si atom -5587.903824 kJ/mol
# Density = 2.149855 g / cm^3
# Si number density = 21.547590 Si / 1000 Ang^3
#
#
#
# Elastic Constant Matrix: (Units=GPa)
#
#
# Indices 1 2 3 4 5 6 
#
# 1 111.2661 49.8515 44.3839 2.7275 -14.6370 -7.0061
# 2 49.8515 126.0325 35.5824 5.7081 2.4753 -16.5909
# 3 44.3839 35.5824 74.0070 -17.4132 -4.2085 -14.0358
# 4 2.7275 5.7081 -17.4132 37.1793 -3.9946 -5.7452
# 5 -14.6370 2.4753 -4.2085 -3.9946 37.8888 4.2801
# 6 -7.0061 -16.5909 -14.0358 -5.7452 4.2801 36.4341
#
#
#
# Elastic Compliance Matrix: (Units=1/GPa)
#
#
# Indices 1 2 3 4 5 6 
#
# 1 0.014501 -0.003735 -0.008293 -0.004374 0.004844 -0.003366
# 2 -0.003735 0.010918 -0.003307 -0.002841 -0.003151 0.002902
# 3 -0.008293 -0.003307 0.025119 0.014273 0.000314 0.008790
# 4 -0.004374 -0.002841 0.014273 0.035994 0.002893 0.008699
# 5 0.004844 -0.003151 0.000314 0.002893 0.029189 -0.003355
# 6 -0.003366 0.002902 0.008790 0.008699 -0.003355 0.033273
#
#
# Mechanical properties :
#
#
# Convention : Reuss Voigt Hill
#
# Bulk Modulus (GPa) = 50.33080 63.43791 56.88435
# Shear Modulus (GPa) = 26.84031 34.39964 30.61997
#
# Velocity S-wave (km/s) = 3.53318 3.99989 3.77376
# Velocity P-wave (km/s) = 6.32875 7.13000 6.74129
#
# Compressibility (1/GPa) = 0.01986855
#
# Stress axis : x y z
#
# Youngs Moduli (GPa) = 68.95846 91.59348 39.81024
#
# Poissons Ratio (x) = 0.34206 0.33017
# Poissons Ratio (y) = 0.25753 0.13165
# Poissons Ratio (z) = 0.57191 0.30289
#
# Static dielectric constant tensor:
#      x y z
#    x 1.812240 -0.010990 0.026650 
#    y -0.010990 1.794480 -0.015810 
#    z 0.026650 -0.015810 1.775820 
# 
# From -- ./inp_files/306103.got.cif
#   From: 2010.05.17/outbox.cif.g08.bks.cpg/sg2_154_cif.got.tgz:306103.got - 2010.06.03 11:33:40.
