data_PCOD9038431
_publ_section_title
;
Structure prediction by ZEFSAII (Michael W. Deem and Ramdas Pophale) SiO2 
 PCOD9038431
Probable space group: P -1
;
_chemical_formula_sum "Si O2"
_cell_formula_units_Z 14
_cell_length_a 8.713337
_cell_length_b 18.624292
_cell_length_c 7.980875
_cell_angle_alpha 43.490469
_cell_angle_beta 50.668619
_cell_angle_gamma 41.201892
_cell_volume 575.993070
_symmetry_space_group_name_H-M "P -1"
_symmetry_group_IT_number 2
_symmetry_cell_setting 'triclinic'
loop_
_space_group_symop_operation_xyz
x,y,z
-x,-y,-z
loop_
_atom_site_type_symbol
_atom_site_label
_atom_site_fract_x
_atom_site_fract_y
_atom_site_fract_z
Si Si1 0.292198 0.192099 0.732313
Si Si2 0.771199 0.934080 0.301497
Si Si3 0.689575 0.196420 0.906249
Si Si4 0.141798 0.194185 0.181295
Si Si5 0.167804 0.542832 0.386168
Si Si6 0.397641 0.697493 0.592454
Si Si7 0.773872 0.595898 0.099246
O O1 0.347535 0.113798 0.658646
O O2 0.466089 0.241438 0.532417
O O3 0.017011 0.310322 0.722699
O O4 0.292896 0.131979 0.012598
O O5 0.796640 0.886928 0.554188
O O6 0.658189 0.081079 0.127598
O O7 0.033107 0.868739 0.147488
O O8 0.483758 0.310931 0.963730
O O9 0.644046 0.256143 0.651340
O O10 0.862679 0.251320 0.244945
O O11 0.170051 0.309328 0.010137
O O12 0.418967 0.452526 0.273631
O O13 0.000000 0.500000 0.500000
O O14 0.237986 0.493630 0.609326
O O15 0.000000 0.500000 0.000000
#
# Coordination Sequence:
#
# PCOD9038431 Si02
#       7
#     2   2   2   2   2   2   2
#     4  11  21  42  63  94 128 167 215 264 318 383
#     4  10  23  41  69  91 127 174 215 258 324 378
#     4   9  20  45  62  90 136 163 206 281 308 371
#     4  11  22  41  64  95 128 169 212 263 320 380
#     4   9  17  37  57  82 129 161 197 268 310 360
#     4   9  20  39  63  88 133 164 209 272 315 370
#     4  11  21  38  66  93 126 167 215 260 322 385
#
# _framework density 24.305847
#
# number of rings (size 3 to 8) (size 9 to 14) (size 15 to 20)
#    0.000    2.000    4.286    0.857    0.000    2.857 
#    7.714   10.714    3.143    0.000    0.000    0.000 
#    0.000    0.000    0.000    0.000    0.000    0.000 
#
# Total GULP energy -78187.313293 kJ/mol
# GULP energy per Si atom -5584.808092 kJ/mol
# Density = 2.425053 g / cm^3
# Si number density = 24.305847 Si / 1000 Ang^3
#
#
#
# Elastic Constant Matrix: (Units=GPa)
#
#
# Indices 1 2 3 4 5 6 
#
# 1 41.7234 39.9313 5.5511 4.0813 -3.3405 -6.6037
# 2 39.9313 134.1789 34.3205 6.6337 7.0055 -20.9603
# 3 5.5511 34.3205 89.0806 5.9197 7.2409 -6.7306
# 4 4.0813 6.6337 5.9197 44.2269 -13.9991 0.7331
# 5 -3.3405 7.0055 7.2409 -13.9991 28.3092 7.1484
# 6 -6.6037 -20.9603 -6.7306 0.7331 7.1484 39.3334
#
#
#
# Elastic Compliance Matrix: (Units=1/GPa)
#
#
# Indices 1 2 3 4 5 6 
#
# 1 0.034993 -0.011394 0.001494 0.000568 0.007164 -0.001254
# 2 -0.011394 0.013015 -0.003171 -0.002627 -0.006495 0.005710
# 3 0.001494 -0.003171 0.012989 -0.002728 -0.004110 0.001582
# 4 0.000568 -0.002627 -0.002728 0.028793 0.017017 -0.005401
# 5 0.007164 -0.006495 -0.004110 0.017017 0.050383 -0.012435
# 6 -0.001254 0.005710 0.001582 -0.005401 -0.012435 0.030887
#
#
# Mechanical properties :
#
#
# Convention : Reuss Voigt Hill
#
# Bulk Modulus (GPa) = 28.68869 47.17653 37.93261
# Shear Modulus (GPa) = 23.94412 34.71926 29.33169
#
# Velocity S-wave (km/s) = 3.14206 3.78356 3.47764
# Velocity P-wave (km/s) = 4.99922 6.20796 5.63609
#
# Compressibility (1/GPa) = 0.03485695
#
# Stress axis : x y z
#
# Youngs Moduli (GPa) = 28.57750 76.83219 76.98788
#
# Poissons Ratio (x) = 0.87542 -0.11505
# Poissons Ratio (y) = 0.32561 0.24409
# Poissons Ratio (z) = -0.04271 0.24360
#
# Static dielectric constant tensor:
#      x y z
#    x 1.994890 -0.023460 0.018970 
#    y -0.023460 2.024920 0.023910 
#    z 0.018970 0.023910 1.942300 
# 
# From -- ./inp_files/197322.got.cif
#   From: 2010.05.17/outbox.cif.g08.bks.cpg/sg2_99_cif.got.tgz:197322.got - 2010.06.03 11:33:40.
