data_PCOD9038000
_publ_section_title
;
Structure prediction by ZEFSAII (Michael W. Deem and Ramdas Pophale) SiO2 
 PCOD9038000
Probable space group: P -1
;
_chemical_formula_sum "Si O2"
_cell_formula_units_Z 16
_cell_length_a 23.882722
_cell_length_b 7.744105
_cell_length_c 7.352764
_cell_angle_alpha 127.602780
_cell_angle_beta 113.587991
_cell_angle_gamma 36.753948
_cell_volume 633.296509
_symmetry_space_group_name_H-M "P -1"
_symmetry_group_IT_number 2
_symmetry_cell_setting 'triclinic'
loop_
_space_group_symop_operation_xyz
x,y,z
-x,-y,-z
loop_
_atom_site_type_symbol
_atom_site_label
_atom_site_fract_x
_atom_site_fract_y
_atom_site_fract_z
Si Si1 0.517797 0.903408 0.248402
Si Si2 0.320449 0.257117 0.767449
Si Si3 0.622322 0.058542 0.994225
Si Si4 0.367603 0.667524 0.500472
Si Si5 0.165095 0.000201 0.439659
Si Si6 0.225896 0.447396 0.418029
Si Si7 0.015238 0.309636 0.178799
Si Si8 0.051892 0.664714 0.251811
O O1 0.622164 0.688838 0.185698
O O2 0.500000 0.000000 0.500000
O O3 0.480755 0.770507 0.048950
O O4 0.445309 0.276861 0.302524
O O5 0.232012 0.469547 0.655329
O O6 0.380634 0.868606 0.556428
O O7 0.315525 0.251377 0.974725
O O8 0.672720 0.879922 0.753690
O O9 0.625637 0.283085 0.242586
O O10 0.262367 0.865251 0.446817
O O11 0.078749 0.401182 0.634510
O O12 0.113234 0.005052 0.216638
O O13 0.186385 0.776059 0.487248
O O14 0.162237 0.418891 0.256893
O O15 0.030169 0.498165 0.214389
O O16 0.985767 0.225658 0.930877
O O17 0.000000 0.000000 0.500000
#
# Coordination Sequence:
#
# PCOD9038000 Si02
#       8
#     2   2   2   2   2   2   2   2
#     4  12  21  44  68  96 136 166 219 269 318 394
#     4  10  24  42  65  96 131 171 217 268 318 391
#     4  10  24  41  67  94 129 175 214 262 330 381
#     4  10  23  41  65  96 131 171 215 265 326 381
#     4  11  21  43  66  95 132 172 217 274 325 390
#     4  12  22  44  68  96 130 171 222 266 324 387
#     4  10  24  42  65  96 133 169 218 272 331 388
#     4  11  23  43  65  96 129 173 217 269 328 395
#
# _framework density 25.264626
#
# number of rings (size 3 to 8) (size 9 to 14) (size 15 to 20)
#    0.750    0.500    3.750    2.250    0.000    2.000 
#    0.000    1.250    0.000    0.000    0.000    0.000 
#    0.000    0.000    0.000    0.000    0.000    0.000 
#
# Total GULP energy -89483.893863 kJ/mol
# GULP energy per Si atom -5592.743366 kJ/mol
# Density = 2.520712 g / cm^3
# Si number density = 25.264626 Si / 1000 Ang^3
#
#
#
# Elastic Constant Matrix: (Units=GPa)
#
#
# Indices 1 2 3 4 5 6 
#
# 1 70.0164 6.8421 9.4542 -7.3891 13.3042 -21.2729
# 2 6.8421 84.3272 25.2523 -27.9378 13.1130 -8.3689
# 3 9.4542 25.2523 87.5940 -31.0599 11.2333 -9.1195
# 4 -7.3891 -27.9378 -31.0599 50.3223 2.9618 5.3936
# 5 13.3042 13.1130 11.2333 2.9618 32.4115 -14.5663
# 6 -21.2729 -8.3689 -9.1195 5.3936 -14.5663 45.4527
#
#
#
# Elastic Compliance Matrix: (Units=1/GPa)
#
#
# Indices 1 2 3 4 5 6 
#
# 1 0.017341 0.000839 0.000134 0.002693 -0.004865 0.006419
# 2 0.000839 0.016185 -0.000510 0.009278 -0.007697 -0.000298
# 3 0.000134 -0.000510 0.015858 0.009896 -0.006263 -0.000031
# 4 0.002693 0.009278 0.009896 0.032584 -0.012591 -0.002947
# 5 -0.004865 -0.007697 -0.006263 -0.012591 0.044081 0.010670
# 6 0.006419 -0.000298 -0.000031 -0.002947 0.010670 0.028713
#
#
# Mechanical properties :
#
#
# Convention : Reuss Voigt Hill
#
# Bulk Modulus (GPa) = 19.87768 36.11497 27.99632
# Shear Modulus (GPa) = 29.30722 38.99658 34.15190
#
# Velocity S-wave (km/s) = 3.40959 3.93303 3.68063
# Velocity P-wave (km/s) = 4.83583 5.91191 5.40074
#
# Compressibility (1/GPa) = 0.05030769
#
# Stress axis : x y z
#
# Youngs Moduli (GPa) = 57.66629 61.78697 63.05978
#
# Poissons Ratio (x) = -0.05182 -0.00842
# Poissons Ratio (y) = -0.04836 0.03217
# Poissons Ratio (z) = -0.00770 0.03152
#
# Static dielectric constant tensor:
#      x y z
#    x 2.062480 -0.083410 -0.009680 
#    y -0.083410 2.279000 0.016710 
#    z -0.009680 0.016710 1.998980 
# 
# From -- ./inp_files/356538.got.cif
#   From: 2010.05.17/outbox.cif.g08.bks.cpg/sg2_179_cif.got.tgz:356538.got - 2010.06.03 11:33:40.
