data_PCOD9038832
_publ_section_title
;
Structure prediction by ZEFSAII (Michael W. Deem and Ramdas Pophale) SiO2 
 PCOD9038832
Probable space group: P -1
;
_chemical_formula_sum "Si O2"
_cell_formula_units_Z 15
_cell_length_a 16.832514
_cell_length_b 6.003038
_cell_length_c 8.186446
_cell_angle_alpha 92.183996
_cell_angle_beta 131.684175
_cell_angle_gamma 102.137100
_cell_volume 585.760082
_symmetry_space_group_name_H-M "P -1"
_symmetry_group_IT_number 2
_symmetry_cell_setting 'triclinic'
loop_
_space_group_symop_operation_xyz
x,y,z
-x,-y,-z
loop_
_atom_site_type_symbol
_atom_site_label
_atom_site_fract_x
_atom_site_fract_y
_atom_site_fract_z
Si Si1 0.283431 0.940617 0.874029
Si Si2 0.820072 0.931876 0.785818
Si Si3 0.036939 0.240986 0.242488
Si Si4 0.117770 0.158534 0.794196
Si Si5 0.546338 0.175263 0.717740
Si Si6 0.491974 0.412466 0.174123
Si Si7 0.349119 0.857497 0.610584
Si Si8 0.000000 0.500000 0.500000
O O1 0.166805 0.978905 0.755238
O O2 0.291365 0.834237 0.705988
O O3 0.377861 0.194329 0.013977
O O4 0.326237 0.801137 0.067473
O O5 0.849978 0.762069 0.689556
O O6 0.724555 0.040355 0.607501
O O7 0.805614 0.800061 0.936460
O O8 0.933958 0.156463 0.970093
O O9 0.027296 0.453918 0.342892
O O10 0.000055 0.014009 0.305376
O O11 0.096936 0.377574 0.686488
O O12 0.526701 0.420937 0.705068
O O13 0.471564 0.055675 0.771407
O O14 0.500000 0.000000 0.500000
O O15 0.608009 0.361961 0.371861
O O16 0.500000 0.500000 0.000000
#
# Coordination Sequence:
#
# PCOD9038832 Si02
#       8
#     2   2   2   2   2   2   2   1
#     4  11  22  39  66  94 129 168 216 265 320 384
#     4   9  21  46  64  90 131 171 205 265 323 375
#     4   9  22  45  65  90 133 167 211 266 320 381
#     4  10  23  42  63  95 132 161 214 262 323 379
#     4  11  23  41  63  91 131 170 207 273 317 372
#     4  11  21  43  63  93 126 170 218 258 314 385
#     4  11  21  39  65  93 126 169 218 258 324 381
#     4  12  22  40  68  98 124 168 216 262 318 382
#
# _framework density 25.607755000000001
#
# number of rings (size 3 to 8) (size 9 to 14) (size 15 to 20)
#    0.800    0.800    2.667    2.800    0.000    3.733 
#    7.200    0.000    0.000    0.000    0.000    0.000 
#    0.000    0.000    0.000    0.000    0.000    0.000 
#
# Total GULP energy -83521.478976 kJ/mol
# GULP energy per Si atom -5568.098598 kJ/mol
# Density = 2.554947 g / cm^3
# Si number density = 25.607755 Si / 1000 Ang^3
#
#
#
# Elastic Constant Matrix: (Units=GPa)
#
#
# Indices 1 2 3 4 5 6 
#
# 1 69.6242 16.3160 29.3028 -3.0872 -5.7943 -36.4120
# 2 16.3160 77.9691 45.1824 -9.0436 -3.0284 -54.1450
# 3 29.3028 45.1824 145.9235 -42.3010 10.4779 -37.5181
# 4 -3.0872 -9.0436 -42.3010 46.4840 -13.9144 10.5777
# 5 -5.7943 -3.0284 10.4779 -13.9144 32.8935 6.6144
# 6 -36.4120 -54.1450 -37.5181 10.5777 6.6144 60.6077
#
#
#
# Elastic Compliance Matrix: (Units=1/GPa)
#
#
# Indices 1 2 3 4 5 6 
#
# 1 0.027996 0.017467 -0.004999 -0.006463 -0.000743 0.030539
# 2 0.017467 0.046874 -0.007609 -0.009169 -0.004057 0.049703
# 3 -0.004999 -0.007609 0.012110 0.009999 -0.000404 -0.004005
# 4 -0.006463 -0.009169 0.009999 0.035150 0.012390 -0.013371
# 5 -0.000743 -0.004057 -0.000404 0.012390 0.037391 -0.010563
# 6 0.030539 0.049703 -0.004005 -0.013371 -0.010563 0.080257
#
#
# Mechanical properties :
#
#
# Convention : Reuss Voigt Hill
#
# Bulk Modulus (GPa) = 10.34130 52.79102 31.56616
# Shear Modulus (GPa) = 19.06267 41.51143 30.28705
#
# Velocity S-wave (km/s) = 2.73135 4.03059 3.44281
# Velocity P-wave (km/s) = 3.74087 6.50545 5.30637
#
# Compressibility (1/GPa) = 0.09669969
#
# Stress axis : x y z
#
# Youngs Moduli (GPa) = 35.71933 21.33367 82.57360
#
# Poissons Ratio (x) = -0.37264 0.41275
# Poissons Ratio (y) = -0.62391 0.62830
# Poissons Ratio (z) = 0.17854 0.16233
#
# Static dielectric constant tensor:
#      x y z
#    x 2.152540 0.098130 0.009780 
#    y 0.098130 2.216720 0.014770 
#    z 0.009780 0.014770 2.094780 
# 
# From -- ./inp_files/323743.got.cif
#   From: 2010.05.17/outbox.cif.g08.bks.cpg/sg2_162_cif.got.tgz:323743.got - 2010.06.03 11:33:40.
