data_PCOD9038908
_publ_section_title
;
Structure prediction by ZEFSAII (Michael W. Deem and Ramdas Pophale) SiO2 
 PCOD9038908
Probable space group: P -1
;
_chemical_formula_sum "Si O2"
_cell_formula_units_Z 14
_cell_length_a 9.082929
_cell_length_b 5.279860
_cell_length_c 17.515668
_cell_angle_alpha 131.872373
_cell_angle_beta 79.508805
_cell_angle_gamma 106.714096
_cell_volume 599.002845
_symmetry_space_group_name_H-M "P -1"
_symmetry_group_IT_number 2
_symmetry_cell_setting 'triclinic'
loop_
_space_group_symop_operation_xyz
x,y,z
-x,-y,-z
loop_
_atom_site_type_symbol
_atom_site_label
_atom_site_fract_x
_atom_site_fract_y
_atom_site_fract_z
Si Si1 0.089345 0.254352 0.394483
Si Si2 0.455486 0.586170 0.435652
Si Si3 0.010630 0.575237 0.727910
Si Si4 0.399556 0.779101 0.075653
Si Si5 0.655987 0.372799 0.237621
Si Si6 0.865672 0.611239 0.905718
Si Si7 0.184738 0.651293 0.922815
O O1 0.273384 0.411185 0.411704
O O2 0.039367 0.288857 0.319033
O O3 0.000000 0.500000 0.500000
O O4 0.037154 0.852931 0.348529
O O5 0.500000 0.500000 0.500000
O O6 0.559218 0.468319 0.336231
O O7 0.500000 0.000000 0.500000
O O8 0.921524 0.695408 0.831727
O O9 0.193001 0.708381 0.752325
O O10 0.286551 0.688302 0.139484
O O11 0.522233 0.126640 0.150989
O O12 0.500000 0.500000 0.000000
O O13 0.289973 0.724717 0.001607
O O14 0.748074 0.560255 0.191537
O O15 0.003433 0.491649 0.912186
O O16 0.824863 0.947807 0.017825
#
# Coordination Sequence:
#
# PCOD9038908 Si02
#       7
#     2   2   2   2   2   2   2
#     4  12  25  48  74 101 138 183 236 291 351 422
#     4  12  27  48  75 107 139 178 232 299 354 413
#     4  11  26  44  71 103 138 190 232 283 350 423
#     4  12  24  39  67 101 139 186 232 294 351 417
#     4  11  25  45  66 104 136 184 233 290 355 408
#     4  10  23  42  64  95 139 185 233 278 349 418
#     4  10  23  43  63  96 140 182 234 283 344 431
#
# _framework density 23.372174000000001
#
# number of rings (size 3 to 8) (size 9 to 14) (size 15 to 20)
#    0.000    0.857    1.429    4.714    4.000    3.429 
#    0.000    0.000    0.000    0.000    0.000    0.000 
#    0.000    0.000    0.000    0.000    0.000    0.000 
#
# Total GULP energy -78123.872284 kJ/mol
# GULP energy per Si atom -5580.276592 kJ/mol
# Density = 2.331898 g / cm^3
# Si number density = 23.372174 Si / 1000 Ang^3
#
#
#
# Elastic Constant Matrix: (Units=GPa)
#
#
# Indices 1 2 3 4 5 6 
#
# 1 179.7407 56.3704 48.0039 -23.0575 11.6539 23.6905
# 2 56.3704 107.1595 40.2480 -3.8056 -0.5154 0.0707
# 3 48.0039 40.2480 114.2998 -37.6961 -8.7522 -5.6146
# 4 -23.0575 -3.8056 -37.6961 39.6977 5.5212 1.9980
# 5 11.6539 -0.5154 -8.7522 5.5212 46.4599 -14.7041
# 6 23.6905 0.0707 -5.6146 1.9980 -14.7041 40.2988
#
#
#
# Elastic Compliance Matrix: (Units=1/GPa)
#
#
# Indices 1 2 3 4 5 6 
#
# 1 0.009371 -0.004097 -0.001851 0.004515 -0.005851 -0.008119
# 2 -0.004097 0.012970 -0.004476 -0.005786 0.001882 0.002736
# 3 -0.001851 -0.004476 0.015757 0.012845 0.003049 0.003767
# 4 0.004515 -0.005786 0.012845 0.040397 -0.005067 -0.004706
# 5 -0.005851 0.001882 0.003049 -0.005067 0.028818 0.014627
# 6 -0.008119 0.002736 0.003767 -0.004706 0.014627 0.035678
#
#
# Mechanical properties :
#
#
# Convention : Reuss Voigt Hill
#
# Bulk Modulus (GPa) = 57.96955 76.71609 67.34282
# Shear Modulus (GPa) = 29.48272 42.39646 35.93959
#
# Velocity S-wave (km/s) = 3.55554 4.26369 3.92562
# Velocity P-wave (km/s) = 6.45852 7.55869 7.03016
#
# Compressibility (1/GPa) = 0.01725044
#
# Stress axis : x y z
#
# Youngs Moduli (GPa) = 106.70712 77.10041 63.46292
#
# Poissons Ratio (x) = 0.31588 0.11746
# Poissons Ratio (y) = 0.43718 0.28408
# Poissons Ratio (z) = 0.19750 0.34512
#
# Static dielectric constant tensor:
#      x y z
#    x 1.827550 0.033300 -0.195470 
#    y 0.033300 1.940180 0.140350 
#    z -0.195470 0.140350 1.340980 
# 
# From -- ./inp_files/553092.got.cif
#   From: 2010.05.17/outbox.cif.g08.bks.cpg/sg2_277_cif.got.tgz:553092.got - 2010.06.03 11:33:40.
