data_PCOD9038137
_publ_section_title
;
Structure prediction by ZEFSAII (Michael W. Deem and Ramdas Pophale) SiO2 
 PCOD9038137
Probable space group: P -1
;
_chemical_formula_sum "Si O2"
_cell_formula_units_Z 10
_cell_length_a 7.185618
_cell_length_b 23.500264
_cell_length_c 4.939854
_cell_angle_alpha 58.211949
_cell_angle_beta 116.175089
_cell_angle_gamma 142.605874
_cell_volume 430.183527
_symmetry_space_group_name_H-M "P -1"
_symmetry_group_IT_number 2
_symmetry_cell_setting 'triclinic'
loop_
_space_group_symop_operation_xyz
x,y,z
-x,-y,-z
loop_
_atom_site_type_symbol
_atom_site_label
_atom_site_fract_x
_atom_site_fract_y
_atom_site_fract_z
Si Si1 0.337976 0.070603 0.169882
Si Si2 0.333137 0.493744 0.160684
Si Si3 0.231171 0.592789 0.203352
Si Si4 0.851275 0.094708 0.212947
Si Si5 0.273156 0.201993 0.723890
O O1 0.441306 0.172180 0.985579
O O2 0.589020 0.085562 0.139685
O O3 0.728235 0.990267 0.454702
O O4 0.000000 0.000000 0.000000
O O5 0.500000 0.500000 0.500000
O O6 0.342307 0.572333 0.079419
O O7 0.500000 0.500000 0.000000
O O8 0.974832 0.399988 0.094523
O O9 0.506055 0.686367 0.322202
O O10 0.000000 0.500000 0.500000
O O11 0.140710 0.172475 0.409474
O O12 0.974128 0.133086 0.896061
#
# Coordination Sequence:
#
# PCOD9038137 Si02
#       5
#     2   2   2   2   2
#     4   9  21  43  67  95 132 170 213 268 334 392
#     4  11  24  44  68  92 128 178 227 282 339 387
#     4  11  26  44  69  99 138 180 233 278 331 403
#     4  10  23  41  66  98 130 170 215 270 328 398
#     4  11  25  40  66  96 134 168 222 269 327 386
#
# _framework density 23.245892999999999
#
# number of rings (size 3 to 8) (size 9 to 14) (size 15 to 20)
#    0.000    1.600    2.000    0.600    5.600   13.600 
#    0.000    0.000    0.000    0.000    0.000    0.000 
#    0.000    0.000    0.000    0.000    0.000    0.000 
#
# Total GULP energy -55812.536862 kJ/mol
# GULP energy per Si atom -5581.253686 kJ/mol
# Density = 2.319298 g / cm^3
# Si number density = 23.245893 Si / 1000 Ang^3
#
#
#
# Elastic Constant Matrix: (Units=GPa)
#
#
# Indices 1 2 3 4 5 6 
#
# 1 165.5709 26.9989 32.8477 2.6311 8.0522 4.9506
# 2 26.9989 85.7295 24.8239 17.0899 7.5470 -16.8385
# 3 32.8477 24.8239 82.5155 24.1429 -9.9485 4.4255
# 4 2.6311 17.0899 24.1429 40.8252 2.4840 -0.9284
# 5 8.0522 7.5470 -9.9485 2.4840 37.0051 17.8972
# 6 4.9506 -16.8385 4.4255 -0.9284 17.8972 28.1432
#
#
#
# Elastic Compliance Matrix: (Units=1/GPa)
#
#
# Indices 1 2 3 4 5 6 
#
# 1 0.007008 -0.001611 -0.003185 0.002224 -0.002047 -0.000320
# 2 -0.001611 0.022679 -0.009634 -0.001806 -0.020431 0.028300
# 3 -0.003185 -0.009634 0.023222 -0.011240 0.020389 -0.022192
# 4 0.002224 -0.001806 -0.011240 0.032435 -0.008629 0.006854
# 5 -0.002047 -0.020431 0.020389 -0.008629 0.065164 -0.056794
# 6 -0.000320 0.028300 -0.022192 0.006854 -0.056794 0.092354
#
#
# Mechanical properties :
#
#
# Convention : Reuss Voigt Hill
#
# Bulk Modulus (GPa) = 41.58261 55.90630 48.74445
# Shear Modulus (GPa) = 17.87379 37.80440 27.83910
#
# Velocity S-wave (km/s) = 2.77591 4.03709 3.46438
# Velocity P-wave (km/s) = 5.31049 6.77001 6.08417
#
# Compressibility (1/GPa) = 0.02404852
#
# Stress axis : x y z
#
# Youngs Moduli (GPa) = 142.69153 44.09456 43.06192
#
# Poissons Ratio (x) = 0.07102 0.13717
# Poissons Ratio (y) = 0.22983 0.41486
# Poissons Ratio (z) = 0.45454 0.42481
#
# Static dielectric constant tensor:
#      x y z
#    x 2.075060 0.034770 0.129000 
#    y 0.034770 1.975530 0.005680 
#    z 0.129000 0.005680 1.977080 
# 
# From -- ./inp_files/8021.got.cif
#   From: 2010.05.17/outbox.cif.g08.bks.cpg/sg2_5_cif.got.tgz:8021.got - 2010.06.03 11:33:40.
