data_PCOD9038506
_publ_section_title
;
Structure prediction by ZEFSAII (Michael W. Deem and Ramdas Pophale) SiO2 
 PCOD9038506
Probable space group: P -1
;
_chemical_formula_sum "Si O2"
_cell_formula_units_Z 16
_cell_length_a 7.879342
_cell_length_b 9.883083
_cell_length_c 16.880681
_cell_angle_alpha 146.714236
_cell_angle_beta 106.325809
_cell_angle_gamma 69.141907
_cell_volume 673.806956
_symmetry_space_group_name_H-M "P -1"
_symmetry_group_IT_number 2
_symmetry_cell_setting 'triclinic'
loop_
_space_group_symop_operation_xyz
x,y,z
-x,-y,-z
loop_
_atom_site_type_symbol
_atom_site_label
_atom_site_fract_x
_atom_site_fract_y
_atom_site_fract_z
Si Si1 0.621284 0.282224 0.855049
Si Si2 0.294452 0.627902 0.548726
Si Si3 0.154458 0.187716 0.256599
Si Si4 0.814745 0.917751 0.961714
Si Si5 0.616117 0.892991 0.539122
Si Si6 0.103957 0.503577 0.097961
Si Si7 0.276541 0.692762 0.743734
Si Si8 0.007471 0.983059 0.585823
O O1 0.708821 0.429882 0.872425
O O2 0.774807 0.094712 0.837244
O O3 0.541085 0.074818 0.693286
O O4 0.500000 0.500000 0.000000
O O5 0.500000 0.500000 0.500000
O O6 0.204094 0.385169 0.422013
O O7 0.284265 0.803021 0.710600
O O8 0.184972 0.786241 0.541604
O O9 0.939347 0.282414 0.264279
O O10 0.243460 0.188806 0.180985
O O11 0.676991 0.158241 0.101193
O O12 0.861667 0.724238 0.946398
O O13 0.000000 0.000000 0.000000
O O14 0.617424 0.595944 0.393661
O O15 0.500000 0.000000 0.500000
O O16 0.825960 0.910767 0.561220
O O17 0.989708 0.743906 0.246976
O O18 0.000000 0.500000 0.000000
O O19 0.000000 0.000000 0.500000
#
# Coordination Sequence:
#
# PCOD9038506 Si02
#       8
#     2   2   2   2   2   2   2   2
#     4  11  26  45  69 103 143 186 229 293 356 420
#     4  12  25  42  68 104 139 184 236 287 350 418
#     4  11  22  45  72 100 138 187 237 282 356 422
#     4  10  23  41  70 104 133 184 234 289 352 419
#     4  11  25  44  73 103 134 184 233 288 352 419
#     4  11  23  44  69 102 139 182 238 280 355 420
#     4  11  22  45  71  96 136 181 237 281 345 424
#     4  11  25  43  70 102 141 179 227 297 352 411
#
# _framework density 23.745674999999999
#
# number of rings (size 3 to 8) (size 9 to 14) (size 15 to 20)
#    0.000    1.000    2.500    4.875    5.250    3.000 
#    0.000    1.250    0.000    0.000    0.000    0.000 
#    0.000    0.000    0.000    0.000    0.000    0.000 
#
# Total GULP energy -89396.886350 kJ/mol
# GULP energy per Si atom -5587.305397 kJ/mol
# Density = 2.369163 g / cm^3
# Si number density = 23.745675 Si / 1000 Ang^3
#
#
#
# Elastic Constant Matrix: (Units=GPa)
#
#
# Indices 1 2 3 4 5 6 
#
# 1 46.7288 20.3347 18.4072 2.3570 -14.5294 -4.3835
# 2 20.3347 162.2036 58.5629 0.8099 -17.6548 6.2716
# 3 18.4072 58.5629 168.9365 -13.5800 -38.7368 -1.5056
# 4 2.3570 0.8099 -13.5800 50.7882 5.3944 -2.4279
# 5 -14.5294 -17.6548 -38.7368 5.3944 31.5143 -1.3808
# 6 -4.3835 6.2716 -1.5056 -2.4279 -1.3808 37.9398
#
#
#
# Elastic Compliance Matrix: (Units=1/GPa)
#
#
# Indices 1 2 3 4 5 6 
#
# 1 0.026416 -0.002334 0.000567 -0.002142 0.012099 0.003764
# 2 -0.002334 0.007391 -0.002320 -0.000736 0.000268 -0.001621
# 3 0.000567 -0.002320 0.009061 0.001441 0.009907 0.001261
# 4 -0.002142 -0.000736 0.001441 0.020570 -0.003099 0.001135
# 5 0.012099 0.000268 0.009907 -0.003099 0.050316 0.003380
# 6 0.003764 -0.001621 0.001261 0.001135 0.003380 0.027306
#
#
# Mechanical properties :
#
#
# Convention : Reuss Voigt Hill
#
# Bulk Modulus (GPa) = 28.82490 63.60872 46.21681
# Shear Modulus (GPa) = 31.09485 42.75274 36.92380
#
# Velocity S-wave (km/s) = 3.62262 4.24777 3.94759
# Velocity P-wave (km/s) = 5.44639 7.13468 6.34692
#
# Compressibility (1/GPa) = 0.03469223
#
# Stress axis : x y z
#
# Youngs Moduli (GPa) = 37.85620 135.30361 110.36639
#
# Poissons Ratio (x) = 0.31581 -0.06252
# Poissons Ratio (y) = 0.08836 0.25605
# Poissons Ratio (z) = -0.02145 0.31390
#
# Static dielectric constant tensor:
#      x y z
#    x 1.977370 0.053480 0.054390 
#    y 0.053480 1.950470 -0.025550 
#    z 0.054390 -0.025550 2.019910 
# 
# From -- ./inp_files/495877.got.cif
#   From: 2010.05.17/outbox.cif.g08.bks.cpg/sg2_248_cif.got.tgz:495877.got - 2010.06.03 11:33:40.
