data_PCOD9038657
_publ_section_title
;
Structure prediction by ZEFSAII (Michael W. Deem and Ramdas Pophale) SiO2 
 PCOD9038657
Probable space group: P -1
;
_chemical_formula_sum "Si O2"
_cell_formula_units_Z 12
_cell_length_a 8.599471
_cell_length_b 13.907227
_cell_length_c 13.592638
_cell_angle_alpha 31.445129
_cell_angle_beta 146.839207
_cell_angle_gamma 137.482339
_cell_volume 462.383025
_symmetry_space_group_name_H-M "P -1"
_symmetry_group_IT_number 2
_symmetry_cell_setting 'triclinic'
loop_
_space_group_symop_operation_xyz
x,y,z
-x,-y,-z
loop_
_atom_site_type_symbol
_atom_site_label
_atom_site_fract_x
_atom_site_fract_y
_atom_site_fract_z
Si Si1 0.399113 0.296618 0.209289
Si Si2 0.291451 0.118701 0.951443
Si Si3 0.242480 0.150135 0.537236
Si Si4 0.518759 0.527475 0.366837
Si Si5 0.897017 0.064814 0.609620
Si Si6 0.858255 0.598133 0.215719
O O1 0.631650 0.188530 0.366005
O O2 0.591776 0.453401 0.229489
O O3 0.222369 0.136989 0.314115
O O4 0.194019 0.374059 0.952305
O O5 0.499937 0.268717 0.867947
O O6 0.175002 0.223722 0.891478
O O7 0.033101 0.053450 0.799232
O O8 0.464300 0.948430 0.224176
O O9 0.297018 0.364167 0.349729
O O10 0.141095 0.156078 0.591560
O O11 0.000000 0.000000 0.500000
O O12 0.500000 0.500000 0.500000
O O13 0.839508 0.483831 0.543141
#
# Coordination Sequence:
#
# PCOD9038657 Si02
#       6
#     2   2   2   2   2   2
#     4  10  23  41  72  95 142 175 227 283 341 399
#     4  12  26  45  73 102 138 185 229 280 348 405
#     4  12  28  46  68 103 142 179 234 284 344 407
#     4  12  26  46  74 101 141 181 228 285 343 410
#     4  11  23  44  67 103 136 181 229 280 343 407
#     4  11  24  45  68 105 134 181 231 278 342 409
#
# _framework density 25.952508000000002
#
# number of rings (size 3 to 8) (size 9 to 14) (size 15 to 20)
#    0.000    0.667    3.333    3.000    4.667    6.000 
#    0.000    0.000    0.000    0.000    0.000    0.000 
#    0.000    0.000    0.000    0.000    0.000    0.000 
#
# Total GULP energy -67235.986426 kJ/mol
# GULP energy per Si atom -5602.998869 kJ/mol
# Density = 2.589344 g / cm^3
# Si number density = 25.952508 Si / 1000 Ang^3
#
#
#
# Elastic Constant Matrix: (Units=GPa)
#
#
# Indices 1 2 3 4 5 6 
#
# 1 84.5012 3.4365 -19.3533 -6.7422 -4.8448 14.1063
# 2 3.4365 150.6443 -2.2829 -8.7740 -14.7089 14.4146
# 3 -19.3533 -2.2829 55.1508 5.8524 -3.5268 9.0079
# 4 -6.7422 -8.7740 5.8524 40.9213 6.1569 -15.1578
# 5 -4.8448 -14.7089 -3.5268 6.1569 27.8077 -0.8466
# 6 14.1063 14.4146 9.0079 -15.1578 -0.8466 34.3751
#
#
#
# Elastic Compliance Matrix: (Units=1/GPa)
#
#
# Indices 1 2 3 4 5 6 
#
# 1 0.015160 0.000965 0.007486 -0.002589 0.004382 -0.009622
# 2 0.000965 0.007421 0.001669 -0.000671 0.004328 -0.004135
# 3 0.007486 0.001669 0.024277 -0.007848 0.006595 -0.013432
# 4 -0.002589 -0.000671 -0.007848 0.032814 -0.008529 0.017660
# 5 0.004382 0.004328 0.006595 -0.008529 0.041493 -0.008080
# 6 -0.009622 -0.004135 -0.013432 0.017660 -0.008080 0.045881
#
#
# Mechanical properties :
#
#
# Convention : Reuss Voigt Hill
#
# Bulk Modulus (GPa) = 14.90323 28.21078 21.55701
# Shear Modulus (GPa) = 29.55607 41.18719 35.37163
#
# Velocity S-wave (km/s) = 3.37835 3.98807 3.69580
# Velocity P-wave (km/s) = 4.57959 5.66568 5.15134
#
# Compressibility (1/GPa) = 0.06709954
#
# Stress axis : x y z
#
# Youngs Moduli (GPa) = 65.96151 134.76152 41.19162
#
# Poissons Ratio (x) = -0.13009 -0.30838
# Poissons Ratio (y) = -0.06367 -0.06876
# Poissons Ratio (z) = -0.49382 -0.22494
#
# Static dielectric constant tensor:
#      x y z
#    x 2.152710 0.012230 -0.091460 
#    y 0.012230 2.055990 -0.031570 
#    z -0.091460 -0.031570 1.964870 
# 
# From -- ./inp_files/145101.got.cif
#   From: 2010.05.17/outbox.cif.g08.bks.cpg/sg2_73_cif.got.tgz:145101.got - 2010.06.03 11:33:40.
