data_PCOD9038932
_publ_section_title
;
Structure prediction by ZEFSAII (Michael W. Deem and Ramdas Pophale) SiO2 
 PCOD9038932
Probable space group: P -1
;
_chemical_formula_sum "Si O2"
_cell_formula_units_Z 10
_cell_length_a 11.381058
_cell_length_b 5.463377
_cell_length_c 13.705872
_cell_angle_alpha 110.663271
_cell_angle_beta 29.667949
_cell_angle_gamma 105.758909
_cell_volume 393.558255
_symmetry_space_group_name_H-M "P -1"
_symmetry_group_IT_number 2
_symmetry_cell_setting 'triclinic'
loop_
_space_group_symop_operation_xyz
x,y,z
-x,-y,-z
loop_
_atom_site_type_symbol
_atom_site_label
_atom_site_fract_x
_atom_site_fract_y
_atom_site_fract_z
Si Si1 0.197033 0.628278 0.749218
Si Si2 0.753404 0.544750 0.874371
Si Si3 0.743670 0.512676 0.538031
Si Si4 0.600397 0.103636 0.043688
Si Si5 0.321990 0.209276 0.769723
O O1 0.221781 0.512034 0.606777
O O2 0.292469 0.408292 0.726588
O O3 0.325084 0.901316 0.701550
O O4 0.926375 0.715707 0.986177
O O5 0.979376 0.504344 0.633739
O O6 0.500000 0.500000 0.000000
O O7 0.762350 0.329969 0.923495
O O8 0.739141 0.851613 0.955056
O O9 0.602357 0.767228 0.721484
O O10 0.566094 0.284584 0.656576
O O11 0.500000 0.000000 0.000000
#
# Coordination Sequence:
#
# PCOD9038932 Si02
#       5
#     2   2   2   2   2
#     4  10  23  42  64  98 137 170 219 276 325 397
#     4  10  25  45  65  97 134 172 226 282 326 389
#     4  12  24  42  74  98 132 186 222 264 346 398
#     4  10  25  45  65  97 134 172 226 282 326 389
#     4  10  23  42  64  98 137 170 219 276 325 397
#
# _framework density 25.409199999999998
#
# number of rings (size 3 to 8) (size 9 to 14) (size 15 to 20)
#    0.000    1.600    0.000    2.400    0.000   19.200 
#    0.000    0.000    0.000    0.000    0.000    0.000 
#    0.000    0.000    0.000    0.000    0.000    0.000 
#
# Total GULP energy -55908.988569 kJ/mol
# GULP energy per Si atom -5590.898857 kJ/mol
# Density = 2.535137 g / cm^3
# Si number density = 25.409200 Si / 1000 Ang^3
#
#
#
# Elastic Constant Matrix: (Units=GPa)
#
#
# Indices 1 2 3 4 5 6 
#
# 1 61.0517 51.5255 27.7870 -3.1482 11.1343 -1.0702
# 2 51.5255 231.7004 87.0073 1.4687 9.4089 -19.3824
# 3 27.7870 87.0073 240.9353 11.3077 -4.6257 4.8253
# 4 -3.1482 1.4687 11.3077 50.0224 22.3902 4.4711
# 5 11.1343 9.4089 -4.6257 22.3902 42.1146 0.1524
# 6 -1.0702 -19.3824 4.8253 4.4711 0.1524 41.2966
#
#
#
# Elastic Compliance Matrix: (Units=1/GPa)
#
#
# Indices 1 2 3 4 5 6 
#
# 1 0.022400 -0.004314 -0.001409 0.005652 -0.008111 -0.001862
# 2 -0.004314 0.006227 -0.001812 -0.000145 -0.000384 0.003040
# 3 -0.001409 -0.001812 0.005145 -0.002217 0.002526 -0.001258
# 4 0.005652 -0.000145 -0.002217 0.028677 -0.016942 -0.002705
# 5 -0.008111 -0.000384 0.002526 -0.016942 0.035256 0.001019
# 6 -0.001862 0.003040 -0.001258 -0.002705 0.001019 0.026029
#
#
# Mechanical properties :
#
#
# Convention : Reuss Voigt Hill
#
# Bulk Modulus (GPa) = 53.47534 96.25856 74.86695
# Shear Modulus (GPa) = 34.47332 51.17792 42.82562
#
# Velocity S-wave (km/s) = 3.68737 4.49280 4.10986
# Velocity P-wave (km/s) = 6.26261 8.05476 7.21455
#
# Compressibility (1/GPa) = 0.01870021
#
# Stress axis : x y z
#
# Youngs Moduli (GPa) = 44.64247 160.59772 194.35428
#
# Poissons Ratio (x) = 0.69288 0.27386
# Poissons Ratio (y) = 0.19261 0.35227
# Poissons Ratio (z) = 0.06290 0.29108
#
# Static dielectric constant tensor:
#      x y z
#    x 4.153180 0.449160 0.089970 
#    y 0.449160 2.100240 0.008300 
#    z 0.089970 0.008300 2.065650 
# 
# From -- ./inp_files/509971.got.cif
#   From: 2010.05.17/outbox.cif.g08.bks.cpg/sg2_255_cif.got.tgz:509971.got - 2010.06.03 11:33:40.
