data_PCOD9038687
_publ_section_title
;
Structure prediction by ZEFSAII (Michael W. Deem and Ramdas Pophale) SiO2 
 PCOD9038687
Probable space group: P -1
;
_chemical_formula_sum "Si O2"
_cell_formula_units_Z 14
_cell_length_a 22.590863
_cell_length_b 13.151395
_cell_length_c 16.238630
_cell_angle_alpha 37.114346
_cell_angle_beta 153.249872
_cell_angle_gamma 162.336521
_cell_volume 606.346036
_symmetry_space_group_name_H-M "P -1"
_symmetry_group_IT_number 2
_symmetry_cell_setting 'triclinic'
loop_
_space_group_symop_operation_xyz
x,y,z
-x,-y,-z
loop_
_atom_site_type_symbol
_atom_site_label
_atom_site_fract_x
_atom_site_fract_y
_atom_site_fract_z
Si Si1 0.147151 0.787639 0.789824
Si Si2 0.031097 0.730716 0.013878
Si Si3 0.906025 0.575530 0.363727
Si Si4 0.966327 0.991530 0.867618
Si Si5 0.864581 0.649272 0.675230
Si Si6 0.571186 0.120904 0.396017
Si Si7 0.664810 0.777614 0.391869
O O1 0.184084 0.642461 0.966289
O O2 0.086245 0.838380 0.759727
O O3 0.855905 0.451104 0.590373
O O4 0.368905 0.119414 0.787365
O O5 0.329428 0.970798 0.225851
O O6 0.054638 0.929261 0.965009
O O7 0.942137 0.668259 0.850008
O O8 0.644423 0.259559 0.304786
O O9 0.000000 0.500000 0.500000
O O10 0.872061 0.663103 0.189430
O O11 0.152082 0.936802 0.492031
O O12 0.626675 0.623725 0.675144
O O13 0.000000 0.000000 0.000000
O O14 0.832213 0.811891 0.536691
O O15 0.568087 0.222274 0.558170
#
# Coordination Sequence:
#
# PCOD9038687 Si02
#       7
#     2   2   2   2   2   2   2
#     4  10  23  42  69  99 129 175 215 271 327 391
#     4  11  24  42  66  99 134 166 224 265 333 378
#     4  11  25  47  70  95 129 178 221 266 334 394
#     4  12  29  43  66  99 134 174 217 280 325 389
#     4  11  21  42  70  96 132 170 218 274 324 390
#     4  10  23  41  73  96 131 174 218 271 324 391
#     4  11  25  45  66  96 132 175 220 267 332 393
#
# _framework density 23.089126
#
# number of rings (size 3 to 8) (size 9 to 14) (size 15 to 20)
#    0.000    1.143    1.429    5.143   10.000    3.429 
#    0.000    0.000    0.000    0.000    0.000    0.000 
#    0.000    0.000    0.000    0.000    0.000    0.000 
#
# Total GULP energy -78392.803391 kJ/mol
# GULP energy per Si atom -5599.485956 kJ/mol
# Density = 2.303657 g / cm^3
# Si number density = 23.089126 Si / 1000 Ang^3
#
#
#
# Elastic Constant Matrix: (Units=GPa)
#
#
# Indices 1 2 3 4 5 6 
#
# 1 124.2106 37.3597 26.6565 -23.9809 -15.8109 -9.7675
# 2 37.3597 59.7008 11.8242 -30.9919 -2.6305 4.7087
# 3 26.6565 11.8242 52.1443 -20.0425 -22.7235 -8.8449
# 4 -23.9809 -30.9919 -20.0425 46.8425 0.3017 -8.5145
# 5 -15.8109 -2.6305 -22.7235 0.3017 43.0993 -14.0411
# 6 -9.7675 4.7087 -8.8449 -8.5145 -14.0411 57.9271
#
#
#
# Elastic Compliance Matrix: (Units=1/GPa)
#
#
# Indices 1 2 3 4 5 6 
#
# 1 0.011284 -0.005884 -0.001215 0.001977 0.004273 0.003522
# 2 -0.005884 0.029020 0.004251 0.018068 0.001859 0.000405
# 3 -0.001215 0.004251 0.042051 0.022876 0.026962 0.015768
# 4 0.001977 0.018068 0.022876 0.046448 0.017976 0.013542
# 5 0.004273 0.001859 0.026962 0.017976 0.044907 0.018214
# 6 0.003522 0.000405 0.015768 0.013542 0.018214 0.026637
#
#
# Mechanical properties :
#
#
# Convention : Reuss Voigt Hill
#
# Bulk Modulus (GPa) = 13.04456 43.08184 28.06320
# Shear Modulus (GPa) = 21.58937 40.25479 30.92208
#
# Velocity S-wave (km/s) = 3.06117 4.18000 3.66354
# Velocity P-wave (km/s) = 4.26101 6.48043 5.48417
#
# Compressibility (1/GPa) = 0.07666033
#
# Stress axis : x y z
#
# Youngs Moduli (GPa) = 88.62230 34.45897 23.78043
#
# Poissons Ratio (x) = 0.20276 0.02888
# Poissons Ratio (y) = 0.52145 -0.10109
# Poissons Ratio (z) = 0.10764 -0.14649
#
# Static dielectric constant tensor:
#      x y z
#    x 1.824190 0.024260 -0.029780 
#    y 0.024260 1.870370 0.013500 
#    z -0.029780 0.013500 1.882910 
# 
# From -- ./inp_files/185240.got.cif
#   From: 2010.05.17/outbox.cif.g08.bks.cpg/sg2_93_cif.got.tgz:185240.got - 2010.06.03 11:33:40.
