data_PCOD9038463
_publ_section_title
;
Structure prediction by ZEFSAII (Michael W. Deem and Ramdas Pophale) SiO2 
 PCOD9038463
Probable space group: P -1
;
_chemical_formula_sum "Si O2"
_cell_formula_units_Z 16
_cell_length_a 10.461333
_cell_length_b 14.664715
_cell_length_c 18.415266
_cell_angle_alpha 158.954407
_cell_angle_beta 49.053388
_cell_angle_gamma 128.705072
_cell_volume 765.325116
_symmetry_space_group_name_H-M "P -1"
_symmetry_group_IT_number 2
_symmetry_cell_setting 'triclinic'
loop_
_space_group_symop_operation_xyz
x,y,z
-x,-y,-z
loop_
_atom_site_type_symbol
_atom_site_label
_atom_site_fract_x
_atom_site_fract_y
_atom_site_fract_z
Si Si1 0.936314 0.911179 0.574640
Si Si2 0.764257 0.846675 0.438989
Si Si3 0.817971 0.470493 0.582690
Si Si4 0.751472 0.243651 0.005276
Si Si5 0.589144 0.288070 0.402988
Si Si6 0.422472 0.240442 0.032344
Si Si7 0.253459 0.587694 0.716030
Si Si8 0.559699 0.193345 0.559089
O O1 0.827070 0.955887 0.574546
O O2 0.907056 0.611403 0.377387
O O3 0.123981 0.005950 0.553823
O O4 0.866047 0.068298 0.784303
O O5 0.799770 0.545043 0.200227
O O6 0.569591 0.859614 0.499027
O O7 0.689539 0.436032 0.537856
O O8 0.760315 0.713668 0.830109
O O9 0.751859 0.235646 0.486569
O O10 0.000000 0.500000 0.500000
O O11 0.561539 0.190433 0.005736
O O12 0.763206 0.212334 0.064286
O O13 0.411151 0.416157 0.552938
O O14 0.694234 0.310575 0.305739
O O15 0.573515 0.986074 0.193456
O O16 0.474662 0.518820 0.188520
O O17 0.500000 0.000000 0.500000
#
# Coordination Sequence:
#
# PCOD9038463 Si02
#       8
#     2   2   2   2   2   2   2   2
#     4  10  18  32  55  85 117 152 189 233 292 350
#     4   9  19  33  56  82 114 152 190 237 296 349
#     4  10  22  40  63  83 112 157 200 246 297 342
#     4  10  17  33  53  86 115 151 189 229 294 354
#     4  11  20  37  56  84 118 151 196 234 290 357
#     4   9  20  35  61  82 112 155 190 238 300 345
#     4  10  21  31  54  88 118 151 190 236 281 352
#     4   9  20  41  61  82 112 150 199 250 291 340
#
# _framework density 20.906148999999999
#
# number of rings (size 3 to 8) (size 9 to 14) (size 15 to 20)
#    0.750    1.500    2.500    1.125    0.000    3.000 
#    0.000    0.625    0.000    0.000    0.000    0.000 
#    0.000    0.000    0.000    0.000    0.000    0.000 
#
# Total GULP energy -89143.527641 kJ/mol
# GULP energy per Si atom -5571.470478 kJ/mol
# Density = 2.085857 g / cm^3
# Si number density = 20.906149 Si / 1000 Ang^3
#
#
#
# Elastic Constant Matrix: (Units=GPa)
#
#
# Indices 1 2 3 4 5 6 
#
# 1 14.4891 11.3434 11.2881 0.7999 2.7428 2.7326
# 2 11.3434 116.0801 10.1981 -19.0977 -8.9474 12.1859
# 3 11.2881 10.1981 91.1761 -19.1490 17.0027 -5.2008
# 4 0.7999 -19.0977 -19.1490 28.6539 -3.7198 0.9137
# 5 2.7428 -8.9474 17.0027 -3.7198 15.6816 -2.9751
# 6 2.7326 12.1859 -5.2008 0.9137 -2.9751 32.5295
#
#
#
# Elastic Compliance Matrix: (Units=1/GPa)
#
#
# Indices 1 2 3 4 5 6 
#
# 1 0.092960 -0.012030 -0.011737 -0.020390 -0.016393 -0.006105
# 2 -0.012030 0.012672 -0.000029 0.010318 0.011244 -0.003003
# 3 -0.011737 -0.000029 0.017224 0.009949 -0.013861 0.002204
# 4 -0.020390 0.010318 0.009949 0.050380 0.010422 -0.001024
# 5 -0.016393 0.011244 -0.013861 0.010422 0.091119 0.002990
# 6 -0.006105 -0.003003 0.002204 -0.001024 0.002990 0.033033
#
#
# Mechanical properties :
#
#
# Convention : Reuss Voigt Hill
#
# Bulk Modulus (GPa) = 13.28655 31.93383 22.61019
# Shear Modulus (GPa) = 13.51095 27.96739 20.73917
#
# Velocity S-wave (km/s) = 2.54494 3.66151 3.15304
# Velocity P-wave (km/s) = 3.87359 5.76051 4.90858
#
# Compressibility (1/GPa) = 0.07526406
#
# Stress axis : x y z
#
# Youngs Moduli (GPa) = 10.75727 78.91236 58.05784
#
# Poissons Ratio (x) = 0.94933 0.68143
# Poissons Ratio (y) = 0.12941 0.00169
# Poissons Ratio (z) = 0.12626 0.00230
#
# Static dielectric constant tensor:
#      x y z
#    x 1.766730 -0.009340 -0.005430 
#    y -0.009340 1.854950 0.010960 
#    z -0.005430 0.010960 1.728320 
# 
# From -- ./inp_files/595895.got.cif
#   From: 2010.05.17/outbox.cif.g08.bks.cpg/sg2_298_cif.got.tgz:595895.got - 2010.06.03 11:33:40.
