data_PCOD9038170
_publ_section_title
;
Structure prediction by ZEFSAII (Michael W. Deem and Ramdas Pophale) SiO2 
 PCOD9038170
Probable space group: P -1
;
_chemical_formula_sum "Si O2"
_cell_formula_units_Z 13
_cell_length_a 15.304544
_cell_length_b 13.125522
_cell_length_c 14.356012
_cell_angle_alpha 36.571803
_cell_angle_beta 19.332940
_cell_angle_gamma 33.305167
_cell_volume 522.566036
_symmetry_space_group_name_H-M "P -1"
_symmetry_group_IT_number 2
_symmetry_cell_setting 'triclinic'
loop_
_space_group_symop_operation_xyz
x,y,z
-x,-y,-z
loop_
_atom_site_type_symbol
_atom_site_label
_atom_site_fract_x
_atom_site_fract_y
_atom_site_fract_z
Si Si1 0.500000 0.000000 0.500000
Si Si2 0.904588 0.758397 0.822821
Si Si3 0.383486 0.917088 0.004544
Si Si4 0.701291 0.584023 0.682253
Si Si5 0.028202 0.700809 0.532224
Si Si6 0.622186 0.770535 0.360110
Si Si7 0.766311 0.421160 0.189015
O O1 0.577602 0.806856 0.631349
O O2 0.499772 0.874869 0.501982
O O3 0.059414 0.726371 0.591721
O O4 0.117330 0.676838 0.756498
O O5 0.712788 0.635068 0.101635
O O6 0.719346 0.971177 0.877816
O O7 0.691968 0.748755 0.822100
O O8 0.423236 0.067902 0.787577
O O9 0.137489 0.850879 0.266953
O O10 0.778093 0.489607 0.572066
O O11 0.000000 0.500000 0.500000
O O12 0.500000 0.500000 0.000000
O O13 0.471831 0.640530 0.567349
O O14 0.965693 0.656884 0.095183
#
# Coordination Sequence:
#
# PCOD9038170 Si02
#       7
#     1   2   2   2   2   2   2
#     4  12  28  50  84 110 146 208 262 310 392 456
#     4  10  23  41  67 100 138 189 239 292 369 453
#     4  11  24  42  67  99 144 187 235 302 370 439
#     4  12  29  52  77 112 155 197 256 326 381 447
#     4  12  24  43  68 100 140 188 241 302 370 441
#     4  11  24  44  67 101 138 188 247 302 366 447
#     4  10  24  42  64  97 143 179 233 311 366 428
#
# _framework density 24.877237999999998
#
# number of rings (size 3 to 8) (size 9 to 14) (size 15 to 20)
#    0.000    0.923    0.000    6.462    0.000   16.615 
#    0.000    0.000    0.000    0.000    0.000    0.000 
#    0.000    0.000    0.000    0.000    0.000    0.000 
#
# Total GULP energy -72547.660879 kJ/mol
# GULP energy per Si atom -5580.589298 kJ/mol
# Density = 2.482062 g / cm^3
# Si number density = 24.877238 Si / 1000 Ang^3
#
#
#
# Elastic Constant Matrix: (Units=GPa)
#
#
# Indices 1 2 3 4 5 6 
#
# 1 96.0626 21.5162 43.2581 -0.4997 13.8478 18.9826
# 2 21.5162 153.5062 41.9586 -16.2845 8.6007 15.0016
# 3 43.2581 41.9586 137.1671 -9.9168 -7.9870 -2.2011
# 4 -0.4997 -16.2845 -9.9168 30.9230 5.5260 6.1846
# 5 13.8478 8.6007 -7.9870 5.5260 21.3613 -3.6872
# 6 18.9826 15.0016 -2.2011 6.1846 -3.6872 52.4342
#
#
#
# Elastic Compliance Matrix: (Units=1/GPa)
#
#
# Indices 1 2 3 4 5 6 
#
# 1 0.017243 0.001607 -0.006780 0.003672 -0.016795 -0.008601
# 2 0.001607 0.008701 -0.003284 0.005891 -0.008069 -0.004471
# 3 -0.006780 -0.003284 0.011062 -0.001210 0.010991 0.004774
# 4 0.003672 0.005891 -0.001210 0.039963 -0.017093 -0.008981
# 5 -0.016795 -0.008069 0.010991 -0.017093 0.072234 0.015946
# 6 -0.008601 -0.004471 0.004774 -0.008981 0.015946 0.025846
#
#
# Mechanical properties :
#
#
# Convention : Reuss Voigt Hill
#
# Bulk Modulus (GPa) = 49.76999 66.68907 58.22953
# Shear Modulus (GPa) = 25.16881 39.61057 32.38969
#
# Velocity S-wave (km/s) = 3.18421 3.99462 3.61221
# Velocity P-wave (km/s) = 5.79384 6.93840 6.39179
#
# Compressibility (1/GPa) = 0.02009243
#
# Stress axis : x y z
#
# Youngs Moduli (GPa) = 57.99560 114.93276 90.39763
#
# Poissons Ratio (x) = -0.18475 0.61289
# Poissons Ratio (y) = -0.09323 0.29688
# Poissons Ratio (z) = 0.39321 0.37746
#
# Static dielectric constant tensor:
#      x y z
#    x 1.983140 -0.046220 0.057070 
#    y -0.046220 1.984950 0.030940 
#    z 0.057070 0.030940 1.980520 
# 
# From -- ./inp_files/531599.got.cif
#   From: 2010.05.17/outbox.cif.g08.bks.cpg/sg2_266_cif.got.tgz:531599.got - 2010.06.03 11:33:40.
