data_PCOD9038958
_publ_section_title
;
Structure prediction by ZEFSAII (Michael W. Deem and Ramdas Pophale) SiO2 
 PCOD9038958
Probable space group: P -1
;
_chemical_formula_sum "Si O2"
_cell_formula_units_Z 14
_cell_length_a 9.421449
_cell_length_b 17.586188
_cell_length_c 17.932542
_cell_angle_alpha 161.596484
_cell_angle_beta 143.900349
_cell_angle_gamma 38.485518
_cell_volume 550.605189
_symmetry_space_group_name_H-M "P -1"
_symmetry_group_IT_number 2
_symmetry_cell_setting 'triclinic'
loop_
_space_group_symop_operation_xyz
x,y,z
-x,-y,-z
loop_
_atom_site_type_symbol
_atom_site_label
_atom_site_fract_x
_atom_site_fract_y
_atom_site_fract_z
Si Si1 0.801699 0.422189 0.141544
Si Si2 0.713017 0.309525 0.382674
Si Si3 0.472205 0.310141 0.008169
Si Si4 0.057567 0.150698 0.594019
Si Si5 0.267831 0.486497 0.567822
Si Si6 0.654727 0.205530 0.726836
Si Si7 0.597437 0.098782 0.279572
O O1 0.561062 0.605744 0.216774
O O2 0.032219 0.571206 0.388644
O O3 0.718090 0.233107 0.992585
O O4 0.797807 0.312799 0.955741
O O5 0.500000 0.500000 0.500000
O O6 0.697858 0.293320 0.271163
O O7 0.676517 0.082750 0.210998
O O8 0.244758 0.328931 0.872106
O O9 0.405056 0.120387 0.867213
O O10 0.553862 0.520813 0.292334
O O11 0.814637 0.256744 0.549517
O O12 0.176812 0.942291 0.397215
O O13 0.000000 0.000000 0.500000
O O14 0.345105 0.254172 0.333759
O O15 0.000000 0.500000 0.500000
O O16 0.500000 0.000000 0.500000
#
# Coordination Sequence:
#
# PCOD9038958 Si02
#       7
#     2   2   2   2   2   2   2
#     4  11  24  42  74 100 135 183 233 281 338 409
#     4  10  23  45  66  95 135 177 229 283 331 395
#     4  11  24  42  69 106 129 185 226 271 353 405
#     4  10  23  42  65 105 140 171 215 279 354 406
#     4  11  24  45  70  98 135 184 235 280 329 404
#     4  11  23  42  69 103 139 177 229 280 344 410
#     4  10  25  46  66 100 143 172 226 292 342 402
#
# _framework density 25.426566999999999
#
# number of rings (size 3 to 8) (size 9 to 14) (size 15 to 20)
#    0.000    1.429    2.857    0.857    6.000    6.286 
#    2.571    0.000    0.000    0.000    0.000    0.000 
#    0.000    0.000    0.000    0.000    0.000    0.000 
#
# Total GULP energy -78090.974808 kJ/mol
# GULP energy per Si atom -5577.926772 kJ/mol
# Density = 2.536870 g / cm^3
# Si number density = 25.426567 Si / 1000 Ang^3
#
#
#
# Elastic Constant Matrix: (Units=GPa)
#
#
# Indices 1 2 3 4 5 6 
#
# 1 205.4510 32.2499 16.2245 -12.0276 -2.2226 7.8610
# 2 32.2499 55.2624 16.3959 -20.9587 -8.5101 -2.6017
# 3 16.2245 16.3959 43.5088 -29.0837 -2.8091 -6.4185
# 4 -12.0276 -20.9587 -29.0837 38.3054 6.7183 -6.1319
# 5 -2.2226 -8.5101 -2.8091 6.7183 53.3010 -3.3333
# 6 7.8610 -2.6017 -6.4185 -6.1319 -3.3333 49.7423
#
#
#
# Elastic Compliance Matrix: (Units=1/GPa)
#
#
# Indices 1 2 3 4 5 6 
#
# 1 0.005543 -0.003482 -0.002609 -0.002371 -0.000270 -0.001705
# 2 -0.003482 0.025695 0.002506 0.015118 0.002449 0.004245
# 3 -0.002609 0.002506 0.054308 0.044129 -0.001603 0.012884
# 4 -0.002371 0.015118 0.044129 0.070156 -0.003246 0.015291
# 5 -0.000270 0.002449 -0.001603 -0.003246 0.019520 0.000872
# 6 -0.001705 0.004245 0.012884 0.015291 0.000872 0.024201
#
#
# Mechanical properties :
#
#
# Convention : Reuss Voigt Hill
#
# Bulk Modulus (GPa) = 12.75897 48.21807 30.48852
# Shear Modulus (GPa) = 21.48509 44.22655 32.85582
#
# Velocity S-wave (km/s) = 2.91002 4.17512 3.59860
# Velocity P-wave (km/s) = 4.03978 6.49977 5.41141
#
# Compressibility (1/GPa) = 0.07837623
#
# Stress axis : x y z
#
# Youngs Moduli (GPa) = 180.39225 38.91829 18.41343
#
# Poissons Ratio (x) = 0.13552 0.04804
# Poissons Ratio (y) = 0.62815 -0.04614
# Poissons Ratio (z) = 0.47063 -0.09753
#
# Static dielectric constant tensor:
#      x y z
#    x 2.480830 0.389860 0.240120 
#    y 0.389860 2.267430 0.106300 
#    z 0.240120 0.106300 2.147190 
# 
# From -- ./inp_files/260412.got.cif
#   From: 2010.05.17/outbox.cif.g08.bks.cpg/sg2_131_cif.got.tgz:260412.got - 2010.06.03 11:33:40.
