data_PCOD9038451
_publ_section_title
;
Structure prediction by ZEFSAII (Michael W. Deem and Ramdas Pophale) SiO2 
 PCOD9038451
Probable space group: P -1
;
_chemical_formula_sum "Si O2"
_cell_formula_units_Z 12
_cell_length_a 13.832699
_cell_length_b 9.776547
_cell_length_c 5.366929
_cell_angle_alpha 91.225288
_cell_angle_beta 115.899153
_cell_angle_gamma 56.816130
_cell_volume 523.089037
_symmetry_space_group_name_H-M "P -1"
_symmetry_group_IT_number 2
_symmetry_cell_setting 'triclinic'
loop_
_space_group_symop_operation_xyz
x,y,z
-x,-y,-z
loop_
_atom_site_type_symbol
_atom_site_label
_atom_site_fract_x
_atom_site_fract_y
_atom_site_fract_z
Si Si1 0.883526 0.976384 0.876735
Si Si2 0.719187 0.156933 0.192458
Si Si3 0.546194 0.817989 0.137554
Si Si4 0.760519 0.439180 0.282393
Si Si5 0.786163 0.621919 0.674127
Si Si6 0.005081 0.629057 0.755041
O O1 0.946209 0.780784 0.892426
O O2 0.782408 0.076517 0.532331
O O3 0.815183 0.038816 0.070551
O O4 0.000000 0.000000 0.000000
O O5 0.581753 0.181518 0.991112
O O6 0.705453 0.331643 0.169293
O O7 0.654523 0.640986 0.098937
O O8 0.633855 0.783344 0.484807
O O9 0.500000 0.000000 0.000000
O O10 0.775574 0.468114 0.591217
O O11 0.909476 0.344034 0.336969
O O12 0.875145 0.633209 0.562628
O O13 0.880862 0.557037 0.012497
#
# Coordination Sequence:
#
# PCOD9038451 Si02
#       6
#     2   2   2   2   2   2
#     4  12  26  43  73 104 143 180 232 290 343 417
#     4  12  26  46  72 105 144 182 231 286 351 413
#     4  10  24  45  68 101 138 187 232 284 348 419
#     4  10  23  41  69  96 140 176 232 286 343 408
#     4   9  23  39  66  98 137 178 231 283 348 406
#     4  11  21  41  67 103 131 188 228 290 344 408
#
# _framework density 22.940643999999999
#
# number of rings (size 3 to 8) (size 9 to 14) (size 15 to 20)
#    1.000    0.333    1.667    3.500    2.333    4.000 
#    0.000    5.000    0.000    0.000    0.000    0.000 
#    0.000    0.000    0.000    0.000    0.000    0.000 
#
# Total GULP energy -66840.470519 kJ/mol
# GULP energy per Si atom -5570.039210 kJ/mol
# Density = 2.288843 g / cm^3
# Si number density = 22.940644 Si / 1000 Ang^3
#
#
#
# Elastic Constant Matrix: (Units=GPa)
#
#
# Indices 1 2 3 4 5 6 
#
# 1 118.0227 31.0986 24.7208 2.9502 47.6710 18.7764
# 2 31.0986 123.6759 14.9997 -4.2668 4.3199 26.7799
# 3 24.7208 14.9997 106.6068 -16.1363 23.7041 9.2179
# 4 2.9502 -4.2668 -16.1363 30.5180 -1.7062 -0.9791
# 5 47.6710 4.3199 23.7041 -1.7062 47.2453 3.1117
# 6 18.7764 26.7799 9.2179 -0.9791 3.1117 37.4905
#
#
#
# Elastic Compliance Matrix: (Units=1/GPa)
#
#
# Indices 1 2 3 4 5 6 
#
# 1 0.016667 -0.002604 0.000154 -0.002980 -0.016419 -0.005240
# 2 -0.002604 0.010052 -0.000661 0.001257 0.002473 -0.005886
# 3 0.000154 -0.000661 0.011719 0.005714 -0.005646 -0.001869
# 4 -0.002980 0.001257 0.005714 0.036328 0.001335 0.000028
# 5 -0.016419 0.002473 -0.005646 0.001335 0.040088 0.004552
# 6 -0.005240 -0.005886 -0.001869 0.000028 0.004552 0.033585
#
#
# Mechanical properties :
#
#
# Convention : Reuss Voigt Hill
#
# Bulk Modulus (GPa) = 31.04060 54.43818 42.73939
# Shear Modulus (GPa) = 30.22997 41.54986 35.88991
#
# Velocity S-wave (km/s) = 3.63402 4.26042 3.95963
# Velocity P-wave (km/s) = 5.58286 6.92699 6.29092
#
# Compressibility (1/GPa) = 0.03221587
#
# Stress axis : x y z
#
# Youngs Moduli (GPa) = 60.00010 99.48097 85.32985
#
# Poissons Ratio (x) = 0.25908 -0.01317
# Poissons Ratio (y) = 0.15626 0.05642
# Poissons Ratio (z) = -0.00926 0.06578
#
# Static dielectric constant tensor:
#      x y z
#    x 1.928920 -0.016500 -0.053830 
#    y -0.016500 1.874780 0.061170 
#    z -0.053830 0.061170 2.069750 
# 
# From -- ./inp_files/95038.got.cif
#   From: 2010.05.17/outbox.cif.g08.bks.cpg/sg2_48_cif.got.tgz:95038.got - 2010.06.03 11:33:40.
