data_PCOD9038693
_publ_section_title
;
Structure prediction by ZEFSAII (Michael W. Deem and Ramdas Pophale) SiO2 
 PCOD9038693
Probable space group: P -1
;
_chemical_formula_sum "Si O2"
_cell_formula_units_Z 13
_cell_length_a 13.082201
_cell_length_b 8.003533
_cell_length_c 13.631179
_cell_angle_alpha 43.709847
_cell_angle_beta 147.697298
_cell_angle_gamma 136.786393
_cell_volume 499.483511
_symmetry_space_group_name_H-M "P -1"
_symmetry_group_IT_number 2
_symmetry_cell_setting 'triclinic'
loop_
_space_group_symop_operation_xyz
x,y,z
-x,-y,-z
loop_
_atom_site_type_symbol
_atom_site_label
_atom_site_fract_x
_atom_site_fract_y
_atom_site_fract_z
Si Si1 0.164057 0.757241 0.833211
Si Si2 0.534727 0.887749 0.203360
Si Si3 0.936385 0.783667 0.925622
Si Si4 0.000000 0.500000 0.500000
Si Si5 0.682435 0.030728 0.745748
Si Si6 0.179891 0.106039 0.414528
Si Si7 0.655351 0.430831 0.403871
O O1 0.962486 0.832949 0.643943
O O2 0.294845 0.850481 0.802573
O O3 0.319200 0.891268 0.990155
O O4 0.108117 0.461069 0.937235
O O5 0.596698 0.845385 0.381908
O O6 0.576313 0.664627 0.266585
O O7 0.842524 0.721285 0.768559
O O8 0.827305 0.966453 0.808216
O O9 0.176845 0.910042 0.070427
O O10 0.868716 0.519542 0.485511
O O11 0.914789 0.185471 0.571498
O O12 0.638735 0.270078 0.559250
O O13 0.494655 0.774218 0.704335
#
# Coordination Sequence:
#
# PCOD9038693 Si02
#       7
#     2   2   2   1   2   2   2
#     4  11  24  44  68 104 138 185 233 279 354 419
#     4  11  25  44  74 100 139 188 230 286 354 420
#     4  11  23  43  67 104 138 185 231 286 346 418
#     4  12  26  42  72 102 140 178 236 290 352 406
#     4  10  23  41  73  97 143 185 233 282 349 422
#     4  12  26  44  67 105 140 182 232 293 350 408
#     4  11  22  47  69 105 136 186 236 287 351 418
#
# _framework density 26.026885
#
# number of rings (size 3 to 8) (size 9 to 14) (size 15 to 20)
#    0.000    0.923    4.615    1.846    2.154    1.846 
#    0.000    1.538    0.000    0.000    0.000    0.000 
#    0.000    0.000    0.000    0.000    0.000    0.000 
#
# Total GULP energy -72567.909886 kJ/mol
# GULP energy per Si atom -5582.146914 kJ/mol
# Density = 2.596765 g / cm^3
# Si number density = 26.026885 Si / 1000 Ang^3
#
#
#
# Elastic Constant Matrix: (Units=GPa)
#
#
# Indices 1 2 3 4 5 6 
#
# 1 71.4733 -1.2239 -2.7504 -3.6993 -10.9498 2.4762
# 2 -1.2239 97.5662 20.8433 -14.8532 -2.7836 9.9739
# 3 -2.7504 20.8433 110.8205 19.3636 -9.7196 4.4992
# 4 -3.6993 -14.8532 19.3636 50.0931 -2.2137 5.9549
# 5 -10.9498 -2.7836 -9.7196 -2.2137 33.1070 -0.0573
# 6 2.4762 9.9739 4.4992 5.9549 -0.0573 21.6334
#
#
#
# Elastic Compliance Matrix: (Units=1/GPa)
#
#
# Indices 1 2 3 4 5 6 
#
# 1 0.015011 0.000755 0.000507 0.001682 0.005285 -0.002620
# 2 0.000755 0.012494 -0.002992 0.005761 0.000795 -0.006808
# 3 0.000507 -0.002992 0.010677 -0.004911 0.002723 0.000460
# 4 0.001682 0.005761 -0.004911 0.024776 0.001240 -0.008644
# 5 0.005285 0.000795 0.002723 0.001240 0.032899 -0.001792
# 6 -0.002620 -0.006808 0.000460 -0.008644 -0.001792 0.051942
#
#
# Mechanical properties :
#
#
# Convention : Reuss Voigt Hill
#
# Bulk Modulus (GPa) = 28.80049 34.84419 31.82234
# Shear Modulus (GPa) = 30.70613 38.49945 34.60279
#
# Velocity S-wave (km/s) = 3.43853 3.85023 3.65019
# Velocity P-wave (km/s) = 5.18211 5.76043 5.47891
#
# Compressibility (1/GPa) = 0.03472164
#
# Stress axis : x y z
#
# Youngs Moduli (GPa) = 66.61723 80.04005 93.65802
#
# Poissons Ratio (x) = -0.06041 -0.04746
# Poissons Ratio (y) = -0.05028 0.28019
# Poissons Ratio (z) = -0.03375 0.23945
#
# Static dielectric constant tensor:
#      x y z
#    x 0.668750 0.776950 0.115310 
#    y 0.776950 1.601590 0.000150 
#    z 0.115310 0.000150 2.041140 
# 
# From -- ./inp_files/159334.got.cif
#   From: 2010.05.17/outbox.cif.g08.bks.cpg/sg2_80_cif.got.tgz:159334.got - 2010.06.03 11:33:40.
