data_PCOD9038852
_publ_section_title
;
Structure prediction by ZEFSAII (Michael W. Deem and Ramdas Pophale) SiO2 
 PCOD9038852
Probable space group: P -1
;
_chemical_formula_sum "Si O2"
_cell_formula_units_Z 14
_cell_length_a 16.939009
_cell_length_b 11.368169
_cell_length_c 5.006177
_cell_angle_alpha 91.427917
_cell_angle_beta 118.206024
_cell_angle_gamma 55.250716
_cell_volume 657.039084
_symmetry_space_group_name_H-M "P -1"
_symmetry_group_IT_number 2
_symmetry_cell_setting 'triclinic'
loop_
_space_group_symop_operation_xyz
x,y,z
-x,-y,-z
loop_
_atom_site_type_symbol
_atom_site_label
_atom_site_fract_x
_atom_site_fract_y
_atom_site_fract_z
Si Si1 0.114623 0.428618 0.008784
Si Si2 0.092720 0.859321 0.445023
Si Si3 0.532074 0.052783 0.805539
Si Si4 0.886105 0.932963 0.825888
Si Si5 0.803410 0.867085 0.188485
Si Si6 0.677981 0.618571 0.401356
Si Si7 0.782000 0.438689 0.041187
O O1 0.142239 0.296672 0.854461
O O2 0.227565 0.357748 0.374580
O O3 0.117420 0.547313 0.847923
O O4 0.000000 0.500000 0.000000
O O5 0.148374 0.914545 0.356087
O O6 0.171669 0.715275 0.752065
O O7 0.862696 0.856756 0.557471
O O8 0.019311 0.837496 0.125496
O O9 0.447924 0.234561 0.706165
O O10 0.500000 0.000000 0.500000
O O11 0.667126 0.967384 0.018673
O O12 0.500000 0.000000 0.000000
O O13 0.822203 0.949759 0.994530
O O14 0.000000 0.000000 0.500000
O O15 0.693720 0.572382 0.117262
O O16 0.721223 0.478575 0.659346
#
# Coordination Sequence:
#
# PCOD9038852 Si02
#       7
#     2   2   2   2   2   2   2
#     4  10  25  39  63  96 148 171 213 269 347 410
#     4  11  25  48  71  91 136 181 237 275 345 419
#     4  12  22  43  71  94 140 190 229 268 328 408
#     4  11  27  41  69 102 130 177 230 286 343 385
#     4  12  25  42  67 105 142 172 231 282 333 412
#     4  10  23  42  63  99 127 186 219 263 343 391
#     4  10  25  42  64  97 130 178 225 271 338 411
#
# _framework density 21.307714000000001
#
# number of rings (size 3 to 8) (size 9 to 14) (size 15 to 20)
#    0.857    0.286    2.857    2.571   10.000    0.571 
#    0.000    0.714    0.000    5.143    0.000    0.000 
#    0.000    0.000    0.000    0.000    0.000    0.000 
#
# Total GULP energy -78304.479682 kJ/mol
# GULP energy per Si atom -5593.177120 kJ/mol
# Density = 2.125922 g / cm^3
# Si number density = 21.307714 Si / 1000 Ang^3
#
#
#
# Elastic Constant Matrix: (Units=GPa)
#
#
# Indices 1 2 3 4 5 6 
#
# 1 59.4741 16.3776 15.9814 -2.7202 -12.0623 -10.8201
# 2 16.3776 86.5398 17.0684 -3.2899 11.3055 -22.0857
# 3 15.9814 17.0684 86.4092 8.9956 -14.6304 -5.6633
# 4 -2.7202 -3.2899 8.9956 46.0525 6.5291 -5.4163
# 5 -12.0623 11.3055 -14.6304 6.5291 43.6357 -0.6225
# 6 -10.8201 -22.0857 -5.6633 -5.4163 -0.6225 28.1222
#
#
#
# Elastic Compliance Matrix: (Units=1/GPa)
#
#
# Indices 1 2 3 4 5 6 
#
# 1 0.020308 -0.002653 -0.002064 0.001303 0.005495 0.005687
# 2 -0.002653 0.016932 -0.003637 0.004160 -0.006788 0.012195
# 3 -0.002064 -0.003637 0.013955 -0.004084 0.005640 -0.001502
# 4 0.001303 0.004160 -0.004084 0.024577 -0.005656 0.007554
# 5 0.005495 -0.006788 0.005640 -0.005656 0.028896 -0.002531
# 6 0.005687 0.012195 -0.001502 0.007554 -0.002531 0.048421
#
#
# Mechanical properties :
#
#
# Convention : Reuss Voigt Hill
#
# Bulk Modulus (GPa) = 28.99753 36.80867 32.90310
# Shear Modulus (GPa) = 27.57963 35.76180 31.67071
#
# Velocity S-wave (km/s) = 3.60161 4.10121 3.85950
# Velocity P-wave (km/s) = 5.56183 6.30388 5.94444
#
# Compressibility (1/GPa) = 0.03448569
#
# Stress axis : x y z
#
# Youngs Moduli (GPa) = 49.24151 59.05919 71.66027
#
# Poissons Ratio (x) = 0.15669 0.14794
# Poissons Ratio (y) = 0.13065 0.26063
# Poissons Ratio (z) = 0.10166 0.21480
#
# Static dielectric constant tensor:
#      x y z
#    x 1.767210 0.010230 -0.006900 
#    y 0.010230 1.890470 -0.086410 
#    z -0.006900 -0.086410 1.835070 
# 
# From -- ./inp_files/95798.got.cif
#   From: 2010.05.17/outbox.cif.g08.bks.cpg/sg2_48_cif.got.tgz:95798.got - 2010.06.03 11:33:40.
