data_PCOD9038543
_publ_section_title
;
Structure prediction by ZEFSAII (Michael W. Deem and Ramdas Pophale) SiO2 
 PCOD9038543
Probable space group: P -1
;
_chemical_formula_sum "Si O2"
_cell_formula_units_Z 10
_cell_length_a 10.393224
_cell_length_b 12.723045
_cell_length_c 5.422885
_cell_angle_alpha 114.543471
_cell_angle_beta 120.460808
_cell_angle_gamma 42.715609
_cell_volume 418.171473
_symmetry_space_group_name_H-M "P -1"
_symmetry_group_IT_number 2
_symmetry_cell_setting 'triclinic'
loop_
_space_group_symop_operation_xyz
x,y,z
-x,-y,-z
loop_
_atom_site_type_symbol
_atom_site_label
_atom_site_fract_x
_atom_site_fract_y
_atom_site_fract_z
Si Si1 0.507230 0.571274 0.324905
Si Si2 0.214355 0.386203 0.221350
Si Si3 0.193882 0.156545 0.264384
Si Si4 0.420905 0.128922 0.845911
Si Si5 0.922474 0.102930 0.775761
O O1 0.500000 0.500000 0.500000
O O2 0.711510 0.540048 0.494714
O O3 0.389478 0.971542 0.248667
O O4 0.500000 0.500000 0.000000
O O5 0.221305 0.268331 0.280547
O O6 0.373540 0.277486 0.052302
O O7 0.000000 0.500000 0.000000
O O8 0.214461 0.179871 0.592912
O O9 0.316097 0.756431 0.322544
O O10 0.015780 0.182625 0.985033
O O11 0.500000 0.000000 0.000000
O O12 0.000000 0.000000 0.500000
O O13 0.000000 0.000000 0.000000
#
# Coordination Sequence:
#
# PCOD9038543 Si02
#       5
#     2   2   2   2   2
#     4  12  29  50  71 106 153 189 234 298 370 425
#     4  11  25  42  72  96 136 186 235 282 346 425
#     4  10  23  41  70  98 133 179 237 287 341 420
#     4   9  21  39  68  97 133 168 239 284 343 398
#     4  12  28  46  76 107 146 188 240 296 363 421
#
# _framework density 23.913634999999999
#
# number of rings (size 3 to 8) (size 9 to 14) (size 15 to 20)
#    0.000    1.200    0.000    3.600   19.600    0.800 
#    0.000    0.000    0.000    0.000    0.000    0.000 
#    0.000    0.000    0.000    0.000    0.000    0.000 
#
# Total GULP energy -55858.383519 kJ/mol
# GULP energy per Si atom -5585.838352 kJ/mol
# Density = 2.385921 g / cm^3
# Si number density = 23.913635 Si / 1000 Ang^3
#
#
#
# Elastic Constant Matrix: (Units=GPa)
#
#
# Indices 1 2 3 4 5 6 
#
# 1 56.1323 39.2274 51.0121 -4.2518 12.6589 -0.4427
# 2 39.2274 105.9351 58.8344 -17.4317 -2.6812 1.3723
# 3 51.0121 58.8344 203.1550 9.9297 14.3766 3.3049
# 4 -4.2518 -17.4317 9.9297 50.7010 3.8691 9.1182
# 5 12.6589 -2.6812 14.3766 3.8691 55.6900 4.4718
# 6 -0.4427 1.3723 3.3049 9.1182 4.4718 48.6393
#
#
#
# Elastic Compliance Matrix: (Units=1/GPa)
#
#
# Indices 1 2 3 4 5 6 
#
# 1 0.029190 -0.008336 -0.004545 0.000709 -0.006011 0.001229
# 2 -0.008336 0.014928 -0.002667 0.004997 0.003078 -0.001536
# 3 -0.004545 -0.002667 0.007015 -0.002637 -0.000733 0.000119
# 4 0.000709 0.004997 -0.002637 0.022808 -0.000488 -0.004186
# 5 -0.006011 0.003078 -0.000733 -0.000488 0.019841 -0.001824
# 6 0.001229 -0.001536 0.000119 -0.004186 -0.001824 0.021558
#
#
# Mechanical properties :
#
#
# Convention : Reuss Voigt Hill
#
# Bulk Modulus (GPa) = 49.90846 73.70779 61.80813
# Shear Modulus (GPa) = 32.65539 45.41595 39.03567
#
# Velocity S-wave (km/s) = 3.69935 4.36267 4.04463
# Velocity P-wave (km/s) = 6.25800 7.50111 6.90757
#
# Compressibility (1/GPa) = 0.02003668
#
# Stress axis : x y z
#
# Youngs Moduli (GPa) = 34.25834 66.98863 142.55762
#
# Poissons Ratio (x) = 0.55843 0.64787
# Poissons Ratio (y) = 0.28559 0.38021
# Poissons Ratio (z) = 0.15569 0.17866
#
# Static dielectric constant tensor:
#      x y z
#    x 2.110830 0.035170 -0.121570 
#    y 0.035170 1.913690 -0.024700 
#    z -0.121570 -0.024700 2.173510 
# 
# From -- ./inp_files/57960.got.cif
#   From: 2010.05.17/outbox.cif.g08.bks.cpg/sg2_29_cif.got.tgz:57960.got - 2010.06.03 11:33:40.
