data_PCOD9038514
_publ_section_title
;
Structure prediction by ZEFSAII (Michael W. Deem and Ramdas Pophale) SiO2 
 PCOD9038514
Probable space group: P -1
;
_chemical_formula_sum "Si O2"
_cell_formula_units_Z 14
_cell_length_a 16.314886
_cell_length_b 14.913582
_cell_length_c 19.124983
_cell_angle_alpha 161.647995
_cell_angle_beta 158.366482
_cell_angle_gamma 28.326178
_cell_volume 540.065402
_symmetry_space_group_name_H-M "P -1"
_symmetry_group_IT_number 2
_symmetry_cell_setting 'triclinic'
loop_
_space_group_symop_operation_xyz
x,y,z
-x,-y,-z
loop_
_atom_site_type_symbol
_atom_site_label
_atom_site_fract_x
_atom_site_fract_y
_atom_site_fract_z
Si Si1 0.110223 0.764751 0.601393
Si Si2 0.652262 0.269570 0.742032
Si Si3 0.502751 0.210348 0.242923
Si Si4 0.736555 0.878471 0.288263
Si Si5 0.760048 0.439011 0.802347
Si Si6 0.212163 0.112140 0.206435
Si Si7 0.011037 0.181991 0.302150
O O1 0.193497 0.448104 0.430250
O O2 0.964061 0.785572 0.570904
O O3 0.982244 0.817785 0.467216
O O4 0.297373 0.999105 0.939174
O O5 0.785323 0.394052 0.871516
O O6 0.439412 0.095366 0.416838
O O7 0.607457 0.574107 0.968652
O O8 0.799348 0.045917 0.734367
O O9 0.500000 0.500000 0.500000
O O10 0.426734 0.329126 0.194651
O O11 0.706929 0.027751 0.299481
O O12 0.672592 0.136281 0.479487
O O13 0.000000 0.500000 0.000000
O O14 0.199467 0.964604 0.011667
O O15 0.000000 0.000000 0.000000
O O16 0.000000 0.500000 0.500000
#
# Coordination Sequence:
#
# PCOD9038514 Si02
#       7
#     2   2   2   2   2   2   2
#     4  12  23  49  71 105 155 186 244 312 357 437
#     4  12  27  46  78 108 143 200 244 298 383 439
#     4  10  23  41  70 106 145 195 234 295 362 432
#     4  11  23  43  70 106 147 192 235 300 357 433
#     4  11  23  46  71 109 153 188 242 301 360 442
#     4  12  28  50  73 108 146 193 253 313 366 439
#     4  12  27  47  75 107 140 194 247 309 376 435
#
# _framework density 25.922789000000002
#
# number of rings (size 3 to 8) (size 9 to 14) (size 15 to 20)
#    0.000    0.571    7.143    0.000    4.000    2.286 
#    2.571    0.000    0.000    0.000    0.000    0.000 
#    0.000    0.000    0.000    0.000    0.000    0.000 
#
# Total GULP energy -78233.916146 kJ/mol
# GULP energy per Si atom -5588.136868 kJ/mol
# Density = 2.586379 g / cm^3
# Si number density = 25.922789 Si / 1000 Ang^3
#
#
#
# Elastic Constant Matrix: (Units=GPa)
#
#
# Indices 1 2 3 4 5 6 
#
# 1 75.8914 35.6150 21.7661 -10.0298 -4.3151 20.9444
# 2 35.6150 191.7781 62.9161 15.0387 2.3469 32.2772
# 3 21.7661 62.9161 169.2036 -5.0552 -18.3783 2.1167
# 4 -10.0298 15.0387 -5.0552 53.9128 -5.6142 -14.8391
# 5 -4.3151 2.3469 -18.3783 -5.6142 51.7363 -0.4288
# 6 20.9444 32.2772 2.1167 -14.8391 -0.4288 29.1186
#
#
#
# Elastic Compliance Matrix: (Units=1/GPa)
#
#
# Indices 1 2 3 4 5 6 
#
# 1 0.017211 -0.000775 -0.001690 0.000244 0.000803 -0.011261
# 2 -0.000775 0.009385 -0.003726 -0.007022 -0.002685 -0.013192
# 3 -0.001690 -0.003726 0.007895 0.003645 0.003284 0.006678
# 4 0.000244 -0.007022 0.003645 0.027254 0.004768 0.021303
# 5 0.000803 -0.002685 0.003284 0.004768 0.021242 0.004903
# 6 -0.011261 -0.013192 0.006678 0.021303 0.004903 0.067508
#
#
# Mechanical properties :
#
#
# Convention : Reuss Voigt Hill
#
# Bulk Modulus (GPa) = 45.23458 75.27416 60.25437
# Shear Modulus (GPa) = 29.36886 48.05861 38.71374
#
# Velocity S-wave (km/s) = 3.36956 4.31038 3.86868
# Velocity P-wave (km/s) = 5.71194 7.33985 6.57646
#
# Compressibility (1/GPa) = 0.02210698
#
# Stress axis : x y z
#
# Youngs Moduli (GPa) = 58.10194 106.55715 126.66167
#
# Poissons Ratio (x) = 0.08262 0.21409
# Poissons Ratio (y) = 0.04505 0.47197
# Poissons Ratio (z) = 0.09821 0.39706
#
# Static dielectric constant tensor:
#      x y z
#    x 2.182450 -0.023720 0.005050 
#    y -0.023720 2.037430 -0.036540 
#    z 0.005050 -0.036540 2.005350 
# 
# From -- ./inp_files/600333.got.cif
#   From: 2010.05.17/outbox.cif.g08.bks.cpg/sg2_301_cif.got.tgz:600333.got - 2010.06.03 11:33:40.
