data_PCOD9038810
_publ_section_title
;
Structure prediction by ZEFSAII (Michael W. Deem and Ramdas Pophale) SiO2 
 PCOD9038810
Probable space group: P -1
;
_chemical_formula_sum "Si O2"
_cell_formula_units_Z 16
_cell_length_a 22.948203
_cell_length_b 5.287773
_cell_length_c 8.715095
_cell_angle_alpha 90.290834
_cell_angle_beta 46.354427
_cell_angle_gamma 75.609931
_cell_volume 717.331289
_symmetry_space_group_name_H-M "P -1"
_symmetry_group_IT_number 2
_symmetry_cell_setting 'triclinic'
loop_
_space_group_symop_operation_xyz
x,y,z
-x,-y,-z
loop_
_atom_site_type_symbol
_atom_site_label
_atom_site_fract_x
_atom_site_fract_y
_atom_site_fract_z
Si Si1 0.732487 0.103951 0.478925
Si Si2 0.447998 0.915376 0.223780
Si Si3 0.408247 0.518523 0.835963
Si Si4 0.987926 0.263678 0.917969
Si Si5 0.775978 0.483662 0.860579
Si Si6 0.472573 0.230750 0.425476
Si Si7 0.790348 0.535316 0.194645
Si Si8 0.156646 0.075151 0.414783
O O1 0.767553 0.830452 0.312835
O O2 0.782650 0.042888 0.548289
O O3 0.630876 0.167499 0.686057
O O4 0.749638 0.347699 0.362988
O O5 0.516981 0.689521 0.199673
O O6 0.415443 0.168230 0.399982
O O7 0.500000 0.000000 0.000000
O O8 0.421370 0.482629 0.626026
O O9 0.436373 0.776779 0.810180
O O10 0.317670 0.495587 0.033972
O O11 0.060566 0.189255 0.655204
O O12 0.000000 0.500000 0.000000
O O13 0.892730 0.379312 0.023426
O O14 0.000000 0.000000 0.000000
O O15 0.813651 0.691873 0.712035
O O16 0.831975 0.172435 0.722435
O O17 0.767377 0.547755 0.056957
O O18 0.500000 0.000000 0.500000
#
# Coordination Sequence:
#
# PCOD9038810 Si02
#       8
#     2   2   2   2   2   2   2   2
#     4  12  26  45  73 103 140 186 247 281 346 423
#     4  11  25  40  62  96 133 179 231 292 335 395
#     4  10  23  42  63  90 134 188 223 282 344 406
#     4  12  23  48  78 106 140 182 230 275 362 422
#     4  12  28  43  72 106 148 180 235 292 356 399
#     4   9  21  39  62  87 120 182 232 274 339 404
#     4  12  26  48  75 108 135 187 234 293 337 434
#     4  12  26  47  71 108 142 185 223 299 353 425
#
# _framework density 22.304895999999999
#
# number of rings (size 3 to 8) (size 9 to 14) (size 15 to 20)
#    0.000    0.750    2.500    3.750   12.250    1.500 
#    0.000    0.000    0.000    0.000    0.000    0.000 
#    0.000    0.000    0.000    0.000    0.000    0.000 
#
# Total GULP energy -89467.293159 kJ/mol
# GULP energy per Si atom -5591.705822 kJ/mol
# Density = 2.225413 g / cm^3
# Si number density = 22.304896 Si / 1000 Ang^3
#
#
#
# Elastic Constant Matrix: (Units=GPa)
#
#
# Indices 1 2 3 4 5 6 
#
# 1 80.6644 10.0780 19.5521 -9.5258 -11.7621 -7.7154
# 2 10.0780 123.5113 34.6562 -23.5416 -2.7070 14.0463
# 3 19.5521 34.6562 101.4460 -26.4806 -16.6742 0.5765
# 4 -9.5258 -23.5416 -26.4806 49.5603 9.6603 -0.0394
# 5 -11.7621 -2.7070 -16.6742 9.6603 45.2930 10.4010
# 6 -7.7154 14.0463 0.5765 -0.0394 10.4010 32.0080
#
#
#
# Elastic Compliance Matrix: (Units=1/GPa)
#
#
# Indices 1 2 3 4 5 6 
#
# 1 0.013609 -0.000719 -0.001838 0.000919 0.001929 0.003003
# 2 -0.000719 0.009967 -0.002395 0.003345 -0.000165 -0.004446
# 3 -0.001838 -0.002395 0.012797 0.004715 0.003239 -0.000669
# 4 0.000919 0.003345 0.004715 0.025067 -0.003105 -0.000291
# 5 0.001929 -0.000165 0.003239 -0.003105 0.026276 -0.008063
# 6 0.003003 -0.004446 -0.000669 -0.000291 -0.008063 0.036549
#
#
# Mechanical properties :
#
#
# Convention : Reuss Voigt Hill
#
# Bulk Modulus (GPa) = 37.77913 48.24381 43.01147
# Shear Modulus (GPa) = 34.96728 41.46128 38.21428
#
# Velocity S-wave (km/s) = 3.96371 4.31611 4.14366
# Velocity P-wave (km/s) = 6.15811 6.82016 6.49757
#
# Compressibility (1/GPa) = 0.02646964
#
# Stress axis : x y z
#
# Youngs Moduli (GPa) = 73.47901 100.33404 78.14558
#
# Poissons Ratio (x) = 0.07214 0.14359
# Poissons Ratio (y) = 0.05283 0.18716
# Poissons Ratio (z) = 0.13502 0.24030
#
# Static dielectric constant tensor:
#      x y z
#    x 1.824540 0.035420 -0.001530 
#    y 0.035420 2.022720 0.067940 
#    z -0.001530 0.067940 1.869200 
# 
# From -- ./inp_files/340396.got.cif
#   From: 2010.05.17/outbox.cif.g08.bks.cpg/sg2_171_cif.got.tgz:340396.got - 2010.06.03 11:33:40.
