data_PCOD9038711
_publ_section_title
;
Structure prediction by ZEFSAII (Michael W. Deem and Ramdas Pophale) SiO2 
 PCOD9038711
Probable space group: P -1
;
_chemical_formula_sum "Si O2"
_cell_formula_units_Z 16
_cell_length_a 14.091406
_cell_length_b 8.759013
_cell_length_c 9.109912
_cell_angle_alpha 69.549298
_cell_angle_beta 66.233889
_cell_angle_gamma 47.663511
_cell_volume 755.609395
_symmetry_space_group_name_H-M "P -1"
_symmetry_group_IT_number 2
_symmetry_cell_setting 'triclinic'
loop_
_space_group_symop_operation_xyz
x,y,z
-x,-y,-z
loop_
_atom_site_type_symbol
_atom_site_label
_atom_site_fract_x
_atom_site_fract_y
_atom_site_fract_z
Si Si1 0.548180 0.497629 0.305156
Si Si2 0.329804 0.934746 0.624430
Si Si3 0.585372 0.630317 0.725710
Si Si4 0.158217 0.029832 0.428485
Si Si5 0.151991 0.328037 0.126853
Si Si6 0.853940 0.338453 0.515425
Si Si7 0.140867 0.356874 0.776345
Si Si8 0.418044 0.241638 0.999924
O O1 0.500000 0.500000 0.500000
O O2 0.439069 0.533204 0.249397
O O3 0.574481 0.652901 0.184673
O O4 0.672919 0.257403 0.274865
O O5 0.270035 0.993608 0.478786
O O6 0.240204 0.139897 0.706275
O O7 0.484230 0.816867 0.609752
O O8 0.738897 0.509935 0.638888
O O9 0.539258 0.713694 0.890214
O O10 0.169328 0.128431 0.243388
O O11 0.006029 0.202474 0.520770
O O12 0.170282 0.825160 0.461711
O O13 0.011883 0.528987 0.205330
O O14 0.152439 0.325074 0.952509
O O15 0.270166 0.328952 0.095870
O O16 0.838105 0.476935 0.341922
O O17 0.500000 0.000000 0.000000
#
# Coordination Sequence:
#
# PCOD9038711 Si02
#       8
#     2   2   2   2   2   2   2   2
#     4  10  25  46  67  97 133 176 217 278 331 396
#     4  10  24  40  69  94 138 164 226 268 338 375
#     4  10  25  42  67 100 133 171 220 279 323 395
#     4  10  23  44  66 100 131 182 212 278 323 405
#     4  10  25  41  68  92 139 171 226 267 340 382
#     4  10  23  41  74  94 134 172 235 257 336 389
#     4  10  23  45  65  96 131 180 218 280 318 403
#     4  12  27  43  69  99 134 175 225 273 336 394
#
# _framework density 21.174962000000001
#
# number of rings (size 3 to 8) (size 9 to 14) (size 15 to 20)
#    0.750    1.000    0.000    1.875   10.500    2.500 
#    0.000    0.625    0.000    0.000    0.000    0.000 
#    0.000    0.000    0.000    0.000    0.000    0.000 
#
# Total GULP energy -89169.740252 kJ/mol
# GULP energy per Si atom -5573.108766 kJ/mol
# Density = 2.112677 g / cm^3
# Si number density = 21.174962 Si / 1000 Ang^3
#
#
#
# Elastic Constant Matrix: (Units=GPa)
#
#
# Indices 1 2 3 4 5 6 
#
# 1 65.9172 35.2712 39.6248 0.0522 0.3243 -6.4785
# 2 35.2712 148.7627 70.0082 -10.1254 -8.0230 -6.1499
# 3 39.6248 70.0082 114.5632 -11.5710 -8.4838 7.1530
# 4 0.0522 -10.1254 -11.5710 31.2232 7.2059 -3.2839
# 5 0.3243 -8.0230 -8.4838 7.2059 29.1561 -3.7580
# 6 -6.4785 -6.1499 7.1530 -3.2839 -3.7580 28.4241
#
#
#
# Elastic Compliance Matrix: (Units=1/GPa)
#
#
# Indices 1 2 3 4 5 6 
#
# 1 0.020738 -0.001706 -0.006808 -0.002192 -0.001413 0.005631
# 2 -0.001706 0.010032 -0.005534 0.001272 0.001305 0.003494
# 3 -0.006808 -0.005534 0.015245 0.002885 0.001496 -0.006054
# 4 -0.002192 0.001272 0.002885 0.035417 -0.007258 0.002182
# 5 -0.001413 0.001305 0.001496 -0.007258 0.037377 0.003687
# 6 0.005631 0.003494 -0.006054 0.002182 0.003687 0.039484
#
#
# Mechanical properties :
#
#
# Convention : Reuss Voigt Hill
#
# Bulk Modulus (GPa) = 55.80209 68.78350 62.29280
# Shear Modulus (GPa) = 25.99271 30.04993 28.02132
#
# Velocity S-wave (km/s) = 3.50740 3.77122 3.64170
# Velocity P-wave (km/s) = 6.54313 7.17751 6.86765
#
# Compressibility (1/GPa) = 0.01792047
#
# Stress axis : x y z
#
# Youngs Moduli (GPa) = 48.22098 99.68086 65.59436
#
# Poissons Ratio (x) = 0.17002 0.44657
# Poissons Ratio (y) = 0.08225 0.36297
# Poissons Ratio (z) = 0.32829 0.55159
#
# Static dielectric constant tensor:
#      x y z
#    x 1.857600 -0.025880 0.001100 
#    y -0.025880 1.785970 -0.009060 
#    z 0.001100 -0.009060 1.759600 
# 
# From -- ./inp_files/297845.got.cif
#   From: 2010.05.17/outbox.cif.g08.bks.cpg/sg2_149_cif.got.tgz:297845.got - 2010.06.03 11:33:40.
