data_PCOD9038688
_publ_section_title
;
Structure prediction by ZEFSAII (Michael W. Deem and Ramdas Pophale) SiO2 
 PCOD9038688
Probable space group: P -1
;
_chemical_formula_sum "Si O2"
_cell_formula_units_Z 16
_cell_length_a 30.199698
_cell_length_b 24.289611
_cell_length_c 5.344683
_cell_angle_alpha 98.461709
_cell_angle_beta 80.394588
_cell_angle_gamma 169.805108
_cell_volume 680.909634
_symmetry_space_group_name_H-M "P -1"
_symmetry_group_IT_number 2
_symmetry_cell_setting 'triclinic'
loop_
_space_group_symop_operation_xyz
x,y,z
-x,-y,-z
loop_
_atom_site_type_symbol
_atom_site_label
_atom_site_fract_x
_atom_site_fract_y
_atom_site_fract_z
Si Si1 0.107412 0.427983 0.972614
Si Si2 0.953402 0.783657 0.542283
Si Si3 0.325208 0.147548 0.665476
Si Si4 0.219357 0.629249 0.506261
Si Si5 0.876287 0.368912 0.281384
Si Si6 0.820463 0.737127 0.862607
Si Si7 0.449482 0.668871 0.761899
Si Si8 0.528943 0.205482 0.880888
O O1 0.157406 0.534988 0.217820
O O2 0.340092 0.670079 0.944726
O O3 0.140450 0.488326 0.697394
O O4 0.860825 0.094217 0.086315
O O5 0.805941 0.615241 0.306748
O O6 0.737776 0.489082 0.704077
O O7 0.974175 0.872720 0.684524
O O8 0.192732 0.034475 0.543287
O O9 0.377850 0.152476 0.481099
O O10 0.611404 0.510475 0.726421
O O11 0.081208 0.514586 0.659982
O O12 0.500000 0.000000 0.500000
O O13 0.000000 0.500000 0.500000
O O14 0.612448 0.014402 0.286483
O O15 0.000000 0.500000 0.000000
O O16 0.651190 0.501077 0.073523
O O17 0.000000 0.000000 0.000000
O O18 0.596018 0.893749 0.935951
#
# Coordination Sequence:
#
# PCOD9038688 Si02
#       8
#     2   2   2   2   2   2   2   2
#     4  11  26  43  74  97 137 182 237 298 352 423
#     4   9  22  43  66 101 134 178 235 287 355 421
#     4  10  24  43  69 106 136 185 241 287 359 426
#     4  12  26  46  67  97 133 183 234 288 358 417
#     4  12  29  43  63  96 137 180 233 294 358 421
#     4  10  23  44  67 101 147 183 228 291 354 426
#     4  10  23  41  73  96 139 180 236 285 356 427
#     4  10  24  43  66  93 132 179 227 291 357 420
#
# _framework density 23.497978
#
# number of rings (size 3 to 8) (size 9 to 14) (size 15 to 20)
#    0.000    1.500    1.250    1.125   10.500    8.500 
#    0.000    1.250    0.000    0.000    0.000    0.000 
#    0.000    0.000    0.000    0.000    0.000    0.000 
#
# Total GULP energy -89202.797191 kJ/mol
# GULP energy per Si atom -5575.174824 kJ/mol
# Density = 2.344450 g / cm^3
# Si number density = 23.497978 Si / 1000 Ang^3
#
#
#
# Elastic Constant Matrix: (Units=GPa)
#
#
# Indices 1 2 3 4 5 6 
#
# 1 103.9328 37.7177 20.9092 19.9515 -4.8402 8.8949
# 2 37.7177 80.0923 9.6314 27.5314 -11.5087 9.1002
# 3 20.9092 9.6314 88.1523 7.4451 -6.4746 7.0604
# 4 19.9515 27.5314 7.4451 38.8838 -1.9364 -4.2437
# 5 -4.8402 -11.5087 -6.4746 -1.9364 43.4122 18.4779
# 6 8.8949 9.1002 7.0604 -4.2437 18.4779 36.7853
#
#
#
# Elastic Compliance Matrix: (Units=1/GPa)
#
#
# Indices 1 2 3 4 5 6 
#
# 1 0.012372 -0.004028 -0.001946 -0.003347 0.000924 -0.002472
# 2 -0.004028 0.021829 0.001396 -0.014399 0.009678 -0.011217
# 3 -0.001946 0.001396 0.012522 -0.002689 0.003819 -0.004506
# 4 -0.003347 -0.014399 -0.002689 0.039216 -0.008710 0.013787
# 5 0.000924 0.009678 0.003819 -0.008710 0.035282 -0.022078
# 6 -0.002472 -0.011217 -0.004506 0.013787 -0.022078 0.044103
#
#
# Mechanical properties :
#
#
# Convention : Reuss Voigt Hill
#
# Bulk Modulus (GPa) = 26.61954 45.41043 36.01499
# Shear Modulus (GPa) = 26.73762 37.41088 32.07425
#
# Velocity S-wave (km/s) = 3.37689 3.99443 3.69857
# Velocity P-wave (km/s) = 5.15340 6.37504 5.79649
#
# Compressibility (1/GPa) = 0.03756638
#
# Stress axis : x y z
#
# Youngs Moduli (GPa) = 80.82740 45.81018 79.86215
#
# Poissons Ratio (x) = 0.18452 0.15540
# Poissons Ratio (y) = 0.32557 -0.11146
# Poissons Ratio (z) = 0.15728 -0.06393
#
# Static dielectric constant tensor:
#      x y z
#    x 1.824690 0.172190 0.070130 
#    y 0.172190 1.819740 -0.259590 
#    z 0.070130 -0.259590 1.524900 
# 
# From -- ./inp_files/128847.got.cif
#   From: 2010.05.17/outbox.cif.g08.bks.cpg/sg2_65_cif.got.tgz:128847.got - 2010.06.03 11:33:40.
