data_PCOD9038114
_publ_section_title
;
Structure prediction by ZEFSAII (Michael W. Deem and Ramdas Pophale) SiO2 
 PCOD9038114
Probable space group: P -1
;
_chemical_formula_sum "Si O2"
_cell_formula_units_Z 16
_cell_length_a 18.117400
_cell_length_b 9.008242
_cell_length_c 12.336874
_cell_angle_alpha 76.633928
_cell_angle_beta 145.325204
_cell_angle_gamma 126.408569
_cell_volume 763.039321
_symmetry_space_group_name_H-M "P -1"
_symmetry_group_IT_number 2
_symmetry_cell_setting 'triclinic'
loop_
_space_group_symop_operation_xyz
x,y,z
-x,-y,-z
loop_
_atom_site_type_symbol
_atom_site_label
_atom_site_fract_x
_atom_site_fract_y
_atom_site_fract_z
Si Si1 0.689837 0.755213 0.174671
Si Si2 0.075564 0.889630 0.112431
Si Si3 0.940930 0.587465 0.796593
Si Si4 0.013302 0.933970 0.675923
Si Si5 0.742267 0.273726 0.003989
Si Si6 0.388912 0.947256 0.483416
Si Si7 0.700724 0.090431 0.211870
Si Si8 0.001372 0.257065 0.710703
O O1 0.863774 0.801259 0.419121
O O2 0.664114 0.879283 0.198049
O O3 0.500000 0.500000 0.000000
O O4 0.770265 0.888694 0.135454
O O5 0.293722 0.031139 0.329077
O O6 0.061368 0.821875 0.229449
O O7 0.972108 0.685977 0.937491
O O8 0.000000 0.000000 0.000000
O O9 0.937192 0.739158 0.696020
O O10 0.766063 0.319512 0.635034
O O11 0.115401 0.652082 0.934445
O O12 0.006764 0.095478 0.692654
O O13 0.774586 0.203371 0.163678
O O14 0.796660 0.488255 0.075998
O O15 0.533093 0.081195 0.735444
O O16 0.500000 0.000000 0.500000
O O17 0.858348 0.241117 0.470961
O O18 0.500000 0.000000 0.000000
#
# Coordination Sequence:
#
# PCOD9038114 Si02
#       8
#     2   2   2   2   2   2   2   2
#     4  10  23  41  66  95 143 181 228 281 345 420
#     4  12  24  47  73 101 144 187 233 296 359 421
#     4  12  24  45  76  99 141 186 241 292 361 424
#     4  10  23  43  65 101 135 184 229 281 353 421
#     4  12  25  45  73 103 142 185 238 296 360 426
#     4  12  26  46  74 107 140 186 246 296 353 431
#     4  11  25  42  68 107 138 186 237 283 358 427
#     4  11  24  46  69 100 144 181 229 299 352 420
#
# _framework density 20.968775000000001
#
# number of rings (size 3 to 8) (size 9 to 14) (size 15 to 20)
#    0.000    0.750    5.000    2.250    3.500    0.000 
#    0.000    3.750    0.000    0.000    0.000    0.000 
#    0.000    0.000    0.000    0.000    0.000    0.000 
#
# Total GULP energy -89168.740643 kJ/mol
# GULP energy per Si atom -5573.046290 kJ/mol
# Density = 2.092105 g / cm^3
# Si number density = 20.968775 Si / 1000 Ang^3
#
#
#
# Elastic Constant Matrix: (Units=GPa)
#
#
# Indices 1 2 3 4 5 6 
#
# 1 97.6627 49.3844 47.0387 0.1805 1.3949 7.6797
# 2 49.3844 111.1193 69.0755 7.5043 2.5960 -2.9245
# 3 47.0387 69.0755 142.3853 10.5382 -7.2827 5.9487
# 4 0.1805 7.5043 10.5382 40.3908 4.4608 -1.0705
# 5 1.3949 2.5960 -7.2827 4.4608 32.0830 -3.0506
# 6 7.6797 -2.9245 5.9487 -1.0705 -3.0506 37.3236
#
#
#
# Elastic Compliance Matrix: (Units=1/GPa)
#
#
# Indices 1 2 3 4 5 6 
#
# 1 0.014123 -0.005008 -0.002286 0.001520 -0.001223 -0.002990
# 2 -0.005008 0.014999 -0.005770 -0.000972 -0.001891 0.002943
# 3 -0.002286 -0.005770 0.010967 -0.002174 0.003213 -0.001529
# 4 0.001520 -0.000972 -0.002174 0.025957 -0.004055 0.000371
# 5 -0.001223 -0.001891 0.003213 -0.004055 0.032874 0.002162
# 6 -0.002990 0.002943 -0.001529 0.000371 0.002162 0.028070
#
#
# Mechanical properties :
#
#
# Convention : Reuss Voigt Hill
#
# Bulk Modulus (GPa) = 71.63091 75.79606 73.71348
# Shear Modulus (GPa) = 31.69171 34.33740 33.01455
#
# Velocity S-wave (km/s) = 3.89186 4.05105 3.97225
# Velocity P-wave (km/s) = 7.37769 7.62279 7.50124
#
# Compressibility (1/GPa) = 0.01396045
#
# Stress axis : x y z
#
# Youngs Moduli (GPa) = 70.80831 66.67127 91.18576
#
# Poissons Ratio (x) = 0.33390 0.20846
# Poissons Ratio (y) = 0.35462 0.52611
# Poissons Ratio (z) = 0.16188 0.38467
#
# Static dielectric constant tensor:
#      x y z
#    x 1.791460 -0.002300 0.012830 
#    y -0.002300 1.795280 -0.036020 
#    z 0.012830 -0.036020 1.797950 
# 
# From -- ./inp_files/345673.got.cif
#   From: 2010.05.17/outbox.cif.g08.bks.cpg/sg2_173_cif.got.tgz:345673.got - 2010.06.03 11:33:40.
