data_PCOD9038946
_publ_section_title
;
Structure prediction by ZEFSAII (Michael W. Deem and Ramdas Pophale) SiO2 
 PCOD9038946
Probable space group: P -1
;
_chemical_formula_sum "Si O2"
_cell_formula_units_Z 16
_cell_length_a 13.540428
_cell_length_b 14.608449
_cell_length_c 11.778527
_cell_angle_alpha 152.201208
_cell_angle_beta 112.464216
_cell_angle_gamma 50.201299
_cell_volume 716.169611
_symmetry_space_group_name_H-M "P -1"
_symmetry_group_IT_number 2
_symmetry_cell_setting 'triclinic'
loop_
_space_group_symop_operation_xyz
x,y,z
-x,-y,-z
loop_
_atom_site_type_symbol
_atom_site_label
_atom_site_fract_x
_atom_site_fract_y
_atom_site_fract_z
Si Si1 0.158109 0.846917 0.055262
Si Si2 0.329011 0.177763 0.668634
Si Si3 0.372342 0.030272 0.036606
Si Si4 0.766207 0.191016 0.339530
Si Si5 0.885736 0.342543 0.377090
Si Si6 0.048583 0.828812 0.216314
Si Si7 0.572722 0.312922 0.935781
Si Si8 0.419187 0.269651 0.004310
O O1 0.114384 0.886044 0.210290
O O2 0.333557 0.656884 0.916048
O O3 0.123763 0.696305 0.802285
O O4 0.054879 0.143113 0.275604
O O5 0.500000 0.000000 0.500000
O O6 0.307951 0.998101 0.401161
O O7 0.185030 0.499731 0.934421
O O8 0.353221 0.160438 0.796382
O O9 0.217255 0.342511 0.296206
O O10 0.500000 0.000000 0.000000
O O11 0.345915 0.843231 0.775552
O O12 0.426424 0.958556 0.112103
O O13 0.826099 0.224836 0.289813
O O14 0.687808 0.473683 0.678881
O O15 0.898887 0.947038 0.214339
O O16 0.000000 0.000000 0.500000
O O17 0.500000 0.500000 0.000000
O O18 0.448208 0.375121 0.026903
#
# Coordination Sequence:
#
# PCOD9038946 Si02
#       8
#     2   2   2   2   2   2   2   2
#     4  10  23  44  65  93 138 178 227 282 347 413
#     4  10  23  42  65 101 132 180 230 278 350 415
#     4  12  26  40  71 100 137 180 234 284 343 412
#     4  11  24  45  68 103 144 181 229 284 360 404
#     4  10  24  45  65  99 137 181 228 287 338 413
#     4  11  23  45  72  98 140 181 224 297 351 417
#     4  11  25  40  69  99 136 181 236 288 346 417
#     4  11  23  43  66  97 142 179 232 290 346 412
#
# _framework density 22.341076000000001
#
# number of rings (size 3 to 8) (size 9 to 14) (size 15 to 20)
#    0.000    1.250    2.500    2.625    8.750    0.000 
#    0.000    3.125    0.000    0.000    0.000    0.000 
#    0.000    0.000    0.000    0.000    0.000    0.000 
#
# Total GULP energy -89213.422143 kJ/mol
# GULP energy per Si atom -5575.838884 kJ/mol
# Density = 2.229023 g / cm^3
# Si number density = 22.341076 Si / 1000 Ang^3
#
#
#
# Elastic Constant Matrix: (Units=GPa)
#
#
# Indices 1 2 3 4 5 6 
#
# 1 40.9453 5.4783 -7.7187 -12.2023 -3.8394 2.9214
# 2 5.4783 108.1831 15.7200 7.7003 2.3487 -3.6632
# 3 -7.7187 15.7200 103.7946 5.9702 -15.8703 8.2357
# 4 -12.2023 7.7003 5.9702 44.0550 -2.1092 -8.7146
# 5 -3.8394 2.3487 -15.8703 -2.1092 19.0066 -5.1414
# 6 2.9214 -3.6632 8.2357 -8.7146 -5.1414 34.0828
#
#
#
# Elastic Compliance Matrix: (Units=1/GPa)
#
#
# Indices 1 2 3 4 5 6 
#
# 1 0.028984 -0.002825 0.003650 0.008526 0.010211 0.000050
# 2 -0.002825 0.009974 -0.002214 -0.002263 -0.003711 0.000711
# 3 0.003650 -0.002214 0.012004 -0.000100 0.010512 -0.001891
# 4 0.008526 -0.002263 -0.000100 0.027188 0.006838 0.007033
# 5 0.010211 -0.003711 0.010512 0.006838 0.066839 0.008017
# 6 0.000050 0.000711 -0.001891 0.007033 0.008017 0.032877
#
#
# Mechanical properties :
#
#
# Convention : Reuss Voigt Hill
#
# Bulk Modulus (GPa) = 20.75390 31.09804 25.92597
# Shear Modulus (GPa) = 25.41868 35.39179 30.40524
#
# Velocity S-wave (km/s) = 3.37672 3.98447 3.69312
# Velocity P-wave (km/s) = 4.95103 5.92603 5.46034
#
# Compressibility (1/GPa) = 0.04818371
#
# Stress axis : x y z
#
# Youngs Moduli (GPa) = 34.50224 100.25966 83.30373
#
# Poissons Ratio (x) = 0.28323 -0.30407
# Poissons Ratio (y) = 0.09747 0.18446
# Poissons Ratio (z) = -0.12594 0.22201
#
# Static dielectric constant tensor:
#      x y z
#    x 1.935300 -0.064980 0.038480 
#    y -0.064980 1.890530 -0.032550 
#    z 0.038480 -0.032550 1.861550 
# 
# From -- ./inp_files/455252.got.cif
#   From: 2010.05.17/outbox.cif.g08.bks.cpg/sg2_228_cif.got.tgz:455252.got - 2010.06.03 11:33:40.
