data_PCOD9038973
_publ_section_title
;
Structure prediction by ZEFSAII (Michael W. Deem and Ramdas Pophale) SiO2 
 PCOD9038973
Probable space group: P -1
;
_chemical_formula_sum "Si O2"
_cell_formula_units_Z 14
_cell_length_a 8.655854
_cell_length_b 7.571663
_cell_length_c 19.619330
_cell_angle_alpha 108.125528
_cell_angle_beta 148.176838
_cell_angle_gamma 83.436403
_cell_volume 614.819967
_symmetry_space_group_name_H-M "P -1"
_symmetry_group_IT_number 2
_symmetry_cell_setting 'triclinic'
loop_
_space_group_symop_operation_xyz
x,y,z
-x,-y,-z
loop_
_atom_site_type_symbol
_atom_site_label
_atom_site_fract_x
_atom_site_fract_y
_atom_site_fract_z
Si Si1 0.295381 0.731990 0.201175
Si Si2 0.340709 0.468051 0.863838
Si Si3 0.745593 0.672758 0.908638
Si Si4 0.842431 0.637123 0.651568
Si Si5 0.424169 0.027641 0.396419
Si Si6 0.142832 0.691148 0.623324
Si Si7 0.099469 0.118327 0.637463
O O1 0.183177 0.499858 0.128261
O O2 0.641364 0.787319 0.309248
O O3 0.294022 0.824953 0.284830
O O4 0.073882 0.804098 0.075150
O O5 0.563247 0.583380 0.899751
O O6 0.222561 0.243623 0.767028
O O7 0.051413 0.552231 0.767923
O O8 0.500000 0.500000 0.000000
O O9 0.507169 0.738836 0.780470
O O10 0.500000 0.500000 0.500000
O O11 0.807161 0.845858 0.682176
O O12 0.987578 0.640939 0.632400
O O13 0.757414 0.133022 0.499917
O O14 0.500000 0.000000 0.500000
O O15 0.000000 0.500000 0.500000
O O16 0.078198 0.892140 0.604106
#
# Coordination Sequence:
#
# PCOD9038973 Si02
#       7
#     2   2   2   2   2   2   2
#     4  10  23  42  65  91 132 178 217 272 326 400
#     4  10  23  43  69  94 135 175 218 280 332 392
#     4   9  22  43  65  94 130 175 223 263 335 394
#     4  11  24  42  63  99 131 167 222 269 333 390
#     4  12  24  40  67  99 132 174 222 276 330 392
#     4  11  24  42  67  96 132 171 220 278 326 400
#     4  11  23  42  64  96 131 173 225 264 338 389
#
# _framework density 22.770893999999998
#
# number of rings (size 3 to 8) (size 9 to 14) (size 15 to 20)
#    0.000    1.429    2.857    1.286    4.000    1.714 
#    5.143    2.857    0.000    0.000    0.000    0.000 
#    0.000    0.000    0.000    0.000    0.000    0.000 
#
# Total GULP energy -78269.487649 kJ/mol
# GULP energy per Si atom -5590.677689 kJ/mol
# Density = 2.271907 g / cm^3
# Si number density = 22.770894 Si / 1000 Ang^3
#
#
#
# Elastic Constant Matrix: (Units=GPa)
#
#
# Indices 1 2 3 4 5 6 
#
# 1 63.4865 38.0193 48.6627 1.6329 -13.0365 -28.8908
# 2 38.0193 119.3049 57.7209 -11.5220 -21.6413 -33.2422
# 3 48.6627 57.7209 144.8787 -18.0034 -22.6510 -25.9213
# 4 1.6329 -11.5220 -18.0034 41.1194 -15.1161 4.3934
# 5 -13.0365 -21.6413 -22.6510 -15.1161 47.4319 9.4212
# 6 -28.8908 -33.2422 -25.9213 4.3934 9.4212 35.4270
#
#
#
# Elastic Compliance Matrix: (Units=1/GPa)
#
#
# Indices 1 2 3 4 5 6 
#
# 1 0.031620 -0.002071 -0.007639 -0.008223 -0.002482 0.019933
# 2 -0.002071 0.013311 -0.002151 0.003546 0.004077 0.007703
# 3 -0.007639 -0.002151 0.011616 0.006843 0.005031 -0.001936
# 4 -0.008223 0.003546 0.006843 0.034896 0.015079 -0.006710
# 5 -0.002482 0.004077 0.005031 0.015079 0.030355 -0.004460
# 6 0.019933 0.007703 -0.001936 -0.006710 -0.004460 0.052313
#
#
# Mechanical properties :
#
#
# Convention : Reuss Voigt Hill
#
# Bulk Modulus (GPa) = 30.46551 68.49730 49.48141
# Shear Modulus (GPa) = 23.94938 37.01345 30.48142
#
# Velocity S-wave (km/s) = 3.24659 4.03609 3.66268
# Velocity P-wave (km/s) = 5.24042 7.20183 6.29795
#
# Compressibility (1/GPa) = 0.03282401
#
# Stress axis : x y z
#
# Youngs Moduli (GPa) = 31.62581 75.12589 86.08912
#
# Poissons Ratio (x) = 0.15557 0.65764
# Poissons Ratio (y) = 0.06549 0.18521
# Poissons Ratio (z) = 0.24159 0.16163
#
# Static dielectric constant tensor:
#      x y z
#    x 1.884880 0.049600 0.032080 
#    y 0.049600 1.941780 -0.025350 
#    z 0.032080 -0.025350 1.906440 
# 
# From -- ./inp_files/184889.got.cif
#   From: 2010.05.17/outbox.cif.g08.bks.cpg/sg2_93_cif.got.tgz:184889.got - 2010.06.03 11:33:40.
