data_PCOD9038205
_publ_section_title
;
Structure prediction by ZEFSAII (Michael W. Deem and Ramdas Pophale) SiO2 
 PCOD9038205
Probable space group: P -1
;
_chemical_formula_sum "Si O2"
_cell_formula_units_Z 16
_cell_length_a 9.117574
_cell_length_b 18.669554
_cell_length_c 19.152310
_cell_angle_alpha 28.662809
_cell_angle_beta 25.143322
_cell_angle_gamma 33.986966
_cell_volume 654.619699
_symmetry_space_group_name_H-M "P -1"
_symmetry_group_IT_number 2
_symmetry_cell_setting 'triclinic'
loop_
_space_group_symop_operation_xyz
x,y,z
-x,-y,-z
loop_
_atom_site_type_symbol
_atom_site_label
_atom_site_fract_x
_atom_site_fract_y
_atom_site_fract_z
Si Si1 0.419641 0.907175 0.323339
Si Si2 0.220284 0.681327 0.838554
Si Si3 0.188827 0.632783 0.597006
Si Si4 0.755651 0.353156 0.599079
Si Si5 0.416199 0.958343 0.440999
Si Si6 0.400658 0.812777 0.063537
Si Si7 0.396692 0.729628 0.878836
Si Si8 0.746555 0.411582 0.798501
O O1 0.438601 0.736500 0.436261
O O2 0.522450 0.919528 0.348731
O O3 0.001368 0.972555 0.441170
O O4 0.618027 0.014522 0.099593
O O5 0.432213 0.808893 0.607881
O O6 0.292207 0.674924 0.895629
O O7 0.370943 0.523423 0.871330
O O8 0.813586 0.739968 0.949692
O O9 0.374243 0.459739 0.668512
O O10 0.142726 0.684859 0.491855
O O11 0.808685 0.663209 0.768855
O O12 0.748690 0.215910 0.771774
O O13 0.998006 0.467941 0.425073
O O14 0.616708 0.089273 0.270002
O O15 0.243981 0.713587 0.157807
O O16 0.196290 0.670784 0.080335
#
# Coordination Sequence:
#
# PCOD9038205 Si02
#       8
#     2   2   2   2   2   2   2   2
#     4   9  19  40  64  92 120 166 205 258 311 365
#     4  11  23  36  66  99 120 163 209 260 313 363
#     4  10  23  41  67  90 126 169 203 258 312 368
#     4  11  25  42  61  90 130 172 207 249 309 374
#     4   9  19  37  63  94 128 154 205 261 316 360
#     4  11  24  42  63  92 129 163 209 257 310 371
#     4  11  21  41  66  96 127 158 210 260 309 368
#     4  12  24  41  63  94 128 165 209 260 307 366
#
# _framework density 24.441672000000001
#
# number of rings (size 3 to 8) (size 9 to 14) (size 15 to 20)
#    0.000    1.500    2.500    2.250    7.000    0.500 
#    0.000    1.875    0.000    0.000    0.000    0.000 
#    0.000    0.000    0.000    0.000    0.000    0.000 
#
# Total GULP energy -89674.278149 kJ/mol
# GULP energy per Si atom -5604.642384 kJ/mol
# Density = 2.438604 g / cm^3
# Si number density = 24.441672 Si / 1000 Ang^3
#
#
#
# Elastic Constant Matrix: (Units=GPa)
#
#
# Indices 1 2 3 4 5 6 
#
# 1 48.4371 -2.7326 21.1333 0.8368 -3.2318 0.7462
# 2 -2.7326 64.8478 9.0941 -4.3763 -0.7300 0.5211
# 3 21.1333 9.0941 146.3506 -8.5066 19.3888 2.5505
# 4 0.8368 -4.3763 -8.5066 27.5205 -1.2186 -7.5708
# 5 -3.2318 -0.7300 19.3888 -1.2186 47.2678 -5.4229
# 6 0.7462 0.5211 2.5505 -7.5708 -5.4229 28.9453
#
#
#
# Elastic Compliance Matrix: (Units=1/GPa)
#
#
# Indices 1 2 3 4 5 6 
#
# 1 0.022644 0.001427 -0.003857 -0.001542 0.003102 -0.000092
# 2 0.001427 0.015809 -0.001191 0.002300 0.000954 0.000564
# 3 -0.003857 -0.001191 0.008077 0.002063 -0.003626 -0.000731
# 4 -0.001542 0.002300 0.002063 0.040370 0.001344 0.010627
# 5 0.003102 0.000954 -0.003626 0.001344 0.023475 0.004972
# 6 -0.000092 0.000564 -0.000731 0.010627 0.004972 0.038316
#
#
# Mechanical properties :
#
#
# Convention : Reuss Voigt Hill
#
# Bulk Modulus (GPa) = 25.45390 34.95835 30.20612
# Shear Modulus (GPa) = 29.58059 36.22278 32.90168
#
# Velocity S-wave (km/s) = 3.48264 3.85386 3.67295
# Velocity P-wave (km/s) = 5.15834 5.84267 5.51114
#
# Compressibility (1/GPa) = 0.03928671
#
# Stress axis : x y z
#
# Youngs Moduli (GPa) = 44.16200 63.25397 123.80925
#
# Poissons Ratio (x) = -0.09025 0.47759
# Poissons Ratio (y) = -0.06301 0.14745
# Poissons Ratio (z) = 0.17035 0.07533
#
# Static dielectric constant tensor:
#      x y z
#    x 1.887450 -0.064280 -0.022870 
#    y -0.064280 1.957570 0.034780 
#    z -0.022870 0.034780 1.925160 
# 
# From -- ./inp_files/207092.got.cif
#   From: 2010.05.17/outbox.cif.g08.bks.cpg/sg2_104_cif.got.tgz:207092.got - 2010.06.03 11:33:40.
