data_PCOD9038247
_publ_section_title
;
Structure prediction by ZEFSAII (Michael W. Deem and Ramdas Pophale) SiO2 
 PCOD9038247
Probable space group: P -1
;
_chemical_formula_sum "Si O2"
_cell_formula_units_Z 16
_cell_length_a 10.135116
_cell_length_b 9.382840
_cell_length_c 15.557383
_cell_angle_alpha 147.625013
_cell_angle_beta 99.414582
_cell_angle_gamma 73.469307
_cell_volume 750.908367
_symmetry_space_group_name_H-M "P -1"
_symmetry_group_IT_number 2
_symmetry_cell_setting 'triclinic'
loop_
_space_group_symop_operation_xyz
x,y,z
-x,-y,-z
loop_
_atom_site_type_symbol
_atom_site_label
_atom_site_fract_x
_atom_site_fract_y
_atom_site_fract_z
Si Si1 0.592284 0.186059 0.360400
Si Si2 0.610853 0.111136 0.126890
Si Si3 0.597167 0.624764 0.130425
Si Si4 0.075909 0.611478 0.988002
Si Si5 0.780416 0.216430 0.555180
Si Si6 0.914223 0.099433 0.127989
Si Si7 0.954599 0.609664 0.316175
Si Si8 0.500008 0.321100 0.665923
O O1 0.500000 0.500000 0.500000
O O2 0.614683 0.052092 0.199130
O O3 0.719011 0.189545 0.440022
O O4 0.537373 0.957485 0.287897
O O5 0.770370 0.016480 0.065352
O O6 0.576020 0.446869 0.291775
O O7 0.500000 0.000000 0.000000
O O8 0.756181 0.503307 0.053150
O O9 0.576585 0.555705 0.191694
O O10 0.500000 0.500000 0.000000
O O11 0.038358 0.499531 0.836039
O O12 0.000000 0.500000 0.000000
O O13 0.007579 0.942341 0.137207
O O14 0.657288 0.331143 0.668947
O O15 0.890449 0.388705 0.643004
O O16 0.858671 0.920456 0.453483
O O17 0.894351 0.428021 0.284072
O O18 0.000000 0.000000 0.000000
O O19 0.500000 0.000000 0.500000
#
# Coordination Sequence:
#
# PCOD9038247 Si02
#       8
#     2   2   2   2   2   2   2   2
#     4  12  24  44  66 102 140 173 223 295 342 409
#     4  12  26  42  70 105 138 179 230 283 349 413
#     4  12  26  43  67 104 140 173 229 288 343 413
#     4  11  23  42  67  96 138 178 222 280 352 412
#     4  11  23  42  71  96 131 186 233 285 350 407
#     4  10  23  41  67  96 134 182 226 280 341 414
#     4  10  23  43  69  92 136 179 239 276 336 423
#     4  12  22  43  70  93 135 181 231 277 349 406
#
# _framework density 21.307525999999999
#
# number of rings (size 3 to 8) (size 9 to 14) (size 15 to 20)
#    0.000    0.750    3.750    3.750    5.250    1.000 
#    0.000    0.625    0.000    0.000    0.000    0.000 
#    0.000    0.000    0.000    0.000    0.000    0.000 
#
# Total GULP energy -89155.440338 kJ/mol
# GULP energy per Si atom -5572.215021 kJ/mol
# Density = 2.125903 g / cm^3
# Si number density = 21.307526 Si / 1000 Ang^3
#
#
#
# Elastic Constant Matrix: (Units=GPa)
#
#
# Indices 1 2 3 4 5 6 
#
# 1 157.1097 50.0271 45.1960 -10.8609 -2.3121 -4.1039
# 2 50.0271 120.7824 19.6564 4.1638 3.1127 16.4767
# 3 45.1960 19.6564 47.3703 -2.0462 10.3222 -7.6086
# 4 -10.8609 4.1638 -2.0462 38.7277 -0.8921 -8.7831
# 5 -2.3121 3.1127 10.3222 -0.8921 41.9125 -7.2780
# 6 -4.1039 16.4767 -7.6086 -8.7831 -7.2780 31.0484
#
#
#
# Elastic Compliance Matrix: (Units=1/GPa)
#
#
# Indices 1 2 3 4 5 6 
#
# 1 0.010306 -0.003501 -0.008515 0.003571 0.003517 0.002968
# 2 -0.003501 0.011600 -0.002665 -0.004462 -0.002059 -0.009017
# 3 -0.008515 -0.002665 0.033077 0.001072 -0.007177 0.007016
# 4 0.003571 -0.004462 0.001072 0.030235 0.003056 0.012372
# 5 0.003517 -0.002059 -0.007177 0.003056 0.027264 0.007054
# 6 0.002968 -0.009017 0.007016 0.012372 0.007054 0.044258
#
#
# Mechanical properties :
#
#
# Convention : Reuss Voigt Hill
#
# Bulk Modulus (GPa) = 39.03204 61.66903 50.35054
# Shear Modulus (GPa) = 25.68796 36.36326 31.02561
#
# Velocity S-wave (km/s) = 3.47592 4.13557 3.82001
# Velocity P-wave (km/s) = 5.87090 7.19786 6.56798
#
# Compressibility (1/GPa) = 0.02561998
#
# Stress axis : x y z
#
# Youngs Moduli (GPa) = 97.03492 86.20469 30.23208
#
# Poissons Ratio (x) = 0.30184 0.25743
# Poissons Ratio (y) = 0.33976 0.08058
# Poissons Ratio (z) = 0.82625 0.22976
#
# Static dielectric constant tensor:
#      x y z
#    x 1.773960 0.039710 -0.034770 
#    y 0.039710 1.595650 0.001820 
#    z -0.034770 0.001820 1.927460 
# 
# From -- ./inp_files/495880.got.cif
#   From: 2010.05.17/outbox.cif.g08.bks.cpg/sg2_248_cif.got.tgz:495880.got - 2010.06.03 11:33:40.
