data_PCOD9038182
_publ_section_title
;
Structure prediction by ZEFSAII (Michael W. Deem and Ramdas Pophale) SiO2 
 PCOD9038182
Probable space group: P -1
;
_chemical_formula_sum "Si O2"
_cell_formula_units_Z 16
_cell_length_a 11.929916
_cell_length_b 8.438797
_cell_length_c 18.315569
_cell_angle_alpha 41.885869
_cell_angle_beta 38.055201
_cell_angle_gamma 42.859485
_cell_volume 708.937478
_symmetry_space_group_name_H-M "P -1"
_symmetry_group_IT_number 2
_symmetry_cell_setting 'triclinic'
loop_
_space_group_symop_operation_xyz
x,y,z
-x,-y,-z
loop_
_atom_site_type_symbol
_atom_site_label
_atom_site_fract_x
_atom_site_fract_y
_atom_site_fract_z
Si Si1 0.327233 0.099327 0.635814
Si Si2 0.575924 0.471805 0.223055
Si Si3 0.352019 0.783711 0.492161
Si Si4 0.085671 0.093216 0.289312
Si Si5 0.452138 0.948440 0.232412
Si Si6 0.103422 0.404759 0.056610
Si Si7 0.819737 0.481165 0.557262
Si Si8 0.847128 0.859714 0.128309
O O1 0.546532 0.094187 0.541427
O O2 0.239711 0.321227 0.546225
O O3 0.219780 0.161188 0.747791
O O4 0.318245 0.826445 0.710866
O O5 0.536960 0.675043 0.239589
O O6 0.362751 0.478716 0.309569
O O7 0.691357 0.560487 0.071863
O O8 0.500000 0.500000 0.500000
O O9 0.354433 0.924051 0.367276
O O10 0.141558 0.778267 0.620050
O O11 0.114997 0.132489 0.174393
O O12 0.273229 0.141128 0.211721
O O13 0.123963 0.809319 0.395292
O O14 0.649447 0.996094 0.136233
O O15 0.967844 0.591102 0.122237
O O16 0.000000 0.500000 0.000000
O O17 0.000000 0.500000 0.500000
O O18 0.000000 0.000000 0.000000
#
# Coordination Sequence:
#
# PCOD9038182 Si02
#       8
#     2   2   2   2   2   2   2   2
#     4  11  24  42  73 102 136 184 238 285 335 416
#     4  11  23  44  67  99 140 177 243 272 339 418
#     4  11  22  41  73  99 135 181 230 283 342 419
#     4  11  25  43  67 101 142 173 230 289 350 410
#     4  10  23  41  67 103 134 181 224 293 352 394
#     4  12  26  43  72  98 131 192 234 280 342 421
#     4  11  26  42  68 106 142 181 220 295 358 392
#     4  11  23  45  69  99 136 183 239 277 337 420
#
# _framework density 22.568987
#
# number of rings (size 3 to 8) (size 9 to 14) (size 15 to 20)
#    0.000    1.000    2.500    4.500    3.500    3.000 
#    2.250    0.625    0.000    0.000    0.000    0.000 
#    0.000    0.000    0.000    0.000    0.000    0.000 
#
# Total GULP energy -89319.967836 kJ/mol
# GULP energy per Si atom -5582.497990 kJ/mol
# Density = 2.251762 g / cm^3
# Si number density = 22.568987 Si / 1000 Ang^3
#
#
#
# Elastic Constant Matrix: (Units=GPa)
#
#
# Indices 1 2 3 4 5 6 
#
# 1 132.6322 31.6320 67.5076 13.8431 -14.5699 -32.6610
# 2 31.6320 83.4353 55.4852 11.9105 -3.8088 -15.3641
# 3 67.5076 55.4852 157.2329 29.2730 -13.9164 -23.7103
# 4 13.8431 11.9105 29.2730 38.9510 -6.0588 -5.5617
# 5 -14.5699 -3.8088 -13.9164 -6.0588 47.3888 7.0963
# 6 -32.6610 -15.3641 -23.7103 -5.5617 7.0963 34.0106
#
#
#
# Elastic Compliance Matrix: (Units=1/GPa)
#
#
# Indices 1 2 3 4 5 6 
#
# 1 0.011577 -0.000537 -0.003428 -0.000001 0.001279 0.008218
# 2 -0.000537 0.016136 -0.004892 -0.000717 -0.000911 0.003435
# 3 -0.003428 -0.004892 0.010727 -0.005069 0.000912 0.000957
# 4 -0.000001 -0.000717 -0.005069 0.030134 0.002215 0.000606
# 5 0.001279 -0.000911 0.000912 0.002215 0.022401 -0.002860
# 6 0.008218 0.003435 0.000957 0.000606 -0.002860 0.040209
#
#
# Mechanical properties :
#
#
# Convention : Reuss Voigt Hill
#
# Bulk Modulus (GPa) = 48.25369 75.83888 62.04629
# Shear Modulus (GPa) = 32.09071 38.64846 35.36959
#
# Velocity S-wave (km/s) = 3.77489 4.14268 3.96305
# Velocity P-wave (km/s) = 6.35820 7.52053 6.96366
#
# Compressibility (1/GPa) = 0.02072380
#
# Stress axis : x y z
#
# Youngs Moduli (GPa) = 86.37801 61.97315 93.22210
#
# Poissons Ratio (x) = 0.03331 0.31959
# Poissons Ratio (y) = 0.04642 0.45609
# Poissons Ratio (z) = 0.29613 0.30320
#
# Static dielectric constant tensor:
#      x y z
#    x 2.002930 -0.042710 -0.048550 
#    y -0.042710 1.981770 -0.043990 
#    z -0.048550 -0.043990 1.852130 
# 
# From -- ./inp_files/566412.got.cif
#   From: 2010.05.17/outbox.cif.g08.bks.cpg/sg2_284_cif.got.tgz:566412.got - 2010.06.03 11:33:40.
