data_PCOD9038554
_publ_section_title
;
Structure prediction by ZEFSAII (Michael W. Deem and Ramdas Pophale) SiO2 
 PCOD9038554
Probable space group: P -1
;
_chemical_formula_sum "Si O2"
_cell_formula_units_Z 16
_cell_length_a 6.752899
_cell_length_b 18.583594
_cell_length_c 8.357724
_cell_angle_alpha 55.487865
_cell_angle_beta 121.375150
_cell_angle_gamma 95.247422
_cell_volume 706.322323
_symmetry_space_group_name_H-M "P -1"
_symmetry_group_IT_number 2
_symmetry_cell_setting 'triclinic'
loop_
_space_group_symop_operation_xyz
x,y,z
-x,-y,-z
loop_
_atom_site_type_symbol
_atom_site_label
_atom_site_fract_x
_atom_site_fract_y
_atom_site_fract_z
Si Si1 0.734690 0.952968 0.834236
Si Si2 0.900058 0.651660 0.243644
Si Si3 0.853333 0.427050 0.072906
Si Si4 0.027516 0.891221 0.348067
Si Si5 0.766405 0.912773 0.541579
Si Si6 0.224707 0.698231 0.541925
Si Si7 0.272444 0.283841 0.257580
Si Si8 0.634672 0.523078 0.378709
O O1 0.831571 0.899742 0.775338
O O2 0.444540 0.991573 0.667508
O O3 0.820388 0.910420 0.098009
O O4 0.817910 0.044106 0.730170
O O5 0.711887 0.615248 0.312800
O O6 0.028215 0.720016 0.291074
O O7 0.124966 0.561499 0.423202
O O8 0.763423 0.688628 0.977356
O O9 0.832509 0.388453 0.289495
O O10 0.018637 0.338460 0.161595
O O11 0.572444 0.462057 0.860999
O O12 0.000000 0.500000 0.000000
O O13 0.944934 0.915525 0.465622
O O14 0.170316 0.784768 0.527350
O O15 0.682721 0.823799 0.570330
O O16 0.501143 0.683824 0.623666
O O17 0.500000 0.500000 0.500000
#
# Coordination Sequence:
#
# PCOD9038554 Si02
#       8
#     2   2   2   2   2   2   2   2
#     4  10  23  41  70  99 135 174 218 276 340 403
#     4  11  25  40  66  91 127 174 221 278 335 392
#     4  12  25  42  68  94 131 179 224 274 339 397
#     4  11  22  43  67 100 135 174 225 273 333 413
#     4  11  22  42  68  99 134 178 220 274 339 403
#     4  12  25  43  65  99 135 172 224 282 332 394
#     4  12  24  44  66  96 136 174 222 282 333 395
#     4  11  22  42  62  92 126 169 227 276 332 403
#
# _framework density 22.652546999999998
#
# number of rings (size 3 to 8) (size 9 to 14) (size 15 to 20)
#    0.000    0.750    5.000    3.000    1.750    1.000 
#    0.000    0.000    0.000    0.000    0.000    0.000 
#    0.000    0.000    0.000    0.000    0.000    0.000 
#
# Total GULP energy -89243.355631 kJ/mol
# GULP energy per Si atom -5577.709727 kJ/mol
# Density = 2.260099 g / cm^3
# Si number density = 22.652547 Si / 1000 Ang^3
#
#
#
# Elastic Constant Matrix: (Units=GPa)
#
#
# Indices 1 2 3 4 5 6 
#
# 1 76.0529 5.9835 21.9686 -8.7633 -6.3412 1.2023
# 2 5.9835 60.7488 2.1749 -1.8292 5.2888 5.4112
# 3 21.9686 2.1749 80.3590 4.8879 -0.8447 5.8231
# 4 -8.7633 -1.8292 4.8879 31.1518 2.7490 1.4523
# 5 -6.3412 5.2888 -0.8447 2.7490 28.5914 4.2755
# 6 1.2023 5.4112 5.8231 1.4523 4.2755 44.6971
#
#
#
# Elastic Compliance Matrix: (Units=1/GPa)
#
#
# Indices 1 2 3 4 5 6 
#
# 1 0.015330 -0.001474 -0.004393 0.004646 0.003113 -0.000110
# 2 -0.001474 0.017080 -0.000027 0.000967 -0.003320 -0.001738
# 3 -0.004393 -0.000027 0.013965 -0.003355 0.000003 -0.001589
# 4 0.004646 0.000967 -0.003355 0.034238 -0.002437 -0.000684
# 5 0.003113 -0.003320 0.000003 -0.002437 0.036984 -0.003141
# 6 -0.000110 -0.001738 -0.001589 -0.000684 -0.003141 0.023116
#
#
# Mechanical properties :
#
#
# Convention : Reuss Voigt Hill
#
# Bulk Modulus (GPa) = 28.91192 30.82383 29.86788
# Shear Modulus (GPa) = 30.48205 33.35697 31.91951
#
# Velocity S-wave (km/s) = 3.67227 3.84154 3.75786
# Velocity P-wave (km/s) = 5.54722 5.77177 5.66061
#
# Compressibility (1/GPa) = 0.03458780
#
# Stress axis : x y z
#
# Youngs Moduli (GPa) = 65.23049 58.54668 71.60706
#
# Poissons Ratio (x) = 0.08630 0.31457
# Poissons Ratio (y) = 0.09615 0.00194
# Poissons Ratio (z) = 0.28656 0.00158
#
# Static dielectric constant tensor:
#      x y z
#    x 1.863690 0.069730 0.073270 
#    y 0.069730 2.051490 0.230870 
#    z 0.073270 0.230870 2.213940 
# 
# From -- ./inp_files/55504.got.cif
#   From: 2010.05.17/outbox.cif.g08.bks.cpg/sg2_28_cif.got.tgz:55504.got - 2010.06.03 11:33:40.
