data_PCOD9038662
_publ_section_title
;
Structure prediction by ZEFSAII (Michael W. Deem and Ramdas Pophale) SiO2 
 PCOD9038662
Probable space group: P -1
;
_chemical_formula_sum "Si O2"
_cell_formula_units_Z 16
_cell_length_a 23.813020
_cell_length_b 9.030529
_cell_length_c 21.303060
_cell_angle_alpha 39.895257
_cell_angle_beta 162.970515
_cell_angle_gamma 130.862710
_cell_volume 780.000180
_symmetry_space_group_name_H-M "P -1"
_symmetry_group_IT_number 2
_symmetry_cell_setting 'triclinic'
loop_
_space_group_symop_operation_xyz
x,y,z
-x,-y,-z
loop_
_atom_site_type_symbol
_atom_site_label
_atom_site_fract_x
_atom_site_fract_y
_atom_site_fract_z
Si Si1 0.108301 0.857544 0.873398
Si Si2 0.045875 0.949386 0.992410
Si Si3 0.423361 0.385575 0.577922
Si Si4 0.277404 0.147626 0.616635
Si Si5 0.129805 0.388540 0.738497
Si Si6 0.504540 0.447889 0.947494
Si Si7 0.847653 0.791068 0.732066
Si Si8 0.893868 0.439891 0.592342
O O1 0.935984 0.861740 0.636789
O O2 0.983884 0.857234 0.804037
O O3 0.158489 0.101069 0.855813
O O4 0.340476 0.642655 0.173784
O O5 0.849533 0.920161 0.757879
O O6 0.043521 0.192841 0.873193
O O7 0.253489 0.681547 0.294795
O O8 0.000000 0.000000 0.000000
O O9 0.381732 0.269699 0.636982
O O10 0.362365 0.215918 0.517644
O O11 0.212771 0.329606 0.548333
O O12 0.427512 0.854276 0.887796
O O13 0.329524 0.451335 0.931946
O O14 0.000000 0.500000 0.500000
O O15 0.014235 0.497828 0.644838
O O16 0.500000 0.500000 0.000000
O O17 0.291499 0.595633 0.632923
O O18 0.000000 0.500000 0.000000
#
# Coordination Sequence:
#
# PCOD9038662 Si02
#       8
#     2   2   2   2   2   2   2   2
#     4  11  22  42  69 100 136 172 234 276 337 411
#     4  11  22  45  67  97 138 178 226 276 336 409
#     4  10  23  41  72  97 133 183 225 280 341 398
#     4  11  24  44  67 104 139 178 225 282 346 411
#     4  12  24  44  68 101 134 178 227 289 333 404
#     4  12  25  44  74  99 134 182 232 280 346 404
#     4   9  21  40  66  94 129 174 226 278 329 387
#     4  12  26  45  70  99 142 180 224 284 348 407
#
# _framework density 20.512816000000001
#
# number of rings (size 3 to 8) (size 9 to 14) (size 15 to 20)
#    0.000    1.000    5.000    1.125    3.500    3.500 
#    0.000    1.875    0.000    0.000    0.000    0.000 
#    0.000    0.000    0.000    0.000    0.000    0.000 
#
# Total GULP energy -89241.605516 kJ/mol
# GULP energy per Si atom -5577.600345 kJ/mol
# Density = 2.046613 g / cm^3
# Si number density = 20.512816 Si / 1000 Ang^3
#
#
#
# Elastic Constant Matrix: (Units=GPa)
#
#
# Indices 1 2 3 4 5 6 
#
# 1 130.0030 37.5193 38.5639 6.6372 -8.3523 -19.5468
# 2 37.5193 66.5794 31.5583 -7.7242 -0.0574 7.7497
# 3 38.5639 31.5583 106.6551 2.1689 -5.5908 13.1639
# 4 6.6372 -7.7242 2.1689 47.7765 6.8016 4.3112
# 5 -8.3523 -0.0574 -5.5908 6.8016 20.6043 -10.8835
# 6 -19.5468 7.7497 13.1639 4.3112 -10.8835 34.4548
#
#
#
# Elastic Compliance Matrix: (Units=1/GPa)
#
#
# Indices 1 2 3 4 5 6 
#
# 1 0.017007 -0.010987 -0.004290 -0.008645 0.019675 0.021055
# 2 -0.010987 0.025635 -0.002539 0.009936 -0.017804 -0.017896
# 3 -0.004290 -0.002539 0.012458 0.000661 -0.002551 -0.007511
# 4 -0.008645 0.009936 0.000661 0.028489 -0.022192 -0.017966
# 5 0.019675 -0.017804 -0.002551 -0.022192 0.087722 0.046627
# 6 0.021055 -0.017896 -0.007511 -0.017966 0.046627 0.064840
#
#
# Mechanical properties :
#
#
# Convention : Reuss Voigt Hill
#
# Bulk Modulus (GPa) = 51.36584 57.61338 54.48961
# Shear Modulus (GPa) = 17.96799 33.60687 25.78743
#
# Velocity S-wave (km/s) = 2.96284 4.05203 3.54946
# Velocity P-wave (km/s) = 6.06628 7.07385 6.58935
#
# Compressibility (1/GPa) = 0.01946819
#
# Stress axis : x y z
#
# Youngs Moduli (GPa) = 58.79995 39.00881 80.26817
#
# Poissons Ratio (x) = 0.42860 0.34433
# Poissons Ratio (y) = 0.64605 0.20380
# Poissons Ratio (z) = 0.25224 0.09904
#
# Static dielectric constant tensor:
#      x y z
#    x 1.647570 -0.114620 -0.032470 
#    y -0.114620 1.567540 -0.051180 
#    z -0.032470 -0.051180 1.758140 
# 
# From -- ./inp_files/601127.got.cif
#   From: 2010.05.17/outbox.cif.g08.bks.cpg/sg2_301_cif.got.tgz:601127.got - 2010.06.03 11:33:40.
