data_PCOD9038900
_publ_section_title
;
Structure prediction by ZEFSAII (Michael W. Deem and Ramdas Pophale) SiO2 
 PCOD9038900
Probable space group: P -1
;
_chemical_formula_sum "Si O2"
_cell_formula_units_Z 16
_cell_length_a 9.883227
_cell_length_b 10.631895
_cell_length_c 12.418830
_cell_angle_alpha 141.458447
_cell_angle_beta 63.532080
_cell_angle_gamma 129.791909
_cell_volume 620.633633
_symmetry_space_group_name_H-M "P -1"
_symmetry_group_IT_number 2
_symmetry_cell_setting 'triclinic'
loop_
_space_group_symop_operation_xyz
x,y,z
-x,-y,-z
loop_
_atom_site_type_symbol
_atom_site_label
_atom_site_fract_x
_atom_site_fract_y
_atom_site_fract_z
Si Si1 0.492488 0.692229 0.773217
Si Si2 0.506890 0.774603 0.072004
Si Si3 0.741879 0.239429 0.419721
Si Si4 0.128459 0.970531 0.238618
Si Si5 0.221326 0.186568 0.845618
Si Si6 0.440946 0.250302 0.604683
Si Si7 0.185445 0.730725 0.253212
Si Si8 0.866796 0.562658 0.396989
O O1 0.675791 0.889549 0.787811
O O2 0.488908 0.446645 0.627785
O O3 0.314683 0.613515 0.719460
O O4 0.486548 0.766700 0.947162
O O5 0.319054 0.645308 0.114413
O O6 0.590139 0.044491 0.263215
O O7 0.657478 0.726438 0.031611
O O8 0.826142 0.089312 0.326362
O O9 0.627399 0.268510 0.572418
O O10 0.851455 0.464590 0.457092
O O11 0.110618 0.178894 0.440094
O O12 0.967806 0.843349 0.125324
O O13 0.110879 0.780729 0.204187
O O14 0.352392 0.297231 0.769927
O O15 0.298113 0.990864 0.441005
O O16 0.027618 0.571883 0.283124
#
# Coordination Sequence:
#
# PCOD9038900 Si02
#       8
#     2   2   2   2   2   2   2   2
#     4  12  24  40  69  94 135 168 212 264 321 380
#     4   9  25  46  61  97 130 176 207 257 328 384
#     4   9  22  41  61  95 130 163 218 254 322 375
#     4  12  23  40  67 101 127 163 217 270 319 371
#     4  10  23  42  64  94 132 169 212 262 321 379
#     4  11  19  40  69  92 127 169 212 269 309 376
#     4  11  23  42  70  97 126 166 218 269 320 371
#     4  12  22  39  68 101 122 165 221 270 311 376
#
# _framework density 25.780103
#
# number of rings (size 3 to 8) (size 9 to 14) (size 15 to 20)
#    0.750    0.500    3.750    3.375    0.000    4.000 
#    2.250    1.250    0.000    0.000    0.000    0.000 
#    0.000    0.000    0.000    0.000    0.000    0.000 
#
# Total GULP energy -89573.354274 kJ/mol
# GULP energy per Si atom -5598.334642 kJ/mol
# Density = 2.572143 g / cm^3
# Si number density = 25.780103 Si / 1000 Ang^3
#
#
#
# Elastic Constant Matrix: (Units=GPa)
#
#
# Indices 1 2 3 4 5 6 
#
# 1 139.7779 34.1477 27.6919 -3.9983 14.7887 18.8857
# 2 34.1477 119.4277 5.4670 -9.3050 0.7820 25.5900
# 3 27.6919 5.4670 95.7675 -9.3913 0.9426 26.1196
# 4 -3.9983 -9.3050 -9.3913 34.3471 8.1860 0.4816
# 5 14.7887 0.7820 0.9426 8.1860 31.8853 5.4994
# 6 18.8857 25.5900 26.1196 0.4816 5.4994 47.7941
#
#
#
# Elastic Compliance Matrix: (Units=1/GPa)
#
#
# Indices 1 2 3 4 5 6 
#
# 1 0.008621 -0.002134 -0.002064 0.000819 -0.003977 -0.000687
# 2 -0.002134 0.010383 0.001913 0.002946 0.000939 -0.005900
# 3 -0.002064 0.001913 0.013388 0.003843 0.000849 -0.007661
# 4 0.000819 0.002946 0.003843 0.033130 -0.008492 -0.003358
# 5 -0.003977 0.000939 0.000849 -0.008492 0.035933 -0.003445
# 6 -0.000687 -0.005900 -0.007661 -0.003358 -0.003445 0.028970
#
#
# Mechanical properties :
#
#
# Convention : Reuss Voigt Hill
#
# Bulk Modulus (GPa) = 35.94234 54.39849 45.17042
# Shear Modulus (GPa) = 34.65718 41.98307 38.32012
#
# Velocity S-wave (km/s) = 3.67050 4.03985 3.85960
# Velocity P-wave (km/s) = 5.65116 6.55037 6.11731
#
# Compressibility (1/GPa) = 0.02782234
#
# Stress axis : x y z
#
# Youngs Moduli (GPa) = 115.99013 96.30858 74.69474
#
# Poissons Ratio (x) = 0.20549 0.15420
# Poissons Ratio (y) = 0.24748 -0.14289
# Poissons Ratio (z) = 0.23945 -0.18423
#
# Static dielectric constant tensor:
#      x y z
#    x 2.037240 -0.016490 -0.030530 
#    y -0.016490 2.022120 0.071800 
#    z -0.030530 0.071800 2.064640 
# 
# From -- ./inp_files/426676.got.cif
#   From: 2010.05.17/outbox.cif.g08.bks.cpg/sg2_214_cif.got.tgz:426676.got - 2010.06.03 11:33:40.
