data_PCOD9038982
_publ_section_title
;
Structure prediction by ZEFSAII (Michael W. Deem and Ramdas Pophale) SiO2 
 PCOD9038982
Probable space group: P -1
;
_chemical_formula_sum "Si O2"
_cell_formula_units_Z 16
_cell_length_a 13.142336
_cell_length_b 9.467145
_cell_length_c 9.433404
_cell_angle_alpha 104.247032
_cell_angle_beta 35.367448
_cell_angle_gamma 99.934891
_cell_volume 657.638621
_symmetry_space_group_name_H-M "P -1"
_symmetry_group_IT_number 2
_symmetry_cell_setting 'triclinic'
loop_
_space_group_symop_operation_xyz
x,y,z
-x,-y,-z
loop_
_atom_site_type_symbol
_atom_site_label
_atom_site_fract_x
_atom_site_fract_y
_atom_site_fract_z
Si Si1 0.670172 0.473681 0.662479
Si Si2 0.273620 0.111576 0.030929
Si Si3 0.817437 0.553034 0.790912
Si Si4 0.958908 0.587780 0.924252
Si Si5 0.416713 0.206635 0.282976
Si Si6 0.335369 0.838503 0.399002
Si Si7 0.750462 0.882890 0.270169
Si Si8 0.768763 0.057453 0.725543
O O1 0.674898 0.486432 0.831875
O O2 0.620385 0.627824 0.685162
O O3 0.593347 0.319886 0.668571
O O4 0.866387 0.432876 0.371207
O O5 0.477509 0.100243 0.849249
O O6 0.294152 0.089062 0.835376
O O7 0.200751 0.275058 0.172821
O O8 0.148944 0.007319 0.237053
O O9 0.815757 0.531187 0.957919
O O10 0.000000 0.500000 0.500000
O O11 0.906644 0.756806 0.060005
O O12 0.000000 0.500000 0.000000
O O13 0.385057 0.188292 0.482971
O O14 0.284186 0.095429 0.329057
O O15 0.610592 0.156891 0.001552
O O16 0.200840 0.840695 0.419465
O O17 0.240464 0.953479 0.640256
#
# Coordination Sequence:
#
# PCOD9038982 Si02
#       8
#     2   2   2   2   2   2   2   2
#     4  11  21  36  56  85 117 140 183 234 285 316
#     4  11  18  35  58  82 109 147 195 220 268 337
#     4   9  20  34  57  83 106 143 189 229 264 325
#     4  10  20  37  62  81 104 150 193 225 269 337
#     4  10  17  33  54  80 106 145 186 221 265 332
#     4  11  22  34  55  86 116 148 174 236 285 319
#     4  10  21  35  59  80 110 150 193 221 271 334
#     4  10  18  33  55  80 104 148 190 213 267 333
#
# _framework density 24.329469
#
# number of rings (size 3 to 8) (size 9 to 14) (size 15 to 20)
#    0.000    1.750    6.250    0.375    0.000    2.500 
#    0.000    1.875    0.000    7.500    0.000    0.000 
#    0.000    0.000    0.000    0.000    0.000    0.000 
#
# Total GULP energy -89101.807960 kJ/mol
# GULP energy per Si atom -5568.862998 kJ/mol
# Density = 2.427409 g / cm^3
# Si number density = 24.329469 Si / 1000 Ang^3
#
#
#
# Elastic Constant Matrix: (Units=GPa)
#
#
# Indices 1 2 3 4 5 6 
#
# 1 71.9013 32.5076 25.6405 -4.3239 18.6815 -29.1845
# 2 32.5076 141.3557 47.5761 24.9472 19.6085 -27.7175
# 3 25.6405 47.5761 99.6415 26.8644 32.6586 -12.5203
# 4 -4.3239 24.9472 26.8644 50.8743 -13.8459 -1.9349
# 5 18.6815 19.6085 32.6586 -13.8459 36.9079 -9.0837
# 6 -29.1845 -27.7175 -12.5203 -1.9349 -9.0837 35.3044
#
#
#
# Elastic Compliance Matrix: (Units=1/GPa)
#
#
# Indices 1 2 3 4 5 6 
#
# 1 0.023531 -0.001437 -0.004246 0.005230 -0.001301 0.016770
# 2 -0.001437 0.010434 -0.000468 -0.006300 -0.005517 0.005074
# 3 -0.004246 -0.000468 0.027665 -0.023522 -0.031775 -0.003531
# 4 0.005230 -0.006300 -0.023522 0.046634 0.039962 0.003873
# 5 -0.001301 -0.005517 -0.031775 0.039962 0.074975 0.004805
# 6 0.016770 0.005074 -0.003531 0.003873 0.004805 0.046368
#
#
# Mechanical properties :
#
#
# Convention : Reuss Voigt Hill
#
# Bulk Modulus (GPa) = 20.27188 58.26076 39.26632
# Shear Modulus (GPa) = 19.35347 38.42896 28.89121
#
# Velocity S-wave (km/s) = 2.82348 3.97863 3.44975
# Velocity P-wave (km/s) = 4.35657 6.71600 5.66058
#
# Compressibility (1/GPa) = 0.04932942
#
# Stress axis : x y z
#
# Youngs Moduli (GPa) = 42.49691 95.83775 36.14709
#
# Poissons Ratio (x) = 0.13769 0.15347
# Poissons Ratio (y) = 0.06105 0.01692
# Poissons Ratio (z) = 0.18043 0.04486
#
# Static dielectric constant tensor:
#      x y z
#    x 2.193410 0.052060 -0.078280 
#    y 0.052060 2.047310 -0.066750 
#    z -0.078280 -0.066750 1.984940 
# 
# From -- ./inp_files/295976.got.cif
#   From: 2010.05.17/outbox.cif.g08.bks.cpg/sg2_148_cif.got.tgz:295976.got - 2010.06.03 11:33:40.
