data_PCOD9038582
_publ_section_title
;
Structure prediction by ZEFSAII (Michael W. Deem and Ramdas Pophale) SiO2 
 PCOD9038582
Probable space group: P -1
;
_chemical_formula_sum "Si O2"
_cell_formula_units_Z 14
_cell_length_a 23.731491
_cell_length_b 14.662488
_cell_length_c 13.448687
_cell_angle_alpha 159.525065
_cell_angle_beta 19.680790
_cell_angle_gamma 155.999171
_cell_volume 531.287729
_symmetry_space_group_name_H-M "P -1"
_symmetry_group_IT_number 2
_symmetry_cell_setting 'triclinic'
loop_
_space_group_symop_operation_xyz
x,y,z
-x,-y,-z
loop_
_atom_site_type_symbol
_atom_site_label
_atom_site_fract_x
_atom_site_fract_y
_atom_site_fract_z
Si Si1 0.273752 0.880873 0.388731
Si Si2 0.316742 0.021763 0.144833
Si Si3 0.292510 0.378409 0.727482
Si Si4 0.987763 0.478631 0.838971
Si Si5 0.454274 0.357342 0.823173
Si Si6 0.195266 0.310452 0.477610
Si Si7 0.765050 0.243805 0.458161
O O1 0.180164 0.816015 0.583589
O O2 0.248313 0.136712 0.633990
O O3 0.480720 0.946248 0.138818
O O4 0.227210 0.621877 0.130081
O O5 0.256323 0.237425 0.536001
O O6 0.274602 0.088341 0.170010
O O7 0.195350 0.737838 0.091815
O O8 0.500000 0.500000 0.500000
O O9 0.114190 0.305319 0.497897
O O10 0.081150 0.645791 0.761823
O O11 0.957783 0.668257 0.172039
O O12 0.638288 0.428351 0.533496
O O13 0.361039 0.040842 0.660768
O O14 0.500000 0.500000 0.000000
O O15 0.335486 0.521265 0.132036
#
# Coordination Sequence:
#
# PCOD9038582 Si02
#       7
#     2   2   2   2   2   2   2
#     4  11  23  44  73 102 132 177 240 289 338 401
#     4  11  23  41  70  98 138 181 228 288 351 404
#     4  10  23  41  71 106 130 170 240 297 333 400
#     4  11  27  42  66 104 147 184 226 281 351 428
#     4  12  25  45  72  98 140 185 238 281 335 409
#     4  11  25  43  69 100 140 185 236 276 345 414
#     4  12  26  45  70 102 142 184 227 288 348 406
#
# _framework density 26.35107
#
# number of rings (size 3 to 8) (size 9 to 14) (size 15 to 20)
#    0.000    0.857    2.857    4.286   10.000    1.143 
#    0.000    1.429    0.000    0.000    0.000    0.000 
#    0.000    0.000    0.000    0.000    0.000    0.000 
#
# Total GULP energy -78484.417343 kJ/mol
# GULP energy per Si atom -5606.029810 kJ/mol
# Density = 2.629109 g / cm^3
# Si number density = 26.351070 Si / 1000 Ang^3
#
#
#
# Elastic Constant Matrix: (Units=GPa)
#
#
# Indices 1 2 3 4 5 6 
#
# 1 103.3497 47.1715 16.6183 4.5341 0.0915 -26.8725
# 2 47.1715 205.9232 53.7389 1.9709 13.2367 -26.3101
# 3 16.6183 53.7389 79.8779 4.0523 -1.3033 -7.7817
# 4 4.5341 1.9709 4.0523 56.4304 -6.5576 0.9119
# 5 0.0915 13.2367 -1.3033 -6.5576 40.0000 2.9810
# 6 -26.8725 -26.3101 -7.7817 0.9119 2.9810 51.1178
#
#
#
# Elastic Compliance Matrix: (Units=1/GPa)
#
#
# Indices 1 2 3 4 5 6 
#
# 1 0.012067 -0.001911 -0.000663 -0.000936 0.000037 0.005274
# 2 -0.001911 0.006756 -0.003986 -0.000123 -0.002531 0.002016
# 3 -0.000663 -0.003986 0.015389 -0.000711 0.001716 -0.000145
# 4 -0.000936 -0.000123 -0.000711 0.018230 0.003095 -0.001169
# 5 0.000037 -0.002531 0.001716 0.003095 0.026597 -0.002629
# 6 0.005274 0.002016 -0.000145 -0.001169 -0.002629 0.023525
#
#
# Mechanical properties :
#
#
# Convention : Reuss Voigt Hill
#
# Bulk Modulus (GPa) = 47.41303 69.35648 58.38476
# Shear Modulus (GPa) = 40.74550 47.61777 44.18163
#
# Velocity S-wave (km/s) = 3.93651 4.25556 4.09914
# Velocity P-wave (km/s) = 6.22040 7.10800 6.67896
#
# Compressibility (1/GPa) = 0.02109125
#
# Stress axis : x y z
#
# Youngs Moduli (GPa) = 82.87123 148.02711 64.98289
#
# Poissons Ratio (x) = 0.28284 0.04309
# Poissons Ratio (y) = 0.15835 0.25903
# Poissons Ratio (z) = 0.05495 0.59004
#
# Static dielectric constant tensor:
#      x y z
#    x 2.149570 0.013130 -0.057130 
#    y 0.013130 1.984810 -0.020400 
#    z -0.057130 -0.020400 2.144520 
# 
# From -- ./inp_files/33699.got.cif
#   From: 2010.05.17/outbox.cif.g08.bks.cpg/sg2_17_cif.got.tgz:33699.got - 2010.06.03 11:33:40.
