data_PCOD9038050
_publ_section_title
;
Structure prediction by ZEFSAII (Michael W. Deem and Ramdas Pophale) SiO2 
 PCOD9038050
Probable space group: P -1
;
_chemical_formula_sum "Si O2"
_cell_formula_units_Z 14
_cell_length_a 8.883134
_cell_length_b 5.333308
_cell_length_c 17.715991
_cell_angle_alpha 96.190126
_cell_angle_beta 44.549269
_cell_angle_gamma 99.338120
_cell_volume 580.962980
_symmetry_space_group_name_H-M "P -1"
_symmetry_group_IT_number 2
_symmetry_cell_setting 'triclinic'
loop_
_space_group_symop_operation_xyz
x,y,z
-x,-y,-z
loop_
_atom_site_type_symbol
_atom_site_label
_atom_site_fract_x
_atom_site_fract_y
_atom_site_fract_z
Si Si1 0.763153 0.670241 0.115063
Si Si2 0.147465 0.265410 0.437407
Si Si3 0.120855 0.969372 0.294490
Si Si4 0.775789 0.813823 0.897635
Si Si5 0.159144 0.795556 0.869250
Si Si6 0.380269 0.224911 0.507709
Si Si7 0.568275 0.334116 0.876159
O O1 0.753963 0.473161 0.179413
O O2 0.612646 0.532791 0.099670
O O3 0.688380 0.943604 0.167353
O O4 0.003890 0.745491 0.997369
O O5 0.190450 0.205092 0.332433
O O6 0.338986 0.264096 0.431930
O O7 0.000000 0.500000 0.500000
O O8 0.000000 0.000000 0.500000
O O9 0.188714 0.036251 0.186956
O O10 0.272958 0.752513 0.246271
O O11 0.870856 0.855152 0.381981
O O12 0.706472 0.522743 0.889073
O O13 0.001913 0.841497 0.859607
O O14 0.592798 0.868933 0.024525
O O15 0.500000 0.500000 0.500000
O O16 0.500000 0.000000 0.500000
#
# Coordination Sequence:
#
# PCOD9038050 Si02
#       7
#     2   2   2   2   2   2   2
#     4   9  19  37  59  85 125 184 236 283 334 389
#     4  10  23  46  78 104 138 181 229 301 372 432
#     4  11  25  43  73 101 146 184 239 284 364 426
#     4  10  23  41  66 101 145 194 239 285 336 411
#     4   9  19  37  59  84 129 182 232 286 336 381
#     4  11  25  49  77 107 140 177 234 309 374 429
#     4  10  23  41  66 100 144 195 241 282 335 418
#
# _framework density 24.097919000000001
#
# number of rings (size 3 to 8) (size 9 to 14) (size 15 to 20)
#    0.000    2.000    0.000    2.143   10.000    0.000 
#    2.571    0.000    0.000    0.000    0.000    0.000 
#    0.000    0.000    0.000    0.000    0.000    0.000 
#
# Total GULP energy -77964.127520 kJ/mol
# GULP energy per Si atom -5568.866251 kJ/mol
# Density = 2.404307 g / cm^3
# Si number density = 24.097919 Si / 1000 Ang^3
#
#
#
# Elastic Constant Matrix: (Units=GPa)
#
#
# Indices 1 2 3 4 5 6 
#
# 1 158.6259 52.2025 40.3136 5.3924 -1.0154 14.8294
# 2 52.2025 148.5697 30.4486 9.2171 4.2952 -2.4792
# 3 40.3136 30.4486 91.2309 -0.2694 -14.1100 -1.3280
# 4 5.3924 9.2171 -0.2694 31.9769 -2.8243 3.9996
# 5 -1.0154 4.2952 -14.1100 -2.8243 18.0167 2.6328
# 6 14.8294 -2.4792 -1.3280 3.9996 2.6328 45.8682
#
#
#
# Elastic Compliance Matrix: (Units=1/GPa)
#
#
# Indices 1 2 3 4 5 6 
#
# 1 0.008061 -0.002191 -0.003040 -0.000511 -0.001089 -0.002706
# 2 -0.002191 0.008351 -0.002539 -0.002678 -0.004756 0.001593
# 3 -0.003040 -0.002539 0.015113 0.002442 0.012602 0.000347
# 4 -0.000511 -0.002678 0.002442 0.033288 0.008220 -0.003283
# 5 -0.001089 -0.004756 0.012602 0.008220 0.068345 -0.004180
# 6 -0.002706 0.001593 0.000347 -0.003283 -0.004180 0.023299
#
#
# Mechanical properties :
#
#
# Convention : Reuss Voigt Hill
#
# Bulk Modulus (GPa) = 62.55968 71.59509 67.07738
# Shear Modulus (GPa) = 28.19638 37.53649 32.86643
#
# Velocity S-wave (km/s) = 3.42435 3.95101 3.69707
# Velocity P-wave (km/s) = 6.45382 7.11256 6.79118
#
# Compressibility (1/GPa) = 0.01598474
#
# Stress axis : x y z
#
# Youngs Moduli (GPa) = 124.04996 119.73948 66.16642
#
# Poissons Ratio (x) = 0.26239 0.20115
# Poissons Ratio (y) = 0.27184 0.16801
# Poissons Ratio (z) = 0.37712 0.30405
#
# Static dielectric constant tensor:
#      x y z
#    x 1.895350 -0.070420 0.116910 
#    y -0.070420 2.019720 0.014930 
#    z 0.116910 0.014930 2.080000 
# 
# From -- ./inp_files/552754.got.cif
#   From: 2010.05.17/outbox.cif.g08.bks.cpg/sg2_277_cif.got.tgz:552754.got - 2010.06.03 11:33:40.
