data_PCOD9038433
_publ_section_title
;
Structure prediction by ZEFSAII (Michael W. Deem and Ramdas Pophale) SiO2 
 PCOD9038433
Probable space group: P -1
;
_chemical_formula_sum "Si O2"
_cell_formula_units_Z 16
_cell_length_a 13.468253
_cell_length_b 6.770817
_cell_length_c 9.002775
_cell_angle_alpha 81.710143
_cell_angle_beta 83.332671
_cell_angle_gamma 104.738105
_cell_volume 775.588668
_symmetry_space_group_name_H-M "P -1"
_symmetry_group_IT_number 2
_symmetry_cell_setting 'triclinic'
loop_
_space_group_symop_operation_xyz
x,y,z
-x,-y,-z
loop_
_atom_site_type_symbol
_atom_site_label
_atom_site_fract_x
_atom_site_fract_y
_atom_site_fract_z
Si Si1 0.924439 0.121553 0.926068
Si Si2 0.978978 0.022700 0.331240
Si Si3 0.751984 0.752136 0.039915
Si Si4 0.742334 0.749788 0.375311
Si Si5 0.287991 0.613075 0.342598
Si Si6 0.420315 0.392732 0.152386
Si Si7 0.404205 0.047513 0.424635
Si Si8 0.105743 0.458990 0.146800
O O1 0.940334 0.359982 0.921545
O O2 0.944451 0.086812 0.754924
O O3 0.811569 0.994630 0.011479
O O4 0.000000 0.000000 0.000000
O O5 0.018332 0.262627 0.248558
O O6 0.859608 0.902593 0.331628
O O7 0.000000 0.000000 0.500000
O O8 0.708977 0.685442 0.218320
O O9 0.675782 0.730104 0.917978
O O10 0.832343 0.626307 0.983449
O O11 0.741372 0.551489 0.498900
O O12 0.666890 0.865187 0.457739
O O13 0.381058 0.555893 0.241315
O O14 0.190311 0.560914 0.250710
O O15 0.331656 0.843724 0.376278
O O16 0.448363 0.229088 0.276034
O O17 0.500000 0.500000 0.000000
O O18 0.500000 0.000000 0.500000
#
# Coordination Sequence:
#
# PCOD9038433 Si02
#       8
#     2   2   2   2   2   2   2   2
#     4  11  23  42  60  94 136 173 216 272 321 385
#     4  11  23  41  64  99 131 174 222 264 328 393
#     4  10  23  43  64  96 131 175 221 275 328 392
#     4  11  24  44  67  99 137 171 220 278 326 398
#     4  10  23  44  67  97 130 176 217 270 340 391
#     4  10  24  45  70  93 130 171 222 282 331 396
#     4  11  27  45  68 100 134 174 221 277 337 401
#     4  10  23  41  69  92 135 179 219 267 331 394
#
# _framework density 20.629491000000002
#
# number of rings (size 3 to 8) (size 9 to 14) (size 15 to 20)
#    0.000    1.500    2.500    0.750    7.000    6.000 
#    2.250    0.000    0.000    0.000    0.000    0.000 
#    0.000    0.000    0.000    0.000    0.000    0.000 
#
# Total GULP energy -89337.577122 kJ/mol
# GULP energy per Si atom -5583.598570 kJ/mol
# Density = 2.058254 g / cm^3
# Si number density = 20.629491 Si / 1000 Ang^3
#
#
#
# Elastic Constant Matrix: (Units=GPa)
#
#
# Indices 1 2 3 4 5 6 
#
# 1 46.6822 20.0560 23.0183 -18.0355 6.6735 -10.2723
# 2 20.0560 118.6401 48.8539 -14.6323 4.3243 -14.6567
# 3 23.0183 48.8539 156.0292 3.0050 -3.5651 -19.8695
# 4 -18.0355 -14.6323 3.0050 32.5053 12.0454 7.7199
# 5 6.6735 4.3243 -3.5651 12.0454 29.7444 -6.8891
# 6 -10.2723 -14.6567 -19.8695 7.7199 -6.8891 20.0148
#
#
#
# Elastic Compliance Matrix: (Units=1/GPa)
#
#
# Indices 1 2 3 4 5 6 
#
# 1 0.041766 0.001084 -0.009355 0.037890 -0.028666 -0.011539
# 2 0.001084 0.011038 -0.003953 0.008146 -0.005711 -0.000393
# 3 -0.009355 -0.003953 0.011670 -0.017157 0.014619 0.015539
# 4 0.037890 0.008146 -0.017157 0.089965 -0.058972 -0.046620
# 5 -0.028666 -0.005711 0.014619 -0.058972 0.076899 0.044833
# 6 -0.011539 -0.000393 0.015539 -0.046620 0.044833 0.092592
#
#
# Mechanical properties :
#
#
# Convention : Reuss Voigt Hill
#
# Bulk Modulus (GPa) = 24.98415 56.13422 40.55918
# Shear Modulus (GPa) = 13.82280 31.74778 22.78529
#
# Velocity S-wave (km/s) = 2.59134 3.92720 3.32701
# Velocity P-wave (km/s) = 4.59245 6.91619 5.87044
#
# Compressibility (1/GPa) = 0.04002538
#
# Stress axis : x y z
#
# Youngs Moduli (GPa) = 23.94286 90.59830 85.68773
#
# Poissons Ratio (x) = -0.09823 0.80163
# Poissons Ratio (y) = -0.02596 0.33876
# Poissons Ratio (z) = 0.22399 0.35817
#
# Static dielectric constant tensor:
#      x y z
#    x 1.553870 0.118800 0.150150 
#    y 0.118800 1.724660 -0.020120 
#    z 0.150150 -0.020120 1.676630 
# 
# From -- ./inp_files/208101.got.cif
#   From: 2010.05.17/outbox.cif.g08.bks.cpg/sg2_105_cif.got.tgz:208101.got - 2010.06.03 11:33:40.
