data_PCOD9038774
_publ_section_title
;
Structure prediction by ZEFSAII (Michael W. Deem and Ramdas Pophale) SiO2 
 PCOD9038774
Probable space group: P -1
;
_chemical_formula_sum "Si O2"
_cell_formula_units_Z 15
_cell_length_a 19.288320
_cell_length_b 6.630191
_cell_length_c 5.264898
_cell_angle_alpha 99.937602
_cell_angle_beta 82.505100
_cell_angle_gamma 96.120243
_cell_volume 655.091659
_symmetry_space_group_name_H-M "P -1"
_symmetry_group_IT_number 2
_symmetry_cell_setting 'triclinic'
loop_
_space_group_symop_operation_xyz
x,y,z
-x,-y,-z
loop_
_atom_site_type_symbol
_atom_site_label
_atom_site_fract_x
_atom_site_fract_y
_atom_site_fract_z
Si Si1 0.348938 0.187697 0.148171
Si Si2 0.909306 0.295595 0.898561
Si Si3 0.095059 0.433588 0.543330
Si Si4 0.434455 0.487060 0.831417
Si Si5 0.487305 0.172136 0.345249
Si Si6 0.738923 0.495717 0.502286
Si Si7 0.742965 0.229961 0.949866
Si Si8 0.000000 0.000000 0.500000
O O1 0.424476 0.109500 0.168958
O O2 0.308461 0.315081 0.402890
O O3 0.369969 0.364625 0.971485
O O4 0.297819 0.992960 0.054372
O O5 0.918997 0.450602 0.687778
O O6 0.924634 0.418583 0.180942
O O7 0.826832 0.217724 0.924146
O O8 0.954110 0.106698 0.772410
O O9 0.178983 0.422492 0.518247
O O10 0.054801 0.210009 0.521146
O O11 0.453337 0.347133 0.559660
O O12 0.440793 0.720033 0.780570
O O13 0.500000 0.500000 0.000000
O O14 0.500000 0.000000 0.500000
O O15 0.724377 0.371935 0.224062
O O16 0.728243 0.337549 0.710786
#
# Coordination Sequence:
#
# PCOD9038774 Si02
#       8
#     2   2   2   2   2   2   2   1
#     4  11  24  41  68  97 124 172 232 268 334 415
#     4  10  23  42  61  97 138 172 223 277 329 392
#     4  10  23  42  62  95 137 173 223 278 329 391
#     4   9  22  42  60  91 127 161 208 267 326 401
#     4  10  23  43  65  92 131 168 209 274 341 398
#     4  10  24  44  66  96 137 173 219 287 332 387
#     4  10  24  43  68  97 134 177 221 278 339 392
#     4  12  22  38  70  96 130 186 224 268 334 390
#
# _framework density 22.897559999999999
#
# number of rings (size 3 to 8) (size 9 to 14) (size 15 to 20)
#    0.000    1.867    0.000    1.600    3.733    8.533 
#    0.000    8.000    0.000    0.000    0.000    0.000 
#    0.000    0.000    0.000    0.000    0.000    0.000 
#
# Total GULP energy -83605.442691 kJ/mol
# GULP energy per Si atom -5573.696179 kJ/mol
# Density = 2.284544 g / cm^3
# Si number density = 22.897560 Si / 1000 Ang^3
#
#
#
# Elastic Constant Matrix: (Units=GPa)
#
#
# Indices 1 2 3 4 5 6 
#
# 1 108.0983 87.4744 37.4884 -6.3843 -6.3354 29.0640
# 2 87.4744 178.3212 67.9460 10.7440 -8.3890 48.5617
# 3 37.4884 67.9460 116.9867 8.2885 -5.4225 24.2335
# 4 -6.3843 10.7440 8.2885 40.9416 -9.8762 -3.9345
# 5 -6.3354 -8.3890 -5.4225 -9.8762 27.8256 3.3675
# 6 29.0640 48.5617 24.2335 -3.9345 3.3675 44.9007
#
#
#
# Elastic Compliance Matrix: (Units=1/GPa)
#
#
# Indices 1 2 3 4 5 6 
#
# 1 0.016638 -0.007451 -0.000789 0.005364 0.003544 -0.002081
# 2 -0.007451 0.012925 -0.003115 -0.004451 0.000974 -0.007939
# 3 -0.000789 -0.003115 0.011258 -0.001625 0.000789 -0.002399
# 4 0.005364 -0.004451 -0.001625 0.029448 0.009520 0.004085
# 5 0.003544 0.000974 0.000789 0.009520 0.041302 -0.006037
# 6 -0.002081 -0.007939 -0.002399 0.004085 -0.006037 0.034310
#
#
# Mechanical properties :
#
#
# Convention : Reuss Voigt Hill
#
# Bulk Modulus (GPa) = 55.20787 87.69155 71.44971
# Shear Modulus (GPa) = 28.63251 36.76676 32.69963
#
# Velocity S-wave (km/s) = 3.54002 4.01147 3.78310
# Velocity P-wave (km/s) = 6.39313 7.73540 7.09607
#
# Compressibility (1/GPa) = 0.01811336
#
# Stress axis : x y z
#
# Youngs Moduli (GPa) = 60.10475 77.36740 88.82351
#
# Poissons Ratio (x) = 0.57643 0.07007
# Poissons Ratio (y) = 0.44781 0.27664
# Poissons Ratio (z) = 0.04741 0.24096
#
# Static dielectric constant tensor:
#      x y z
#    x 1.984280 -0.002580 -0.033250 
#    y -0.002580 1.826410 -0.033620 
#    z -0.033250 -0.033620 1.883480 
# 
# From -- ./inp_files/12558.got.cif
#   From: 2010.05.17/outbox.cif.g08.bks.cpg/sg2_7_cif.got.tgz:12558.got - 2010.06.03 11:33:40.
