data_PCOD9038986
_publ_section_title
;
Structure prediction by ZEFSAII (Michael W. Deem and Ramdas Pophale) SiO2 
 PCOD9038986
Probable space group: P -1
;
_chemical_formula_sum "Si O2"
_cell_formula_units_Z 16
_cell_length_a 8.042949
_cell_length_b 9.444806
_cell_length_c 13.522951
_cell_angle_alpha 45.849111
_cell_angle_beta 97.906404
_cell_angle_gamma 89.705381
_cell_volume 722.656139
_symmetry_space_group_name_H-M "P -1"
_symmetry_group_IT_number 2
_symmetry_cell_setting 'triclinic'
loop_
_space_group_symop_operation_xyz
x,y,z
-x,-y,-z
loop_
_atom_site_type_symbol
_atom_site_label
_atom_site_fract_x
_atom_site_fract_y
_atom_site_fract_z
Si Si1 0.019797 0.073184 0.355460
Si Si2 0.592632 0.521205 0.791588
Si Si3 0.194039 0.149117 0.707564
Si Si4 0.406571 0.364051 0.487193
Si Si5 0.861689 0.854616 0.074125
Si Si6 0.461470 0.140886 0.060799
Si Si7 0.603526 0.918095 0.695988
Si Si8 0.987323 0.491570 0.886429
O O1 0.216824 0.059879 0.348540
O O2 0.952261 0.305603 0.241889
O O3 0.000000 0.000000 0.500000
O O4 0.924575 0.969364 0.311816
O O5 0.600002 0.527035 0.671095
O O6 0.523556 0.745312 0.715329
O O7 0.789367 0.483958 0.855636
O O8 0.500900 0.348232 0.916089
O O9 0.241737 0.322695 0.555419
O O10 0.123336 0.218521 0.775611
O O11 0.363783 0.000645 0.827677
O O12 0.500000 0.500000 0.500000
O O13 0.497387 0.137733 0.584350
O O14 0.909375 0.681400 0.083479
O O15 0.670126 0.946608 0.981274
O O16 0.000000 0.000000 0.000000
O O17 0.373638 0.162459 0.151016
O O18 0.000000 0.500000 0.000000
#
# Coordination Sequence:
#
# PCOD9038986 Si02
#       8
#     2   2   2   2   2   2   2   2
#     4  11  24  45  67  94 131 174 218 268 322 382
#     4  11  22  42  67  94 125 168 215 266 321 379
#     4  11  24  43  66  95 130 172 217 267 323 383
#     4  11  25  43  62  92 132 168 211 266 321 385
#     4  12  24  40  65  98 132 171 212 266 327 387
#     4  11  23  40  67  98 128 165 217 271 320 382
#     4  10  23  42  65  93 127 169 214 265 320 381
#     4  11  24  43  66  96 130 167 215 269 321 383
#
# _framework density 22.140543000000001
#
# number of rings (size 3 to 8) (size 9 to 14) (size 15 to 20)
#    0.000    1.000    0.000    7.875    0.000    9.000 
#    0.000    1.875    0.000    0.000    0.000    0.000 
#    0.000    0.000    0.000    0.000    0.000    0.000 
#
# Total GULP energy -89432.764779 kJ/mol
# GULP energy per Si atom -5589.547799 kJ/mol
# Density = 2.209015 g / cm^3
# Si number density = 22.140543 Si / 1000 Ang^3
#
#
#
# Elastic Constant Matrix: (Units=GPa)
#
#
# Indices 1 2 3 4 5 6 
#
# 1 58.7972 24.6218 38.7734 10.9055 -18.8051 10.7171
# 2 24.6218 82.6370 55.1273 31.7140 -7.2431 1.7310
# 3 38.7734 55.1273 182.7273 36.1616 -36.9000 6.0791
# 4 10.9055 31.7140 36.1616 49.0917 0.1115 -3.0162
# 5 -18.8051 -7.2431 -36.9000 0.1115 41.7149 2.1670
# 6 10.7171 1.7310 6.0791 -3.0162 2.1670 43.8540
#
#
#
# Elastic Compliance Matrix: (Units=1/GPa)
#
#
# Indices 1 2 3 4 5 6 
#
# 1 0.024268 -0.004749 -0.001281 -0.001778 0.009306 -0.006148
# 2 -0.004749 0.018917 -0.003369 -0.008657 -0.001833 0.000376
# 3 -0.001281 -0.003369 0.009067 -0.004323 0.006945 -0.001451
# 4 -0.001778 -0.008657 -0.004323 0.029786 -0.006403 0.003741
# 5 0.009306 -0.001833 0.006945 -0.006403 0.034285 -0.005299
# 6 -0.006148 0.000376 -0.001451 0.003741 -0.005299 0.025011
#
#
# Mechanical properties :
#
#
# Convention : Reuss Voigt Hill
#
# Bulk Modulus (GPa) = 29.89135 62.35629 46.12382
# Shear Modulus (GPa) = 29.19121 40.64138 34.91629
#
# Velocity S-wave (km/s) = 3.63499 4.28905 3.97549
# Velocity P-wave (km/s) = 5.58100 7.26312 6.47690
#
# Compressibility (1/GPa) = 0.03345450
#
# Stress axis : x y z
#
# Youngs Moduli (GPa) = 41.20663 52.86143 110.28889
#
# Poissons Ratio (x) = 0.25105 0.14127
# Poissons Ratio (y) = 0.19570 0.37154
# Poissons Ratio (z) = 0.05278 0.17808
#
# Static dielectric constant tensor:
#      x y z
#    x 1.877450 -0.005820 0.056040 
#    y -0.005820 1.832390 -0.023660 
#    z 0.056040 -0.023660 1.772770 
# 
# From -- ./inp_files/243856.got.cif
#   From: 2010.05.17/outbox.cif.g08.bks.cpg/sg2_122_cif.got.tgz:243856.got - 2010.06.03 11:33:40.
