data_PCOD9038415
_publ_section_title
;
Structure prediction by ZEFSAII (Michael W. Deem and Ramdas Pophale) SiO2 
 PCOD9038415
Probable space group: P -1
;
_chemical_formula_sum "Si O2"
_cell_formula_units_Z 14
_cell_length_a 14.048055
_cell_length_b 5.569540
_cell_length_c 23.908636
_cell_angle_alpha 91.342454
_cell_angle_beta 160.187985
_cell_angle_gamma 96.911437
_cell_volume 575.181618
_symmetry_space_group_name_H-M "P -1"
_symmetry_group_IT_number 2
_symmetry_cell_setting 'triclinic'
loop_
_space_group_symop_operation_xyz
x,y,z
-x,-y,-z
loop_
_atom_site_type_symbol
_atom_site_label
_atom_site_fract_x
_atom_site_fract_y
_atom_site_fract_z
Si Si1 0.033723 0.695638 0.734401
Si Si2 0.803911 0.987814 0.697648
Si Si3 0.480410 0.131775 0.800331
Si Si4 0.035149 0.062020 0.639906
Si Si5 0.453324 0.770822 0.606899
Si Si6 0.360068 0.561554 0.003192
Si Si7 0.640232 0.410213 0.321127
O O1 0.781705 0.428247 0.568564
O O2 0.114911 0.902613 0.730574
O O3 0.316826 0.663367 0.919397
O O4 0.876736 0.786680 0.698352
O O5 0.500000 0.000000 0.500000
O O6 0.748039 0.910447 0.731703
O O7 0.101563 0.267763 0.861507
O O8 0.680298 0.258649 0.967636
O O9 0.490419 0.384471 0.773079
O O10 0.529772 0.894070 0.797459
O O11 0.868247 0.001975 0.366691
O O12 0.280034 0.371090 0.785606
O O13 0.689323 0.022368 0.454717
O O14 0.422300 0.617225 0.646812
O O15 0.000000 0.500000 0.500000
#
# Coordination Sequence:
#
# PCOD9038415 Si02
#       7
#     2   2   2   2   2   2   2
#     4  12  23  41  70 100 140 178 234 288 359 417
#     4  12  25  45  63  99 144 183 232 285 357 428
#     4  10  26  43  72 105 140 186 229 300 355 411
#     4  10  23  41  69 104 138 172 235 283 369 402
#     4  12  26  41  71 103 135 186 235 291 351 422
#     4  10  25  43  69 100 143 183 225 293 356 430
#     4  12  23  46  72 104 144 182 242 296 348 415
#
# _framework density 24.340139000000001
#
# number of rings (size 3 to 8) (size 9 to 14) (size 15 to 20)
#    0.857    0.000    4.286    2.143    4.000    3.429 
#    0.000    1.429    0.000    0.000    0.000    0.000 
#    0.000    0.000    0.000    0.000    0.000    0.000 
#
# Total GULP energy -78200.126690 kJ/mol
# GULP energy per Si atom -5585.723335 kJ/mol
# Density = 2.428474 g / cm^3
# Si number density = 24.340139 Si / 1000 Ang^3
#
#
#
# Elastic Constant Matrix: (Units=GPa)
#
#
# Indices 1 2 3 4 5 6 
#
# 1 136.3506 52.6510 8.8751 -11.4261 -19.3446 17.4023
# 2 52.6510 100.3327 22.2804 -2.5043 -10.6637 9.9663
# 3 8.8751 22.2804 40.3618 1.2582 -14.6675 -2.5531
# 4 -11.4261 -2.5043 1.2582 28.3207 2.5252 -10.0421
# 5 -19.3446 -10.6637 -14.6675 2.5252 41.9464 -1.1383
# 6 17.4023 9.9663 -2.5531 -10.0421 -1.1383 58.9057
#
#
#
# Elastic Compliance Matrix: (Units=1/GPa)
#
#
# Indices 1 2 3 4 5 6 
#
# 1 0.010146 -0.005098 0.001785 0.002683 0.003804 -0.001527
# 2 -0.005098 0.014236 -0.007255 -0.000856 -0.001255 -0.001387
# 3 0.001785 -0.007255 0.032361 -0.001568 0.010445 0.002037
# 4 0.002683 -0.000856 -0.001568 0.038606 -0.001694 0.005833
# 5 0.003804 -0.001255 0.010445 -0.001694 0.029025 -0.000187
# 6 -0.001527 -0.001387 0.002037 0.005833 -0.000187 0.018741
#
#
# Mechanical properties :
#
#
# Convention : Reuss Voigt Hill
#
# Bulk Modulus (GPa) = 28.08263 49.40643 38.74453
# Shear Modulus (GPa) = 28.39016 38.71712 33.55364
#
# Velocity S-wave (km/s) = 3.41895 3.99265 3.71689
# Velocity P-wave (km/s) = 5.21040 6.44960 5.86283
#
# Compressibility (1/GPa) = 0.03560920
#
# Stress axis : x y z
#
# Youngs Moduli (GPa) = 98.56489 70.24472 30.90114
#
# Poissons Ratio (x) = 0.35808 -0.05517
# Poissons Ratio (y) = 0.50244 0.22418
# Poissons Ratio (z) = -0.17597 0.50960
#
# Static dielectric constant tensor:
#      x y z
#    x 1.992890 -0.024220 0.017090 
#    y -0.024220 2.006360 -0.008860 
#    z 0.017090 -0.008860 1.959750 
# 
# From -- ./inp_files/604802.got.cif
#   From: 2010.05.17/outbox.cif.g08.bks.cpg/sg2_303_cif.got.tgz:604802.got - 2010.06.03 11:33:40.
