data_PCOD9038054
_publ_section_title
;
Structure prediction by ZEFSAII (Michael W. Deem and Ramdas Pophale) SiO2 
 PCOD9038054
Probable space group: P -1
;
_chemical_formula_sum "Si O2"
_cell_formula_units_Z 16
_cell_length_a 12.189318
_cell_length_b 8.595554
_cell_length_c 8.820018
_cell_angle_alpha 69.552303
_cell_angle_beta 100.482295
_cell_angle_gamma 125.719547
_cell_volume 702.700836
_symmetry_space_group_name_H-M "P -1"
_symmetry_group_IT_number 2
_symmetry_cell_setting 'triclinic'
loop_
_space_group_symop_operation_xyz
x,y,z
-x,-y,-z
loop_
_atom_site_type_symbol
_atom_site_label
_atom_site_fract_x
_atom_site_fract_y
_atom_site_fract_z
Si Si1 0.633864 0.044782 0.601968
Si Si2 0.982155 0.650290 0.849382
Si Si3 0.541145 0.161772 0.090350
Si Si4 0.616579 0.559031 0.797054
Si Si5 0.727069 0.040379 0.309060
Si Si6 0.852463 0.815599 0.963929
Si Si7 0.324915 0.340946 0.727638
Si Si8 0.766157 0.491724 0.594882
O O1 0.713388 0.019143 0.494732
O O2 0.717257 0.276307 0.593056
O O3 0.500000 0.000000 0.500000
O O4 0.579004 0.927718 0.787442
O O5 0.897269 0.567047 0.702297
O O6 0.124540 0.842681 0.765522
O O7 0.899327 0.690003 0.933579
O O8 0.000000 0.500000 0.000000
O O9 0.663496 0.163488 0.199986
O O10 0.579334 0.376478 0.966283
O O11 0.500000 0.000000 0.000000
O O12 0.476804 0.534985 0.729884
O O13 0.664780 0.499353 0.681738
O O14 0.740961 0.773568 0.819989
O O15 0.654189 0.820559 0.290885
O O16 0.756624 0.740870 0.110264
O O17 0.000000 0.000000 0.000000
O O18 0.232252 0.379212 0.586970
#
# Coordination Sequence:
#
# PCOD9038054 Si02
#       8
#     2   2   2   2   2   2   2   2
#     4  10  23  41  66 101 136 175 223 289 344 403
#     4  11  26  48  72  96 134 188 236 287 350 420
#     4  11  20  41  72 102 137 172 237 291 335 402
#     4  11  23  44  73 104 137 187 232 292 345 407
#     4  11  23  44  67  99 142 184 229 282 352 413
#     4  11  25  49  68 103 143 184 236 284 346 416
#     4  12  25  45  69 102 144 182 228 287 353 414
#     4  11  25  45  68 100 142 176 227 290 349 414
#
# _framework density 22.769289000000001
#
# number of rings (size 3 to 8) (size 9 to 14) (size 15 to 20)
#    0.000    1.000    3.750    3.000    5.250    1.000 
#    4.500    0.000    0.000    0.000    0.000    0.000 
#    0.000    0.000    0.000    0.000    0.000    0.000 
#
# Total GULP energy -89312.972800 kJ/mol
# GULP energy per Si atom -5582.060800 kJ/mol
# Density = 2.271747 g / cm^3
# Si number density = 22.769289 Si / 1000 Ang^3
#
#
#
# Elastic Constant Matrix: (Units=GPa)
#
#
# Indices 1 2 3 4 5 6 
#
# 1 88.9658 12.3849 25.1408 14.1411 -6.6897 2.5888
# 2 12.3849 81.1275 21.5692 34.6948 7.9177 8.9672
# 3 25.1408 21.5692 110.6455 16.6165 -11.4191 -10.9568
# 4 14.1411 34.6948 16.6165 37.3768 0.3728 1.3823
# 5 -6.6897 7.9177 -11.4191 0.3728 61.5834 6.6942
# 6 2.5888 8.9672 -10.9568 1.3823 6.6942 34.7361
#
#
#
# Elastic Compliance Matrix: (Units=1/GPa)
#
#
# Indices 1 2 3 4 5 6 
#
# 1 0.012651 0.000633 -0.002442 -0.004228 0.001074 -0.001915
# 2 0.000633 0.021936 -0.002281 -0.019371 -0.002494 -0.005178
# 3 -0.002442 -0.002281 0.010894 -0.001965 0.001628 0.003971
# 4 -0.004228 -0.019371 -0.001965 0.047101 0.001098 0.002610
# 5 0.001074 -0.002494 0.001628 0.001098 0.017219 -0.002285
# 6 -0.001915 -0.005178 0.003971 0.002610 -0.002285 0.031857
#
#
# Mechanical properties :
#
#
# Convention : Reuss Voigt Hill
#
# Bulk Modulus (GPa) = 26.80898 44.32538 35.56718
# Shear Modulus (GPa) = 30.81257 41.51553 36.16405
#
# Velocity S-wave (km/s) = 3.68265 4.27466 3.98965
# Velocity P-wave (km/s) = 5.46647 6.62367 6.07270
#
# Compressibility (1/GPa) = 0.03730094
#
# Stress axis : x y z
#
# Youngs Moduli (GPa) = 79.04692 45.58695 91.79561
#
# Poissons Ratio (x) = -0.02886 0.22414
# Poissons Ratio (y) = -0.05004 0.20940
# Poissons Ratio (z) = 0.19301 0.10399
#
# Static dielectric constant tensor:
#      x y z
#    x 1.822710 -0.107580 0.064950 
#    y -0.107580 1.878390 -0.105960 
#    z 0.064950 -0.105960 1.972750 
# 
# From -- ./inp_files/243576.got.cif
#   From: 2010.05.17/outbox.cif.g08.bks.cpg/sg2_122_cif.got.tgz:243576.got - 2010.06.03 11:33:40.
