data_PCOD9038396
_publ_section_title
;
Structure prediction by ZEFSAII (Michael W. Deem and Ramdas Pophale) SiO2 
 PCOD9038396
Probable space group: P -1
;
_chemical_formula_sum "Si O2"
_cell_formula_units_Z 14
_cell_length_a 26.522983
_cell_length_b 13.502416
_cell_length_c 11.113571
_cell_angle_alpha 39.259270
_cell_angle_beta 153.867669
_cell_angle_gamma 156.681545
_cell_volume 664.571388
_symmetry_space_group_name_H-M "P -1"
_symmetry_group_IT_number 2
_symmetry_cell_setting 'triclinic'
loop_
_space_group_symop_operation_xyz
x,y,z
-x,-y,-z
loop_
_atom_site_type_symbol
_atom_site_label
_atom_site_fract_x
_atom_site_fract_y
_atom_site_fract_z
Si Si1 0.838194 0.584403 0.768812
Si Si2 0.713403 0.376540 0.256467
Si Si3 0.117432 0.131894 0.750222
Si Si4 0.670736 0.192133 0.589119
Si Si5 0.432846 0.237054 0.317037
Si Si6 0.440882 0.252716 0.601106
Si Si7 0.069977 0.662876 0.377913
O O1 0.827295 0.464773 0.738563
O O2 0.634988 0.444795 0.487563
O O3 0.004019 0.892426 0.820380
O O4 0.892120 0.535242 0.042656
O O5 0.617659 0.218820 0.325468
O O6 0.820925 0.346080 0.460455
O O7 0.704481 0.048626 0.762174
O O8 0.573159 0.295987 0.932399
O O9 0.326541 0.285788 0.032917
O O10 0.140177 0.326832 0.671457
O O11 0.000000 0.000000 0.500000
O O12 0.500000 0.000000 0.500000
O O13 0.463898 0.235675 0.525816
O O14 0.224269 0.970627 0.439347
O O15 0.500000 0.500000 0.500000
O O16 0.000000 0.500000 0.500000
#
# Coordination Sequence:
#
# PCOD9038396 Si02
#       7
#     2   2   2   2   2   2   2
#     4  11  24  46  70 101 141 178 234 287 348 413
#     4  12  24  44  71 101 138 183 229 288 347 412
#     4  12  25  44  68 104 141 182 228 282 352 417
#     4  10  23  41  69 101 132 179 233 281 346 409
#     4  11  24  46  69  98 142 184 224 290 348 412
#     4  12  24  45  71  97 143 185 228 283 353 408
#     4  12  27  44  72 106 136 182 240 292 343 417
#
# _framework density 21.066210000000002
#
# number of rings (size 3 to 8) (size 9 to 14) (size 15 to 20)
#    0.000    0.571    5.714    1.286    6.000    2.857 
#    0.000    2.857    0.000    0.000    0.000    0.000 
#    0.000    0.000    0.000    0.000    0.000    0.000 
#
# Total GULP energy -78254.002998 kJ/mol
# GULP energy per Si atom -5589.571643 kJ/mol
# Density = 2.101826 g / cm^3
# Si number density = 21.066210 Si / 1000 Ang^3
#
#
#
# Elastic Constant Matrix: (Units=GPa)
#
#
# Indices 1 2 3 4 5 6 
#
# 1 83.2045 54.9998 18.8772 -0.5729 -7.3328 -0.4414
# 2 54.9998 94.6306 12.8526 -2.9242 3.2000 -13.6852
# 3 18.8772 12.8526 107.0131 -6.0461 -2.2146 15.4095
# 4 -0.5729 -2.9242 -6.0461 36.6872 5.0470 -5.4455
# 5 -7.3328 3.2000 -2.2146 5.0470 36.9982 -2.4097
# 6 -0.4414 -13.6852 15.4095 -5.4455 -2.4097 35.7493
#
#
#
# Elastic Compliance Matrix: (Units=1/GPa)
#
#
# Indices 1 2 3 4 5 6 
#
# 1 0.021486 -0.013097 -0.001658 -0.002315 0.005345 -0.004026
# 2 -0.013097 0.019733 -0.001139 0.002960 -0.004250 0.008048
# 3 -0.001658 -0.001139 0.010524 0.000902 -0.000040 -0.004858
# 4 -0.002315 0.002960 0.000902 0.028913 -0.004290 0.004831
# 5 0.005345 -0.004250 -0.000040 -0.004290 0.029023 -0.000241
# 6 -0.004026 0.008048 -0.004858 0.004831 -0.000241 0.033817
#
#
# Mechanical properties :
#
#
# Convention : Reuss Voigt Hill
#
# Bulk Modulus (GPa) = 50.11299 50.92303 50.51801
# Shear Modulus (GPa) = 27.48234 35.09486 31.28860
#
# Velocity S-wave (km/s) = 3.61580 4.08601 3.85808
# Velocity P-wave (km/s) = 6.42433 6.81806 6.62412
#
# Compressibility (1/GPa) = 0.01995491
#
# Stress axis : x y z
#
# Youngs Moduli (GPa) = 46.54220 50.67572 95.02513
#
# Poissons Ratio (x) = 0.66371 0.15750
# Poissons Ratio (y) = 0.60957 0.10826
# Poissons Ratio (z) = 0.07714 0.05773
#
# Static dielectric constant tensor:
#      x y z
#    x 1.744310 -0.023530 -0.008490 
#    y -0.023530 1.787190 0.004890 
#    z -0.008490 0.004890 1.756150 
# 
# From -- ./inp_files/358900.got.cif
#   From: 2010.05.17/outbox.cif.g08.bks.cpg/sg2_180_cif.got.tgz:358900.got - 2010.06.03 11:33:40.
