data_PCOD9038952
_publ_section_title
;
Structure prediction by ZEFSAII (Michael W. Deem and Ramdas Pophale) SiO2 
 PCOD9038952
Probable space group: P -1
;
_chemical_formula_sum "Si O2"
_cell_formula_units_Z 12
_cell_length_a 5.173909
_cell_length_b 14.694548
_cell_length_c 8.976869
_cell_angle_alpha 54.040379
_cell_angle_beta 114.765510
_cell_angle_gamma 82.973864
_cell_volume 434.098693
_symmetry_space_group_name_H-M "P -1"
_symmetry_group_IT_number 2
_symmetry_cell_setting 'triclinic'
loop_
_space_group_symop_operation_xyz
x,y,z
-x,-y,-z
loop_
_atom_site_type_symbol
_atom_site_label
_atom_site_fract_x
_atom_site_fract_y
_atom_site_fract_z
Si Si1 0.701063 0.748879 0.946795
Si Si2 0.571696 0.108024 0.975666
Si Si3 0.506669 0.331406 0.546044
Si Si4 0.827515 0.725959 0.676217
Si Si5 0.354464 0.457829 0.696491
Si Si6 0.855756 0.110025 0.521799
O O1 0.716823 0.800740 0.064738
O O2 0.925445 0.697088 0.901866
O O3 0.388332 0.880750 0.676387
O O4 0.597005 0.641989 0.064003
O O5 0.593422 0.191655 0.769406
O O6 0.925456 0.027316 0.217864
O O7 0.500000 0.000000 0.000000
O O8 0.138501 0.376662 0.341758
O O9 0.571165 0.379653 0.679350
O O10 0.614391 0.416455 0.389726
O O11 0.425958 0.789852 0.530383
O O12 0.935145 0.825287 0.546271
O O13 0.000000 0.500000 0.500000
#
# Coordination Sequence:
#
# PCOD9038952 Si02
#       6
#     2   2   2   2   2   2
#     4   9  24  42  66 101 135 183 226 282 342 404
#     4  11  21  43  70 102 140 182 224 283 338 413
#     4  10  23  42  65 103 132 182 230 280 343 402
#     4  10  23  42  71  98 141 176 228 278 347 403
#     4  10  23  44  69  97 134 181 230 289 336 409
#     4  10  23  45  65 107 136 182 221 283 342 411
#
# _framework density 27.64348
#
# number of rings (size 3 to 8) (size 9 to 14) (size 15 to 20)
#    1.000    1.000    1.667    0.500    2.333    6.000 
#    6.000    1.667    0.000    0.000    0.000    0.000 
#    0.000    0.000    0.000    0.000    0.000    0.000 
#
# Total GULP energy -66814.223977 kJ/mol
# GULP energy per Si atom -5567.851998 kJ/mol
# Density = 2.758056 g / cm^3
# Si number density = 27.643480 Si / 1000 Ang^3
#
#
#
# Elastic Constant Matrix: (Units=GPa)
#
#
# Indices 1 2 3 4 5 6 
#
# 1 109.5537 30.4747 30.4000 -21.1431 -45.0576 4.8309
# 2 30.4747 124.1387 43.5481 -15.6335 -27.8970 14.4602
# 3 30.4000 43.5481 126.2907 -6.2904 -37.7089 -5.3398
# 4 -21.1431 -15.6335 -6.2904 45.4188 -0.2859 -6.4001
# 5 -45.0576 -27.8970 -37.7089 -0.2859 48.5807 -7.3800
# 6 4.8309 14.4602 -5.3398 -6.4001 -7.3800 28.8299
#
#
#
# Elastic Compliance Matrix: (Units=1/GPa)
#
#
# Indices 1 2 3 4 5 6 
#
# 1 0.017978 -0.000227 0.002021 0.009304 0.018830 0.004361
# 2 -0.000227 0.010606 -0.002737 0.002561 0.003098 -0.004427
# 3 0.002021 -0.002737 0.011944 0.002641 0.010583 0.006542
# 4 0.009304 0.002561 0.002641 0.028733 0.013454 0.007468
# 5 0.018830 0.003098 0.010583 0.013454 0.050105 0.013064
# 6 0.004361 -0.004427 0.006542 0.007468 0.013064 0.042389
#
#
# Mechanical properties :
#
#
# Convention : Reuss Voigt Hill
#
# Bulk Modulus (GPa) = 25.87960 63.20319 44.54139
# Shear Modulus (GPa) = 28.32510 41.60324 34.96417
#
# Velocity S-wave (km/s) = 3.20450 3.88363 3.56030
# Velocity P-wave (km/s) = 4.80354 6.55923 5.74880
#
# Compressibility (1/GPa) = 0.03864047
#
# Stress axis : x y z
#
# Youngs Moduli (GPa) = 55.62383 94.28797 83.72676
#
# Poissons Ratio (x) = 0.02142 -0.16920
# Poissons Ratio (y) = 0.01264 0.22917
# Poissons Ratio (z) = -0.11241 0.25808
#
# Static dielectric constant tensor:
#      x y z
#    x 2.781280 -0.724730 -0.169830 
#    y -0.724730 3.402310 0.524200 
#    z -0.169830 0.524200 2.364820 
# 
# From -- ./inp_files/40945.got.cif
#   From: 2010.05.17/outbox.cif.g08.bks.cpg/sg2_21_cif.got.tgz:40945.got - 2010.06.03 11:33:40.
