data_PCOD9038355
_publ_section_title
;
Structure prediction by ZEFSAII (Michael W. Deem and Ramdas Pophale) SiO2 
 PCOD9038355
Probable space group: P -1
;
_chemical_formula_sum "Si O2"
_cell_formula_units_Z 16
_cell_length_a 17.354195
_cell_length_b 9.724233
_cell_length_c 11.851120
_cell_angle_alpha 127.132871
_cell_angle_beta 150.427776
_cell_angle_gamma 49.710312
_cell_volume 748.347331
_symmetry_space_group_name_H-M "P -1"
_symmetry_group_IT_number 2
_symmetry_cell_setting 'triclinic'
loop_
_space_group_symop_operation_xyz
x,y,z
-x,-y,-z
loop_
_atom_site_type_symbol
_atom_site_label
_atom_site_fract_x
_atom_site_fract_y
_atom_site_fract_z
Si Si1 0.842786 0.320000 0.682443
Si Si2 0.138592 0.972174 0.257944
Si Si3 0.268788 0.170873 0.694564
Si Si4 0.831108 0.169275 0.363696
Si Si5 0.653856 0.884077 0.566723
Si Si6 0.790837 0.706001 0.867915
Si Si7 0.371377 0.077847 0.025674
Si Si8 0.332038 0.449193 0.746774
O O1 0.844295 0.210456 0.743708
O O2 0.777127 0.226462 0.451647
O O3 0.750894 0.527132 0.690761
O O4 0.022501 0.323462 0.870110
O O5 0.126914 0.118647 0.417754
O O6 0.291166 0.990360 0.388987
O O7 0.000000 0.000000 0.000000
O O8 0.267896 0.170440 0.828905
O O9 0.287933 0.353124 0.754142
O O10 0.438860 0.009370 0.805598
O O11 0.809636 0.361788 0.371153
O O12 0.697364 0.084184 0.102528
O O13 0.000000 0.000000 0.500000
O O14 0.783640 0.817613 0.799571
O O15 0.645080 0.706897 0.398202
O O16 0.500000 0.000000 0.500000
O O17 0.669190 0.791611 0.855473
O O18 0.500000 0.500000 0.000000
#
# Coordination Sequence:
#
# PCOD9038355 Si02
#       8
#     2   2   2   2   2   2   2   2
#     4  11  23  41  64  95 130 174 222 274 334 407
#     4  11  22  42  67  95 136 179 219 282 347 400
#     4  10  23  41  68  96 136 174 228 280 344 408
#     4  12  23  41  69  96 129 179 232 276 340 409
#     4  11  24  42  67 100 134 173 224 278 340 411
#     4  11  22  40  64  94 132 171 218 273 334 401
#     4  11  22  42  66  97 134 178 220 281 344 405
#     4  11  23  44  67  97 134 178 225 286 342 406
#
# _framework density 21.380445999999999
#
# number of rings (size 3 to 8) (size 9 to 14) (size 15 to 20)
#    0.000    1.000    6.250    1.500    0.000    0.000 
#    2.250    1.875    0.000    0.000    0.000    0.000 
#    0.000    0.000    0.000    0.000    0.000    0.000 
#
# Total GULP energy -89238.648600 kJ/mol
# GULP energy per Si atom -5577.415537 kJ/mol
# Density = 2.133178 g / cm^3
# Si number density = 21.380446 Si / 1000 Ang^3
#
#
#
# Elastic Constant Matrix: (Units=GPa)
#
#
# Indices 1 2 3 4 5 6 
#
# 1 101.6236 58.8760 11.8298 3.7191 -20.0689 12.8501
# 2 58.8760 114.1079 16.0281 1.5875 -8.9894 7.8119
# 3 11.8298 16.0281 69.1153 -3.9287 -9.7922 -8.4014
# 4 3.7191 1.5875 -3.9287 21.8274 9.0428 -11.7272
# 5 -20.0689 -8.9894 -9.7922 9.0428 31.3436 -3.3995
# 6 12.8501 7.8119 -8.4014 -11.7272 -3.3995 45.3703
#
#
#
# Elastic Compliance Matrix: (Units=1/GPa)
#
#
# Indices 1 2 3 4 5 6 
#
# 1 0.017633 -0.007547 -0.000964 -0.010328 0.011186 -0.005705
# 2 -0.007547 0.012799 -0.001978 0.000597 -0.001998 -0.000428
# 3 -0.000964 -0.001978 0.016426 0.004706 0.003144 0.005107
# 4 -0.010328 0.000597 0.004706 0.068272 -0.022537 0.019652
# 5 0.011186 -0.001998 0.003144 -0.022537 0.045472 -0.004660
# 6 -0.005705 -0.000428 0.005107 0.019652 -0.004660 0.029406
#
#
# Mechanical properties :
#
#
# Convention : Reuss Voigt Hill
#
# Bulk Modulus (GPa) = 38.63795 50.92385 44.78090
# Shear Modulus (GPa) = 22.76733 32.91579 27.84156
#
# Velocity S-wave (km/s) = 3.26677 3.92794 3.61251
# Velocity P-wave (km/s) = 5.68682 6.66643 6.19601
#
# Compressibility (1/GPa) = 0.02588129
#
# Stress axis : x y z
#
# Youngs Moduli (GPa) = 56.71095 78.12987 60.87989
#
# Poissons Ratio (x) = 0.58968 0.05866
# Poissons Ratio (y) = 0.42802 0.12039
# Poissons Ratio (z) = 0.05464 0.15450
#
# Static dielectric constant tensor:
#      x y z
#    x 1.771960 -0.004330 -0.015520 
#    y -0.004330 1.829000 -0.034420 
#    z -0.015520 -0.034420 1.871490 
# 
# From -- ./inp_files/462510.got.cif
#   From: 2010.05.17/outbox.cif.g08.bks.cpg/sg2_232_cif.got.tgz:462510.got - 2010.06.03 11:33:40.
