data_PCOD9038658
_publ_section_title
;
Structure prediction by ZEFSAII (Michael W. Deem and Ramdas Pophale) SiO2 
 PCOD9038658
Probable space group: P -1
;
_chemical_formula_sum "Si O2"
_cell_formula_units_Z 16
_cell_length_a 15.734570
_cell_length_b 5.090191
_cell_length_c 25.983059
_cell_angle_alpha 119.825159
_cell_angle_beta 157.213563
_cell_angle_gamma 67.098193
_cell_volume 684.153258
_symmetry_space_group_name_H-M "P -1"
_symmetry_group_IT_number 2
_symmetry_cell_setting 'triclinic'
loop_
_space_group_symop_operation_xyz
x,y,z
-x,-y,-z
loop_
_atom_site_type_symbol
_atom_site_label
_atom_site_fract_x
_atom_site_fract_y
_atom_site_fract_z
Si Si1 0.705809 0.454963 0.679734
Si Si2 0.516890 0.361353 0.051090
Si Si3 0.661361 0.210595 0.284920
Si Si4 0.875364 0.824597 0.516767
Si Si5 0.027047 0.362216 0.057774
Si Si6 0.200294 0.208972 0.336436
Si Si7 0.019493 0.484010 0.354334
Si Si8 0.386918 0.553526 0.096335
O O1 0.443468 0.379324 0.511367
O O2 0.814130 0.718733 0.725103
O O3 0.752621 0.526256 0.772920
O O4 0.802042 0.149553 0.691935
O O5 0.764206 0.505414 0.224719
O O6 0.344283 0.457355 0.003952
O O7 0.500000 0.500000 0.000000
O O8 0.500000 0.000000 0.000000
O O9 0.901464 0.182096 0.392999
O O10 0.503997 0.288009 0.159089
O O11 0.697395 0.525397 0.369230
O O12 0.547631 0.896070 0.219492
O O13 0.919308 0.754656 0.593756
O O14 0.833014 0.170403 0.522815
O O15 0.829594 0.432913 0.990424
O O16 0.000000 0.500000 0.000000
O O17 0.000000 0.000000 0.000000
O O18 0.030943 0.348005 0.290648
#
# Coordination Sequence:
#
# PCOD9038658 Si02
#       8
#     2   2   2   2   2   2   2   2
#     4  10  23  47  66  96 130 169 227 280 349 390
#     4  12  26  41  63  98 139 177 218 268 333 410
#     4  11  22  42  64  93 132 179 220 258 339 391
#     4  11  22  39  63  94 137 173 212 277 314 405
#     4  12  28  47  71 100 134 181 237 285 337 407
#     4  10  23  41  72  96 129 173 215 290 339 400
#     4  12  23  40  64 103 133 167 229 262 336 407
#     4  12  25  45  68  96 138 180 219 276 333 401
#
# _framework density 23.386572000000001
#
# number of rings (size 3 to 8) (size 9 to 14) (size 15 to 20)
#    0.000    0.750    2.500    4.500    3.500    5.000 
#    0.000    0.000    0.000    0.000    0.000    0.000 
#    0.000    0.000    0.000    0.000    0.000    0.000 
#
# Total GULP energy -89557.631282 kJ/mol
# GULP energy per Si atom -5597.351955 kJ/mol
# Density = 2.333334 g / cm^3
# Si number density = 23.386572 Si / 1000 Ang^3
#
#
#
# Elastic Constant Matrix: (Units=GPa)
#
#
# Indices 1 2 3 4 5 6 
#
# 1 123.1054 33.0990 24.1259 -8.7627 -19.9041 5.6042
# 2 33.0990 95.3690 7.2116 11.1879 1.9906 13.4133
# 3 24.1259 7.2116 65.2955 8.0809 -18.5681 6.2990
# 4 -8.7627 11.1879 8.0809 34.3139 3.1353 -7.2016
# 5 -19.9041 1.9906 -18.5681 3.1353 34.0981 -1.2022
# 6 5.6042 13.4133 6.2990 -7.2016 -1.2022 45.4545
#
#
#
# Elastic Compliance Matrix: (Units=1/GPa)
#
#
# Indices 1 2 3 4 5 6 
#
# 1 0.010910 -0.004391 -0.002934 0.004743 0.004634 0.001231
# 2 -0.004391 0.013406 0.000640 -0.006369 -0.002573 -0.004581
# 3 -0.002934 0.000640 0.020413 -0.007421 0.009922 -0.003569
# 4 0.004743 -0.006369 -0.007421 0.036209 -0.003949 0.007955
# 5 0.004634 -0.002573 0.009922 -0.003949 0.037920 -0.000810
# 6 0.001231 -0.004581 -0.003569 0.007955 -0.000810 0.024933
#
#
# Mechanical properties :
#
#
# Convention : Reuss Voigt Hill
#
# Bulk Modulus (GPa) = 31.88874 45.84922 38.86898
# Shear Modulus (GPa) = 29.83064 37.39554 33.61309
#
# Velocity S-wave (km/s) = 3.57535 4.00311 3.79526
# Velocity P-wave (km/s) = 5.54160 6.40422 5.98846
#
# Compressibility (1/GPa) = 0.03135903
#
# Stress axis : x y z
#
# Youngs Moduli (GPa) = 91.66322 74.59246 48.98925
#
# Poissons Ratio (x) = 0.32752 0.14374
# Poissons Ratio (y) = 0.40247 -0.03136
# Poissons Ratio (z) = 0.26894 -0.04775
#
# Static dielectric constant tensor:
#      x y z
#    x 1.908730 0.014640 0.027700 
#    y 0.014640 1.822790 0.014220 
#    z 0.027700 0.014220 1.969830 
# 
# From -- ./inp_files/611212.got.cif
#   From: 2010.05.17/outbox.cif.g08.bks.cpg/sg2_306_cif.got.tgz:611212.got - 2010.06.03 11:33:40.
