data_PCOD9038974
_publ_section_title
;
Structure prediction by ZEFSAII (Michael W. Deem and Ramdas Pophale) SiO2 
 PCOD9038974
Probable space group: P -1
;
_chemical_formula_sum "Si O2"
_cell_formula_units_Z 16
_cell_length_a 12.363468
_cell_length_b 18.021917
_cell_length_c 12.003858
_cell_angle_alpha 60.631678
_cell_angle_beta 121.210170
_cell_angle_gamma 159.742536
_cell_volume 791.948980
_symmetry_space_group_name_H-M "P -1"
_symmetry_group_IT_number 2
_symmetry_cell_setting 'triclinic'
loop_
_space_group_symop_operation_xyz
x,y,z
-x,-y,-z
loop_
_atom_site_type_symbol
_atom_site_label
_atom_site_fract_x
_atom_site_fract_y
_atom_site_fract_z
Si Si1 0.283241 0.161787 0.681478
Si Si2 0.363109 0.462122 0.308406
Si Si3 0.137132 0.368149 0.613855
Si Si4 0.490009 0.858499 0.051583
Si Si5 0.258746 0.925541 0.586983
Si Si6 0.994363 0.308670 0.031134
Si Si7 0.204437 0.862815 0.180287
Si Si8 0.595853 0.793828 0.547128
O O1 0.430064 0.344018 0.652965
O O2 0.441772 0.190546 0.825686
O O3 0.361485 0.184739 0.579811
O O4 0.902978 0.935071 0.657516
O O5 0.564708 0.502581 0.365111
O O6 0.282666 0.457218 0.151413
O O7 0.037365 0.244754 0.361241
O O8 0.273614 0.545115 0.586088
O O9 0.880094 0.209366 0.494969
O O10 0.994669 0.237135 0.744282
O O11 0.719640 0.067488 0.086357
O O12 0.142405 0.684273 0.010964
O O13 0.610052 0.946592 0.924554
O O14 0.531817 0.041297 0.708675
O O15 0.385454 0.096007 0.492447
O O16 0.014122 0.312991 0.905037
#
# Coordination Sequence:
#
# PCOD9038974 Si02
#       8
#     2   2   2   2   2   2   2   2
#     4  11  21  37  62  98 128 160 218 269 306 370
#     4  12  21  39  65  96 127 160 221 262 306 375
#     4  12  25  41  63 100 128 169 212 255 328 374
#     4   9  18  39  62  90 119 171 209 252 315 368
#     4  12  22  45  66  94 130 162 220 263 309 380
#     4   9  18  38  64  88 118 172 204 257 308 370
#     4  10  23  42  65  91 133 173 201 259 326 376
#     4  11  23  38  65  94 128 167 209 269 314 370
#
# _framework density 20.203320999999999
#
# number of rings (size 3 to 8) (size 9 to 14) (size 15 to 20)
#    0.750    0.500    3.750    4.500    0.000    1.500 
#    0.000    1.875    0.000    0.000    0.000    0.000 
#    0.000    0.000    0.000    0.000    0.000    0.000 
#
# Total GULP energy -89328.092041 kJ/mol
# GULP energy per Si atom -5583.005753 kJ/mol
# Density = 2.015734 g / cm^3
# Si number density = 20.203321 Si / 1000 Ang^3
#
#
#
# Elastic Constant Matrix: (Units=GPa)
#
#
# Indices 1 2 3 4 5 6 
#
# 1 34.1259 19.3581 16.0846 -5.8484 6.3356 -2.1055
# 2 19.3581 42.5197 13.8031 13.0123 -0.6868 -13.4826
# 3 16.0846 13.8031 106.6932 12.9582 -0.3337 7.3557
# 4 -5.8484 13.0123 12.9582 29.7602 -1.6509 -1.7795
# 5 6.3356 -0.6868 -0.3337 -1.6509 37.5221 -3.7873
# 6 -2.1055 -13.4826 7.3557 -1.7795 -3.7873 23.2273
#
#
#
# Elastic Compliance Matrix: (Units=1/GPa)
#
#
# Indices 1 2 3 4 5 6 
#
# 1 0.062323 -0.040823 -0.006928 0.031561 -0.011489 -0.015308
# 2 -0.040823 0.062348 -0.000073 -0.032820 0.009778 0.031593
# 3 -0.006928 -0.000073 0.011560 -0.006620 0.000500 -0.004757
# 4 0.031561 -0.032820 -0.006620 0.056152 -0.004582 -0.010539
# 5 -0.011489 0.009778 0.000500 -0.004582 0.029474 0.008931
# 6 -0.015308 0.031593 -0.004757 -0.010539 0.008931 0.062159
#
#
# Mechanical properties :
#
#
# Convention : Reuss Voigt Hill
#
# Bulk Modulus (GPa) = 24.64136 31.31447 27.97791
# Shear Modulus (GPa) = 12.71639 27.04146 19.87892
#
# Velocity S-wave (km/s) = 2.51155 3.66247 3.14019
# Velocity P-wave (km/s) = 4.54243 5.78085 5.19865
#
# Compressibility (1/GPa) = 0.04058218
#
# Stress axis : x y z
#
# Youngs Moduli (GPa) = 16.04542 16.03899 86.50488
#
# Poissons Ratio (x) = 0.65477 0.59929
# Poissons Ratio (y) = 0.65503 0.00633
# Poissons Ratio (z) = 0.11116 0.00117
#
# Static dielectric constant tensor:
#      x y z
#    x 1.719290 0.001680 0.000490 
#    y 0.001680 1.737930 0.011460 
#    z 0.000490 0.011460 1.705790 
# 
# From -- ./inp_files/437268.got.cif
#   From: 2010.05.17/outbox.cif.g08.bks.cpg/sg2_219_cif.got.tgz:437268.got - 2010.06.03 11:33:40.
