data_PCOD9038017
_publ_section_title
;
Structure prediction by ZEFSAII (Michael W. Deem and Ramdas Pophale) SiO2 
 PCOD9038017
Probable space group: P -1
;
_chemical_formula_sum "Si O2"
_cell_formula_units_Z 16
_cell_length_a 18.563714
_cell_length_b 15.367936
_cell_length_c 12.126793
_cell_angle_alpha 140.208850
_cell_angle_beta 26.759996
_cell_angle_gamma 153.892652
_cell_volume 675.654052
_symmetry_space_group_name_H-M "P -1"
_symmetry_group_IT_number 2
_symmetry_cell_setting 'triclinic'
loop_
_space_group_symop_operation_xyz
x,y,z
-x,-y,-z
loop_
_atom_site_type_symbol
_atom_site_label
_atom_site_fract_x
_atom_site_fract_y
_atom_site_fract_z
Si Si1 0.774842 0.707628 0.810909
Si Si2 0.706009 0.297073 0.939135
Si Si3 0.229021 0.712344 0.699143
Si Si4 0.034932 0.178028 0.581374
Si Si5 0.944677 0.808102 0.906966
Si Si6 0.702934 0.975979 0.192999
Si Si7 0.482081 0.526265 0.677373
Si Si8 0.597177 0.109171 0.136463
O O1 0.894374 0.750980 0.573874
O O2 0.500000 0.500000 0.000000
O O3 0.890147 0.718259 0.773491
O O4 0.792924 0.882611 0.957508
O O5 0.581035 0.352924 0.115695
O O6 0.594415 0.195061 0.112119
O O7 0.979154 0.497202 0.792572
O O8 0.637461 0.130629 0.788694
O O9 0.428153 0.795302 0.419720
O O10 0.335483 0.755882 0.718427
O O11 0.227038 0.875402 0.851781
O O12 0.270537 0.365550 0.506043
O O13 0.000000 0.000000 0.500000
O O14 0.810224 0.132708 0.862036
O O15 0.725403 0.665151 0.151004
O O16 0.000000 0.000000 0.000000
O O17 0.166873 0.884756 0.740731
O O18 0.500000 0.500000 0.500000
#
# Coordination Sequence:
#
# PCOD9038017 Si02
#       8
#     2   2   2   2   2   2   2   2
#     4  11  24  43  68 101 142 178 235 294 353 424
#     4  11  25  44  68 101 144 180 235 292 359 418
#     4  11  23  46  70  95 140 186 231 292 348 429
#     4  12  25  43  71 103 139 183 232 297 353 418
#     4  10  23  41  65  97 138 178 228 289 347 416
#     4  10  24  42  67  99 133 183 235 281 356 426
#     4  12  25  43  71 105 140 190 241 293 359 426
#     4  11  26  44  70 106 140 186 238 293 357 431
#
# _framework density 23.680757
#
# number of rings (size 3 to 8) (size 9 to 14) (size 15 to 20)
#    0.000    1.000    3.750    1.875    5.250    4.000 
#    0.000    1.250    0.000    0.000    0.000    0.000 
#    0.000    0.000    0.000    0.000    0.000    0.000 
#
# Total GULP energy -89416.268853 kJ/mol
# GULP energy per Si atom -5588.516803 kJ/mol
# Density = 2.362686 g / cm^3
# Si number density = 23.680757 Si / 1000 Ang^3
#
#
#
# Elastic Constant Matrix: (Units=GPa)
#
#
# Indices 1 2 3 4 5 6 
#
# 1 122.5858 24.3771 36.2672 -8.6593 17.9019 11.7150
# 2 24.3771 82.4737 39.6279 -24.4957 5.3687 7.4813
# 3 36.2672 39.6279 80.9065 -23.0357 12.3536 12.9103
# 4 -8.6593 -24.4957 -23.0357 24.8713 -3.1940 -5.8521
# 5 17.9019 5.3687 12.3536 -3.1940 32.7274 -5.2006
# 6 11.7150 7.4813 12.9103 -5.8521 -5.2006 52.3624
#
#
#
# Elastic Compliance Matrix: (Units=1/GPa)
#
#
# Indices 1 2 3 4 5 6 
#
# 1 0.010167 -0.001537 -0.003430 -0.002181 -0.004530 -0.001903
# 2 -0.001537 0.018917 -0.004870 0.013829 0.001003 0.000487
# 3 -0.003430 -0.004870 0.020849 0.012096 -0.004454 -0.002768
# 4 -0.002181 0.013829 0.012096 0.065110 0.001177 0.002923
# 5 -0.004530 0.001003 -0.004454 0.001177 0.035560 0.005632
# 6 -0.001903 0.000487 -0.002768 0.002923 0.005632 0.021022
#
#
# Mechanical properties :
#
#
# Convention : Reuss Voigt Hill
#
# Bulk Modulus (GPa) = 33.04869 54.05672 43.55271
# Shear Modulus (GPa) = 24.82781 34.37180 29.59980
#
# Velocity S-wave (km/s) = 3.24147 3.81394 3.53930
# Velocity P-wave (km/s) = 5.29110 6.50167 5.92737
#
# Compressibility (1/GPa) = 0.03025838
#
# Stress axis : x y z
#
# Youngs Moduli (GPa) = 98.35330 52.86111 47.96493
#
# Poissons Ratio (x) = 0.08126 0.16454
# Poissons Ratio (y) = 0.15119 0.23359
# Poissons Ratio (z) = 0.33738 0.25744
#
# Static dielectric constant tensor:
#      x y z
#    x 2.085750 -0.008890 0.080910 
#    y -0.008890 1.968830 -0.017690 
#    z 0.080910 -0.017690 1.941290 
# 
# From -- ./inp_files/466107.got.cif
#   From: 2010.05.17/outbox.cif.g08.bks.cpg/sg2_234_cif.got.tgz:466107.got - 2010.06.03 11:33:40.
