data_PCOD9038839
_publ_section_title
;
Structure prediction by ZEFSAII (Michael W. Deem and Ramdas Pophale) SiO2 
 PCOD9038839
Probable space group: P -1
;
_chemical_formula_sum "Si O2"
_cell_formula_units_Z 15
_cell_length_a 7.606886
_cell_length_b 9.296966
_cell_length_c 11.731078
_cell_angle_alpha 117.828200
_cell_angle_beta 56.924600
_cell_angle_gamma 115.979327
_cell_volume 595.694580
_symmetry_space_group_name_H-M "P -1"
_symmetry_group_IT_number 2
_symmetry_cell_setting 'triclinic'
loop_
_space_group_symop_operation_xyz
x,y,z
-x,-y,-z
loop_
_atom_site_type_symbol
_atom_site_label
_atom_site_fract_x
_atom_site_fract_y
_atom_site_fract_z
Si Si1 0.500000 0.500000 0.500000
Si Si2 0.634211 0.334212 0.171996
Si Si3 0.605829 0.185276 0.486300
Si Si4 0.890838 0.985262 0.658452
Si Si5 0.996878 0.340493 0.517687
Si Si6 0.527165 0.320253 0.955858
Si Si7 0.964643 0.652340 0.235080
Si Si8 0.377801 0.964092 0.805943
O O1 0.510726 0.381212 0.342521
O O2 0.507463 0.334204 0.527319
O O3 0.827445 0.502019 0.154659
O O4 0.717525 0.168586 0.109928
O O5 0.497159 0.297517 0.093489
O O6 0.741677 0.259864 0.578498
O O7 0.712701 0.131383 0.312951
O O8 0.500000 0.000000 0.500000
O O9 0.639241 0.980875 0.732121
O O10 0.919303 0.807900 0.625015
O O11 0.000000 0.000000 0.500000
O O12 0.029760 0.156659 0.729481
O O13 0.000000 0.500000 0.500000
O O14 0.111247 0.387130 0.617298
O O15 0.782145 0.338221 0.850242
O O16 0.372320 0.156626 0.892035
O O17 0.500000 0.500000 0.000000
#
# Coordination Sequence:
#
# PCOD9038839 Si02
#       8
#     1   2   2   2   2   2   2   2
#     4  10  26  38  66 106 132 176 218 282 352 392
#     4  11  24  42  69  91 137 171 227 279 342 403
#     4  11  23  38  64  95 139 171 225 275 336 404
#     4   9  20  37  59  86 130 172 211 267 328 404
#     4  11  23  36  60  98 137 168 221 282 337 395
#     4  11  25  44  67  95 129 181 230 278 330 413
#     4  10  23  43  63  94 131 177 230 264 345 411
#     4  10  23  42  63  96 130 176 228 266 348 402
#
# _framework density 25.180689999999998
#
# number of rings (size 3 to 8) (size 9 to 14) (size 15 to 20)
#    0.000    1.600    0.000    4.800   16.800    0.000 
#    0.000    0.667    0.000    0.000    0.000    0.000 
#    0.000    0.000    0.000    0.000    0.000    0.000 
#
# Total GULP energy -83502.695346 kJ/mol
# GULP energy per Si atom -5566.846356 kJ/mol
# Density = 2.512338 g / cm^3
# Si number density = 25.180690 Si / 1000 Ang^3
#
#
#
# Elastic Constant Matrix: (Units=GPa)
#
#
# Indices 1 2 3 4 5 6 
#
# 1 62.7390 25.8810 12.8974 12.4742 17.3165 -15.9418
# 2 25.8810 172.2357 19.8559 52.0766 -5.3233 -23.2832
# 3 12.8974 19.8559 60.1824 10.7367 11.6771 -11.7241
# 4 12.4742 52.0766 10.7367 48.7462 -1.7076 1.2375
# 5 17.3165 -5.3233 11.6771 -1.7076 35.2372 6.4572
# 6 -15.9418 -23.2832 -11.7241 1.2375 6.4572 50.2918
#
#
#
# Elastic Compliance Matrix: (Units=1/GPa)
#
#
# Indices 1 2 3 4 5 6 
#
# 1 0.023515 -0.001095 0.000817 -0.005745 -0.013932 0.009067
# 2 -0.001095 0.009628 -0.000548 -0.009957 0.000939 0.004107
# 3 0.000817 -0.000548 0.020232 -0.004528 -0.008493 0.005924
# 4 -0.005745 -0.009957 -0.004528 0.034065 0.006141 -0.009113
# 5 -0.013932 0.000939 -0.008493 0.006141 0.040554 -0.011319
# 6 0.009067 0.004107 0.005924 -0.009113 -0.011319 0.027718
#
#
# Mechanical properties :
#
#
# Convention : Reuss Voigt Hill
#
# Bulk Modulus (GPa) = 19.33428 45.82508 32.57968
# Shear Modulus (GPa) = 28.63601 42.62324 35.62962
#
# Velocity S-wave (km/s) = 3.37593 4.11870 3.76567
# Velocity P-wave (km/s) = 4.78443 6.39189 5.64566
#
# Compressibility (1/GPa) = 0.05172161
#
# Stress axis : x y z
#
# Youngs Moduli (GPa) = 42.52674 103.85911 49.42771
#
# Poissons Ratio (x) = 0.11375 -0.04036
# Poissons Ratio (y) = 0.04658 0.02708
# Poissons Ratio (z) = -0.03473 0.05690
#
# Static dielectric constant tensor:
#      x y z
#    x 1.911180 0.007530 -0.047030 
#    y 0.007530 1.843740 0.152740 
#    z -0.047030 0.152740 2.059780 
# 
# From -- ./inp_files/307181.got.cif
#   From: 2010.05.17/outbox.cif.g08.bks.cpg/sg2_154_cif.got.tgz:307181.got - 2010.06.03 11:33:40.
