data_PCOD9038470
_publ_section_title
;
Structure prediction by ZEFSAII (Michael W. Deem and Ramdas Pophale) SiO2 
 PCOD9038470
Probable space group: P -1
;
_chemical_formula_sum "Si O2"
_cell_formula_units_Z 16
_cell_length_a 8.798136
_cell_length_b 8.518152
_cell_length_c 15.232901
_cell_angle_alpha 93.887455
_cell_angle_beta 136.923808
_cell_angle_gamma 105.323793
_cell_volume 690.497942
_symmetry_space_group_name_H-M "P -1"
_symmetry_group_IT_number 2
_symmetry_cell_setting 'triclinic'
loop_
_space_group_symop_operation_xyz
x,y,z
-x,-y,-z
loop_
_atom_site_type_symbol
_atom_site_label
_atom_site_fract_x
_atom_site_fract_y
_atom_site_fract_z
Si Si1 0.300511 0.389319 0.246264
Si Si2 0.148087 0.479059 0.479340
Si Si3 0.835538 0.799908 0.211842
Si Si4 0.055777 0.567809 0.253149
Si Si5 0.330173 0.572892 0.080265
Si Si6 0.939662 0.981201 0.095253
Si Si7 0.083858 0.911870 0.606415
Si Si8 0.653696 0.059890 0.830583
O O1 0.559422 0.389283 0.380581
O O2 0.284388 0.439964 0.138478
O O3 0.081954 0.195650 0.174916
O O4 0.274640 0.540800 0.297699
O O5 0.000000 0.500000 0.500000
O O6 0.029050 0.477969 0.334246
O O7 0.120477 0.285403 0.473954
O O8 0.059651 0.750205 0.291894
O O9 0.610716 0.644692 0.163768
O O10 0.898952 0.977876 0.296324
O O11 0.765946 0.846397 0.090007
O O12 0.846149 0.495939 0.083366
O O13 0.310625 0.746608 0.116030
O O14 0.159806 0.925461 0.168439
O O15 0.754964 0.964020 0.938251
O O16 0.357532 0.939152 0.695018
O O17 0.000000 0.000000 0.500000
#
# Coordination Sequence:
#
# PCOD9038470 Si02
#       8
#     2   2   2   2   2   2   2   2
#     4  12  25  46  71 102 141 184 231 284 346 415
#     4  12  26  46  71 100 140 186 233 284 347 416
#     4  11  26  42  69 100 139 178 230 283 342 408
#     4  12  25  43  68 103 138 183 232 284 344 414
#     4  11  24  44  70 101 141 182 230 284 342 413
#     4  11  24  42  70 105 137 176 229 288 350 407
#     4  11  24  45  68  97 137 184 229 280 344 416
#     4  10  23  41  69  98 139 175 226 278 352 403
#
# _framework density 23.171683000000002
#
# number of rings (size 3 to 8) (size 9 to 14) (size 15 to 20)
#    0.000    0.750    1.250    6.375    5.250    1.000 
#    0.000    1.875    0.000    0.000    0.000    0.000 
#    0.000    0.000    0.000    0.000    0.000    0.000 
#
# Total GULP energy -89317.217459 kJ/mol
# GULP energy per Si atom -5582.326091 kJ/mol
# Density = 2.311894 g / cm^3
# Si number density = 23.171683 Si / 1000 Ang^3
#
#
#
# Elastic Constant Matrix: (Units=GPa)
#
#
# Indices 1 2 3 4 5 6 
#
# 1 118.4487 22.9186 27.1688 -15.4647 1.1677 -8.9810
# 2 22.9186 78.6995 11.2859 -23.5041 -2.4850 14.7657
# 3 27.1688 11.2859 42.3286 -3.7189 1.8028 -4.0864
# 4 -15.4647 -23.5041 -3.7189 30.7168 10.9581 -0.3732
# 5 1.1677 -2.4850 1.8028 10.9581 37.2810 -16.0602
# 6 -8.9810 14.7657 -4.0864 -0.3732 -16.0602 31.7821
#
#
#
# Elastic Compliance Matrix: (Units=1/GPa)
#
#
# Indices 1 2 3 4 5 6 
#
# 1 0.010837 -0.002047 -0.005818 0.003081 0.000412 0.003510
# 2 -0.002047 0.022617 -0.004163 0.019622 -0.011379 -0.017141
# 3 -0.005818 -0.004163 0.028584 -0.003112 0.001444 0.004658
# 4 0.003081 0.019622 -0.003112 0.057099 -0.024104 -0.020156
# 5 0.000412 -0.011379 0.001444 -0.024104 0.045190 0.028141
# 6 0.003510 -0.017141 0.004658 -0.020156 0.028141 0.055002
#
#
# Mechanical properties :
#
#
# Convention : Reuss Voigt Hill
#
# Bulk Modulus (GPa) = 26.32802 40.24704 33.28753
# Shear Modulus (GPa) = 19.52785 31.82954 25.67870
#
# Velocity S-wave (km/s) = 2.90616 3.71029 3.33256
# Velocity P-wave (km/s) = 4.75897 5.98011 5.40414
#
# Compressibility (1/GPa) = 0.03798234
#
# Stress axis : x y z
#
# Youngs Moduli (GPa) = 92.27291 44.21531 34.98488
#
# Poissons Ratio (x) = 0.09050 0.20355
# Poissons Ratio (y) = 0.18887 0.14563
# Poissons Ratio (z) = 0.53687 0.18405
#
# Static dielectric constant tensor:
#      x y z
#    x 2.185280 -0.003540 -0.106080 
#    y -0.003540 1.881370 0.019300 
#    z -0.106080 0.019300 1.870180 
# 
# From -- ./inp_files/207321.got.cif
#   From: 2010.05.17/outbox.cif.g08.bks.cpg/sg2_104_cif.got.tgz:207321.got - 2010.06.03 11:33:40.
