data_PCOD9038199
_publ_section_title
;
Structure prediction by ZEFSAII (Michael W. Deem and Ramdas Pophale) SiO2 
 PCOD9038199
Probable space group: P -1
;
_chemical_formula_sum "Si O2"
_cell_formula_units_Z 16
_cell_length_a 11.555095
_cell_length_b 19.484865
_cell_length_c 6.515135
_cell_angle_alpha 127.621633
_cell_angle_beta 70.520862
_cell_angle_gamma 136.523295
_cell_volume 783.120533
_symmetry_space_group_name_H-M "P -1"
_symmetry_group_IT_number 2
_symmetry_cell_setting 'triclinic'
loop_
_space_group_symop_operation_xyz
x,y,z
-x,-y,-z
loop_
_atom_site_type_symbol
_atom_site_label
_atom_site_fract_x
_atom_site_fract_y
_atom_site_fract_z
Si Si1 0.304089 0.763230 0.746781
Si Si2 0.926600 0.122880 0.328580
Si Si3 0.410829 0.757865 0.101168
Si Si4 0.937283 0.834523 0.095644
Si Si5 0.375276 0.905823 0.588965
Si Si6 0.984057 0.694263 0.042291
Si Si7 0.215985 0.062727 0.598977
Si Si8 0.164120 0.550638 0.127154
O O1 0.410474 0.878929 0.741895
O O2 0.217526 0.645093 0.445844
O O3 0.412447 0.772238 0.882881
O O4 0.151503 0.743207 0.907282
O O5 0.749976 0.076328 0.262070
O O6 0.977613 0.223764 0.639431
O O7 0.892664 0.019938 0.288914
O O8 0.057751 0.169361 0.157360
O O9 0.296586 0.782484 0.296363
O O10 0.590324 0.856724 0.295089
O O11 0.317489 0.627776 0.009299
O O12 0.891827 0.717552 0.990592
O O13 0.818020 0.854046 0.277451
O O14 0.128859 0.958931 0.288268
O O15 0.500000 0.000000 0.500000
O O16 0.879427 0.560683 0.940608
O O17 0.000000 0.500000 0.000000
#
# Coordination Sequence:
#
# PCOD9038199 Si02
#       8
#     2   2   2   2   2   2   2   2
#     4  11  22  37  62  92 126 168 196 249 325 370
#     4  11  20  37  63  89 122 159 206 260 304 373
#     4  11  23  39  59  94 131 161 201 256 317 373
#     4  10  23  41  67  85 121 173 215 254 308 356
#     4  11  21  36  55  94 128 155 192 249 315 379
#     4  11  21  37  62  94 117 161 221 250 303 374
#     4  10  23  43  59  91 125 165 216 255 304 376
#     4  11  23  38  62  93 130 160 204 257 312 382
#
# _framework density 20.431080000000001
#
# number of rings (size 3 to 8) (size 9 to 14) (size 15 to 20)
#    0.000    1.250    5.000    1.500    0.000    2.500 
#    0.000    0.625    0.000    1.500    0.000    0.000 
#    0.000    0.000    0.000    0.000    0.000    0.000 
#
# Total GULP energy -89097.897135 kJ/mol
# GULP energy per Si atom -5568.618571 kJ/mol
# Density = 2.038458 g / cm^3
# Si number density = 20.431080 Si / 1000 Ang^3
#
#
#
# Elastic Constant Matrix: (Units=GPa)
#
#
# Indices 1 2 3 4 5 6 
#
# 1 56.3920 20.1276 16.6153 5.6732 4.0780 -21.8122
# 2 20.1276 134.9618 30.3330 -5.5655 -2.1587 -32.8389
# 3 16.6153 30.3330 79.3541 -4.4352 5.7282 -4.9428
# 4 5.6732 -5.5655 -4.4352 33.2712 -4.8772 0.0784
# 5 4.0780 -2.1587 5.7282 -4.8772 27.3636 6.4194
# 6 -21.8122 -32.8389 -4.9428 0.0784 6.4194 27.5621
#
#
#
# Elastic Compliance Matrix: (Units=1/GPa)
#
#
# Indices 1 2 3 4 5 6 
#
# 1 0.031815 0.003650 -0.005658 -0.007392 -0.011932 0.031313
# 2 0.003650 0.011861 -0.004030 0.000394 -0.002663 0.016917
# 3 -0.005658 -0.004030 0.015105 0.002211 -0.000740 -0.006405
# 4 -0.007392 0.000394 0.002211 0.032891 0.008170 -0.006980
# 5 -0.011932 -0.002663 -0.000740 0.008170 0.045190 -0.023297
# 6 0.031313 0.016917 -0.006405 -0.006980 -0.023297 0.085515
#
#
# Mechanical properties :
#
#
# Convention : Reuss Voigt Hill
#
# Bulk Modulus (GPa) = 21.41097 44.98440 33.19769
# Shear Modulus (GPa) = 19.99831 31.21485 25.60658
#
# Velocity S-wave (km/s) = 3.13200 3.91296 3.54406
# Velocity P-wave (km/s) = 4.85609 6.51771 5.74726
#
# Compressibility (1/GPa) = 0.04670502
#
# Stress axis : x y z
#
# Youngs Moduli (GPa) = 31.43124 84.31216 66.20308
#
# Poissons Ratio (x) = -0.30776 0.37459
# Poissons Ratio (y) = -0.11473 0.26680
# Poissons Ratio (z) = 0.17785 0.33978
#
# Static dielectric constant tensor:
#      x y z
#    x 1.783370 -0.021580 0.050830 
#    y -0.021580 1.780050 -0.016960 
#    z 0.050830 -0.016960 1.753580 
# 
# From -- ./inp_files/81572.got.cif
#   From: 2010.05.17/outbox.cif.g08.bks.cpg/sg2_41_cif.got.tgz:81572.got - 2010.06.03 11:33:40.
