data_PCOD9038833
_publ_section_title
;
Structure prediction by ZEFSAII (Michael W. Deem and Ramdas Pophale) SiO2 
 PCOD9038833
Probable space group: P -1
;
_chemical_formula_sum "Si O2"
_cell_formula_units_Z 14
_cell_length_a 8.021755
_cell_length_b 13.797246
_cell_length_c 8.980603
_cell_angle_alpha 120.547941
_cell_angle_beta 55.752544
_cell_angle_gamma 132.290084
_cell_volume 593.986957
_symmetry_space_group_name_H-M "P -1"
_symmetry_group_IT_number 2
_symmetry_cell_setting 'triclinic'
loop_
_space_group_symop_operation_xyz
x,y,z
-x,-y,-z
loop_
_atom_site_type_symbol
_atom_site_label
_atom_site_fract_x
_atom_site_fract_y
_atom_site_fract_z
Si Si1 0.436897 0.319640 0.453857
Si Si2 0.695617 0.976597 0.307087
Si Si3 0.880240 0.587157 0.458709
Si Si4 0.031823 0.764850 0.794200
Si Si5 0.746574 0.219504 0.818206
Si Si6 0.538546 0.138469 0.149521
Si Si7 0.862321 0.799420 0.224615
O O1 0.721411 0.428621 0.392431
O O2 0.302267 0.368499 0.459099
O O3 0.347325 0.170477 0.325816
O O4 0.358039 0.315427 0.660076
O O5 0.520993 0.876875 0.187671
O O6 0.796349 0.907674 0.305244
O O7 0.500000 0.000000 0.500000
O O8 0.926213 0.112377 0.233123
O O9 0.948156 0.638065 0.633236
O O10 0.100354 0.668214 0.295144
O O11 0.303185 0.826868 0.757481
O O12 0.901266 0.753777 0.007120
O O13 0.913425 0.163528 0.747101
O O14 0.685531 0.249759 0.034279
O O15 0.500000 0.000000 0.000000
#
# Coordination Sequence:
#
# PCOD9038833 Si02
#       7
#     2   2   2   2   2   2   2
#     4  10  24  45  65  92 131 175 216 268 325 383
#     4  12  22  39  64  97 131 167 219 270 327 386
#     4  10  23  44  67  92 129 174 219 265 323 391
#     4  11  23  41  63  97 129 165 218 266 322 397
#     4  10  23  42  63  95 132 167 214 270 327 387
#     4  11  23  41  65  95 133 166 212 272 327 382
#     4  10  25  41  62  95 131 175 212 271 330 378
#
# _framework density 23.569541000000001
#
# number of rings (size 3 to 8) (size 9 to 14) (size 15 to 20)
#    0.000    1.429    2.857    1.286    2.000    4.571 
#    0.000    0.000    0.000    0.000    0.000    0.000 
#    0.000    0.000    0.000    0.000    0.000    0.000 
#
# Total GULP energy -77984.126547 kJ/mol
# GULP energy per Si atom -5570.294753 kJ/mol
# Density = 2.351590 g / cm^3
# Si number density = 23.569541 Si / 1000 Ang^3
#
#
#
# Elastic Constant Matrix: (Units=GPa)
#
#
# Indices 1 2 3 4 5 6 
#
# 1 75.4122 21.3970 25.5273 6.8372 21.8955 -7.5547
# 2 21.3970 72.9859 33.3753 7.7671 3.3211 14.8746
# 3 25.5273 33.3753 99.5780 -0.7018 -1.2135 1.8717
# 4 6.8372 7.7671 -0.7018 33.9638 3.6964 0.6033
# 5 21.8955 3.3211 -1.2135 3.6964 20.3627 0.2553
# 6 -7.5547 14.8746 1.8717 0.6033 0.2553 30.1983
#
#
#
# Elastic Compliance Matrix: (Units=1/GPa)
#
#
# Indices 1 2 3 4 5 6 
#
# 1 0.025448 -0.005783 -0.005102 -0.001181 -0.026632 0.009780
# 2 -0.005783 0.020205 -0.005066 -0.003739 0.003438 -0.011039
# 3 -0.005102 -0.005066 0.013137 0.001714 0.006780 0.000313
# 4 -0.001181 -0.003739 0.001714 0.030953 -0.003648 0.000853
# 5 -0.026632 0.003438 0.006780 -0.003648 0.078369 -0.009366
# 6 0.009780 -0.011039 0.000313 0.000853 -0.009366 0.041041
#
#
# Mechanical properties :
#
#
# Convention : Reuss Voigt Hill
#
# Bulk Modulus (GPa) = 37.19293 45.39724 41.29508
# Shear Modulus (GPa) = 19.99853 28.08339 24.04096
#
# Velocity S-wave (km/s) = 2.91605 3.45557 3.19721
# Velocity P-wave (km/s) = 5.21077 5.93499 5.58463
#
# Compressibility (1/GPa) = 0.02688683
#
# Stress axis : x y z
#
# Youngs Moduli (GPa) = 39.29640 49.49353 76.11947
#
# Poissons Ratio (x) = 0.28621 0.38837
# Poissons Ratio (y) = 0.22724 0.38566
# Poissons Ratio (z) = 0.20049 0.25076
#
# Static dielectric constant tensor:
#      x y z
#    x 1.978450 0.006500 -0.004580 
#    y 0.006500 1.970840 -0.005000 
#    z -0.004580 -0.005000 1.928150 
# 
# From -- ./inp_files/193930.got.cif
#   From: 2010.05.17/outbox.cif.g08.bks.cpg/sg2_97_cif.got.tgz:193930.got - 2010.06.03 11:33:40.
