data_PCOD9038733
_publ_section_title
;
Structure prediction by ZEFSAII (Michael W. Deem and Ramdas Pophale) SiO2 
 PCOD9038733
Probable space group: P -1
;
_chemical_formula_sum "Si O2"
_cell_formula_units_Z 12
_cell_length_a 14.924013
_cell_length_b 12.651547
_cell_length_c 17.343490
_cell_angle_alpha 23.210920
_cell_angle_beta 155.522081
_cell_angle_gamma 143.743019
_cell_volume 525.597147
_symmetry_space_group_name_H-M "P -1"
_symmetry_group_IT_number 2
_symmetry_cell_setting 'triclinic'
loop_
_space_group_symop_operation_xyz
x,y,z
-x,-y,-z
loop_
_atom_site_type_symbol
_atom_site_label
_atom_site_fract_x
_atom_site_fract_y
_atom_site_fract_z
Si Si1 0.744287 0.220630 0.878325
Si Si2 0.324779 0.933337 0.299048
Si Si3 0.696587 0.849581 0.402986
Si Si4 0.136024 0.955974 0.750987
Si Si5 0.015871 0.431774 0.759521
Si Si6 0.211824 0.114616 0.255184
O O1 0.710835 0.527485 0.614770
O O2 0.543548 0.071247 0.799808
O O3 0.987113 0.070892 0.146057
O O4 0.743153 0.238079 0.958904
O O5 0.188587 0.728885 0.290200
O O6 0.585888 0.888773 0.526928
O O7 0.285142 0.913719 0.374681
O O8 0.195426 0.240945 0.974276
O O9 0.722206 0.011670 0.235705
O O10 0.906957 0.874793 0.601515
O O11 0.072349 0.258490 0.534349
O O12 0.143086 0.401025 0.962404
#
# Coordination Sequence:
#
# PCOD9038733 Si02
#       6
#     2   2   2   2   2   2
#     4  11  22  39  60  88 112 152 195 235 287 342
#     4   8  17  34  62  80 114 158 179 230 292 336
#     4  10  23  42  58  80 124 150 187 244 286 336
#     4  11  22  39  60  88 112 152 195 235 287 342
#     4   9  17  35  58  83 111 150 189 225 285 336
#     4   9  17  35  58  83 111 150 189 225 285 336
#
# _framework density 22.831174000000001
#
# number of rings (size 3 to 8) (size 9 to 14) (size 15 to 20)
#    1.000    1.333    1.667    1.000    0.000    2.667 
#    3.000    1.667    0.000    0.000    0.000    0.000 
#    0.000    0.000    0.000    0.000    0.000    0.000 
#
# Total GULP energy -66897.364393 kJ/mol
# GULP energy per Si atom -5574.780366 kJ/mol
# Density = 2.277921 g / cm^3
# Si number density = 22.831174 Si / 1000 Ang^3
#
#
#
# Elastic Constant Matrix: (Units=GPa)
#
#
# Indices 1 2 3 4 5 6 
#
# 1 37.5257 29.4795 26.8040 4.6921 1.2123 13.5170
# 2 29.4795 95.6543 35.3033 27.3700 22.3549 15.0726
# 3 26.8040 35.3033 73.9181 26.3482 12.4870 10.2293
# 4 4.6921 27.3700 26.3482 39.4769 8.9077 9.6673
# 5 1.2123 22.3549 12.4870 8.9077 34.9060 14.4127
# 6 13.5170 15.0726 10.2293 9.6673 14.4127 31.1198
#
#
#
# Elastic Compliance Matrix: (Units=1/GPa)
#
#
# Indices 1 2 3 4 5 6 
#
# 1 0.064809 -0.019154 -0.022303 0.022212 0.024656 -0.029861
# 2 -0.019154 0.021026 0.002765 -0.012924 -0.013606 0.007543
# 3 -0.022303 0.002765 0.026824 -0.017226 -0.010154 0.009585
# 4 0.022212 -0.012924 -0.017226 0.045045 0.008669 -0.015734
# 5 0.024656 -0.013606 -0.010154 0.008669 0.048667 -0.026014
# 6 -0.029861 0.007543 0.009585 -0.015734 -0.026014 0.055236
#
#
# Mechanical properties :
#
#
# Convention : Reuss Voigt Hill
#
# Bulk Modulus (GPa) = 28.34915 43.36352 35.85633
# Shear Modulus (GPa) = 14.25513 28.80127 21.52820
#
# Velocity S-wave (km/s) = 2.50145 3.55560 3.07405
# Velocity P-wave (km/s) = 4.55926 5.99089 5.32342
#
# Compressibility (1/GPa) = 0.03527443
#
# Stress axis : x y z
#
# Youngs Moduli (GPa) = 15.43003 47.55984 37.27945
#
# Poissons Ratio (x) = 0.91098 0.83144
# Poissons Ratio (y) = 0.29555 -0.10308
# Poissons Ratio (z) = 0.34413 -0.13150
#
# Static dielectric constant tensor:
#      x y z
#    x 1.956690 -0.008520 0.031120 
#    y -0.008520 1.818380 0.027900 
#    z 0.031120 0.027900 1.888770 
# 
# From -- ./inp_files/590334.got.cif
#   From: 2010.05.17/outbox.cif.g08.bks.cpg/sg2_296_cif.got.tgz:590334.got - 2010.06.03 11:33:40.
