data_PCOD9038109
_publ_section_title
;
Structure prediction by ZEFSAII (Michael W. Deem and Ramdas Pophale) SiO2 
 PCOD9038109
Probable space group: P -1
;
_chemical_formula_sum "Si O2"
_cell_formula_units_Z 16
_cell_length_a 10.979339
_cell_length_b 14.335480
_cell_length_c 8.999369
_cell_angle_alpha 151.001726
_cell_angle_beta 69.305630
_cell_angle_gamma 104.388870
_cell_volume 636.608416
_symmetry_space_group_name_H-M "P -1"
_symmetry_group_IT_number 2
_symmetry_cell_setting 'triclinic'
loop_
_space_group_symop_operation_xyz
x,y,z
-x,-y,-z
loop_
_atom_site_type_symbol
_atom_site_label
_atom_site_fract_x
_atom_site_fract_y
_atom_site_fract_z
Si Si1 0.090936 0.238230 0.963103
Si Si2 0.095826 0.238016 0.602391
Si Si3 0.360814 0.508906 0.654238
Si Si4 0.369788 0.111430 0.642180
Si Si5 0.635230 0.455151 0.791360
Si Si6 0.814843 0.344078 0.840633
Si Si7 0.376132 0.124454 0.299513
Si Si8 0.180622 0.609782 0.601751
O O1 0.121124 0.450906 0.302332
O O2 0.943741 0.235712 0.082677
O O3 0.087576 0.230186 0.774379
O O4 0.223180 0.088439 0.732913
O O5 0.224390 0.100797 0.299649
O O6 0.951944 0.208370 0.569211
O O7 0.130257 0.454715 0.851769
O O8 0.500000 0.500000 0.500000
O O9 0.385599 0.338068 0.526930
O O10 0.249440 0.503668 0.569261
O O11 0.293451 0.691514 0.037400
O O12 0.382910 0.105584 0.448967
O O13 0.500000 0.000000 0.500000
O O14 0.371066 0.336589 0.993585
O O15 0.738292 0.394193 0.792626
O O16 0.698233 0.317028 0.439073
O O17 0.500000 0.500000 0.000000
O O18 0.500000 0.000000 0.000000
#
# Coordination Sequence:
#
# PCOD9038109 Si02
#       8
#     2   2   2   2   2   2   2   2
#     4   9  17  32  51  80 108 132 178 233 266 309
#     4   9  16  32  55  74 109 135 176 229 275 304
#     4  11  21  34  55  82 110 141 177 223 273 323
#     4  10  21  38  54  77 111 148 177 219 273 318
#     4  11  21  36  55  81 113 143 177 221 271 326
#     4  10  17  33  53  79 104 142 174 225 279 306
#     4  10  22  36  54  81 109 142 184 222 265 321
#     4  10  19  29  54  83 105 134 181 225 272 313
#
# _framework density 25.133189000000002
#
# number of rings (size 3 to 8) (size 9 to 14) (size 15 to 20)
#    0.000    2.000    6.250    0.750    3.500    0.000 
#    0.000    0.000    0.000    3.000    0.000    0.000 
#    0.000    0.000    0.000    0.000    0.000    0.000 
#
# Total GULP energy -89150.542106 kJ/mol
# GULP energy per Si atom -5571.908882 kJ/mol
# Density = 2.507598 g / cm^3
# Si number density = 25.133189 Si / 1000 Ang^3
#
#
#
# Elastic Constant Matrix: (Units=GPa)
#
#
# Indices 1 2 3 4 5 6 
#
# 1 149.5220 56.3351 67.0741 -6.7459 -72.4920 -12.6588
# 2 56.3351 82.0364 45.4885 -29.8430 -24.0806 -6.6356
# 3 67.0741 45.4885 184.5497 -26.4154 -80.3321 5.4493
# 4 -6.7459 -29.8430 -26.4154 41.8575 13.2961 -11.4200
# 5 -72.4920 -24.0806 -80.3321 13.2961 70.4778 -4.8815
# 6 -12.6588 -6.6356 5.4493 -11.4200 -4.8815 46.6343
#
#
#
# Elastic Compliance Matrix: (Units=1/GPa)
#
#
# Indices 1 2 3 4 5 6 
#
# 1 0.022019 -0.013802 0.005115 -0.010327 0.025960 0.003604
# 2 -0.013802 0.028153 -0.005323 0.020167 -0.014148 0.004339
# 3 0.005115 -0.005323 0.012586 -0.000476 0.017942 0.000922
# 4 -0.010327 0.020167 -0.000476 0.042550 -0.011655 0.009322
# 5 0.025960 -0.014148 0.017942 -0.011655 0.059141 0.006274
# 6 0.003604 0.004339 0.000922 0.009322 0.006274 0.025871
#
#
# Mechanical properties :
#
#
# Convention : Reuss Voigt Hill
#
# Bulk Modulus (GPa) = 28.78661 83.76706 56.27683
# Shear Modulus (GPa) = 21.74672 48.27460 35.01066
#
# Velocity S-wave (km/s) = 2.94472 4.38739 3.73635
# Velocity P-wave (km/s) = 4.80003 7.68552 6.40732
#
# Compressibility (1/GPa) = 0.03473838
#
# Stress axis : x y z
#
# Youngs Moduli (GPa) = 45.41539 35.51993 79.45155
#
# Poissons Ratio (x) = 0.49023 -0.40638
# Poissons Ratio (y) = 0.62680 0.42295
# Poissons Ratio (z) = -0.23229 0.18909
#
# Static dielectric constant tensor:
#      x y z
#    x 2.163840 0.170860 -0.034020 
#    y 0.170860 2.047520 0.016810 
#    z -0.034020 0.016810 2.088370 
# 
# From -- ./inp_files/271182.got.cif
#   From: 2010.05.17/outbox.cif.g08.bks.cpg/sg2_136_cif.got.tgz:271182.got - 2010.06.03 11:33:40.
