data_PCOD9038870
_publ_section_title
;
Structure prediction by ZEFSAII (Michael W. Deem and Ramdas Pophale) SiO2 
 PCOD9038870
Probable space group: P -1
;
_chemical_formula_sum "Si O2"
_cell_formula_units_Z 16
_cell_length_a 18.146786
_cell_length_b 9.113427
_cell_length_c 12.749014
_cell_angle_alpha 142.178588
_cell_angle_beta 37.134005
_cell_angle_gamma 139.446629
_cell_volume 730.741488
_symmetry_space_group_name_H-M "P -1"
_symmetry_group_IT_number 2
_symmetry_cell_setting 'triclinic'
loop_
_space_group_symop_operation_xyz
x,y,z
-x,-y,-z
loop_
_atom_site_type_symbol
_atom_site_label
_atom_site_fract_x
_atom_site_fract_y
_atom_site_fract_z
Si Si1 0.564542 0.399437 0.099177
Si Si2 0.879981 0.230194 0.483699
Si Si3 0.408998 0.101480 0.728311
Si Si4 0.180372 0.596988 0.761522
Si Si5 0.650424 0.368112 0.749264
Si Si6 0.736369 0.747085 0.689283
Si Si7 0.085150 0.295994 0.903250
Si Si8 0.785772 0.270113 0.848863
O O1 0.627943 0.707981 0.200055
O O2 0.408956 0.320455 0.234879
O O3 0.609686 0.352777 0.906475
O O4 0.636253 0.262980 0.015900
O O5 0.761064 0.239290 0.549655
O O6 0.828214 0.207002 0.649977
O O7 0.000000 0.500000 0.500000
O O8 0.920551 0.993374 0.266920
O O9 0.512254 0.255525 0.784873
O O10 0.500000 0.000000 0.500000
O O11 0.296624 0.864517 0.768822
O O12 0.192922 0.407546 0.547676
O O13 0.178854 0.456425 0.794028
O O14 0.052031 0.669152 0.939766
O O15 0.718853 0.638317 0.765599
O O16 0.802486 0.051002 0.780118
O O17 0.134677 0.446177 0.040386
#
# Coordination Sequence:
#
# PCOD9038870 Si02
#       8
#     2   2   2   2   2   2   2   2
#     4  10  23  42  64 105 136 174 226 280 346 408
#     4  11  27  49  68 101 138 174 230 288 336 411
#     4  11  21  39  68  97 132 176 226 277 338 398
#     4  11  25  44  65 102 139 181 231 284 328 417
#     4  10  24  41  69 101 134 180 224 278 347 404
#     4  11  21  44  68  98 139 178 225 279 342 403
#     4  11  28  46  68  98 140 184 232 273 348 401
#     4  11  26  44  71 100 135 182 223 283 344 402
#
# _framework density 21.895567
#
# number of rings (size 3 to 8) (size 9 to 14) (size 15 to 20)
#    0.000    1.250    3.750    1.875   10.500    2.000 
#    0.000    1.250    0.000    0.000    0.000    0.000 
#    0.000    0.000    0.000    0.000    0.000    0.000 
#
# Total GULP energy -89296.625940 kJ/mol
# GULP energy per Si atom -5581.039121 kJ/mol
# Density = 2.184573 g / cm^3
# Si number density = 21.895567 Si / 1000 Ang^3
#
#
#
# Elastic Constant Matrix: (Units=GPa)
#
#
# Indices 1 2 3 4 5 6 
#
# 1 46.3034 8.8091 22.3748 13.9399 -16.4086 -7.7398
# 2 8.8091 102.6272 35.3085 17.4691 -14.6837 -3.6803
# 3 22.3748 35.3085 120.8865 24.9865 -19.5767 -1.1752
# 4 13.9399 17.4691 24.9865 43.6303 -2.2343 -2.2000
# 5 -16.4086 -14.6837 -19.5767 -2.2343 33.7318 2.4250
# 6 -7.7398 -3.6803 -1.1752 -2.2000 2.4250 20.1641
#
#
#
# Elastic Compliance Matrix: (Units=1/GPa)
#
#
# Indices 1 2 3 4 5 6 
#
# 1 0.031198 0.001777 -0.002350 -0.008162 0.013350 0.009666
# 2 0.001777 0.011665 -0.002281 -0.003625 0.004251 0.001771
# 3 -0.002350 -0.002281 0.010936 -0.004475 0.004033 -0.001654
# 4 -0.008162 -0.003625 -0.004475 0.029218 -0.006202 -0.000122
# 5 0.013350 0.004251 0.004033 -0.006202 0.039872 0.000663
# 6 0.009666 0.001771 -0.001654 -0.000122 0.000663 0.053437
#
#
# Mechanical properties :
#
#
# Convention : Reuss Voigt Hill
#
# Bulk Modulus (GPa) = 20.79461 44.75578 32.77519
# Shear Modulus (GPa) = 25.24414 33.06022 29.15218
#
# Velocity S-wave (km/s) = 3.39917 3.88996 3.65282
# Velocity P-wave (km/s) = 4.99236 6.37658 5.72644
#
# Compressibility (1/GPa) = 0.04808938
#
# Stress axis : x y z
#
# Youngs Moduli (GPa) = 32.05300 85.72602 91.44497
#
# Poissons Ratio (x) = -0.15232 0.21494
# Poissons Ratio (y) = -0.05695 0.20860
# Poissons Ratio (z) = 0.07534 0.19555
#
# Static dielectric constant tensor:
#      x y z
#    x 1.846720 -0.013120 0.011440 
#    y -0.013120 1.761480 -0.001010 
#    z 0.011440 -0.001010 1.807850 
# 
# From -- ./inp_files/462554.got.cif
#   From: 2010.05.17/outbox.cif.g08.bks.cpg/sg2_232_cif.got.tgz:462554.got - 2010.06.03 11:33:40.
