data_PCOD9038912
_publ_section_title
;
Structure prediction by ZEFSAII (Michael W. Deem and Ramdas Pophale) SiO2 
 PCOD9038912
Probable space group: P -1
;
_chemical_formula_sum "Si O2"
_cell_formula_units_Z 16
_cell_length_a 7.774195
_cell_length_b 6.518095
_cell_length_c 17.886711
_cell_angle_alpha 98.435533
_cell_angle_beta 115.489088
_cell_angle_gamma 63.093297
_cell_volume 728.282177
_symmetry_space_group_name_H-M "P -1"
_symmetry_group_IT_number 2
_symmetry_cell_setting 'triclinic'
loop_
_space_group_symop_operation_xyz
x,y,z
-x,-y,-z
loop_
_atom_site_type_symbol
_atom_site_label
_atom_site_fract_x
_atom_site_fract_y
_atom_site_fract_z
Si Si1 0.566053 0.264449 0.395968
Si Si2 0.878298 0.790359 0.416974
Si Si3 0.954736 0.959888 0.180239
Si Si4 0.853845 0.505397 0.904430
Si Si5 0.804547 0.682673 0.241558
Si Si6 0.428834 0.553719 0.903606
Si Si7 0.315140 0.387406 0.502952
Si Si8 0.198529 0.234743 0.239360
O O1 0.465809 0.247751 0.456578
O O2 0.565237 0.512409 0.413380
O O3 0.417623 0.229772 0.305212
O O4 0.799681 0.063440 0.415344
O O5 0.761302 0.729578 0.323187
O O6 0.795538 0.736785 0.476575
O O7 0.124752 0.619733 0.446231
O O8 0.855825 0.883348 0.227416
O O9 0.035602 0.742213 0.128685
O O10 0.771916 0.196176 0.126128
O O11 0.151847 0.018151 0.236739
O O12 0.623804 0.553349 0.893678
O O13 0.836203 0.696995 0.850603
O O14 0.000000 0.500000 0.000000
O O15 0.639013 0.632490 0.157430
O O16 0.018953 0.447948 0.261099
O O17 0.500000 0.500000 0.000000
#
# Coordination Sequence:
#
# PCOD9038912 Si02
#       8
#     2   2   2   2   2   2   2   2
#     4  11  23  41  65  95 124 171 211 260 327 378
#     4  11  23  41  65  95 124 171 211 260 327 378
#     4  10  24  44  64  92 134 172 204 270 316 370
#     4  11  25  43  67  97 130 168 216 260 317 382
#     4  10  23  42  64  96 130 168 214 264 316 380
#     4  11  25  43  67  97 130 168 216 260 317 382
#     4  10  24  44  62  90 134 160 212 272 312 386
#     4  10  23  42  64  96 130 168 214 264 316 380
#
# _framework density 21.969505999999999
#
# number of rings (size 3 to 8) (size 9 to 14) (size 15 to 20)
#    0.000    1.500    1.250    3.000    5.250    6.000 
#    2.250    0.000    0.000    0.000    0.000    0.000 
#    0.000    0.000    0.000    0.000    0.000    0.000 
#
# Total GULP energy -89418.669033 kJ/mol
# GULP energy per Si atom -5588.666815 kJ/mol
# Density = 2.191950 g / cm^3
# Si number density = 21.969506 Si / 1000 Ang^3
#
#
#
# Elastic Constant Matrix: (Units=GPa)
#
#
# Indices 1 2 3 4 5 6 
#
# 1 76.3599 6.7471 6.3201 -0.8381 3.2905 -3.0629
# 2 6.7471 48.8476 19.9873 -3.6065 2.4010 0.5266
# 3 6.3201 19.9873 84.5940 13.0837 12.0123 2.9328
# 4 -0.8381 -3.6065 13.0837 11.5031 0.3633 2.6231
# 5 3.2905 2.4010 12.0123 0.3633 41.0247 5.7264
# 6 -3.0629 0.5266 2.9328 2.6231 5.7264 40.8657
#
#
#
# Elastic Compliance Matrix: (Units=1/GPa)
#
#
# Indices 1 2 3 4 5 6 
#
# 1 0.013382 -0.001424 -0.000747 0.001150 -0.000940 0.001133
# 2 -0.001424 0.025615 -0.008907 0.018280 0.001221 -0.001142
# 3 -0.000747 -0.008907 0.018282 -0.023703 -0.004691 0.000926
# 4 0.001150 0.018280 -0.023703 0.121130 0.005686 -0.007020
# 5 -0.000940 0.001221 -0.004691 0.005686 0.026232 -0.003790
# 6 0.001133 -0.001142 0.000926 -0.007020 -0.003790 0.025485
#
#
# Mechanical properties :
#
#
# Convention : Reuss Voigt Hill
#
# Bulk Modulus (GPa) = 28.47113 30.65672 29.56392
# Shear Modulus (GPa) = 18.94022 30.46183 24.70102
#
# Velocity S-wave (km/s) = 2.93936 3.72768 3.35674
# Velocity P-wave (km/s) = 4.95049 5.70193 5.33944
#
# Compressibility (1/GPa) = 0.03512330
#
# Stress axis : x y z
#
# Youngs Moduli (GPa) = 74.72691 39.03985 54.70009
#
# Poissons Ratio (x) = 0.05559 0.04086
# Poissons Ratio (y) = 0.10640 0.48719
# Poissons Ratio (z) = 0.05582 0.34771
#
# Static dielectric constant tensor:
#      x y z
#    x 1.813520 0.015940 0.029900 
#    y 0.015940 1.801980 -0.009700 
#    z 0.029900 -0.009700 1.817760 
# 
# From -- ./inp_files/348412.got.cif
#   From: 2010.05.17/outbox.cif.g08.bks.cpg/sg2_175_cif.got.tgz:348412.got - 2010.06.03 11:33:40.
