data_PCOD9038291
_publ_section_title
;
Structure prediction by ZEFSAII (Michael W. Deem and Ramdas Pophale) SiO2 
 PCOD9038291
Probable space group: P -1
;
_chemical_formula_sum "Si O2"
_cell_formula_units_Z 14
_cell_length_a 21.454318
_cell_length_b 14.273835
_cell_length_c 13.289533
_cell_angle_alpha 34.456286
_cell_angle_beta 22.317265
_cell_angle_gamma 22.172263
_cell_volume 568.381934
_symmetry_space_group_name_H-M "P -1"
_symmetry_group_IT_number 2
_symmetry_cell_setting 'triclinic'
loop_
_space_group_symop_operation_xyz
x,y,z
-x,-y,-z
loop_
_atom_site_type_symbol
_atom_site_label
_atom_site_fract_x
_atom_site_fract_y
_atom_site_fract_z
Si Si1 0.603306 0.605313 0.731136
Si Si2 0.007560 0.872018 0.007336
Si Si3 0.071620 0.098281 0.574287
Si Si4 0.559524 0.403219 0.660154
Si Si5 0.838729 0.457106 0.299545
Si Si6 0.644116 0.099952 0.968903
Si Si7 0.222858 0.194546 0.450946
O O1 0.656160 0.613976 0.529658
O O2 0.435912 0.844185 0.844200
O O3 0.885900 0.373664 0.560512
O O4 0.500000 0.500000 0.000000
O O5 0.839454 0.849141 0.312635
O O6 0.302406 0.598294 0.808119
O O7 0.930338 0.042937 0.878141
O O8 0.000000 0.000000 0.000000
O O9 0.205534 0.083497 0.481446
O O10 0.259658 0.870576 0.417263
O O11 0.677143 0.495958 0.416540
O O12 0.533513 0.350764 0.859151
O O13 0.000000 0.500000 0.000000
O O14 0.058249 0.152400 0.262415
O O15 0.492686 0.071584 0.164294
O O16 0.000000 0.500000 0.500000
#
# Coordination Sequence:
#
# PCOD9038291 Si02
#       7
#     2   2   2   2   2   2   2
#     4  12  24  45  78  98 137 194 237 281 357 422
#     4  10  23  41  68 100 138 183 235 286 350 422
#     4  11  24  42  69 105 135 187 231 287 356 417
#     4  12  23  47  69  99 143 187 233 287 355 422
#     4  12  30  47  71 108 142 183 242 301 346 419
#     4  12  24  46  73 100 144 186 235 289 351 431
#     4  11  22  42  68 105 139 179 233 290 352 417
#
# _framework density 24.631326000000001
#
# number of rings (size 3 to 8) (size 9 to 14) (size 15 to 20)
#    0.000    0.571    5.714    2.571    4.000    2.286 
#    2.571    0.000    0.000    0.000    0.000    0.000 
#    0.000    0.000    0.000    0.000    0.000    0.000 
#
# Total GULP energy -78332.694433 kJ/mol
# GULP energy per Si atom -5595.192460 kJ/mol
# Density = 2.457526 g / cm^3
# Si number density = 24.631326 Si / 1000 Ang^3
#
#
#
# Elastic Constant Matrix: (Units=GPa)
#
#
# Indices 1 2 3 4 5 6 
#
# 1 93.9693 19.8122 29.8416 4.4943 -0.9192 18.3922
# 2 19.8122 69.4431 5.3046 5.9703 11.5788 -5.1547
# 3 29.8416 5.3046 110.1305 -14.6344 -5.6028 11.4164
# 4 4.4943 5.9703 -14.6344 41.9124 8.4570 -0.1542
# 5 -0.9192 11.5788 -5.6028 8.4570 43.7510 7.0054
# 6 18.3922 -5.1547 11.4164 -0.1542 7.0054 43.0670
#
#
#
# Elastic Compliance Matrix: (Units=1/GPa)
#
#
# Indices 1 2 3 4 5 6 
#
# 1 0.013882 -0.004372 -0.003128 -0.002484 0.002495 -0.006037
# 2 -0.004372 0.017020 -0.000552 -0.001072 -0.005244 0.004900
# 3 -0.003128 -0.000552 0.010706 0.003952 0.000961 -0.001710
# 4 -0.002484 -0.001072 0.003952 0.026571 -0.004513 0.000714
# 5 0.002495 -0.005244 0.000961 -0.004513 0.026292 -0.006241
# 6 -0.006037 0.004900 -0.001710 0.000714 -0.006241 0.027855
#
#
# Mechanical properties :
#
#
# Convention : Reuss Voigt Hill
#
# Bulk Modulus (GPa) = 39.21199 42.60662 40.90930
# Shear Modulus (GPa) = 34.02924 40.31838 37.17381
#
# Velocity S-wave (km/s) = 3.72094 4.05022 3.88907
# Velocity P-wave (km/s) = 5.86640 6.26160 6.06722
#
# Compressibility (1/GPa) = 0.02550241
#
# Stress axis : x y z
#
# Youngs Moduli (GPa) = 72.03667 58.75378 93.40803
#
# Poissons Ratio (x) = 0.25688 0.29220
# Poissons Ratio (y) = 0.31495 0.05159
# Poissons Ratio (z) = 0.22534 0.03245
#
# Static dielectric constant tensor:
#      x y z
#    x 2.011780 -0.140600 0.028100 
#    y -0.140600 2.154190 -0.003280 
#    z 0.028100 -0.003280 2.024760 
# 
# From -- ./inp_files/243153.got.cif
#   From: 2010.05.17/outbox.cif.g08.bks.cpg/sg2_122_cif.got.tgz:243153.got - 2010.06.03 11:33:40.
