data_PCOD9038727
_publ_section_title
;
Structure prediction by ZEFSAII (Michael W. Deem and Ramdas Pophale) SiO2 
 PCOD9038727
Probable space group: P -1
;
_chemical_formula_sum "Si O2"
_cell_formula_units_Z 13
_cell_length_a 10.119197
_cell_length_b 10.377878
_cell_length_c 7.899295
_cell_angle_alpha 116.703884
_cell_angle_beta 132.716092
_cell_angle_gamma 78.767132
_cell_volume 536.775717
_symmetry_space_group_name_H-M "P -1"
_symmetry_group_IT_number 2
_symmetry_cell_setting 'triclinic'
loop_
_space_group_symop_operation_xyz
x,y,z
-x,-y,-z
loop_
_atom_site_type_symbol
_atom_site_label
_atom_site_fract_x
_atom_site_fract_y
_atom_site_fract_z
Si Si1 0.489644 0.828402 0.542937
Si Si2 0.609206 0.358315 0.323741
Si Si3 0.923728 0.869381 0.983701
Si Si4 0.991502 0.543536 0.819764
Si Si5 0.387333 0.552815 0.087050
Si Si6 0.420228 0.085293 0.826201
Si Si7 0.000000 0.000000 0.500000
O O1 0.392832 0.733501 0.560541
O O2 0.433068 0.723587 0.273973
O O3 0.436572 0.988162 0.616741
O O4 0.705113 0.843866 0.765856
O O5 0.807963 0.451835 0.529948
O O6 0.460482 0.465170 0.255407
O O7 0.546654 0.241507 0.051987
O O8 0.982889 0.918412 0.252814
O O9 0.986760 0.715998 0.905526
O O10 0.000000 0.000000 0.000000
O O11 0.000000 0.500000 0.000000
O O12 0.171141 0.508700 0.863306
O O13 0.500000 0.500000 0.000000
O O14 0.209424 0.085927 0.681645
O O15 0.500000 0.000000 0.000000
#
# Coordination Sequence:
#
# PCOD9038727 Si02
#       7
#     2   2   2   2   2   2   1
#     4  11  22  50  71 106 156 197 252 333 383 457
#     4  11  23  46  78 106 151 197 263 324 376 471
#     4  12  28  49  78 117 163 204 263 336 398 476
#     4  12  26  48  85 110 150 216 263 317 404 475
#     4  12  27  46  73 114 153 198 260 323 400 467
#     4  10  23  41  76 110 145 194 263 322 374 471
#     4  12  24  46  80 108 150 216 266 302 412 474
#
# _framework density 24.218682000000001
#
# number of rings (size 3 to 8) (size 9 to 14) (size 15 to 20)
#    0.000    0.615    6.154    2.308    2.154    3.077 
#    2.769    2.308    0.000    0.000    0.000    0.000 
#    0.000    0.000    0.000    0.000    0.000    0.000 
#
# Total GULP energy -72549.857140 kJ/mol
# GULP energy per Si atom -5580.758242 kJ/mol
# Density = 2.416356 g / cm^3
# Si number density = 24.218682 Si / 1000 Ang^3
#
#
#
# Elastic Constant Matrix: (Units=GPa)
#
#
# Indices 1 2 3 4 5 6 
#
# 1 152.4178 53.6533 87.0853 17.7205 0.2638 -24.2190
# 2 53.6533 125.2327 44.5732 34.3149 12.4875 -1.7775
# 3 87.0853 44.5732 186.0983 35.1394 24.2290 -14.0566
# 4 17.7205 34.3149 35.1394 39.8094 -11.7970 2.2347
# 5 0.2638 12.4875 24.2290 -11.7970 57.6412 -7.4487
# 6 -24.2190 -1.7775 -14.0566 2.2347 -7.4487 35.1527
#
#
#
# Elastic Compliance Matrix: (Units=1/GPa)
#
#
# Indices 1 2 3 4 5 6 
#
# 1 0.011890 -0.004925 -0.005510 0.004989 0.005192 0.006523
# 2 -0.004925 0.013648 0.002328 -0.013566 -0.006998 -0.002393
# 3 -0.005510 0.002328 0.010310 -0.010725 -0.007055 -0.000369
# 4 0.004989 -0.013566 -0.010725 0.049265 0.017379 -0.000987
# 5 0.005192 -0.006998 -0.007055 0.017379 0.025984 0.004803
# 6 0.006523 -0.002393 -0.000369 -0.000987 0.004803 0.033753
#
#
# Mechanical properties :
#
#
# Convention : Reuss Voigt Hill
#
# Bulk Modulus (GPa) = 50.93183 92.70804 71.81993
# Shear Modulus (GPa) = 29.83124 45.08310 37.45717
#
# Velocity S-wave (km/s) = 3.51343 4.31919 3.93698
# Velocity P-wave (km/s) = 6.12654 7.95214 7.09828
#
# Compressibility (1/GPa) = 0.01963409
#
# Stress axis : x y z
#
# Youngs Moduli (GPa) = 84.10334 73.27184 96.99323
#
# Poissons Ratio (x) = 0.36088 0.53440
# Poissons Ratio (y) = 0.41422 -0.22579
# Poissons Ratio (z) = 0.46338 -0.17057
#
# Static dielectric constant tensor:
#      x y z
#    x 1.934710 0.027380 -0.046630 
#    y 0.027380 1.909970 -0.011630 
#    z -0.046630 -0.011630 1.907400 
# 
# From -- ./inp_files/183460.got.cif
#   From: 2010.05.17/outbox.cif.g08.bks.cpg/sg2_92_cif.got.tgz:183460.got - 2010.06.03 11:33:40.
