data_PCOD9038214
_publ_section_title
;
Structure prediction by ZEFSAII (Michael W. Deem and Ramdas Pophale) SiO2 
 PCOD9038214
Probable space group: P -1
;
_chemical_formula_sum "Si O2"
_cell_formula_units_Z 13
_cell_length_a 10.048391
_cell_length_b 10.223095
_cell_length_c 9.226970
_cell_angle_alpha 51.749807
_cell_angle_beta 133.875001
_cell_angle_gamma 103.391992
_cell_volume 502.867235
_symmetry_space_group_name_H-M "P -1"
_symmetry_group_IT_number 2
_symmetry_cell_setting 'triclinic'
loop_
_space_group_symop_operation_xyz
x,y,z
-x,-y,-z
loop_
_atom_site_type_symbol
_atom_site_label
_atom_site_fract_x
_atom_site_fract_y
_atom_site_fract_z
Si Si1 0.267986 0.449083 0.608507
Si Si2 0.500000 0.500000 0.500000
Si Si3 0.152235 0.277624 0.904424
Si Si4 0.624777 0.075881 0.798419
Si Si5 0.508188 0.328865 0.286679
Si Si6 0.159087 0.797814 0.895098
Si Si7 0.261816 0.953396 0.582878
O O1 0.390592 0.388754 0.598229
O O2 0.194811 0.322883 0.739240
O O3 0.417173 0.507793 0.781996
O O4 0.076207 0.621514 0.313141
O O5 0.712856 0.394968 0.819676
O O6 0.235288 0.066017 0.112037
O O7 0.289093 0.345343 0.066508
O O8 0.555801 0.270771 0.533669
O O9 0.439717 0.015676 0.725636
O O10 0.754408 0.075956 0.033150
O O11 0.647800 0.172169 0.399091
O O12 0.927688 0.870610 0.705399
O O13 0.195032 0.836748 0.729455
#
# Coordination Sequence:
#
# PCOD9038214 Si02
#       7
#     2   1   2   2   2   2   2
#     4  11  24  42  62  94 132 172 203 267 325 381
#     4  12  24  40  64  92 138 166 208 262 330 380
#     4  10  23  41  67  93 127 165 221 258 317 387
#     4  11  22  40  69  94 122 164 217 268 311 374
#     4  11  22  40  69  94 122 164 217 268 311 374
#     4  11  24  42  62  94 132 172 203 267 325 381
#     4  10  23  41  67  93 127 165 221 258 317 387
#
# _framework density 25.851752000000001
#
# number of rings (size 3 to 8) (size 9 to 14) (size 15 to 20)
#    0.000    1.231    1.538    5.538    4.308    1.231 
#    0.000    6.154    0.000    0.000    0.000    0.000 
#    0.000    0.000    0.000    0.000    0.000    0.000 
#
# Total GULP energy -72618.226963 kJ/mol
# GULP energy per Si atom -5586.017459 kJ/mol
# Density = 2.579291 g / cm^3
# Si number density = 25.851752 Si / 1000 Ang^3
#
#
#
# Elastic Constant Matrix: (Units=GPa)
#
#
# Indices 1 2 3 4 5 6 
#
# 1 123.6016 1.4358 24.0450 14.8961 12.8988 -13.1950
# 2 1.4358 46.8682 3.4827 2.7653 12.7522 -4.4666
# 3 24.0450 3.4827 140.8134 -0.7146 34.8604 -13.4411
# 4 14.8961 2.7653 -0.7146 37.6988 1.4628 -9.5005
# 5 12.8988 12.7522 34.8604 1.4628 59.2301 -0.0756
# 6 -13.1950 -4.4666 -13.4411 -9.5005 -0.0756 15.5019
#
#
#
# Elastic Compliance Matrix: (Units=1/GPa)
#
#
# Indices 1 2 3 4 5 6 
#
# 1 0.009319 0.001001 -0.000547 -0.002063 -0.001864 0.006473
# 2 0.001001 0.023779 0.001722 0.000531 -0.006352 0.009491
# 3 -0.000547 0.001722 0.009626 0.003084 -0.005980 0.010238
# 4 -0.002063 0.000531 0.003084 0.032778 -0.002263 0.021149
# 5 -0.001864 -0.006352 -0.005980 -0.002263 0.022220 -0.009880
# 6 0.006473 0.009491 0.010238 0.021149 -0.009880 0.094543
#
#
# Mechanical properties :
#
#
# Convention : Reuss Voigt Hill
#
# Bulk Modulus (GPa) = 21.24221 41.02336 31.13279
# Shear Modulus (GPa) = 24.55729 41.30748 32.93239
#
# Velocity S-wave (km/s) = 3.08543 4.00166 3.57304
# Velocity P-wave (km/s) = 4.57471 6.10362 5.39362
#
# Compressibility (1/GPa) = 0.04707609
#
# Stress axis : x y z
#
# Youngs Moduli (GPa) = 107.30214 42.05335 103.88784
#
# Poissons Ratio (x) = -0.04209 0.05686
# Poissons Ratio (y) = -0.10739 -0.17892
# Poissons Ratio (z) = 0.05873 -0.07243
#
# Static dielectric constant tensor:
#      x y z
#    x 1.861760 0.065820 -0.079150 
#    y 0.065820 1.837880 0.021580 
#    z -0.079150 0.021580 2.007010 
# 
# From -- ./inp_files/184569.got.cif
#   From: 2010.05.17/outbox.cif.g08.bks.cpg/sg2_93_cif.got.tgz:184569.got - 2010.06.03 11:33:40.
