data_PCOD9038760
_publ_section_title
;
Structure prediction by ZEFSAII (Michael W. Deem and Ramdas Pophale) SiO2 
 PCOD9038760
Probable space group: P -1
;
_chemical_formula_sum "Si O2"
_cell_formula_units_Z 14
_cell_length_a 7.823270
_cell_length_b 13.495653
_cell_length_c 15.655547
_cell_angle_alpha 152.834142
_cell_angle_beta 52.310450
_cell_angle_gamma 114.677298
_cell_volume 559.435367
_symmetry_space_group_name_H-M "P -1"
_symmetry_group_IT_number 2
_symmetry_cell_setting 'triclinic'
loop_
_space_group_symop_operation_xyz
x,y,z
-x,-y,-z
loop_
_atom_site_type_symbol
_atom_site_label
_atom_site_fract_x
_atom_site_fract_y
_atom_site_fract_z
Si Si1 0.149630 0.392137 0.751054
Si Si2 0.779109 0.560960 0.677444
Si Si3 0.685633 0.317975 0.192283
Si Si4 0.481354 0.877542 0.294906
Si Si5 0.734414 0.049487 0.134866
Si Si6 0.656349 0.465659 0.033421
Si Si7 0.148537 0.928175 0.696202
O O1 0.202723 0.485914 0.715074
O O2 0.247139 0.530644 0.898117
O O3 0.288092 0.125866 0.528808
O O4 0.883851 0.427023 0.875486
O O5 0.552149 0.612663 0.730649
O O6 0.000000 0.500000 0.500000
O O7 0.825959 0.326691 0.537704
O O8 0.723527 0.799182 0.927661
O O9 0.625721 0.248715 0.251937
O O10 0.884700 0.084010 0.915987
O O11 0.475142 0.713749 0.250414
O O12 0.720314 0.922294 0.274207
O O13 0.452782 0.725162 0.105943
O O14 0.705953 0.115729 0.292610
O O15 0.000000 0.000000 0.000000
#
# Coordination Sequence:
#
# PCOD9038760 Si02
#       7
#     2   2   2   2   2   2   2
#     4  11  22  43  63  97 124 165 208 258 318 372
#     4  12  23  42  64  90 125 173 210 255 313 373
#     4  11  23  41  65  91 131 165 208 261 308 376
#     4  11  22  43  66  92 123 167 209 258 314 375
#     4  10  23  42  61  92 127 164 211 257 304 375
#     4  10  24  41  68  90 129 161 209 266 314 363
#     4  11  24  43  62  92 131 166 211 261 309 373
#
# _framework density 25.025231999999999
#
# number of rings (size 3 to 8) (size 9 to 14) (size 15 to 20)
#    0.000    1.143    5.714    1.286    2.000    0.571 
#    0.000    2.857    0.000    0.000    0.000    0.000 
#    0.000    0.000    0.000    0.000    0.000    0.000 
#
# Total GULP energy -78211.681469 kJ/mol
# GULP energy per Si atom -5586.548676 kJ/mol
# Density = 2.496827 g / cm^3
# Si number density = 25.025232 Si / 1000 Ang^3
#
#
#
# Elastic Constant Matrix: (Units=GPa)
#
#
# Indices 1 2 3 4 5 6 
#
# 1 63.2679 20.0626 40.3855 5.2684 -4.8330 16.4829
# 2 20.0626 122.3072 46.0075 5.6367 -1.5428 6.4086
# 3 40.3855 46.0075 132.9361 32.4129 -11.9991 3.9342
# 4 5.2684 5.6367 32.4129 34.8085 3.4528 -1.4935
# 5 -4.8330 -1.5428 -11.9991 3.4528 48.1867 2.3748
# 6 16.4829 6.4086 3.9342 -1.4935 2.3748 27.1102
#
#
#
# Elastic Compliance Matrix: (Units=1/GPa)
#
#
# Indices 1 2 3 4 5 6 
#
# 1 0.023922 -0.000634 -0.007159 0.002471 0.001075 -0.013314
# 2 -0.000634 0.009613 -0.003643 0.001955 -0.000745 -0.001186
# 3 -0.007159 -0.003643 0.014034 -0.011634 0.003383 0.002240
# 4 0.002471 0.001955 -0.011634 0.039523 -0.005536 0.002386
# 5 0.001075 -0.000745 0.003383 -0.005536 0.022235 -0.003221
# 6 -0.013314 -0.001186 0.002240 0.002386 -0.003221 0.045350
#
#
# Mechanical properties :
#
#
# Convention : Reuss Voigt Hill
#
# Bulk Modulus (GPa) = 40.49169 59.04695 49.76932
# Shear Modulus (GPa) = 26.91345 36.15815 31.53580
#
# Velocity S-wave (km/s) = 3.28297 3.80527 3.55372
# Velocity P-wave (km/s) = 5.53046 6.55385 6.06378
#
# Compressibility (1/GPa) = 0.02469642
#
# Stress axis : x y z
#
# Youngs Moduli (GPa) = 41.80314 104.02410 71.25550
#
# Poissons Ratio (x) = 0.06591 0.51015
# Poissons Ratio (y) = 0.02649 0.25960
# Poissons Ratio (z) = 0.29928 0.37898
#
# Static dielectric constant tensor:
#      x y z
#    x 1.957110 -0.066930 0.031490 
#    y -0.066930 2.194740 -0.013870 
#    z 0.031490 -0.013870 1.928620 
# 
# From -- ./inp_files/291721.got.cif
#   From: 2010.05.17/outbox.cif.g08.bks.cpg/sg2_146_cif.got.tgz:291721.got - 2010.06.03 11:33:40.
