data_PCOD9038375
_publ_section_title
;
Structure prediction by ZEFSAII (Michael W. Deem and Ramdas Pophale) SiO2 
 PCOD9038375
Probable space group: P -1
;
_chemical_formula_sum "Si O2"
_cell_formula_units_Z 14
_cell_length_a 21.490984
_cell_length_b 7.319984
_cell_length_c 27.085846
_cell_angle_alpha 129.155668
_cell_angle_beta 11.259835
_cell_angle_gamma 131.508319
_cell_volume 618.014995
_symmetry_space_group_name_H-M "P -1"
_symmetry_group_IT_number 2
_symmetry_cell_setting 'triclinic'
loop_
_space_group_symop_operation_xyz
x,y,z
-x,-y,-z
loop_
_atom_site_type_symbol
_atom_site_label
_atom_site_fract_x
_atom_site_fract_y
_atom_site_fract_z
Si Si1 0.853637 0.850325 0.539214
Si Si2 0.810376 0.098823 0.047446
Si Si3 0.276945 0.035825 0.531334
Si Si4 0.767030 0.055728 0.234296
Si Si5 0.650207 0.292543 0.724840
Si Si6 0.774921 0.535119 0.833802
Si Si7 0.881014 0.379170 0.937331
O O1 0.495853 0.653334 0.791973
O O2 0.099463 0.706070 0.301622
O O3 0.762409 0.051437 0.610667
O O4 0.000000 0.000000 0.500000
O O5 0.577066 0.161608 0.282377
O O6 0.590633 0.826918 0.154020
O O7 0.872602 0.283783 0.984402
O O8 0.150386 0.083972 0.806247
O O9 0.077658 0.766933 0.622127
O O10 0.413173 0.995410 0.472838
O O11 0.028887 0.199571 0.759133
O O12 0.892403 0.345253 0.195876
O O13 0.000000 0.000000 0.000000
O O14 0.000000 0.500000 0.500000
O O15 0.392718 0.382258 0.974407
O O16 0.500000 0.500000 0.000000
#
# Coordination Sequence:
#
# PCOD9038375 Si02
#       7
#     2   2   2   2   2   2   2
#     4  11  22  39  67  96 130 184 216 277 346 393
#     4  10  23  44  65  99 137 176 226 284 333 401
#     4  11  22  43  69  98 133 182 226 278 345 397
#     4  10  23  41  68  98 134 183 225 281 340 401
#     4  11  24  42  64 100 138 171 230 279 335 414
#     4  12  22  43  70  96 137 179 219 284 342 403
#     4  11  23  45  65  99 140 173 234 279 336 408
#
# _framework density 22.653172000000001
#
# number of rings (size 3 to 8) (size 9 to 14) (size 15 to 20)
#    0.000    1.143    4.286    3.000    2.000    3.429 
#    5.143    0.000    0.000    0.000    0.000    0.000 
#    0.000    0.000    0.000    0.000    0.000    0.000 
#
# Total GULP energy -78158.430982 kJ/mol
# GULP energy per Si atom -5582.745070 kJ/mol
# Density = 2.260161 g / cm^3
# Si number density = 22.653172 Si / 1000 Ang^3
#
#
#
# Elastic Constant Matrix: (Units=GPa)
#
#
# Indices 1 2 3 4 5 6 
#
# 1 65.5550 2.4913 14.3523 10.0663 -11.5023 8.8979
# 2 2.4913 91.9618 24.8794 19.8003 -12.5203 -0.5443
# 3 14.3523 24.8794 107.5874 32.4592 -7.1416 1.0983
# 4 10.0663 19.8003 32.4592 53.7062 12.4824 -5.1646
# 5 -11.5023 -12.5203 -7.1416 12.4824 44.1440 -7.0988
# 6 8.8979 -0.5443 1.0983 -5.1646 -7.0988 33.0367
#
#
#
# Elastic Compliance Matrix: (Units=1/GPa)
#
#
# Indices 1 2 3 4 5 6 
#
# 1 0.017749 0.001599 -0.000738 -0.005219 0.005741 -0.004312
# 2 0.001599 0.013141 -0.001150 -0.005738 0.005601 0.000131
# 3 -0.000738 -0.001150 0.012228 -0.007714 0.003533 -0.000674
# 4 -0.005219 -0.005738 -0.007714 0.029512 -0.012001 0.003602
# 5 0.005741 0.005601 0.003533 -0.012001 0.030192 0.003040
# 6 -0.004312 0.000131 -0.000674 0.003602 0.003040 0.032672
#
#
# Mechanical properties :
#
#
# Convention : Reuss Voigt Hill
#
# Bulk Modulus (GPa) = 23.50766 38.72780 31.11773
# Shear Modulus (GPa) = 33.27764 41.06945 37.17355
#
# Velocity S-wave (km/s) = 3.83692 4.26251 4.05530
# Velocity P-wave (km/s) = 5.47987 6.43105 5.97442
#
# Compressibility (1/GPa) = 0.04253932
#
# Stress axis : x y z
#
# Youngs Moduli (GPa) = 56.34049 76.09846 81.78086
#
# Poissons Ratio (x) = -0.12166 0.06032
# Poissons Ratio (y) = -0.09007 0.09407
# Poissons Ratio (z) = 0.04156 0.08754
#
# Static dielectric constant tensor:
#      x y z
#    x 1.905000 0.009100 0.007120 
#    y 0.009100 1.840780 -0.062890 
#    z 0.007120 -0.062890 1.777080 
# 
# From -- ./inp_files/624137.got.cif
#   From: 2010.05.17/outbox.cif.g08.bks.cpg/sg2_313_cif.got.tgz:624137.got - 2010.06.03 11:33:40.
