data_PCOD9038099
_publ_section_title
;
Structure prediction by ZEFSAII (Michael W. Deem and Ramdas Pophale) SiO2 
 PCOD9038099
Probable space group: P -1
;
_chemical_formula_sum "Si O2"
_cell_formula_units_Z 16
_cell_length_a 13.491701
_cell_length_b 11.346616
_cell_length_c 11.947881
_cell_angle_alpha 99.833826
_cell_angle_beta 39.231332
_cell_angle_gamma 70.804056
_cell_volume 766.718021
_symmetry_space_group_name_H-M "P -1"
_symmetry_group_IT_number 2
_symmetry_cell_setting 'triclinic'
loop_
_space_group_symop_operation_xyz
x,y,z
-x,-y,-z
loop_
_atom_site_type_symbol
_atom_site_label
_atom_site_fract_x
_atom_site_fract_y
_atom_site_fract_z
Si Si1 0.546154 0.103322 0.720038
Si Si2 0.750103 0.960456 0.974811
Si Si3 0.754467 0.081403 0.764751
Si Si4 0.674740 0.662189 0.489062
Si Si5 0.591475 0.420769 0.028750
Si Si6 0.739292 0.350127 0.437858
Si Si7 0.614165 0.635889 0.298258
Si Si8 0.991790 0.694391 0.235178
O O1 0.620336 0.120683 0.775816
O O2 0.451736 0.249140 0.734597
O O3 0.357620 0.107740 0.912879
O O4 0.779090 0.905846 0.437810
O O5 0.566774 0.158665 0.217487
O O6 0.778010 0.963793 0.817173
O O7 0.998824 0.834590 0.795039
O O8 0.625643 0.259865 0.972684
O O9 0.000000 0.000000 0.500000
O O10 0.726673 0.493181 0.429994
O O11 0.664917 0.689393 0.368753
O O12 0.873351 0.635600 0.362113
O O13 0.406328 0.566793 0.305689
O O14 0.500000 0.500000 0.000000
O O15 0.835605 0.347207 0.830642
O O16 0.600091 0.332424 0.482934
O O17 0.839956 0.428901 0.036327
#
# Coordination Sequence:
#
# PCOD9038099 Si02
#       8
#     2   2   2   2   2   2   2   2
#     4  11  24  42  66  99 132 172 222 266 325 390
#     4  11  25  42  64  98 136 171 215 269 331 387
#     4  12  21  41  67  93 135 168 213 269 323 392
#     4  11  24  45  65  96 135 172 217 276 324 384
#     4  11  22  40  64  95 128 172 219 261 323 391
#     4  11  24  41  63  95 133 168 219 269 324 388
#     4  11  24  42  69  96 128 176 224 267 323 385
#     4  10  23  41  66  94 130 167 221 264 326 381
#
# _framework density 20.868167
#
# number of rings (size 3 to 8) (size 9 to 14) (size 15 to 20)
#    0.000    1.000    2.500    4.875    0.000    3.500 
#    0.000    1.250    0.000    0.000    0.000    0.000 
#    0.000    0.000    0.000    0.000    0.000    0.000 
#
# Total GULP energy -89439.044979 kJ/mol
# GULP energy per Si atom -5589.940311 kJ/mol
# Density = 2.082067 g / cm^3
# Si number density = 20.868167 Si / 1000 Ang^3
#
#
#
# Elastic Constant Matrix: (Units=GPa)
#
#
# Indices 1 2 3 4 5 6 
#
# 1 81.7174 29.2377 28.4228 -1.0547 -0.4938 0.0556
# 2 29.2377 94.6594 17.7728 -11.1654 -9.4397 3.8424
# 3 28.4228 17.7728 108.6559 4.7470 -16.2313 0.8335
# 4 -1.0547 -11.1654 4.7470 13.2020 0.3180 1.6206
# 5 -0.4938 -9.4397 -16.2313 0.3180 30.0406 -3.5036
# 6 0.0556 3.8424 0.8335 1.6206 -3.5036 27.7199
#
#
#
# Elastic Compliance Matrix: (Units=1/GPa)
#
#
# Indices 1 2 3 4 5 6 
#
# 1 0.015046 -0.004431 -0.003615 -0.001219 -0.003041 0.000380
# 2 -0.004431 0.013992 -0.001144 0.012079 0.003323 -0.002182
# 3 -0.003615 -0.001144 0.011462 -0.005632 0.005939 0.000901
# 4 -0.001219 0.012079 -0.005632 0.088751 -0.001002 -0.006818
# 5 -0.003041 0.003323 0.005939 -0.001002 0.037995 0.004228
# 6 0.000380 -0.002182 0.000901 -0.006818 0.004228 0.037283
#
#
# Mechanical properties :
#
#
# Convention : Reuss Voigt Hill
#
# Bulk Modulus (GPa) = 45.20701 48.43326 46.82013
# Shear Modulus (GPa) = 21.71248 28.16579 24.93914
#
# Velocity S-wave (km/s) = 3.22911 3.67781 3.46074
# Velocity P-wave (km/s) = 5.96767 6.42609 6.20112
#
# Compressibility (1/GPa) = 0.02212046
#
# Stress axis : x y z
#
# Youngs Moduli (GPa) = 66.46466 71.46756 87.24149
#
# Poissons Ratio (x) = 0.31667 0.31537
# Poissons Ratio (y) = 0.29450 0.09982
# Poissons Ratio (z) = 0.24026 0.08177
#
# Static dielectric constant tensor:
#      x y z
#    x 1.736770 0.027610 0.000000 
#    y 0.027610 1.788820 -0.002680 
#    z 0.000000 -0.002680 1.747670 
# 
# From -- ./inp_files/279026.got.cif
#   From: 2010.05.17/outbox.cif.g08.bks.cpg/sg2_140_cif.got.tgz:279026.got - 2010.06.03 11:33:40.
